MODEL 1
REMARK VINA RESULT:    -4.449      0.000      0.000
REMARK INTER + INTRA:         -13.696
REMARK INTER:                 -10.170
REMARK INTRA:                  -3.526
REMARK UNBOUND:                -3.526
REMARK SMILES CCCCCCCCCCCCCCCCCCCCCCCC(=O)[O-]
REMARK SMILES IDX 13 1 14 2 15 3 16 4 17 5 18 6 19 7 20 8 21 9 22 10 23 11
REMARK SMILES IDX 24 12 25 13 26 14 12 15 11 16 10 17 9 18 8 19 7 20 6 21 5 22
REMARK SMILES IDX 4 23 3 24 2 25 1 26
REMARK H PARENT
REMARK Flexibility Score: inf
ROOT
ATOM      1  C   UNL     1     -24.341  -7.804  -6.689  1.00  0.00     0.000 C 
ENDROOT
BRANCH   1   2
ATOM      2  C   UNL     1     -23.074  -6.938  -6.562  1.00  0.00     0.000 C 
BRANCH   2   3
ATOM      3  C   UNL     1     -21.960  -7.273  -7.570  1.00  0.00     0.000 C 
BRANCH   3   4
ATOM      4  C   UNL     1     -22.330  -8.436  -8.506  1.00  0.00     0.000 C 
BRANCH   4   5
ATOM      5  C   UNL     1     -21.550  -9.721  -8.186  1.00  0.00     0.000 C 
BRANCH   5   6
ATOM      6  C   UNL     1     -22.326 -10.661  -7.246  1.00  0.00     0.000 C 
BRANCH   6   7
ATOM      7  C   UNL     1     -21.408 -11.421  -6.275  1.00  0.00     0.000 C 
BRANCH   7   8
ATOM      8  C   UNL     1     -21.429 -10.828  -4.856  1.00  0.00     0.000 C 
BRANCH   8   9
ATOM      9  C   UNL     1     -20.434  -9.667  -4.678  1.00  0.00     0.000 C 
BRANCH   9  10
ATOM     10  C   UNL     1     -19.054 -10.064  -4.112  1.00  0.00     0.006 C 
BRANCH  10  11
ATOM     11  C   UNL     1     -18.085 -10.657  -5.146  1.00  0.00     0.053 C 
BRANCH  11  12
ATOM     12  C   UNL     1     -17.818  -9.706  -6.272  1.00  0.00     0.041 C 
ATOM     13  O   UNL     1     -18.138 -10.013  -7.451  1.00  0.00    -0.550 OA
ATOM     14  O   UNL     1     -17.181  -8.497  -6.025  1.00  0.00    -0.550 OA
ENDBRANCH  11  12
ENDBRANCH  10  11
ENDBRANCH   9  10
ENDBRANCH   8   9
ENDBRANCH   7   8
ENDBRANCH   6   7
ENDBRANCH   5   6
ENDBRANCH   4   5
ENDBRANCH   3   4
ENDBRANCH   2   3
ENDBRANCH   1   2
BRANCH   1  15
ATOM     15  C   UNL     1     -24.709  -8.517  -5.376  1.00  0.00     0.000 C 
BRANCH  15  16
ATOM     16  C   UNL     1     -23.814  -8.092  -4.200  1.00  0.00     0.000 C 
BRANCH  16  17
ATOM     17  C   UNL     1     -24.628  -7.604  -2.988  1.00  0.00     0.000 C 
BRANCH  17  18
ATOM     18  C   UNL     1     -26.031  -7.116  -3.381  1.00  0.00    -0.000 C 
BRANCH  18  19
ATOM     19  C   UNL     1     -26.064  -5.616  -3.721  1.00  0.00    -0.000 C 
BRANCH  19  20
ATOM     20  C   UNL     1     -26.855  -5.311  -5.006  1.00  0.00    -0.000 C 
BRANCH  20  21
ATOM     21  C   UNL     1     -26.032  -4.657  -6.132  1.00  0.00    -0.000 C 
BRANCH  21  22
ATOM     22  C   UNL     1     -25.347  -3.353  -5.694  1.00  0.00    -0.000 C 
BRANCH  22  23
ATOM     23  C   UNL     1     -26.384  -2.249  -5.438  1.00  0.00    -0.000 C 
BRANCH  23  24
ATOM     24  C   UNL     1     -25.899  -1.203  -4.421  1.00  0.00    -0.000 C 
BRANCH  24  25
ATOM     25  C   UNL     1     -24.960  -1.799  -3.363  1.00  0.00    -0.003 C 
ATOM     26  C   UNL     1     -25.730  -2.198  -2.107  1.00  0.00     0.004 C 
ENDBRANCH  24  25
ENDBRANCH  23  24
ENDBRANCH  22  23
ENDBRANCH  21  22
ENDBRANCH  20  21
ENDBRANCH  19  20
ENDBRANCH  18  19
ENDBRANCH  17  18
ENDBRANCH  16  17
ENDBRANCH  15  16
ENDBRANCH   1  15
TORSDOF 22
ENDMDL
MODEL 2
REMARK VINA RESULT:    -4.415      0.945      2.243
REMARK INTER + INTRA:         -13.619
REMARK INTER:                  -9.805
REMARK INTRA:                  -3.814
REMARK UNBOUND:                -3.526
REMARK SMILES CCCCCCCCCCCCCCCCCCCCCCCC(=O)[O-]
REMARK SMILES IDX 13 1 14 2 15 3 16 4 17 5 18 6 19 7 20 8 21 9 22 10 23 11
REMARK SMILES IDX 24 12 25 13 26 14 12 15 11 16 10 17 9 18 8 19 7 20 6 21 5 22
REMARK SMILES IDX 4 23 3 24 2 25 1 26
REMARK H PARENT
REMARK Flexibility Score: inf
ROOT
ATOM      1  C   UNL     1     -21.898  -7.396  -6.916  1.00  0.00     0.000 C 
ENDROOT
BRANCH   1   2
ATOM      2  C   UNL     1     -22.219  -8.458  -7.983  1.00  0.00     0.000 C 
BRANCH   2   3
ATOM      3  C   UNL     1     -21.500  -9.805  -7.791  1.00  0.00     0.000 C 
BRANCH   3   4
ATOM      4  C   UNL     1     -22.352 -10.835  -7.029  1.00  0.00     0.000 C 
BRANCH   4   5
ATOM      5  C   UNL     1     -21.587 -11.490  -5.869  1.00  0.00     0.000 C 
BRANCH   5   6
ATOM      6  C   UNL     1     -21.927 -10.857  -4.508  1.00  0.00     0.000 C 
BRANCH   6   7
ATOM      7  C   UNL     1     -20.903  -9.797  -4.073  1.00  0.00     0.000 C 
BRANCH   7   8
ATOM      8  C   UNL     1     -19.465 -10.164  -4.478  1.00  0.00     0.000 C 
BRANCH   8   9
ATOM      9  C   UNL     1     -18.540  -8.937  -4.581  1.00  0.00     0.000 C 
BRANCH   9  10
ATOM     10  C   UNL     1     -17.434  -9.034  -5.652  1.00  0.00     0.006 C 
BRANCH  10  11
ATOM     11  C   UNL     1     -17.859  -9.743  -6.947  1.00  0.00     0.053 C 
BRANCH  11  12
ATOM     12  C   UNL     1     -18.110  -8.772  -8.060  1.00  0.00     0.041 C 
ATOM     13  O   UNL     1     -18.096  -9.162  -9.257  1.00  0.00    -0.550 OA
ATOM     14  O   UNL     1     -18.321  -7.429  -7.776  1.00  0.00    -0.550 OA
ENDBRANCH  11  12
ENDBRANCH  10  11
ENDBRANCH   9  10
ENDBRANCH   8   9
ENDBRANCH   7   8
ENDBRANCH   6   7
ENDBRANCH   5   6
ENDBRANCH   4   5
ENDBRANCH   3   4
ENDBRANCH   2   3
ENDBRANCH   1   2
BRANCH   1  15
ATOM     15  C   UNL     1     -23.144  -6.943  -6.133  1.00  0.00     0.000 C 
BRANCH  15  16
ATOM     16  C   UNL     1     -24.357  -7.856  -6.370  1.00  0.00     0.000 C 
BRANCH  16  17
ATOM     17  C   UNL     1     -24.764  -8.633  -5.105  1.00  0.00     0.000 C 
BRANCH  17  18
ATOM     18  C   UNL     1     -24.178  -8.019  -3.824  1.00  0.00    -0.000 C 
BRANCH  18  19
ATOM     19  C   UNL     1     -25.248  -7.359  -2.940  1.00  0.00    -0.000 C 
BRANCH  19  20
ATOM     20  C   UNL     1     -25.599  -5.929  -3.390  1.00  0.00    -0.000 C 
BRANCH  20  21
ATOM     21  C   UNL     1     -26.861  -5.818  -4.266  1.00  0.00    -0.000 C 
BRANCH  21  22
ATOM     22  C   UNL     1     -26.665  -4.905  -5.486  1.00  0.00    -0.000 C 
BRANCH  22  23
ATOM     23  C   UNL     1     -25.657  -3.787  -5.178  1.00  0.00    -0.000 C 
BRANCH  23  24
ATOM     24  C   UNL     1     -26.176  -2.395  -5.573  1.00  0.00    -0.000 C 
BRANCH  24  25
ATOM     25  C   UNL     1     -26.020  -1.365  -4.446  1.00  0.00    -0.003 C 
ATOM     26  C   UNL     1     -25.565  -2.032  -3.151  1.00  0.00     0.004 C 
ENDBRANCH  24  25
ENDBRANCH  23  24
ENDBRANCH  22  23
ENDBRANCH  21  22
ENDBRANCH  20  21
ENDBRANCH  19  20
ENDBRANCH  18  19
ENDBRANCH  17  18
ENDBRANCH  16  17
ENDBRANCH  15  16
ENDBRANCH   1  15
TORSDOF 22
ENDMDL
MODEL 3
REMARK VINA RESULT:    -4.388      1.913      4.192
REMARK INTER + INTRA:         -13.558
REMARK INTER:                  -9.621
REMARK INTRA:                  -3.938
REMARK UNBOUND:                -3.526
REMARK SMILES CCCCCCCCCCCCCCCCCCCCCCCC(=O)[O-]
REMARK SMILES IDX 13 1 14 2 15 3 16 4 17 5 18 6 19 7 20 8 21 9 22 10 23 11
REMARK SMILES IDX 24 12 25 13 26 14 12 15 11 16 10 17 9 18 8 19 7 20 6 21 5 22
REMARK SMILES IDX 4 23 3 24 2 25 1 26
REMARK H PARENT
REMARK Flexibility Score: inf
ROOT
ATOM      1  C   UNL     1     -21.387  -7.873  -7.530  1.00  0.00     0.000 C 
ENDROOT
BRANCH   1   2
ATOM      2  C   UNL     1     -22.167  -8.937  -8.324  1.00  0.00     0.000 C 
BRANCH   2   3
ATOM      3  C   UNL     1     -22.360 -10.277  -7.591  1.00  0.00     0.000 C 
BRANCH   3   4
ATOM      4  C   UNL     1     -21.029 -10.931  -7.180  1.00  0.00     0.000 C 
BRANCH   4   5
ATOM      5  C   UNL     1     -20.931 -11.165  -5.665  1.00  0.00     0.000 C 
BRANCH   5   6
ATOM      6  C   UNL     1     -19.858 -10.284  -5.001  1.00  0.00     0.000 C 
BRANCH   6   7
ATOM      7  C   UNL     1     -18.482 -10.966  -4.939  1.00  0.00     0.000 C 
BRANCH   7   8
ATOM      8  C   UNL     1     -17.502 -10.413  -5.988  1.00  0.00     0.000 C 
BRANCH   8   9
ATOM      9  C   UNL     1     -17.483  -8.874  -6.038  1.00  0.00     0.000 C 
BRANCH   9  10
ATOM     10  C   UNL     1     -17.843  -8.256  -7.405  1.00  0.00     0.006 C 
BRANCH  10  11
ATOM     11  C   UNL     1     -18.101  -9.280  -8.521  1.00  0.00     0.053 C 
BRANCH  11  12
ATOM     12  C   UNL     1     -18.133  -8.637  -9.874  1.00  0.00     0.041 C 
ATOM     13  O   UNL     1     -18.878  -7.644 -10.087  1.00  0.00    -0.550 OA
ATOM     14  O   UNL     1     -17.368  -9.158 -10.910  1.00  0.00    -0.550 OA
ENDBRANCH  11  12
ENDBRANCH  10  11
ENDBRANCH   9  10
ENDBRANCH   8   9
ENDBRANCH   7   8
ENDBRANCH   6   7
ENDBRANCH   5   6
ENDBRANCH   4   5
ENDBRANCH   3   4
ENDBRANCH   2   3
ENDBRANCH   1   2
BRANCH   1  15
ATOM     15  C   UNL     1     -22.196  -6.583  -7.309  1.00  0.00     0.000 C 
BRANCH  15  16
ATOM     16  C   UNL     1     -23.685  -6.751  -7.650  1.00  0.00     0.000 C 
BRANCH  16  17
ATOM     17  C   UNL     1     -24.601  -5.982  -6.681  1.00  0.00     0.000 C 
BRANCH  17  18
ATOM     18  C   UNL     1     -26.048  -6.502  -6.703  1.00  0.00    -0.000 C 
BRANCH  18  19
ATOM     19  C   UNL     1     -26.979  -5.702  -5.776  1.00  0.00    -0.000 C 
BRANCH  19  20
ATOM     20  C   UNL     1     -26.217  -4.726  -4.860  1.00  0.00    -0.000 C 
BRANCH  20  21
ATOM     21  C   UNL     1     -26.225  -5.102  -3.366  1.00  0.00    -0.000 C 
BRANCH  21  22
ATOM     22  C   UNL     1     -24.932  -5.797  -2.916  1.00  0.00    -0.000 C 
BRANCH  22  23
ATOM     23  C   UNL     1     -25.083  -7.324  -2.971  1.00  0.00    -0.000 C 
BRANCH  23  24
ATOM     24  C   UNL     1     -23.730  -8.054  -2.991  1.00  0.00    -0.000 C 
BRANCH  24  25
ATOM     25  C   UNL     1     -23.407  -8.662  -4.364  1.00  0.00    -0.003 C 
ATOM     26  C   UNL     1     -24.618  -9.389  -4.941  1.00  0.00     0.004 C 
ENDBRANCH  24  25
ENDBRANCH  23  24
ENDBRANCH  22  23
ENDBRANCH  21  22
ENDBRANCH  20  21
ENDBRANCH  19  20
ENDBRANCH  18  19
ENDBRANCH  17  18
ENDBRANCH  16  17
ENDBRANCH  15  16
ENDBRANCH   1  15
TORSDOF 22
ENDMDL
MODEL 4
REMARK VINA RESULT:    -4.322      1.888      3.377
REMARK INTER + INTRA:         -13.406
REMARK INTER:                  -8.783
REMARK INTRA:                  -4.624
REMARK UNBOUND:                -3.526
REMARK SMILES CCCCCCCCCCCCCCCCCCCCCCCC(=O)[O-]
REMARK SMILES IDX 13 1 14 2 15 3 16 4 17 5 18 6 19 7 20 8 21 9 22 10 23 11
REMARK SMILES IDX 24 12 25 13 26 14 12 15 11 16 10 17 9 18 8 19 7 20 6 21 5 22
REMARK SMILES IDX 4 23 3 24 2 25 1 26
REMARK H PARENT
REMARK Flexibility Score: inf
ROOT
ATOM      1  C   UNL     1     -23.744  -9.304  -4.114  1.00  0.00     0.000 C 
ENDROOT
BRANCH   1   2
ATOM      2  C   UNL     1     -24.585  -8.879  -5.331  1.00  0.00     0.000 C 
BRANCH   2   3
ATOM      3  C   UNL     1     -23.947  -9.188  -6.697  1.00  0.00     0.000 C 
BRANCH   3   4
ATOM      4  C   UNL     1     -22.455  -9.547  -6.593  1.00  0.00     0.000 C 
BRANCH   4   5
ATOM      5  C   UNL     1     -22.179 -11.022  -6.926  1.00  0.00     0.000 C 
BRANCH   5   6
ATOM      6  C   UNL     1     -21.183 -11.669  -5.947  1.00  0.00     0.000 C 
BRANCH   6   7
ATOM      7  C   UNL     1     -20.444 -10.637  -5.081  1.00  0.00     0.000 C 
BRANCH   7   8
ATOM      8  C   UNL     1     -18.915 -10.785  -5.163  1.00  0.00     0.000 C 
BRANCH   8   9
ATOM      9  C   UNL     1     -18.248  -9.666  -5.983  1.00  0.00     0.000 C 
BRANCH   9  10
ATOM     10  C   UNL     1     -18.323  -9.839  -7.514  1.00  0.00     0.006 C 
BRANCH  10  11
ATOM     11  C   UNL     1     -19.211  -8.810  -8.231  1.00  0.00     0.053 C 
BRANCH  11  12
ATOM     12  C   UNL     1     -18.421  -7.640  -8.732  1.00  0.00     0.041 C 
ATOM     13  O   UNL     1     -18.275  -6.618  -8.011  1.00  0.00    -0.550 OA
ATOM     14  O   UNL     1     -17.878  -7.664 -10.010  1.00  0.00    -0.550 OA
ENDBRANCH  11  12
ENDBRANCH  10  11
ENDBRANCH   9  10
ENDBRANCH   8   9
ENDBRANCH   7   8
ENDBRANCH   6   7
ENDBRANCH   5   6
ENDBRANCH   4   5
ENDBRANCH   3   4
ENDBRANCH   2   3
ENDBRANCH   1   2
BRANCH   1  15
ATOM     15  C   UNL     1     -23.674  -8.216  -3.028  1.00  0.00     0.000 C 
BRANCH  15  16
ATOM     16  C   UNL     1     -24.953  -7.366  -2.958  1.00  0.00     0.000 C 
BRANCH  16  17
ATOM     17  C   UNL     1     -24.653  -5.865  -2.792  1.00  0.00     0.000 C 
BRANCH  17  18
ATOM     18  C   UNL     1     -25.683  -4.977  -3.509  1.00  0.00    -0.000 C 
BRANCH  18  19
ATOM     19  C   UNL     1     -26.804  -5.791  -4.178  1.00  0.00    -0.000 C 
BRANCH  19  20
ATOM     20  C   UNL     1     -26.936  -5.500  -5.684  1.00  0.00    -0.000 C 
BRANCH  20  21
ATOM     21  C   UNL     1     -25.717  -4.803  -6.318  1.00  0.00    -0.000 C 
BRANCH  21  22
ATOM     22  C   UNL     1     -24.875  -5.745  -7.191  1.00  0.00    -0.000 C 
BRANCH  22  23
ATOM     23  C   UNL     1     -23.394  -5.339  -7.164  1.00  0.00    -0.000 C 
BRANCH  23  24
ATOM     24  C   UNL     1     -22.696  -5.727  -5.850  1.00  0.00    -0.000 C 
BRANCH  24  25
ATOM     25  C   UNL     1     -21.221  -6.102  -6.053  1.00  0.00    -0.003 C 
ATOM     26  C   UNL     1     -20.702  -6.938  -4.886  1.00  0.00     0.004 C 
ENDBRANCH  24  25
ENDBRANCH  23  24
ENDBRANCH  22  23
ENDBRANCH  21  22
ENDBRANCH  20  21
ENDBRANCH  19  20
ENDBRANCH  18  19
ENDBRANCH  17  18
ENDBRANCH  16  17
ENDBRANCH  15  16
ENDBRANCH   1  15
TORSDOF 22
ENDMDL
MODEL 5
REMARK VINA RESULT:    -4.308      2.890      7.526
REMARK INTER + INTRA:         -13.375
REMARK INTER:                  -9.031
REMARK INTRA:                  -4.343
REMARK UNBOUND:                -3.526
REMARK SMILES CCCCCCCCCCCCCCCCCCCCCCCC(=O)[O-]
REMARK SMILES IDX 13 1 14 2 15 3 16 4 17 5 18 6 19 7 20 8 21 9 22 10 23 11
REMARK SMILES IDX 24 12 25 13 26 14 12 15 11 16 10 17 9 18 8 19 7 20 6 21 5 22
REMARK SMILES IDX 4 23 3 24 2 25 1 26
REMARK H PARENT
REMARK Flexibility Score: inf
ROOT
ATOM      1  C   UNL     1     -22.749  -8.983  -4.171  1.00  0.00     0.000 C 
ENDROOT
BRANCH   1   2
ATOM      2  C   UNL     1     -24.249  -9.142  -4.482  1.00  0.00     0.000 C 
BRANCH   2   3
ATOM      3  C   UNL     1     -24.702  -8.518  -5.814  1.00  0.00     0.000 C 
BRANCH   3   4
ATOM      4  C   UNL     1     -23.870  -7.287  -6.212  1.00  0.00     0.000 C 
BRANCH   4   5
ATOM      5  C   UNL     1     -24.445  -6.557  -7.436  1.00  0.00     0.000 C 
BRANCH   5   6
ATOM      6  C   UNL     1     -25.346  -5.372  -7.045  1.00  0.00     0.000 C 
BRANCH   6   7
ATOM      7  C   UNL     1     -26.776  -5.806  -6.688  1.00  0.00     0.000 C 
BRANCH   7   8
ATOM      8  C   UNL     1     -27.101  -5.600  -5.198  1.00  0.00     0.000 C 
BRANCH   8   9
ATOM      9  C   UNL     1     -25.996  -4.838  -4.444  1.00  0.00     0.000 C 
BRANCH   9  10
ATOM     10  C   UNL     1     -25.612  -5.425  -3.070  1.00  0.00     0.006 C 
BRANCH  10  11
ATOM     11  C   UNL     1     -24.108  -5.674  -2.878  1.00  0.00     0.053 C 
BRANCH  11  12
ATOM     12  C   UNL     1     -23.826  -6.466  -1.638  1.00  0.00     0.041 C 
ATOM     13  O   UNL     1     -22.877  -6.138  -0.878  1.00  0.00    -0.550 OA
ATOM     14  O   UNL     1     -24.587  -7.590  -1.343  1.00  0.00    -0.550 OA
ENDBRANCH  11  12
ENDBRANCH  10  11
ENDBRANCH   9  10
ENDBRANCH   8   9
ENDBRANCH   7   8
ENDBRANCH   6   7
ENDBRANCH   5   6
ENDBRANCH   4   5
ENDBRANCH   3   4
ENDBRANCH   2   3
ENDBRANCH   1   2
BRANCH   1  15
ATOM     15  C   UNL     1     -22.086 -10.305  -3.745  1.00  0.00     0.000 C 
BRANCH  15  16
ATOM     16  C   UNL     1     -22.163 -11.385  -4.837  1.00  0.00     0.000 C 
BRANCH  16  17
ATOM     17  C   UNL     1     -21.378 -10.997  -6.103  1.00  0.00     0.000 C 
BRANCH  17  18
ATOM     18  C   UNL     1     -22.298 -10.721  -7.303  1.00  0.00    -0.000 C 
BRANCH  18  19
ATOM     19  C   UNL     1     -21.754  -9.617  -8.226  1.00  0.00    -0.000 C 
BRANCH  19  20
ATOM     20  C   UNL     1     -20.730  -8.704  -7.527  1.00  0.00    -0.000 C 
BRANCH  20  21
ATOM     21  C   UNL     1     -19.348  -8.645  -8.205  1.00  0.00    -0.000 C 
BRANCH  21  22
ATOM     22  C   UNL     1     -18.422  -9.794  -7.778  1.00  0.00    -0.000 C 
BRANCH  22  23
ATOM     23  C   UNL     1     -17.665  -9.437  -6.490  1.00  0.00    -0.000 C 
BRANCH  23  24
ATOM     24  C   UNL     1     -17.943 -10.424  -5.345  1.00  0.00    -0.000 C 
BRANCH  24  25
ATOM     25  C   UNL     1     -18.457  -9.728  -4.077  1.00  0.00    -0.003 C 
ATOM     26  C   UNL     1     -18.935  -8.312  -4.383  1.00  0.00     0.004 C 
ENDBRANCH  24  25
ENDBRANCH  23  24
ENDBRANCH  22  23
ENDBRANCH  21  22
ENDBRANCH  20  21
ENDBRANCH  19  20
ENDBRANCH  18  19
ENDBRANCH  17  18
ENDBRANCH  16  17
ENDBRANCH  15  16
ENDBRANCH   1  15
TORSDOF 22
ENDMDL
MODEL 6
REMARK VINA RESULT:    -4.269      2.055      3.015
REMARK INTER + INTRA:         -13.285
REMARK INTER:                  -9.137
REMARK INTRA:                  -4.148
REMARK UNBOUND:                -3.526
REMARK SMILES CCCCCCCCCCCCCCCCCCCCCCCC(=O)[O-]
REMARK SMILES IDX 13 1 14 2 15 3 16 4 17 5 18 6 19 7 20 8 21 9 22 10 23 11
REMARK SMILES IDX 24 12 25 13 26 14 12 15 11 16 10 17 9 18 8 19 7 20 6 21 5 22
REMARK SMILES IDX 4 23 3 24 2 25 1 26
REMARK H PARENT
REMARK Flexibility Score: inf
ROOT
ATOM      1  C   UNL     1     -23.128  -5.420  -3.593  1.00  0.00     0.000 C 
ENDROOT
BRANCH   1   2
ATOM      2  C   UNL     1     -22.583  -6.514  -4.528  1.00  0.00     0.000 C 
BRANCH   2   3
ATOM      3  C   UNL     1     -22.728  -6.210  -6.030  1.00  0.00     0.000 C 
BRANCH   3   4
ATOM      4  C   UNL     1     -22.663  -7.474  -6.905  1.00  0.00     0.000 C 
BRANCH   4   5
ATOM      5  C   UNL     1     -23.847  -8.423  -6.659  1.00  0.00     0.000 C 
BRANCH   5   6
ATOM      6  C   UNL     1     -23.519  -9.881  -7.027  1.00  0.00     0.000 C 
BRANCH   6   7
ATOM      7  C   UNL     1     -22.232 -10.010  -7.857  1.00  0.00     0.000 C 
BRANCH   7   8
ATOM      8  C   UNL     1     -21.116 -10.754  -7.104  1.00  0.00     0.000 C 
BRANCH   8   9
ATOM      9  C   UNL     1     -21.550 -11.228  -5.705  1.00  0.00     0.000 C 
BRANCH   9  10
ATOM     10  C   UNL     1     -21.036 -10.370  -4.531  1.00  0.00     0.006 C 
BRANCH  10  11
ATOM     11  C   UNL     1     -22.108  -9.991  -3.498  1.00  0.00     0.053 C 
BRANCH  11  12
ATOM     12  C   UNL     1     -21.505  -9.454  -2.236  1.00  0.00     0.041 C 
ATOM     13  O   UNL     1     -22.091  -8.546  -1.589  1.00  0.00    -0.550 OA
ATOM     14  O   UNL     1     -20.277  -9.930  -1.795  1.00  0.00    -0.550 OA
ENDBRANCH  11  12
ENDBRANCH  10  11
ENDBRANCH   9  10
ENDBRANCH   8   9
ENDBRANCH   7   8
ENDBRANCH   6   7
ENDBRANCH   5   6
ENDBRANCH   4   5
ENDBRANCH   3   4
ENDBRANCH   2   3
ENDBRANCH   1   2
BRANCH   1  15
ATOM     15  C   UNL     1     -24.282  -5.916  -2.704  1.00  0.00     0.000 C 
BRANCH  15  16
ATOM     16  C   UNL     1     -24.857  -7.262  -3.176  1.00  0.00     0.000 C 
BRANCH  16  17
ATOM     17  C   UNL     1     -26.019  -7.088  -4.170  1.00  0.00     0.000 C 
BRANCH  17  18
ATOM     18  C   UNL     1     -26.770  -5.761  -3.970  1.00  0.00    -0.000 C 
BRANCH  18  19
ATOM     19  C   UNL     1     -27.130  -5.078  -5.300  1.00  0.00    -0.000 C 
BRANCH  19  20
ATOM     20  C   UNL     1     -25.891  -4.693  -6.129  1.00  0.00    -0.000 C 
BRANCH  20  21
ATOM     21  C   UNL     1     -25.301  -3.307  -5.806  1.00  0.00    -0.000 C 
BRANCH  21  22
ATOM     22  C   UNL     1     -26.377  -2.254  -5.502  1.00  0.00    -0.000 C 
BRANCH  22  23
ATOM     23  C   UNL     1     -26.002  -1.429  -4.262  1.00  0.00    -0.000 C 
BRANCH  23  24
ATOM     24  C   UNL     1     -25.176  -2.231  -3.244  1.00  0.00    -0.000 C 
BRANCH  24  25
ATOM     25  C   UNL     1     -25.892  -2.389  -1.895  1.00  0.00    -0.003 C 
ATOM     26  C   UNL     1     -24.896  -2.667  -0.773  1.00  0.00     0.004 C 
ENDBRANCH  24  25
ENDBRANCH  23  24
ENDBRANCH  22  23
ENDBRANCH  21  22
ENDBRANCH  20  21
ENDBRANCH  19  20
ENDBRANCH  18  19
ENDBRANCH  17  18
ENDBRANCH  16  17
ENDBRANCH  15  16
ENDBRANCH   1  15
TORSDOF 22
ENDMDL
MODEL 7
REMARK VINA RESULT:    -4.256      1.620      3.048
REMARK INTER + INTRA:         -13.256
REMARK INTER:                  -8.803
REMARK INTRA:                  -4.453
REMARK UNBOUND:                -3.526
REMARK SMILES CCCCCCCCCCCCCCCCCCCCCCCC(=O)[O-]
REMARK SMILES IDX 13 1 14 2 15 3 16 4 17 5 18 6 19 7 20 8 21 9 22 10 23 11
REMARK SMILES IDX 24 12 25 13 26 14 12 15 11 16 10 17 9 18 8 19 7 20 6 21 5 22
REMARK SMILES IDX 4 23 3 24 2 25 1 26
REMARK H PARENT
REMARK Flexibility Score: inf
ROOT
ATOM      1  C   UNL     1     -24.329  -7.346  -6.683  1.00  0.00     0.000 C 
ENDROOT
BRANCH   1   2
ATOM      2  C   UNL     1     -24.258  -8.860  -6.410  1.00  0.00     0.000 C 
BRANCH   2   3
ATOM      3  C   UNL     1     -24.707  -9.283  -5.000  1.00  0.00     0.000 C 
BRANCH   3   4
ATOM      4  C   UNL     1     -23.562  -9.876  -4.160  1.00  0.00     0.000 C 
BRANCH   4   5
ATOM      5  C   UNL     1     -22.793  -8.804  -3.372  1.00  0.00     0.000 C 
BRANCH   5   6
ATOM      6  C   UNL     1     -21.344  -8.639  -3.865  1.00  0.00     0.000 C 
BRANCH   6   7
ATOM      7  C   UNL     1     -20.483  -9.885  -3.608  1.00  0.00     0.000 C 
BRANCH   7   8
ATOM      8  C   UNL     1     -19.762 -10.376  -4.875  1.00  0.00     0.000 C 
BRANCH   8   9
ATOM      9  C   UNL     1     -20.676 -11.192  -5.806  1.00  0.00     0.000 C 
BRANCH   9  10
ATOM     10  C   UNL     1     -21.001 -10.525  -7.159  1.00  0.00     0.006 C 
BRANCH  10  11
ATOM     11  C   UNL     1     -20.363  -9.142  -7.359  1.00  0.00     0.053 C 
BRANCH  11  12
ATOM     12  C   UNL     1     -19.218  -9.188  -8.324  1.00  0.00     0.041 C 
ATOM     13  O   UNL     1     -18.226  -9.930  -8.096  1.00  0.00    -0.550 OA
ATOM     14  O   UNL     1     -19.229  -8.383  -9.455  1.00  0.00    -0.550 OA
ENDBRANCH  11  12
ENDBRANCH  10  11
ENDBRANCH   9  10
ENDBRANCH   8   9
ENDBRANCH   7   8
ENDBRANCH   6   7
ENDBRANCH   5   6
ENDBRANCH   4   5
ENDBRANCH   3   4
ENDBRANCH   2   3
ENDBRANCH   1   2
BRANCH   1  15
ATOM     15  C   UNL     1     -25.770  -6.841  -6.870  1.00  0.00     0.000 C 
BRANCH  15  16
ATOM     16  C   UNL     1     -26.125  -5.692  -5.912  1.00  0.00     0.000 C 
BRANCH  16  17
ATOM     17  C   UNL     1     -26.593  -6.198  -4.536  1.00  0.00     0.000 C 
BRANCH  17  18
ATOM     18  C   UNL     1     -26.108  -5.302  -3.385  1.00  0.00    -0.000 C 
BRANCH  18  19
ATOM     19  C   UNL     1     -24.749  -5.747  -2.818  1.00  0.00    -0.000 C 
BRANCH  19  20
ATOM     20  C   UNL     1     -23.629  -4.724  -3.079  1.00  0.00    -0.000 C 
BRANCH  20  21
ATOM     21  C   UNL     1     -22.753  -5.022  -4.310  1.00  0.00    -0.000 C 
BRANCH  21  22
ATOM     22  C   UNL     1     -22.940  -3.999  -5.440  1.00  0.00    -0.000 C 
BRANCH  22  23
ATOM     23  C   UNL     1     -23.606  -2.718  -4.916  1.00  0.00    -0.000 C 
BRANCH  23  24
ATOM     24  C   UNL     1     -24.774  -2.253  -5.799  1.00  0.00    -0.000 C 
BRANCH  24  25
ATOM     25  C   UNL     1     -26.045  -1.956  -4.989  1.00  0.00    -0.003 C 
ATOM     26  C   UNL     1     -25.706  -1.615  -3.541  1.00  0.00     0.004 C 
ENDBRANCH  24  25
ENDBRANCH  23  24
ENDBRANCH  22  23
ENDBRANCH  21  22
ENDBRANCH  20  21
ENDBRANCH  19  20
ENDBRANCH  18  19
ENDBRANCH  17  18
ENDBRANCH  16  17
ENDBRANCH  15  16
ENDBRANCH   1  15
TORSDOF 22
ENDMDL
MODEL 8
REMARK VINA RESULT:    -4.246      3.539      7.894
REMARK INTER + INTRA:         -13.233
REMARK INTER:                  -9.041
REMARK INTRA:                  -4.192
REMARK UNBOUND:                -3.526
REMARK SMILES CCCCCCCCCCCCCCCCCCCCCCCC(=O)[O-]
REMARK SMILES IDX 13 1 14 2 15 3 16 4 17 5 18 6 19 7 20 8 21 9 22 10 23 11
REMARK SMILES IDX 24 12 25 13 26 14 12 15 11 16 10 17 9 18 8 19 7 20 6 21 5 22
REMARK SMILES IDX 4 23 3 24 2 25 1 26
REMARK H PARENT
REMARK Flexibility Score: inf
ROOT
ATOM      1  C   UNL     1     -22.381  -8.510  -2.344  1.00  0.00     0.000 C 
ENDROOT
BRANCH   1   2
ATOM      2  C   UNL     1     -23.324  -7.412  -2.868  1.00  0.00     0.000 C 
BRANCH   2   3
ATOM      3  C   UNL     1     -24.803  -7.593  -2.483  1.00  0.00     0.000 C 
BRANCH   3   4
ATOM      4  C   UNL     1     -25.749  -7.524  -3.695  1.00  0.00     0.000 C 
BRANCH   4   5
ATOM      5  C   UNL     1     -25.069  -7.967  -5.000  1.00  0.00     0.000 C 
BRANCH   5   6
ATOM      6  C   UNL     1     -25.269  -6.953  -6.141  1.00  0.00     0.000 C 
BRANCH   6   7
ATOM      7  C   UNL     1     -26.397  -5.950  -5.855  1.00  0.00     0.000 C 
BRANCH   7   8
ATOM      8  C   UNL     1     -25.885  -4.506  -5.724  1.00  0.00     0.000 C 
BRANCH   8   9
ATOM      9  C   UNL     1     -24.401  -4.431  -5.317  1.00  0.00     0.000 C 
BRANCH   9  10
ATOM     10  C   UNL     1     -24.125  -3.752  -3.960  1.00  0.00     0.006 C 
BRANCH  10  11
ATOM     11  C   UNL     1     -25.254  -3.900  -2.929  1.00  0.00     0.053 C 
BRANCH  11  12
ATOM     12  C   UNL     1     -25.692  -2.575  -2.384  1.00  0.00     0.041 C 
ATOM     13  O   UNL     1     -25.873  -2.427  -1.146  1.00  0.00    -0.550 OA
ATOM     14  O   UNL     1     -25.936  -1.515  -3.247  1.00  0.00    -0.550 OA
ENDBRANCH  11  12
ENDBRANCH  10  11
ENDBRANCH   9  10
ENDBRANCH   8   9
ENDBRANCH   7   8
ENDBRANCH   6   7
ENDBRANCH   5   6
ENDBRANCH   4   5
ENDBRANCH   3   4
ENDBRANCH   2   3
ENDBRANCH   1   2
BRANCH   1  15
ATOM     15  C   UNL     1     -21.527  -9.143  -3.456  1.00  0.00     0.000 C 
BRANCH  15  16
ATOM     16  C   UNL     1     -22.246 -10.301  -4.169  1.00  0.00     0.000 C 
BRANCH  16  17
ATOM     17  C   UNL     1     -21.283 -11.169  -4.999  1.00  0.00     0.000 C 
BRANCH  17  18
ATOM     18  C   UNL     1     -21.755 -11.346  -6.451  1.00  0.00    -0.000 C 
BRANCH  18  19
ATOM     19  C   UNL     1     -22.678 -10.208  -6.918  1.00  0.00    -0.000 C 
BRANCH  19  20
ATOM     20  C   UNL     1     -22.312  -9.677  -8.316  1.00  0.00    -0.000 C 
BRANCH  20  21
ATOM     21  C   UNL     1     -21.283  -8.531  -8.325  1.00  0.00    -0.000 C 
BRANCH  21  22
ATOM     22  C   UNL     1     -21.114  -7.867  -6.950  1.00  0.00    -0.000 C 
BRANCH  22  23
ATOM     23  C   UNL     1     -19.663  -7.986  -6.459  1.00  0.00    -0.000 C 
BRANCH  23  24
ATOM     24  C   UNL     1     -18.799  -8.871  -7.372  1.00  0.00    -0.000 C 
BRANCH  24  25
ATOM     25  C   UNL     1     -18.147 -10.038  -6.617  1.00  0.00    -0.003 C 
ATOM     26  C   UNL     1     -17.893  -9.675  -5.157  1.00  0.00     0.004 C 
ENDBRANCH  24  25
ENDBRANCH  23  24
ENDBRANCH  22  23
ENDBRANCH  21  22
ENDBRANCH  20  21
ENDBRANCH  19  20
ENDBRANCH  18  19
ENDBRANCH  17  18
ENDBRANCH  16  17
ENDBRANCH  15  16
ENDBRANCH   1  15
TORSDOF 22
ENDMDL
MODEL 9
REMARK VINA RESULT:    -4.223      3.004      7.590
REMARK INTER + INTRA:         -13.180
REMARK INTER:                  -8.834
REMARK INTRA:                  -4.346
REMARK UNBOUND:                -3.526
REMARK SMILES CCCCCCCCCCCCCCCCCCCCCCCC(=O)[O-]
REMARK SMILES IDX 13 1 14 2 15 3 16 4 17 5 18 6 19 7 20 8 21 9 22 10 23 11
REMARK SMILES IDX 24 12 25 13 26 14 12 15 11 16 10 17 9 18 8 19 7 20 6 21 5 22
REMARK SMILES IDX 4 23 3 24 2 25 1 26
REMARK H PARENT
REMARK Flexibility Score: inf
ROOT
ATOM      1  C   UNL     1     -22.372 -10.914  -4.780  1.00  0.00     0.000 C 
ENDROOT
BRANCH   1   2
ATOM      2  C   UNL     1     -22.187  -9.601  -3.999  1.00  0.00     0.000 C 
BRANCH   2   3
ATOM      3  C   UNL     1     -23.092  -8.443  -4.458  1.00  0.00     0.000 C 
BRANCH   3   4
ATOM      4  C   UNL     1     -24.514  -8.903  -4.822  1.00  0.00     0.000 C 
BRANCH   4   5
ATOM      5  C   UNL     1     -24.944  -8.439  -6.222  1.00  0.00     0.000 C 
BRANCH   5   6
ATOM      6  C   UNL     1     -24.688  -6.938  -6.449  1.00  0.00     0.000 C 
BRANCH   6   7
ATOM      7  C   UNL     1     -25.908  -6.209  -7.035  1.00  0.00     0.000 C 
BRANCH   7   8
ATOM      8  C   UNL     1     -26.889  -5.733  -5.950  1.00  0.00     0.000 C 
BRANCH   8   9
ATOM      9  C   UNL     1     -26.257  -4.726  -4.971  1.00  0.00     0.000 C 
BRANCH   9  10
ATOM     10  C   UNL     1     -26.242  -5.167  -3.493  1.00  0.00     0.006 C 
BRANCH  10  11
ATOM     11  C   UNL     1     -24.869  -5.625  -2.977  1.00  0.00     0.053 C 
BRANCH  11  12
ATOM     12  C   UNL     1     -24.116  -4.508  -2.321  1.00  0.00     0.041 C 
ATOM     13  O   UNL     1     -23.939  -4.509  -1.074  1.00  0.00    -0.550 OA
ATOM     14  O   UNL     1     -23.643  -3.448  -3.083  1.00  0.00    -0.550 OA
ENDBRANCH  11  12
ENDBRANCH  10  11
ENDBRANCH   9  10
ENDBRANCH   8   9
ENDBRANCH   7   8
ENDBRANCH   6   7
ENDBRANCH   5   6
ENDBRANCH   4   5
ENDBRANCH   3   4
ENDBRANCH   2   3
ENDBRANCH   1   2
BRANCH   1  15
ATOM     15  C   UNL     1     -21.075 -11.394  -5.455  1.00  0.00     0.000 C 
BRANCH  15  16
ATOM     16  C   UNL     1     -21.090 -11.194  -6.979  1.00  0.00     0.000 C 
BRANCH  16  17
ATOM     17  C   UNL     1     -22.434 -10.638  -7.485  1.00  0.00     0.000 C 
BRANCH  17  18
ATOM     18  C   UNL     1     -22.259  -9.395  -8.372  1.00  0.00    -0.000 C 
BRANCH  18  19
ATOM     19  C   UNL     1     -20.903  -8.701  -8.159  1.00  0.00    -0.000 C 
BRANCH  19  20
ATOM     20  C   UNL     1     -21.035  -7.332  -7.466  1.00  0.00    -0.000 C 
BRANCH  20  21
ATOM     21  C   UNL     1     -19.753  -6.832  -6.773  1.00  0.00    -0.000 C 
BRANCH  21  22
ATOM     22  C   UNL     1     -19.710  -7.171  -5.276  1.00  0.00    -0.000 C 
BRANCH  22  23
ATOM     23  C   UNL     1     -18.795  -8.377  -5.013  1.00  0.00    -0.000 C 
BRANCH  23  24
ATOM     24  C   UNL     1     -17.765  -8.596  -6.133  1.00  0.00    -0.000 C 
BRANCH  24  25
ATOM     25  C   UNL     1     -17.603 -10.076  -6.506  1.00  0.00    -0.003 C 
ATOM     26  C   UNL     1     -17.616 -10.960  -5.262  1.00  0.00     0.004 C 
ENDBRANCH  24  25
ENDBRANCH  23  24
ENDBRANCH  22  23
ENDBRANCH  21  22
ENDBRANCH  20  21
ENDBRANCH  19  20
ENDBRANCH  18  19
ENDBRANCH  17  18
ENDBRANCH  16  17
ENDBRANCH  15  16
ENDBRANCH   1  15
TORSDOF 22
ENDMDL
