MODEL 1
REMARK VINA RESULT:    -3.123      0.000      0.000
REMARK INTER + INTRA:          -3.556
REMARK INTER:                  -3.489
REMARK INTRA:                  -0.067
REMARK UNBOUND:                -0.067
REMARK SMILES CCCC(=O)[O-]
REMARK SMILES IDX 3 1 4 2 5 3 6 4 2 5 1 6
REMARK H PARENT
REMARK Flexibility Score: inf
ROOT
ATOM      1  C   UNL     1      -9.025   4.863  -9.210  1.00  0.00     0.052 C 
ENDROOT
BRANCH   1   2
ATOM      2  C   UNL     1      -8.253   3.791  -8.507  1.00  0.00     0.041 C 
ATOM      3  O   UNL     1      -8.355   3.651  -7.261  1.00  0.00    -0.550 OA
ATOM      4  O   UNL     1      -7.383   2.979  -9.223  1.00  0.00    -0.550 OA
ENDBRANCH   1   2
BRANCH   1   5
ATOM      5  C   UNL     1      -8.740   6.229  -8.580  1.00  0.00     0.003 C 
ATOM      6  C   UNL     1      -7.364   6.746  -8.986  1.00  0.00     0.004 C 
ENDBRANCH   1   5
TORSDOF 2
ENDMDL
MODEL 2
REMARK VINA RESULT:    -3.093      1.208      1.502
REMARK INTER + INTRA:          -3.522
REMARK INTER:                  -3.493
REMARK INTRA:                  -0.029
REMARK UNBOUND:                -0.067
REMARK SMILES CCCC(=O)[O-]
REMARK SMILES IDX 3 1 4 2 5 3 6 4 2 5 1 6
REMARK H PARENT
REMARK Flexibility Score: inf
ROOT
ATOM      1  C   UNL     1      -9.372   4.905  -7.926  1.00  0.00     0.052 C 
ENDROOT
BRANCH   1   2
ATOM      2  C   UNL     1      -8.390   3.780  -8.006  1.00  0.00     0.041 C 
ATOM      3  O   UNL     1      -7.171   4.016  -8.209  1.00  0.00    -0.550 OA
ATOM      4  O   UNL     1      -8.830   2.466  -7.906  1.00  0.00    -0.550 OA
ENDBRANCH   1   2
BRANCH   1   5
ATOM      5  C   UNL     1      -8.733   6.210  -8.411  1.00  0.00     0.003 C 
ATOM      6  C   UNL     1      -9.502   6.794  -9.592  1.00  0.00     0.004 C 
ENDBRANCH   1   5
TORSDOF 2
ENDMDL
MODEL 3
REMARK VINA RESULT:    -2.991      2.412      2.647
REMARK INTER + INTRA:          -3.409
REMARK INTER:                  -3.370
REMARK INTRA:                  -0.038
REMARK UNBOUND:                -0.067
REMARK SMILES CCCC(=O)[O-]
REMARK SMILES IDX 3 1 4 2 5 3 6 4 2 5 1 6
REMARK H PARENT
REMARK Flexibility Score: inf
ROOT
ATOM      1  C   UNL     1      -8.956   2.562  -8.434  1.00  0.00     0.052 C 
ENDROOT
BRANCH   1   2
ATOM      2  C   UNL     1      -7.999   2.667  -9.579  1.00  0.00     0.041 C 
ATOM      3  O   UNL     1      -7.016   1.885  -9.658  1.00  0.00    -0.550 OA
ATOM      4  O   UNL     1      -8.165   3.663 -10.534  1.00  0.00    -0.550 OA
ENDBRANCH   1   2
BRANCH   1   5
ATOM      5  C   UNL     1      -8.833   3.783  -7.519  1.00  0.00     0.003 C 
ATOM      6  C   UNL     1     -10.041   4.703  -7.663  1.00  0.00     0.004 C 
ENDBRANCH   1   5
TORSDOF 2
ENDMDL
MODEL 4
REMARK VINA RESULT:    -2.916      2.445      3.260
REMARK INTER + INTRA:          -3.324
REMARK INTER:                  -3.268
REMARK INTRA:                  -0.056
REMARK UNBOUND:                -0.067
REMARK SMILES CCCC(=O)[O-]
REMARK SMILES IDX 3 1 4 2 5 3 6 4 2 5 1 6
REMARK H PARENT
REMARK Flexibility Score: inf
ROOT
ATOM      1  C   UNL     1      -9.504   6.766  -9.443  1.00  0.00     0.052 C 
ENDROOT
BRANCH   1   2
ATOM      2  C   UNL     1      -8.035   6.696  -9.712  1.00  0.00     0.041 C 
ATOM      3  O   UNL     1      -7.611   6.208 -10.792  1.00  0.00    -0.550 OA
ATOM      4  O   UNL     1      -7.131   7.125  -8.748  1.00  0.00    -0.550 OA
ENDBRANCH   1   2
BRANCH   1   5
ATOM      5  C   UNL     1     -10.070   5.366  -9.193  1.00  0.00     0.003 C 
ATOM      6  C   UNL     1      -9.584   4.805  -7.860  1.00  0.00     0.004 C 
ENDBRANCH   1   5
TORSDOF 2
ENDMDL
MODEL 5
REMARK VINA RESULT:    -2.842     17.947     19.081
REMARK INTER + INTRA:          -3.242
REMARK INTER:                  -3.174
REMARK INTRA:                  -0.068
REMARK UNBOUND:                -0.067
REMARK SMILES CCCC(=O)[O-]
REMARK SMILES IDX 3 1 4 2 5 3 6 4 2 5 1 6
REMARK H PARENT
REMARK Flexibility Score: inf
ROOT
ATOM      1  C   UNL     1      -0.113 -13.052  -9.118  1.00  0.00     0.052 C 
ENDROOT
BRANCH   1   2
ATOM      2  C   UNL     1       0.723 -12.640 -10.288  1.00  0.00     0.041 C 
ATOM      3  O   UNL     1       1.736 -11.913 -10.118  1.00  0.00    -0.550 OA
ATOM      4  O   UNL     1       0.354 -13.018 -11.573  1.00  0.00    -0.550 OA
ENDBRANCH   1   2
BRANCH   1   5
ATOM      5  C   UNL     1      -1.563 -12.599  -9.309  1.00  0.00     0.003 C 
ATOM      6  C   UNL     1      -1.658 -11.078  -9.394  1.00  0.00     0.004 C 
ENDBRANCH   1   5
TORSDOF 2
ENDMDL
MODEL 6
REMARK VINA RESULT:    -2.788      2.435      3.315
REMARK INTER + INTRA:          -3.181
REMARK INTER:                  -3.159
REMARK INTRA:                  -0.022
REMARK UNBOUND:                -0.067
REMARK SMILES CCCC(=O)[O-]
REMARK SMILES IDX 3 1 4 2 5 3 6 4 2 5 1 6
REMARK H PARENT
REMARK Flexibility Score: inf
ROOT
ATOM      1  C   UNL     1      -7.792   4.819  -8.644  1.00  0.00     0.052 C 
ENDROOT
BRANCH   1   2
ATOM      2  C   UNL     1      -8.074   6.277  -8.821  1.00  0.00     0.041 C 
ATOM      3  O   UNL     1      -7.161   7.125  -8.645  1.00  0.00    -0.550 OA
ATOM      4  O   UNL     1      -9.360   6.703  -9.132  1.00  0.00    -0.550 OA
ENDBRANCH   1   2
BRANCH   1   5
ATOM      5  C   UNL     1      -8.862   4.169  -7.762  1.00  0.00     0.003 C 
ATOM      6  C   UNL     1      -9.250   2.791  -8.290  1.00  0.00     0.004 C 
ENDBRANCH   1   5
TORSDOF 2
ENDMDL
MODEL 7
REMARK VINA RESULT:    -2.680     16.084     17.345
REMARK INTER + INTRA:          -3.060
REMARK INTER:                  -3.054
REMARK INTRA:                  -0.006
REMARK UNBOUND:                -0.067
REMARK SMILES CCCC(=O)[O-]
REMARK SMILES IDX 3 1 4 2 5 3 6 4 2 5 1 6
REMARK H PARENT
REMARK Flexibility Score: inf
ROOT
ATOM      1  C   UNL     1      -1.750 -10.919  -9.500  1.00  0.00     0.052 C 
ENDROOT
BRANCH   1   2
ATOM      2  C   UNL     1      -2.687 -10.378 -10.533  1.00  0.00     0.041 C 
ATOM      3  O   UNL     1      -2.321  -9.443 -11.293  1.00  0.00    -0.550 OA
ATOM      4  O   UNL     1      -3.981 -10.874 -10.625  1.00  0.00    -0.550 OA
ENDBRANCH   1   2
BRANCH   1   5
ATOM      5  C   UNL     1      -1.747 -12.449  -9.527  1.00  0.00     0.003 C 
ATOM      6  C   UNL     1      -0.384 -13.005  -9.125  1.00  0.00     0.004 C 
ENDBRANCH   1   5
TORSDOF 2
ENDMDL
MODEL 8
REMARK VINA RESULT:    -2.664     17.615     18.346
REMARK INTER + INTRA:          -3.043
REMARK INTER:                  -3.005
REMARK INTRA:                  -0.039
REMARK UNBOUND:                -0.067
REMARK SMILES CCCC(=O)[O-]
REMARK SMILES IDX 3 1 4 2 5 3 6 4 2 5 1 6
REMARK H PARENT
REMARK Flexibility Score: inf
ROOT
ATOM      1  C   UNL     1      -0.546 -11.323 -10.831  1.00  0.00     0.052 C 
ENDROOT
BRANCH   1   2
ATOM      2  C   UNL     1       0.890 -11.020 -10.542  1.00  0.00     0.041 C 
ATOM      3  O   UNL     1       1.666 -11.934 -10.160  1.00  0.00    -0.550 OA
ATOM      4  O   UNL     1       1.359  -9.717 -10.646  1.00  0.00    -0.550 OA
ENDBRANCH   1   2
BRANCH   1   5
ATOM      5  C   UNL     1      -1.346 -11.418  -9.529  1.00  0.00     0.003 C 
ATOM      6  C   UNL     1      -1.655 -12.870  -9.177  1.00  0.00     0.004 C 
ENDBRANCH   1   5
TORSDOF 2
ENDMDL
MODEL 9
REMARK VINA RESULT:    -1.429     16.846     17.742
REMARK INTER + INTRA:          -1.663
REMARK INTER:                  -1.631
REMARK INTRA:                  -0.032
REMARK UNBOUND:                -0.067
REMARK SMILES CCCC(=O)[O-]
REMARK SMILES IDX 3 1 4 2 5 3 6 4 2 5 1 6
REMARK H PARENT
REMARK Flexibility Score: inf
ROOT
ATOM      1  C   UNL     1      -1.528 -10.920  -9.490  1.00  0.00     0.052 C 
ENDROOT
BRANCH   1   2
ATOM      2  C   UNL     1      -1.205 -12.336  -9.132  1.00  0.00     0.041 C 
ATOM      3  O   UNL     1      -2.120 -13.125  -8.780  1.00  0.00    -0.550 OA
ATOM      4  O   UNL     1       0.114 -12.771  -9.139  1.00  0.00    -0.550 OA
ENDBRANCH   1   2
BRANCH   1   5
ATOM      5  C   UNL     1      -2.157 -10.850 -10.884  1.00  0.00     0.003 C 
ATOM      6  C   UNL     1      -3.547 -10.223 -10.830  1.00  0.00     0.004 C 
ENDBRANCH   1   5
TORSDOF 2
ENDMDL
