MODEL 1
REMARK VINA RESULT:    -4.232      0.000      0.000
REMARK INTER + INTRA:         -10.035
REMARK INTER:                  -7.944
REMARK INTRA:                  -2.092
REMARK UNBOUND:                -2.092
REMARK SMILES CCCCCCCCC=CCCCCCCCC(=O)[O-]
REMARK SMILES IDX 10 1 9 2 11 3 12 4 13 5 14 6 15 7 16 8 17 9 18 10 19 11
REMARK SMILES IDX 20 12 8 13 7 14 6 15 5 16 4 17 3 18 2 19 1 20
REMARK H PARENT
REMARK Flexibility Score: inf
ROOT
ATOM      1  C   UNL     1      29.690  10.099 -14.268  1.00  0.00    -0.031 C 
ATOM      2  C   UNL     1      30.640  11.047 -14.286  1.00  0.00    -0.031 C 
ENDROOT
BRANCH   1   3
ATOM      3  C   UNL     1      29.271   9.429 -12.989  1.00  0.00     0.027 C 
BRANCH   3   4
ATOM      4  C   UNL     1      30.308   9.658 -11.880  1.00  0.00     0.004 C 
BRANCH   4   5
ATOM      5  C   UNL     1      29.668   9.942 -10.510  1.00  0.00     0.000 C 
BRANCH   5   6
ATOM      6  C   UNL     1      28.566  11.017 -10.519  1.00  0.00     0.000 C 
BRANCH   6   7
ATOM      7  C   UNL     1      29.066  12.383 -11.011  1.00  0.00     0.000 C 
BRANCH   7   8
ATOM      8  C   UNL     1      28.189  12.908 -12.157  1.00  0.00     0.006 C 
BRANCH   8   9
ATOM      9  C   UNL     1      26.773  13.270 -11.687  1.00  0.00     0.053 C 
BRANCH   9  10
ATOM     10  C   UNL     1      26.471  14.721 -11.906  1.00  0.00     0.041 C 
ATOM     11  O   UNL     1      25.301  15.088 -12.187  1.00  0.00    -0.550 OA
ATOM     12  O   UNL     1      27.490  15.662 -11.829  1.00  0.00    -0.550 OA
ENDBRANCH   9  10
ENDBRANCH   8   9
ENDBRANCH   7   8
ENDBRANCH   6   7
ENDBRANCH   5   6
ENDBRANCH   4   5
ENDBRANCH   3   4
ENDBRANCH   1   3
BRANCH   2  13
ATOM     13  C   UNL     1      31.061  11.716 -15.565  1.00  0.00     0.027 C 
BRANCH  13  14
ATOM     14  C   UNL     1      30.223  11.220 -16.751  1.00  0.00     0.004 C 
BRANCH  14  15
ATOM     15  C   UNL     1      30.039  12.288 -17.842  1.00  0.00     0.000 C 
BRANCH  15  16
ATOM     16  C   UNL     1      28.933  13.316 -17.521  1.00  0.00     0.000 C 
BRANCH  16  17
ATOM     17  C   UNL     1      29.366  14.758 -17.843  1.00  0.00    -0.000 C 
BRANCH  17  18
ATOM     18  C   UNL     1      30.446  15.275 -16.869  1.00  0.00    -0.000 C 
BRANCH  18  19
ATOM     19  C   UNL     1      29.872  16.008 -15.645  1.00  0.00    -0.003 C 
ATOM     20  C   UNL     1      29.706  15.101 -14.427  1.00  0.00     0.004 C 
ENDBRANCH  18  19
ENDBRANCH  17  18
ENDBRANCH  16  17
ENDBRANCH  15  16
ENDBRANCH  14  15
ENDBRANCH  13  14
ENDBRANCH   2  13
TORSDOF 15
ENDMDL
MODEL 2
REMARK VINA RESULT:    -4.205      2.599      5.958
REMARK INTER + INTRA:          -9.985
REMARK INTER:                  -7.630
REMARK INTRA:                  -2.354
REMARK UNBOUND:                -2.092
REMARK SMILES CCCCCCCCC=CCCCCCCCC(=O)[O-]
REMARK SMILES IDX 10 1 9 2 11 3 12 4 13 5 14 6 15 7 16 8 17 9 18 10 19 11
REMARK SMILES IDX 20 12 8 13 7 14 6 15 5 16 4 17 3 18 2 19 1 20
REMARK H PARENT
REMARK Flexibility Score: inf
ROOT
ATOM      1  C   UNL     1      27.100  11.735 -10.519  1.00  0.00    -0.031 C 
ATOM      2  C   UNL     1      28.424  11.659 -10.727  1.00  0.00    -0.031 C 
ENDROOT
BRANCH   1   3
ATOM      3  C   UNL     1      26.298  12.920 -10.980  1.00  0.00     0.027 C 
BRANCH   3   4
ATOM      4  C   UNL     1      27.212  14.107 -11.318  1.00  0.00     0.004 C 
BRANCH   4   5
ATOM      5  C   UNL     1      27.199  14.467 -12.814  1.00  0.00     0.000 C 
BRANCH   5   6
ATOM      6  C   UNL     1      28.350  13.862 -13.637  1.00  0.00     0.000 C 
BRANCH   6   7
ATOM      7  C   UNL     1      29.252  14.926 -14.279  1.00  0.00     0.000 C 
BRANCH   7   8
ATOM      8  C   UNL     1      30.030  14.342 -15.467  1.00  0.00     0.006 C 
BRANCH   8   9
ATOM      9  C   UNL     1      29.182  13.366 -16.295  1.00  0.00     0.053 C 
BRANCH   9  10
ATOM     10  C   UNL     1      29.421  13.534 -17.764  1.00  0.00     0.041 C 
ATOM     11  O   UNL     1      29.871  12.576 -18.446  1.00  0.00    -0.550 OA
ATOM     12  O   UNL     1      29.176  14.758 -18.373  1.00  0.00    -0.550 OA
ENDBRANCH   9  10
ENDBRANCH   8   9
ENDBRANCH   7   8
ENDBRANCH   6   7
ENDBRANCH   5   6
ENDBRANCH   4   5
ENDBRANCH   3   4
ENDBRANCH   1   3
BRANCH   2  13
ATOM     13  C   UNL     1      29.227  10.475 -10.266  1.00  0.00     0.027 C 
BRANCH  13  14
ATOM     14  C   UNL     1      30.602  10.440 -10.946  1.00  0.00     0.004 C 
BRANCH  14  15
ATOM     15  C   UNL     1      30.764  11.525 -12.024  1.00  0.00     0.000 C 
BRANCH  15  16
ATOM     16  C   UNL     1      30.907  10.960 -13.454  1.00  0.00     0.000 C 
BRANCH  16  17
ATOM     17  C   UNL     1      29.560  10.485 -14.029  1.00  0.00    -0.000 C 
BRANCH  17  18
ATOM     18  C   UNL     1      29.552   8.970 -14.322  1.00  0.00    -0.000 C 
BRANCH  18  19
ATOM     19  C   UNL     1      28.954   8.125 -13.184  1.00  0.00    -0.003 C 
ATOM     20  C   UNL     1      29.857   6.969 -12.759  1.00  0.00     0.004 C 
ENDBRANCH  18  19
ENDBRANCH  17  18
ENDBRANCH  16  17
ENDBRANCH  15  16
ENDBRANCH  14  15
ENDBRANCH  13  14
ENDBRANCH   2  13
TORSDOF 15
ENDMDL
MODEL 3
REMARK VINA RESULT:    -4.185      1.288      4.555
REMARK INTER + INTRA:          -9.946
REMARK INTER:                  -7.852
REMARK INTRA:                  -2.094
REMARK UNBOUND:                -2.092
REMARK SMILES CCCCCCCCC=CCCCCCCCC(=O)[O-]
REMARK SMILES IDX 10 1 9 2 11 3 12 4 13 5 14 6 15 7 16 8 17 9 18 10 19 11
REMARK SMILES IDX 20 12 8 13 7 14 6 15 5 16 4 17 3 18 2 19 1 20
REMARK H PARENT
REMARK Flexibility Score: inf
ROOT
ATOM      1  C   UNL     1      30.543  13.228 -17.402  1.00  0.00    -0.031 C 
ATOM      2  C   UNL     1      30.000  12.211 -18.089  1.00  0.00    -0.031 C 
ENDROOT
BRANCH   1   3
ATOM      3  C   UNL     1      29.703  14.358 -16.875  1.00  0.00     0.027 C 
BRANCH   3   4
ATOM      4  C   UNL     1      29.694  14.369 -15.339  1.00  0.00     0.004 C 
BRANCH   4   5
ATOM      5  C   UNL     1      30.634  13.316 -14.726  1.00  0.00     0.000 C 
BRANCH   5   6
ATOM      6  C   UNL     1      30.176  12.748 -13.370  1.00  0.00     0.000 C 
BRANCH   6   7
ATOM      7  C   UNL     1      28.663  12.884 -13.144  1.00  0.00     0.000 C 
BRANCH   7   8
ATOM      8  C   UNL     1      28.358  13.258 -11.686  1.00  0.00     0.006 C 
BRANCH   8   9
ATOM      9  C   UNL     1      26.930  12.876 -11.274  1.00  0.00     0.053 C 
BRANCH   9  10
ATOM     10  C   UNL     1      26.019  14.065 -11.263  1.00  0.00     0.041 C 
ATOM     11  O   UNL     1      25.930  14.804 -12.278  1.00  0.00    -0.550 OA
ATOM     12  O   UNL     1      25.293  14.375 -10.120  1.00  0.00    -0.550 OA
ENDBRANCH   9  10
ENDBRANCH   8   9
ENDBRANCH   7   8
ENDBRANCH   6   7
ENDBRANCH   5   6
ENDBRANCH   4   5
ENDBRANCH   3   4
ENDBRANCH   1   3
BRANCH   2  13
ATOM     13  C   UNL     1      30.840  11.080 -18.617  1.00  0.00     0.027 C 
BRANCH  13  14
ATOM     14  C   UNL     1      30.496   9.760 -17.914  1.00  0.00     0.004 C 
BRANCH  14  15
ATOM     15  C   UNL     1      30.842   9.774 -16.415  1.00  0.00     0.000 C 
BRANCH  15  16
ATOM     16  C   UNL     1      29.603   9.748 -15.494  1.00  0.00     0.000 C 
BRANCH  16  17
ATOM     17  C   UNL     1      29.625   8.556 -14.521  1.00  0.00    -0.000 C 
BRANCH  17  18
ATOM     18  C   UNL     1      29.081   8.931 -13.126  1.00  0.00    -0.000 C 
BRANCH  18  19
ATOM     19  C   UNL     1      30.181   9.274 -12.107  1.00  0.00    -0.003 C 
ATOM     20  C   UNL     1      29.632   9.859 -10.808  1.00  0.00     0.004 C 
ENDBRANCH  18  19
ENDBRANCH  17  18
ENDBRANCH  16  17
ENDBRANCH  15  16
ENDBRANCH  14  15
ENDBRANCH  13  14
ENDBRANCH   2  13
TORSDOF 15
ENDMDL
MODEL 4
REMARK VINA RESULT:    -4.168      1.342      2.554
REMARK INTER + INTRA:          -9.915
REMARK INTER:                  -7.677
REMARK INTRA:                  -2.238
REMARK UNBOUND:                -2.092
REMARK SMILES CCCCCCCCC=CCCCCCCCC(=O)[O-]
REMARK SMILES IDX 10 1 9 2 11 3 12 4 13 5 14 6 15 7 16 8 17 9 18 10 19 11
REMARK SMILES IDX 20 12 8 13 7 14 6 15 5 16 4 17 3 18 2 19 1 20
REMARK H PARENT
REMARK Flexibility Score: inf
ROOT
ATOM      1  C   UNL     1      30.742   9.219 -11.311  1.00  0.00    -0.031 C 
ATOM      2  C   UNL     1      29.660   8.801 -11.986  1.00  0.00    -0.031 C 
ENDROOT
BRANCH   1   3
ATOM      3  C   UNL     1      30.699   9.461  -9.828  1.00  0.00     0.027 C 
BRANCH   3   4
ATOM      4  C   UNL     1      30.101  10.839  -9.511  1.00  0.00     0.004 C 
BRANCH   4   5
ATOM      5  C   UNL     1      30.569  11.935 -10.485  1.00  0.00     0.000 C 
BRANCH   5   6
ATOM      6  C   UNL     1      29.442  12.623 -11.278  1.00  0.00     0.000 C 
BRANCH   6   7
ATOM      7  C   UNL     1      28.060  12.009 -11.009  1.00  0.00     0.000 C 
BRANCH   7   8
ATOM      8  C   UNL     1      26.941  12.976 -11.424  1.00  0.00     0.006 C 
BRANCH   8   9
ATOM      9  C   UNL     1      27.385  13.936 -12.536  1.00  0.00     0.053 C 
BRANCH   9  10
ATOM     10  C   UNL     1      26.741  15.281 -12.397  1.00  0.00     0.041 C 
ATOM     11  O   UNL     1      27.447  16.305 -12.206  1.00  0.00    -0.550 OA
ATOM     12  O   UNL     1      25.357  15.397 -12.447  1.00  0.00    -0.550 OA
ENDBRANCH   9  10
ENDBRANCH   8   9
ENDBRANCH   7   8
ENDBRANCH   6   7
ENDBRANCH   5   6
ENDBRANCH   4   5
ENDBRANCH   3   4
ENDBRANCH   1   3
BRANCH   2  13
ATOM     13  C   UNL     1      29.701   8.559 -13.469  1.00  0.00     0.027 C 
BRANCH  13  14
ATOM     14  C   UNL     1      30.268   9.776 -14.213  1.00  0.00     0.004 C 
BRANCH  14  15
ATOM     15  C   UNL     1      29.272  10.947 -14.290  1.00  0.00     0.000 C 
BRANCH  15  16
ATOM     16  C   UNL     1      29.016  11.447 -15.728  1.00  0.00     0.000 C 
BRANCH  16  17
ATOM     17  C   UNL     1      29.422  12.920 -15.913  1.00  0.00    -0.000 C 
BRANCH  17  18
ATOM     18  C   UNL     1      30.700  13.278 -15.124  1.00  0.00    -0.000 C 
BRANCH  18  19
ATOM     19  C   UNL     1      30.950  14.791 -15.009  1.00  0.00    -0.003 C 
ATOM     20  C   UNL     1      29.662  15.609 -14.970  1.00  0.00     0.004 C 
ENDBRANCH  18  19
ENDBRANCH  17  18
ENDBRANCH  16  17
ENDBRANCH  15  16
ENDBRANCH  14  15
ENDBRANCH  13  14
ENDBRANCH   2  13
TORSDOF 15
ENDMDL
MODEL 5
REMARK VINA RESULT:    -4.163      2.292      6.291
REMARK INTER + INTRA:          -9.906
REMARK INTER:                  -7.992
REMARK INTRA:                  -1.914
REMARK UNBOUND:                -2.092
REMARK SMILES CCCCCCCCC=CCCCCCCCC(=O)[O-]
REMARK SMILES IDX 10 1 9 2 11 3 12 4 13 5 14 6 15 7 16 8 17 9 18 10 19 11
REMARK SMILES IDX 20 12 8 13 7 14 6 15 5 16 4 17 3 18 2 19 1 20
REMARK H PARENT
REMARK Flexibility Score: inf
ROOT
ATOM      1  C   UNL     1      26.641  13.341 -10.829  1.00  0.00    -0.031 C 
ATOM      2  C   UNL     1      26.984  12.104 -11.220  1.00  0.00    -0.031 C 
ENDROOT
BRANCH   1   3
ATOM      3  C   UNL     1      25.562  14.117 -11.533  1.00  0.00     0.027 C 
BRANCH   3   4
ATOM      4  C   UNL     1      26.159  15.062 -12.586  1.00  0.00     0.004 C 
BRANCH   4   5
ATOM      5  C   UNL     1      27.673  15.276 -12.411  1.00  0.00     0.000 C 
BRANCH   5   6
ATOM      6  C   UNL     1      28.553  14.577 -13.463  1.00  0.00     0.000 C 
BRANCH   6   7
ATOM      7  C   UNL     1      29.331  15.565 -14.345  1.00  0.00     0.000 C 
BRANCH   7   8
ATOM      8  C   UNL     1      30.208  14.819 -15.362  1.00  0.00     0.006 C 
BRANCH   8   9
ATOM      9  C   UNL     1      29.713  15.003 -16.802  1.00  0.00     0.053 C 
BRANCH   9  10
ATOM     10  C   UNL     1      29.272  13.705 -17.407  1.00  0.00     0.041 C 
ATOM     11  O   UNL     1      29.905  13.209 -18.375  1.00  0.00    -0.550 OA
ATOM     12  O   UNL     1      28.141  13.060 -16.921  1.00  0.00    -0.550 OA
ENDBRANCH   9  10
ENDBRANCH   8   9
ENDBRANCH   7   8
ENDBRANCH   6   7
ENDBRANCH   5   6
ENDBRANCH   4   5
ENDBRANCH   3   4
ENDBRANCH   1   3
BRANCH   2  13
ATOM     13  C   UNL     1      28.063  11.328 -10.517  1.00  0.00     0.027 C 
BRANCH  13  14
ATOM     14  C   UNL     1      29.454  11.878 -10.859  1.00  0.00     0.004 C 
BRANCH  14  15
ATOM     15  C   UNL     1      30.549  10.798 -10.832  1.00  0.00     0.000 C 
BRANCH  15  16
ATOM     16  C   UNL     1      29.997   9.363 -10.692  1.00  0.00     0.000 C 
BRANCH  16  17
ATOM     17  C   UNL     1      30.180   8.540 -11.980  1.00  0.00    -0.000 C 
BRANCH  17  18
ATOM     18  C   UNL     1      29.049   8.792 -13.000  1.00  0.00    -0.000 C 
BRANCH  18  19
ATOM     19  C   UNL     1      29.540   9.382 -14.333  1.00  0.00    -0.003 C 
ATOM     20  C   UNL     1      29.384  10.899 -14.409  1.00  0.00     0.004 C 
ENDBRANCH  18  19
ENDBRANCH  17  18
ENDBRANCH  16  17
ENDBRANCH  15  16
ENDBRANCH  14  15
ENDBRANCH  13  14
ENDBRANCH   2  13
TORSDOF 15
ENDMDL
MODEL 6
REMARK VINA RESULT:    -4.144      2.632      5.837
REMARK INTER + INTRA:          -9.870
REMARK INTER:                  -8.084
REMARK INTRA:                  -1.787
REMARK UNBOUND:                -2.092
REMARK SMILES CCCCCCCCC=CCCCCCCCC(=O)[O-]
REMARK SMILES IDX 10 1 9 2 11 3 12 4 13 5 14 6 15 7 16 8 17 9 18 10 19 11
REMARK SMILES IDX 20 12 8 13 7 14 6 15 5 16 4 17 3 18 2 19 1 20
REMARK H PARENT
REMARK Flexibility Score: inf
ROOT
ATOM      1  C   UNL     1      29.312  14.373 -17.534  1.00  0.00    -0.031 C 
ATOM      2  C   UNL     1      30.284  14.822 -16.724  1.00  0.00    -0.031 C 
ENDROOT
BRANCH   1   3
ATOM      3  C   UNL     1      29.501  13.150 -18.386  1.00  0.00     0.027 C 
BRANCH   3   4
ATOM      4  C   UNL     1      30.699  12.319 -17.903  1.00  0.00     0.004 C 
BRANCH   4   5
ATOM      5  C   UNL     1      30.285  10.964 -17.302  1.00  0.00     0.000 C 
BRANCH   5   6
ATOM      6  C   UNL     1      29.370  11.052 -16.067  1.00  0.00     0.000 C 
BRANCH   6   7
ATOM      7  C   UNL     1      29.604   9.911 -15.066  1.00  0.00     0.000 C 
BRANCH   7   8
ATOM      8  C   UNL     1      30.155  10.451 -13.738  1.00  0.00     0.006 C 
BRANCH   8   9
ATOM      9  C   UNL     1      29.302  10.023 -12.537  1.00  0.00     0.053 C 
BRANCH   9  10
ATOM     10  C   UNL     1      29.984   8.968 -11.721  1.00  0.00     0.041 C 
ATOM     11  O   UNL     1      30.478   9.256 -10.599  1.00  0.00    -0.550 OA
ATOM     12  O   UNL     1      30.102   7.675 -12.214  1.00  0.00    -0.550 OA
ENDBRANCH   9  10
ENDBRANCH   8   9
ENDBRANCH   7   8
ENDBRANCH   6   7
ENDBRANCH   5   6
ENDBRANCH   4   5
ENDBRANCH   3   4
ENDBRANCH   1   3
BRANCH   2  13
ATOM     13  C   UNL     1      30.096  16.046 -15.872  1.00  0.00     0.027 C 
BRANCH  13  14
ATOM     14  C   UNL     1      29.375  15.702 -14.561  1.00  0.00     0.004 C 
BRANCH  14  15
ATOM     15  C   UNL     1      29.615  14.252 -14.109  1.00  0.00     0.000 C 
BRANCH  15  16
ATOM     16  C   UNL     1      28.358  13.570 -13.527  1.00  0.00     0.000 C 
BRANCH  16  17
ATOM     17  C   UNL     1      28.227  13.787 -12.009  1.00  0.00    -0.000 C 
BRANCH  17  18
ATOM     18  C   UNL     1      27.084  12.950 -11.396  1.00  0.00    -0.000 C 
BRANCH  18  19
ATOM     19  C   UNL     1      25.971  13.800 -10.760  1.00  0.00    -0.003 C 
ATOM     20  C   UNL     1      25.205  14.643 -11.778  1.00  0.00     0.004 C 
ENDBRANCH  18  19
ENDBRANCH  17  18
ENDBRANCH  16  17
ENDBRANCH  15  16
ENDBRANCH  14  15
ENDBRANCH  13  14
ENDBRANCH   2  13
TORSDOF 15
ENDMDL
MODEL 7
REMARK VINA RESULT:    -4.121      1.371      5.264
REMARK INTER + INTRA:          -9.827
REMARK INTER:                  -7.670
REMARK INTRA:                  -2.157
REMARK UNBOUND:                -2.092
REMARK SMILES CCCCCCCCC=CCCCCCCCC(=O)[O-]
REMARK SMILES IDX 10 1 9 2 11 3 12 4 13 5 14 6 15 7 16 8 17 9 18 10 19 11
REMARK SMILES IDX 20 12 8 13 7 14 6 15 5 16 4 17 3 18 2 19 1 20
REMARK H PARENT
REMARK Flexibility Score: inf
ROOT
ATOM      1  C   UNL     1      30.349  11.155 -17.080  1.00  0.00    -0.031 C 
ATOM      2  C   UNL     1      30.280   9.816 -17.036  1.00  0.00    -0.031 C 
ENDROOT
BRANCH   1   3
ATOM      3  C   UNL     1      30.454  11.895 -18.384  1.00  0.00     0.027 C 
BRANCH   3   4
ATOM      4  C   UNL     1      29.596  13.168 -18.368  1.00  0.00     0.004 C 
BRANCH   4   5
ATOM      5  C   UNL     1      28.861  13.380 -17.033  1.00  0.00     0.000 C 
BRANCH   5   6
ATOM      6  C   UNL     1      29.484  14.445 -16.111  1.00  0.00     0.000 C 
BRANCH   6   7
ATOM      7  C   UNL     1      29.690  13.947 -14.673  1.00  0.00     0.000 C 
BRANCH   7   8
ATOM      8  C   UNL     1      28.409  13.298 -14.129  1.00  0.00     0.006 C 
BRANCH   8   9
ATOM      9  C   UNL     1      28.457  13.105 -12.607  1.00  0.00     0.053 C 
BRANCH   9  10
ATOM     10  C   UNL     1      27.131  13.390 -11.970  1.00  0.00     0.041 C 
ATOM     11  O   UNL     1      26.429  14.354 -12.373  1.00  0.00    -0.550 OA
ATOM     12  O   UNL     1      26.687  12.610 -10.910  1.00  0.00    -0.550 OA
ENDBRANCH   9  10
ENDBRANCH   8   9
ENDBRANCH   7   8
ENDBRANCH   6   7
ENDBRANCH   5   6
ENDBRANCH   4   5
ENDBRANCH   3   4
ENDBRANCH   1   3
BRANCH   2  13
ATOM     13  C   UNL     1      30.175   9.075 -15.731  1.00  0.00     0.027 C 
BRANCH  13  14
ATOM     14  C   UNL     1      29.845  10.032 -14.577  1.00  0.00     0.004 C 
BRANCH  14  15
ATOM     15  C   UNL     1      31.041  10.275 -13.641  1.00  0.00     0.000 C 
BRANCH  15  16
ATOM     16  C   UNL     1      31.005   9.418 -12.357  1.00  0.00     0.000 C 
BRANCH  16  17
ATOM     17  C   UNL     1      29.602   9.376 -11.724  1.00  0.00    -0.000 C 
BRANCH  17  18
ATOM     18  C   UNL     1      29.494  10.287 -10.482  1.00  0.00    -0.000 C 
BRANCH  18  19
ATOM     19  C   UNL     1      30.856  10.743  -9.932  1.00  0.00    -0.003 C 
ATOM     20  C   UNL     1      31.089  12.245 -10.080  1.00  0.00     0.004 C 
ENDBRANCH  18  19
ENDBRANCH  17  18
ENDBRANCH  16  17
ENDBRANCH  15  16
ENDBRANCH  14  15
ENDBRANCH  13  14
ENDBRANCH   2  13
TORSDOF 15
ENDMDL
MODEL 8
REMARK VINA RESULT:    -3.954      7.602      9.644
REMARK INTER + INTRA:          -9.512
REMARK INTER:                  -6.627
REMARK INTRA:                  -2.885
REMARK UNBOUND:                -2.092
REMARK SMILES CCCCCCCCC=CCCCCCCCC(=O)[O-]
REMARK SMILES IDX 10 1 9 2 11 3 12 4 13 5 14 6 15 7 16 8 17 9 18 10 19 11
REMARK SMILES IDX 20 12 8 13 7 14 6 15 5 16 4 17 3 18 2 19 1 20
REMARK H PARENT
REMARK Flexibility Score: inf
ROOT
ATOM      1  C   UNL     1      25.433   1.842 -13.724  1.00  0.00    -0.031 C 
ATOM      2  C   UNL     1      24.320   1.890 -14.473  1.00  0.00    -0.031 C 
ENDROOT
BRANCH   1   3
ATOM      3  C   UNL     1      25.422   2.237 -12.274  1.00  0.00     0.027 C 
BRANCH   3   4
ATOM      4  C   UNL     1      26.485   3.307 -11.984  1.00  0.00     0.004 C 
BRANCH   4   5
ATOM      5  C   UNL     1      27.441   3.537 -13.168  1.00  0.00     0.000 C 
BRANCH   5   6
ATOM      6  C   UNL     1      27.467   4.977 -13.712  1.00  0.00     0.000 C 
BRANCH   6   7
ATOM      7  C   UNL     1      26.142   5.723 -13.493  1.00  0.00     0.000 C 
BRANCH   7   8
ATOM      8  C   UNL     1      25.204   5.539 -14.696  1.00  0.00     0.006 C 
BRANCH   8   9
ATOM      9  C   UNL     1      23.734   5.413 -14.273  1.00  0.00     0.053 C 
BRANCH   9  10
ATOM     10  C   UNL     1      22.923   6.585 -14.736  1.00  0.00     0.041 C 
ATOM     11  O   UNL     1      22.934   7.661 -14.083  1.00  0.00    -0.550 OA
ATOM     12  O   UNL     1      22.129   6.475 -15.871  1.00  0.00    -0.550 OA
ENDBRANCH   9  10
ENDBRANCH   8   9
ENDBRANCH   7   8
ENDBRANCH   6   7
ENDBRANCH   5   6
ENDBRANCH   4   5
ENDBRANCH   3   4
ENDBRANCH   1   3
BRANCH   2  13
ATOM     13  C   UNL     1      24.330   1.496 -15.924  1.00  0.00     0.027 C 
BRANCH  13  14
ATOM     14  C   UNL     1      24.483   2.724 -16.831  1.00  0.00     0.004 C 
BRANCH  14  15
ATOM     15  C   UNL     1      25.779   2.699 -17.659  1.00  0.00     0.000 C 
BRANCH  15  16
ATOM     16  C   UNL     1      27.052   2.954 -16.823  1.00  0.00     0.000 C 
BRANCH  16  17
ATOM     17  C   UNL     1      28.020   3.927 -17.519  1.00  0.00    -0.000 C 
BRANCH  17  18
ATOM     18  C   UNL     1      27.528   4.338 -18.923  1.00  0.00    -0.000 C 
BRANCH  18  19
ATOM     19  C   UNL     1      27.400   5.860 -19.109  1.00  0.00    -0.003 C 
ATOM     20  C   UNL     1      27.111   6.601 -17.806  1.00  0.00     0.004 C 
ENDBRANCH  18  19
ENDBRANCH  17  18
ENDBRANCH  16  17
ENDBRANCH  15  16
ENDBRANCH  14  15
ENDBRANCH  13  14
ENDBRANCH   2  13
TORSDOF 15
ENDMDL
MODEL 9
REMARK VINA RESULT:    -3.933      2.371      5.090
REMARK INTER + INTRA:          -9.474
REMARK INTER:                  -7.509
REMARK INTRA:                  -1.965
REMARK UNBOUND:                -2.092
REMARK SMILES CCCCCCCCC=CCCCCCCCC(=O)[O-]
REMARK SMILES IDX 10 1 9 2 11 3 12 4 13 5 14 6 15 7 16 8 17 9 18 10 19 11
REMARK SMILES IDX 20 12 8 13 7 14 6 15 5 16 4 17 3 18 2 19 1 20
REMARK H PARENT
REMARK Flexibility Score: inf
ROOT
ATOM      1  C   UNL     1      30.507  12.285 -18.024  1.00  0.00    -0.031 C 
ATOM      2  C   UNL     1      29.500  13.103 -18.367  1.00  0.00    -0.031 C 
ENDROOT
BRANCH   1   3
ATOM      3  C   UNL     1      30.770  11.007 -18.771  1.00  0.00     0.027 C 
BRANCH   3   4
ATOM      4  C   UNL     1      30.845   9.811 -17.810  1.00  0.00     0.004 C 
BRANCH   4   5
ATOM      5  C   UNL     1      30.746  10.223 -16.330  1.00  0.00     0.000 C 
BRANCH   5   6
ATOM      6  C   UNL     1      29.481   9.734 -15.603  1.00  0.00     0.000 C 
BRANCH   6   7
ATOM      7  C   UNL     1      29.609   8.295 -15.080  1.00  0.00     0.000 C 
BRANCH   7   8
ATOM      8  C   UNL     1      29.420   8.246 -13.557  1.00  0.00     0.006 C 
BRANCH   8   9
ATOM      9  C   UNL     1      29.187   9.639 -12.955  1.00  0.00     0.053 C 
BRANCH   9  10
ATOM     10  C   UNL     1      30.027   9.862 -11.735  1.00  0.00     0.041 C 
ATOM     11  O   UNL     1      29.927   9.090 -10.747  1.00  0.00    -0.550 OA
ATOM     12  O   UNL     1      30.897  10.944 -11.678  1.00  0.00    -0.550 OA
ENDBRANCH   9  10
ENDBRANCH   8   9
ENDBRANCH   7   8
ENDBRANCH   6   7
ENDBRANCH   5   6
ENDBRANCH   4   5
ENDBRANCH   3   4
ENDBRANCH   1   3
BRANCH   2  13
ATOM     13  C   UNL     1      29.236  14.382 -17.621  1.00  0.00     0.027 C 
BRANCH  13  14
ATOM     14  C   UNL     1      30.471  14.823 -16.825  1.00  0.00     0.004 C 
BRANCH  14  15
ATOM     15  C   UNL     1      30.222  14.865 -15.308  1.00  0.00     0.000 C 
BRANCH  15  16
ATOM     16  C   UNL     1      30.248  13.474 -14.638  1.00  0.00     0.000 C 
BRANCH  16  17
ATOM     17  C   UNL     1      28.848  13.017 -14.191  1.00  0.00    -0.000 C 
BRANCH  17  18
ATOM     18  C   UNL     1      28.528  13.447 -12.743  1.00  0.00    -0.000 C 
BRANCH  18  19
ATOM     19  C   UNL     1      27.040  13.755 -12.507  1.00  0.00    -0.003 C 
ATOM     20  C   UNL     1      26.814  15.030 -11.697  1.00  0.00     0.004 C 
ENDBRANCH  18  19
ENDBRANCH  17  18
ENDBRANCH  16  17
ENDBRANCH  15  16
ENDBRANCH  14  15
ENDBRANCH  13  14
ENDBRANCH   2  13
TORSDOF 15
ENDMDL
