MODEL 1
REMARK VINA RESULT:    -3.301      0.000      0.000
REMARK INTER + INTRA:          -4.042
REMARK INTER:                  -3.880
REMARK INTRA:                  -0.163
REMARK UNBOUND:                -0.163
REMARK SMILES O=C([O-])CCC(=O)[O-]
REMARK SMILES IDX 4 1 2 2 1 3 3 4 5 5 6 6 7 7 8 8
REMARK H PARENT
REMARK Flexibility Score: inf
ROOT
ATOM      1  C   UNL     1     192.047   3.674  95.269  1.00  0.00     0.059 C 
ENDROOT
BRANCH   1   2
ATOM      2  C   UNL     1     192.000   2.239  94.838  1.00  0.00     0.042 C 
ATOM      3  O   UNL     1     192.512   1.344  95.561  1.00  0.00    -0.550 OA
ATOM      4  O   UNL     1     191.427   1.897  93.621  1.00  0.00    -0.550 OA
ENDBRANCH   1   2
BRANCH   1   5
ATOM      5  C   UNL     1     190.643   4.235  95.516  1.00  0.00     0.059 C 
BRANCH   5   6
ATOM      6  C   UNL     1     189.976   3.564  96.678  1.00  0.00     0.042 C 
ATOM      7  O   UNL     1     188.770   3.210  96.597  1.00  0.00    -0.550 OA
ATOM      8  O   UNL     1     190.673   3.367  97.863  1.00  0.00    -0.550 OA
ENDBRANCH   5   6
ENDBRANCH   1   5
TORSDOF 3
ENDMDL
MODEL 2
REMARK VINA RESULT:    -3.296      0.103      3.413
REMARK INTER + INTRA:          -4.037
REMARK INTER:                  -3.875
REMARK INTRA:                  -0.161
REMARK UNBOUND:                -0.163
REMARK SMILES O=C([O-])CCC(=O)[O-]
REMARK SMILES IDX 4 1 2 2 1 3 3 4 5 5 6 6 7 7 8 8
REMARK H PARENT
REMARK Flexibility Score: inf
ROOT
ATOM      1  C   UNL     1     190.611   4.180  95.513  1.00  0.00     0.059 C 
ENDROOT
BRANCH   1   2
ATOM      2  C   UNL     1     190.022   3.550  96.738  1.00  0.00     0.042 C 
ATOM      3  O   UNL     1     188.803   3.230  96.762  1.00  0.00    -0.550 OA
ATOM      4  O   UNL     1     190.808   3.351  97.865  1.00  0.00    -0.550 OA
ENDBRANCH   1   2
BRANCH   1   5
ATOM      5  C   UNL     1     192.020   3.650  95.228  1.00  0.00     0.059 C 
BRANCH   5   6
ATOM      6  C   UNL     1     191.994   2.219  94.785  1.00  0.00     0.042 C 
ATOM      7  O   UNL     1     191.454   1.904  93.693  1.00  0.00    -0.550 OA
ATOM      8  O   UNL     1     192.531   1.229  95.598  1.00  0.00    -0.550 OA
ENDBRANCH   5   6
ENDBRANCH   1   5
TORSDOF 3
ENDMDL
MODEL 3
REMARK VINA RESULT:    -3.266      1.696      2.201
REMARK INTER + INTRA:          -4.001
REMARK INTER:                  -3.885
REMARK INTRA:                  -0.116
REMARK UNBOUND:                -0.163
REMARK SMILES O=C([O-])CCC(=O)[O-]
REMARK SMILES IDX 4 1 2 2 1 3 3 4 5 5 6 6 7 7 8 8
REMARK H PARENT
REMARK Flexibility Score: inf
ROOT
ATOM      1  C   UNL     1     191.793   3.518  95.637  1.00  0.00     0.059 C 
ENDROOT
BRANCH   1   2
ATOM      2  C   UNL     1     191.966   2.204  94.936  1.00  0.00     0.042 C 
ATOM      3  O   UNL     1     191.491   2.035  93.782  1.00  0.00    -0.550 OA
ATOM      4  O   UNL     1     192.617   1.156  95.573  1.00  0.00    -0.550 OA
ENDBRANCH   1   2
BRANCH   1   5
ATOM      5  C   UNL     1     190.882   3.388  96.862  1.00  0.00     0.059 C 
BRANCH   5   6
ATOM      6  C   UNL     1     191.666   3.398  98.138  1.00  0.00     0.042 C 
ATOM      7  O   UNL     1     192.035   4.490  98.645  1.00  0.00    -0.550 OA
ATOM      8  O   UNL     1     192.022   2.202  98.746  1.00  0.00    -0.550 OA
ENDBRANCH   5   6
ENDBRANCH   1   5
TORSDOF 3
ENDMDL
MODEL 4
REMARK VINA RESULT:    -3.262      0.119      1.621
REMARK INTER + INTRA:          -3.997
REMARK INTER:                  -3.843
REMARK INTRA:                  -0.154
REMARK UNBOUND:                -0.163
REMARK SMILES O=C([O-])CCC(=O)[O-]
REMARK SMILES IDX 4 1 2 2 1 3 3 4 5 5 6 6 7 7 8 8
REMARK H PARENT
REMARK Flexibility Score: inf
ROOT
ATOM      1  C   UNL     1     192.001   3.710  95.331  1.00  0.00     0.059 C 
ENDROOT
BRANCH   1   2
ATOM      2  C   UNL     1     191.964   2.294  94.840  1.00  0.00     0.042 C 
ATOM      3  O   UNL     1     191.417   2.019  93.740  1.00  0.00    -0.550 OA
ATOM      4  O   UNL     1     192.498   1.274  95.617  1.00  0.00    -0.550 OA
ENDBRANCH   1   2
BRANCH   1   5
ATOM      5  C   UNL     1     190.591   4.261  95.568  1.00  0.00     0.059 C 
BRANCH   5   6
ATOM      6  C   UNL     1     189.945   3.632  96.764  1.00  0.00     0.042 C 
ATOM      7  O   UNL     1     190.603   3.462  97.823  1.00  0.00    -0.550 OA
ATOM      8  O   UNL     1     188.628   3.197  96.696  1.00  0.00    -0.550 OA
ENDBRANCH   5   6
ENDBRANCH   1   5
TORSDOF 3
ENDMDL
MODEL 5
REMARK VINA RESULT:    -3.245      1.846      3.595
REMARK INTER + INTRA:          -3.977
REMARK INTER:                  -3.816
REMARK INTRA:                  -0.161
REMARK UNBOUND:                -0.163
REMARK SMILES O=C([O-])CCC(=O)[O-]
REMARK SMILES IDX 4 1 2 2 1 3 3 4 5 5 6 6 7 7 8 8
REMARK H PARENT
REMARK Flexibility Score: inf
ROOT
ATOM      1  C   UNL     1     190.565   4.319  97.553  1.00  0.00     0.059 C 
ENDROOT
BRANCH   1   2
ATOM      2  C   UNL     1     191.652   3.766  98.424  1.00  0.00     0.042 C 
ATOM      3  O   UNL     1     191.658   2.545  98.732  1.00  0.00    -0.550 OA
ATOM      4  O   UNL     1     192.637   4.607  98.926  1.00  0.00    -0.550 OA
ENDBRANCH   1   2
BRANCH   1   5
ATOM      5  C   UNL     1     190.368   3.472  96.291  1.00  0.00     0.059 C 
BRANCH   5   6
ATOM      6  C   UNL     1     191.567   3.527  95.396  1.00  0.00     0.042 C 
ATOM      7  O   UNL     1     191.870   4.599  94.809  1.00  0.00    -0.550 OA
ATOM      8  O   UNL     1     192.326   2.384  95.178  1.00  0.00    -0.550 OA
ENDBRANCH   5   6
ENDBRANCH   1   5
TORSDOF 3
ENDMDL
MODEL 6
REMARK VINA RESULT:    -3.231      1.831      2.515
REMARK INTER + INTRA:          -3.960
REMARK INTER:                  -3.810
REMARK INTRA:                  -0.150
REMARK UNBOUND:                -0.163
REMARK SMILES O=C([O-])CCC(=O)[O-]
REMARK SMILES IDX 4 1 2 2 1 3 3 4 5 5 6 6 7 7 8 8
REMARK H PARENT
REMARK Flexibility Score: inf
ROOT
ATOM      1  C   UNL     1     190.339   3.471  96.227  1.00  0.00     0.059 C 
ENDROOT
BRANCH   1   2
ATOM      2  C   UNL     1     191.479   3.583  95.261  1.00  0.00     0.042 C 
ATOM      3  O   UNL     1     191.669   4.654  94.626  1.00  0.00    -0.550 OA
ATOM      4  O   UNL     1     192.308   2.492  95.033  1.00  0.00    -0.550 OA
ENDBRANCH   1   2
BRANCH   1   5
ATOM      5  C   UNL     1     190.581   4.314  97.484  1.00  0.00     0.059 C 
BRANCH   5   6
ATOM      6  C   UNL     1     191.665   3.734  98.339  1.00  0.00     0.042 C 
ATOM      7  O   UNL     1     191.698   2.496  98.565  1.00  0.00    -0.550 OA
ATOM      8  O   UNL     1     192.615   4.565  98.919  1.00  0.00    -0.550 OA
ENDBRANCH   5   6
ENDBRANCH   1   5
TORSDOF 3
ENDMDL
MODEL 7
REMARK VINA RESULT:    -3.188      2.699      3.526
REMARK INTER + INTRA:          -3.910
REMARK INTER:                  -3.794
REMARK INTRA:                  -0.116
REMARK UNBOUND:                -0.163
REMARK SMILES O=C([O-])CCC(=O)[O-]
REMARK SMILES IDX 4 1 2 2 1 3 3 4 5 5 6 6 7 7 8 8
REMARK H PARENT
REMARK Flexibility Score: inf
ROOT
ATOM      1  C   UNL     1     190.235   4.680  97.906  1.00  0.00     0.059 C 
ENDROOT
BRANCH   1   2
ATOM      2  C   UNL     1     191.509   3.964  98.236  1.00  0.00     0.042 C 
ATOM      3  O   UNL     1     191.655   2.753  97.920  1.00  0.00    -0.550 OA
ATOM      4  O   UNL     1     192.518   4.622  98.927  1.00  0.00    -0.550 OA
ENDBRANCH   1   2
BRANCH   1   5
ATOM      5  C   UNL     1     189.005   3.835  98.258  1.00  0.00     0.059 C 
BRANCH   5   6
ATOM      6  C   UNL     1     188.260   3.403  97.033  1.00  0.00     0.042 C 
ATOM      7  O   UNL     1     188.755   3.596  95.891  1.00  0.00    -0.550 OA
ATOM      8  O   UNL     1     187.003   2.826  97.149  1.00  0.00    -0.550 OA
ENDBRANCH   5   6
ENDBRANCH   1   5
TORSDOF 3
ENDMDL
MODEL 8
REMARK VINA RESULT:    -3.144      1.552      3.702
REMARK INTER + INTRA:          -3.859
REMARK INTER:                  -3.726
REMARK INTRA:                  -0.132
REMARK UNBOUND:                -0.163
REMARK SMILES O=C([O-])CCC(=O)[O-]
REMARK SMILES IDX 4 1 2 2 1 3 3 4 5 5 6 6 7 7 8 8
REMARK H PARENT
REMARK Flexibility Score: inf
ROOT
ATOM      1  C   UNL     1     190.063   4.544  96.783  1.00  0.00     0.059 C 
ENDROOT
BRANCH   1   2
ATOM      2  C   UNL     1     188.805   3.944  96.232  1.00  0.00     0.042 C 
ATOM      3  O   UNL     1     188.425   4.229  95.065  1.00  0.00    -0.550 OA
ATOM      4  O   UNL     1     188.032   3.101  97.020  1.00  0.00    -0.550 OA
ENDBRANCH   1   2
BRANCH   1   5
ATOM      5  C   UNL     1     191.234   3.559  96.717  1.00  0.00     0.059 C 
BRANCH   5   6
ATOM      6  C   UNL     1     191.858   3.531  95.355  1.00  0.00     0.042 C 
ATOM      7  O   UNL     1     192.360   2.465  94.911  1.00  0.00    -0.550 OA
ATOM      8  O   UNL     1     191.919   4.690  94.593  1.00  0.00    -0.550 OA
ENDBRANCH   5   6
ENDBRANCH   1   5
TORSDOF 3
ENDMDL
MODEL 9
REMARK VINA RESULT:    -3.117      1.563      1.995
REMARK INTER + INTRA:          -3.826
REMARK INTER:                  -3.697
REMARK INTRA:                  -0.129
REMARK UNBOUND:                -0.163
REMARK SMILES O=C([O-])CCC(=O)[O-]
REMARK SMILES IDX 4 1 2 2 1 3 3 4 5 5 6 6 7 7 8 8
REMARK H PARENT
REMARK Flexibility Score: inf
ROOT
ATOM      1  C   UNL     1     191.082   3.494  96.683  1.00  0.00     0.059 C 
ENDROOT
BRANCH   1   2
ATOM      2  C   UNL     1     191.806   3.479  95.371  1.00  0.00     0.042 C 
ATOM      3  O   UNL     1     192.360   2.424  94.965  1.00  0.00    -0.550 OA
ATOM      4  O   UNL     1     191.901   4.641  94.616  1.00  0.00    -0.550 OA
ENDBRANCH   1   2
BRANCH   1   5
ATOM      5  C   UNL     1     189.953   4.531  96.694  1.00  0.00     0.059 C 
BRANCH   5   6
ATOM      6  C   UNL     1     188.679   3.968  96.143  1.00  0.00     0.042 C 
ATOM      7  O   UNL     1     188.297   4.281  94.985  1.00  0.00    -0.550 OA
ATOM      8  O   UNL     1     187.894   3.129  96.923  1.00  0.00    -0.550 OA
ENDBRANCH   5   6
ENDBRANCH   1   5
TORSDOF 3
ENDMDL
