MODEL 1
REMARK VINA RESULT:    -3.234      0.000      0.000
REMARK INTER + INTRA:          -4.394
REMARK INTER:                  -3.896
REMARK INTRA:                  -0.498
REMARK UNBOUND:                -0.498
REMARK SMILES NC(=O)C[C@@H]([NH3+])C(=O)[O-]
REMARK SMILES IDX 4 1 5 2 6 3 7 7 8 8 9 9 2 10 3 11 1 12
REMARK H PARENT 6 4 6 5 6 6 1 13 1 14
REMARK Flexibility Score: inf
ROOT
ATOM      1  C   UNL     1     126.151 115.064 106.956  1.00  0.00     0.171 C 
ENDROOT
BRANCH   1   2
ATOM      2  C   UNL     1     126.061 116.307 107.863  1.00  0.00     0.237 C 
BRANCH   2   3
ATOM      3  N   UNL     1     124.826 117.065 107.616  1.00  0.00    -0.350 N 
ATOM      4  H   UNL     1     124.923 117.662 106.763  1.00  0.00     0.345 HD
ATOM      5  H   UNL     1     124.025 116.405 107.485  1.00  0.00     0.345 HD
ATOM      6  H   UNL     1     124.608 117.673 108.438  1.00  0.00     0.345 HD
ENDBRANCH   2   3
BRANCH   2   7
ATOM      7  C   UNL     1     126.136 115.890 109.309  1.00  0.00     0.100 C 
ATOM      8  O   UNL     1     127.120 116.228 110.020  1.00  0.00    -0.544 OA
ATOM      9  O   UNL     1     125.108 115.144 109.871  1.00  0.00    -0.544 OA
ENDBRANCH   2   7
ENDBRANCH   1   2
BRANCH   1  10
ATOM     10  C   UNL     1     124.793 114.574 106.547  1.00  0.00     0.223 C 
ATOM     11  O   UNL     1     124.207 115.102 105.565  1.00  0.00    -0.275 OA
ATOM     12  N   UNL     1     124.144 113.538 107.285  1.00  0.00    -0.369 N 
ATOM     13  H   UNL     1     124.604 113.105 108.116  1.00  0.00     0.159 HD
ATOM     14  H   UNL     1     123.194 113.207 107.004  1.00  0.00     0.159 HD
ENDBRANCH   1  10
TORSDOF 4
ENDMDL
MODEL 2
REMARK VINA RESULT:    -3.231     11.867     12.551
REMARK INTER + INTRA:          -4.390
REMARK INTER:                  -3.903
REMARK INTRA:                  -0.487
REMARK UNBOUND:                -0.498
REMARK SMILES NC(=O)C[C@@H]([NH3+])C(=O)[O-]
REMARK SMILES IDX 4 1 5 2 6 3 7 7 8 8 9 9 2 10 3 11 1 12
REMARK H PARENT 6 4 6 5 6 6 1 13 1 14
REMARK Flexibility Score: inf
ROOT
ATOM      1  C   UNL     1     112.498 116.702 106.963  1.00  0.00     0.171 C 
ENDROOT
BRANCH   1   2
ATOM      2  C   UNL     1     113.608 116.154 107.882  1.00  0.00     0.237 C 
BRANCH   2   3
ATOM      3  N   UNL     1     114.895 116.816 107.626  1.00  0.00    -0.350 N 
ATOM      4  H   UNL     1     114.782 117.589 106.931  1.00  0.00     0.345 HD
ATOM      5  H   UNL     1     115.274 117.209 108.518  1.00  0.00     0.345 HD
ATOM      6  H   UNL     1     115.588 116.124 107.262  1.00  0.00     0.345 HD
ENDBRANCH   2   3
BRANCH   2   7
ATOM      7  C   UNL     1     113.210 116.328 109.324  1.00  0.00     0.100 C 
ATOM      8  O   UNL     1     112.977 115.324 110.048  1.00  0.00    -0.544 OA
ATOM      9  O   UNL     1     113.115 117.602 109.869  1.00  0.00    -0.544 OA
ENDBRANCH   2   7
ENDBRANCH   1   2
BRANCH   1  10
ATOM     10  C   UNL     1     112.766 118.121 106.553  1.00  0.00     0.223 C 
ATOM     11  O   UNL     1     113.548 118.358 105.594  1.00  0.00    -0.275 OA
ATOM     12  N   UNL     1     112.171 119.206 107.265  1.00  0.00    -0.369 N 
ATOM     13  H   UNL     1     111.539 119.029 108.078  1.00  0.00     0.159 HD
ATOM     14  H   UNL     1     112.368 120.192 106.984  1.00  0.00     0.159 HD
ENDBRANCH   1  10
TORSDOF 4
ENDMDL
MODEL 3
REMARK VINA RESULT:    -3.200     11.788     12.481
REMARK INTER + INTRA:          -4.353
REMARK INTER:                  -3.862
REMARK INTRA:                  -0.491
REMARK UNBOUND:                -0.498
REMARK SMILES NC(=O)C[C@@H]([NH3+])C(=O)[O-]
REMARK SMILES IDX 4 1 5 2 6 3 7 7 8 8 9 9 2 10 3 11 1 12
REMARK H PARENT 6 4 6 5 6 6 1 13 1 14
REMARK Flexibility Score: inf
ROOT
ATOM      1  C   UNL     1     120.777 127.615 107.013  1.00  0.00     0.171 C 
ENDROOT
BRANCH   1   2
ATOM      2  C   UNL     1     119.792 126.895 107.955  1.00  0.00     0.237 C 
BRANCH   2   3
ATOM      3  N   UNL     1     119.831 125.438 107.765  1.00  0.00    -0.350 N 
ATOM      4  H   UNL     1     119.382 125.170 106.859  1.00  0.00     0.345 HD
ATOM      5  H   UNL     1     120.824 125.107 107.767  1.00  0.00     0.345 HD
ATOM      6  H   UNL     1     119.334 124.960 108.550  1.00  0.00     0.345 HD
ENDBRANCH   2   3
BRANCH   2   7
ATOM      7  C   UNL     1     120.107 127.243 109.386  1.00  0.00     0.100 C 
ATOM      8  O   UNL     1     119.299 127.926 110.070  1.00  0.00    -0.544 OA
ATOM      9  O   UNL     1     121.287 126.795 109.966  1.00  0.00    -0.544 OA
ENDBRANCH   2   7
ENDBRANCH   1   2
BRANCH   1  10
ATOM     10  C   UNL     1     121.934 126.734 106.642  1.00  0.00     0.223 C 
ATOM     11  O   UNL     1     121.810 125.897 105.708  1.00  0.00    -0.275 OA
ATOM     12  N   UNL     1     123.164 126.812 107.362  1.00  0.00    -0.369 N 
ATOM     13  H   UNL     1     123.278 127.484 108.154  1.00  0.00     0.159 HD
ATOM     14  H   UNL     1     123.964 126.191 107.109  1.00  0.00     0.159 HD
ENDBRANCH   1  10
TORSDOF 4
ENDMDL
MODEL 4
REMARK VINA RESULT:    -3.053     10.121     10.896
REMARK INTER + INTRA:          -4.175
REMARK INTER:                  -3.704
REMARK INTRA:                  -0.471
REMARK UNBOUND:                -0.498
REMARK SMILES NC(=O)C[C@@H]([NH3+])C(=O)[O-]
REMARK SMILES IDX 4 1 5 2 6 3 7 7 8 8 9 9 2 10 3 11 1 12
REMARK H PARENT 6 4 6 5 6 6 1 13 1 14
REMARK Flexibility Score: inf
ROOT
ATOM      1  C   UNL     1     123.559 126.788 107.411  1.00  0.00     0.171 C 
ENDROOT
BRANCH   1   2
ATOM      2  C   UNL     1     123.501 126.121 108.801  1.00  0.00     0.237 C 
BRANCH   2   3
ATOM      3  N   UNL     1     122.146 126.177 109.368  1.00  0.00    -0.350 N 
ATOM      4  H   UNL     1     121.610 125.311 109.132  1.00  0.00     0.345 HD
ATOM      5  H   UNL     1     122.201 126.274 110.409  1.00  0.00     0.345 HD
ATOM      6  H   UNL     1     121.636 127.010 108.997  1.00  0.00     0.345 HD
ENDBRANCH   2   3
BRANCH   2   7
ATOM      7  C   UNL     1     123.966 124.692 108.702  1.00  0.00     0.100 C 
ATOM      8  O   UNL     1     123.856 124.059 107.618  1.00  0.00    -0.544 OA
ATOM      9  O   UNL     1     124.538 124.071 109.804  1.00  0.00    -0.544 OA
ENDBRANCH   2   7
ENDBRANCH   1   2
BRANCH   1  10
ATOM     10  C   UNL     1     122.205 126.849 106.767  1.00  0.00     0.223 C 
ATOM     11  O   UNL     1     121.436 127.815 107.018  1.00  0.00    -0.275 OA
ATOM     12  N   UNL     1     121.767 125.802 105.901  1.00  0.00    -0.369 N 
ATOM     13  H   UNL     1     122.382 124.982 105.700  1.00  0.00     0.159 HD
ATOM     14  H   UNL     1     120.820 125.843 105.462  1.00  0.00     0.159 HD
ENDBRANCH   1  10
TORSDOF 4
ENDMDL
MODEL 5
REMARK VINA RESULT:    -3.037      2.829      3.997
REMARK INTER + INTRA:          -4.157
REMARK INTER:                  -3.677
REMARK INTRA:                  -0.480
REMARK UNBOUND:                -0.498
REMARK SMILES NC(=O)C[C@@H]([NH3+])C(=O)[O-]
REMARK SMILES IDX 4 1 5 2 6 3 7 7 8 8 9 9 2 10 3 11 1 12
REMARK H PARENT 6 4 6 5 6 6 1 13 1 14
REMARK Flexibility Score: inf
ROOT
ATOM      1  C   UNL     1     123.818 113.105 107.100  1.00  0.00     0.171 C 
ENDROOT
BRANCH   1   2
ATOM      2  C   UNL     1     123.061 113.525 108.375  1.00  0.00     0.237 C 
BRANCH   2   3
ATOM      3  N   UNL     1     123.784 114.571 109.111  1.00  0.00    -0.350 N 
ATOM      4  H   UNL     1     123.217 115.448 109.163  1.00  0.00     0.345 HD
ATOM      5  H   UNL     1     123.995 114.241 110.082  1.00  0.00     0.345 HD
ATOM      6  H   UNL     1     124.694 114.777 108.640  1.00  0.00     0.345 HD
ENDBRANCH   2   3
BRANCH   2   7
ATOM      7  C   UNL     1     121.679 114.003 108.014  1.00  0.00     0.100 C 
ATOM      8  O   UNL     1     120.662 113.458 108.520  1.00  0.00    -0.544 OA
ATOM      9  O   UNL     1     121.519 115.064 107.132  1.00  0.00    -0.544 OA
ENDBRANCH   2   7
ENDBRANCH   1   2
BRANCH   1  10
ATOM     10  C   UNL     1     124.679 114.216 106.574  1.00  0.00     0.223 C 
ATOM     11  O   UNL     1     125.875 114.316 106.959  1.00  0.00    -0.275 OA
ATOM     12  N   UNL     1     124.145 115.181 105.668  1.00  0.00    -0.369 N 
ATOM     13  H   UNL     1     123.149 115.127 105.356  1.00  0.00     0.159 HD
ATOM     14  H   UNL     1     124.744 115.958 105.312  1.00  0.00     0.159 HD
ENDBRANCH   1  10
TORSDOF 4
ENDMDL
MODEL 6
REMARK VINA RESULT:    -3.000     12.505     13.085
REMARK INTER + INTRA:          -4.112
REMARK INTER:                  -3.616
REMARK INTRA:                  -0.496
REMARK UNBOUND:                -0.498
REMARK SMILES NC(=O)C[C@@H]([NH3+])C(=O)[O-]
REMARK SMILES IDX 4 1 5 2 6 3 7 7 8 8 9 9 2 10 3 11 1 12
REMARK H PARENT 6 4 6 5 6 6 1 13 1 14
REMARK Flexibility Score: inf
ROOT
ATOM      1  C   UNL     1     112.030 119.723 107.166  1.00  0.00     0.171 C 
ENDROOT
BRANCH   1   2
ATOM      2  C   UNL     1     112.811 120.159 108.422  1.00  0.00     0.237 C 
BRANCH   2   3
ATOM      3  N   UNL     1     113.377 119.004 109.132  1.00  0.00    -0.350 N 
ATOM      4  H   UNL     1     113.677 118.264 108.457  1.00  0.00     0.345 HD
ATOM      5  H   UNL     1     114.202 119.306 109.700  1.00  0.00     0.345 HD
ATOM      6  H   UNL     1     112.668 118.604 109.788  1.00  0.00     0.345 HD
ENDBRANCH   2   3
BRANCH   2   7
ATOM      7  C   UNL     1     113.905 121.120 108.035  1.00  0.00     0.100 C 
ATOM      8  O   UNL     1     113.915 122.294 108.493  1.00  0.00    -0.544 OA
ATOM      9  O   UNL     1     114.922 120.708 107.183  1.00  0.00    -0.544 OA
ENDBRANCH   2   7
ENDBRANCH   1   2
BRANCH   1  10
ATOM     10  C   UNL     1     112.528 118.413 106.630  1.00  0.00     0.223 C 
ATOM     11  O   UNL     1     111.994 117.337 107.012  1.00  0.00    -0.275 OA
ATOM     12  N   UNL     1     113.625 118.372 105.717  1.00  0.00    -0.369 N 
ATOM     13  H   UNL     1     114.094 119.252 105.407  1.00  0.00     0.159 HD
ATOM     14  H   UNL     1     113.975 117.458 105.354  1.00  0.00     0.159 HD
ENDBRANCH   1  10
TORSDOF 4
ENDMDL
MODEL 7
REMARK VINA RESULT:    -2.994     12.138     12.893
REMARK INTER + INTRA:          -4.105
REMARK INTER:                  -3.764
REMARK INTRA:                  -0.341
REMARK UNBOUND:                -0.498
REMARK SMILES NC(=O)C[C@@H]([NH3+])C(=O)[O-]
REMARK SMILES IDX 4 1 5 2 6 3 7 7 8 8 9 9 2 10 3 11 1 12
REMARK H PARENT 6 4 6 5 6 6 1 13 1 14
REMARK Flexibility Score: inf
ROOT
ATOM      1  C   UNL     1     120.389 126.501 112.123  1.00  0.00     0.171 C 
ENDROOT
BRANCH   1   2
ATOM      2  C   UNL     1     120.786 126.775 110.659  1.00  0.00     0.237 C 
BRANCH   2   3
ATOM      3  N   UNL     1     120.909 125.527 109.892  1.00  0.00    -0.350 N 
ATOM      4  H   UNL     1     121.583 124.874 110.354  1.00  0.00     0.345 HD
ATOM      5  H   UNL     1     119.975 125.062 109.819  1.00  0.00     0.345 HD
ATOM      6  H   UNL     1     121.240 125.733 108.922  1.00  0.00     0.345 HD
ENDBRANCH   2   3
BRANCH   2   7
ATOM      7  C   UNL     1     119.771 127.683 110.015  1.00  0.00     0.100 C 
ATOM      8  O   UNL     1     118.857 128.208 110.705  1.00  0.00    -0.544 OA
ATOM      9  O   UNL     1     119.851 127.962 108.657  1.00  0.00    -0.544 OA
ENDBRANCH   2   7
ENDBRANCH   1   2
BRANCH   1  10
ATOM     10  C   UNL     1     120.035 125.059 112.342  1.00  0.00     0.223 C 
ATOM     11  O   UNL     1     118.971 124.594 111.853  1.00  0.00    -0.275 OA
ATOM     12  N   UNL     1     120.877 124.218 113.132  1.00  0.00    -0.369 N 
ATOM     13  H   UNL     1     121.751 124.592 113.564  1.00  0.00     0.159 HD
ATOM     14  H   UNL     1     120.622 123.219 113.290  1.00  0.00     0.159 HD
ENDBRANCH   1  10
TORSDOF 4
ENDMDL
MODEL 8
REMARK VINA RESULT:    -2.926     10.913     11.706
REMARK INTER + INTRA:          -4.023
REMARK INTER:                  -3.534
REMARK INTRA:                  -0.489
REMARK UNBOUND:                -0.498
REMARK SMILES NC(=O)C[C@@H]([NH3+])C(=O)[O-]
REMARK SMILES IDX 4 1 5 2 6 3 7 7 8 8 9 9 2 10 3 11 1 12
REMARK H PARENT 6 4 6 5 6 6 1 13 1 14
REMARK Flexibility Score: inf
ROOT
ATOM      1  C   UNL     1     123.300 126.955 107.246  1.00  0.00     0.171 C 
ENDROOT
BRANCH   1   2
ATOM      2  C   UNL     1     121.917 126.742 106.598  1.00  0.00     0.237 C 
BRANCH   2   3
ATOM      3  N   UNL     1     121.737 125.352 106.157  1.00  0.00    -0.350 N 
ATOM      4  H   UNL     1     120.776 125.207 105.770  1.00  0.00     0.345 HD
ATOM      5  H   UNL     1     122.442 125.119 105.420  1.00  0.00     0.345 HD
ATOM      6  H   UNL     1     121.887 124.699 106.960  1.00  0.00     0.345 HD
ENDBRANCH   2   3
BRANCH   2   7
ATOM      7  C   UNL     1     120.832 127.126 107.570  1.00  0.00     0.100 C 
ATOM      8  O   UNL     1     120.363 128.295 107.574  1.00  0.00    -0.544 OA
ATOM      9  O   UNL     1     120.330 126.183 108.457  1.00  0.00    -0.544 OA
ENDBRANCH   2   7
ENDBRANCH   1   2
BRANCH   1  10
ATOM     10  C   UNL     1     123.766 125.729 107.974  1.00  0.00     0.223 C 
ATOM     11  O   UNL     1     124.500 124.892 107.385  1.00  0.00    -0.275 OA
ATOM     12  N   UNL     1     123.355 125.484 109.320  1.00  0.00    -0.369 N 
ATOM     13  H   UNL     1     122.728 126.155 109.817  1.00  0.00     0.159 HD
ATOM     14  H   UNL     1     123.673 124.625 109.820  1.00  0.00     0.159 HD
ENDBRANCH   1  10
TORSDOF 4
ENDMDL
MODEL 9
REMARK VINA RESULT:    -2.869      2.249      2.703
REMARK INTER + INTRA:          -3.954
REMARK INTER:                  -3.539
REMARK INTRA:                  -0.414
REMARK UNBOUND:                -0.498
REMARK SMILES NC(=O)C[C@@H]([NH3+])C(=O)[O-]
REMARK SMILES IDX 4 1 5 2 6 3 7 7 8 8 9 9 2 10 3 11 1 12
REMARK H PARENT 6 4 6 5 6 6 1 13 1 14
REMARK Flexibility Score: inf
ROOT
ATOM      1  C   UNL     1     124.240 113.408 107.010  1.00  0.00     0.171 C 
ENDROOT
BRANCH   1   2
ATOM      2  C   UNL     1     124.685 114.709 106.313  1.00  0.00     0.237 C 
BRANCH   2   3
ATOM      3  N   UNL     1     123.533 115.532 105.922  1.00  0.00    -0.350 N 
ATOM      4  H   UNL     1     123.095 115.979 106.760  1.00  0.00     0.345 HD
ATOM      5  H   UNL     1     123.840 116.278 105.256  1.00  0.00     0.345 HD
ATOM      6  H   UNL     1     122.820 114.943 105.434  1.00  0.00     0.345 HD
ENDBRANCH   2   3
BRANCH   2   7
ATOM      7  C   UNL     1     125.598 115.489 107.223  1.00  0.00     0.100 C 
ATOM      8  O   UNL     1     125.160 116.472 107.877  1.00  0.00    -0.544 OA
ATOM      9  O   UNL     1     126.929 115.114 107.359  1.00  0.00    -0.544 OA
ENDBRANCH   2   7
ENDBRANCH   1   2
BRANCH   1  10
ATOM     10  C   UNL     1     123.025 113.623 107.864  1.00  0.00     0.223 C 
ATOM     11  O   UNL     1     121.885 113.327 107.417  1.00  0.00    -0.275 OA
ATOM     12  N   UNL     1     123.146 114.194 109.167  1.00  0.00    -0.369 N 
ATOM     13  H   UNL     1     124.081 114.467 109.546  1.00  0.00     0.159 HD
ATOM     14  H   UNL     1     122.298 114.352 109.754  1.00  0.00     0.159 HD
ENDBRANCH   1  10
TORSDOF 4
ENDMDL
