MODEL 1
REMARK VINA RESULT:    -4.463      0.000      0.000
REMARK INTER + INTRA:         -10.576
REMARK INTER:                  -8.115
REMARK INTRA:                  -2.461
REMARK UNBOUND:                -2.461
REMARK SMILES CCCCCCCCCCCCCCCC(=O)[O-]
REMARK SMILES IDX 9 1 10 2 11 3 12 4 13 5 14 6 15 7 16 8 17 9 18 10 8 11 7 12
REMARK SMILES IDX 6 13 5 14 4 15 3 16 2 17 1 18
REMARK H PARENT
REMARK Flexibility Score: inf
ROOT
ATOM      1  C   UNL     1      14.504 -17.719  38.755  1.00  0.00     0.000 C 
ENDROOT
BRANCH   1   2
ATOM      2  C   UNL     1      13.242 -17.094  38.147  1.00  0.00     0.000 C 
BRANCH   2   3
ATOM      3  C   UNL     1      13.445 -16.777  36.661  1.00  0.00     0.000 C 
BRANCH   3   4
ATOM      4  C   UNL     1      14.878 -17.110  36.218  1.00  0.00     0.000 C 
BRANCH   4   5
ATOM      5  C   UNL     1      15.737 -15.855  35.994  1.00  0.00     0.000 C 
BRANCH   5   6
ATOM      6  C   UNL     1      17.163 -16.007  36.546  1.00  0.00     0.006 C 
BRANCH   6   7
ATOM      7  C   UNL     1      17.771 -14.639  36.872  1.00  0.00     0.053 C 
BRANCH   7   8
ATOM      8  C   UNL     1      17.602 -13.702  35.718  1.00  0.00     0.041 C 
ATOM      9  O   UNL     1      18.312 -13.833  34.687  1.00  0.00    -0.550 OA
ATOM     10  O   UNL     1      16.630 -12.710  35.763  1.00  0.00    -0.550 OA
ENDBRANCH   7   8
ENDBRANCH   6   7
ENDBRANCH   5   6
ENDBRANCH   4   5
ENDBRANCH   3   4
ENDBRANCH   2   3
ENDBRANCH   1   2
BRANCH   1  11
ATOM     11  C   UNL     1      15.050 -16.852  39.900  1.00  0.00     0.000 C 
BRANCH  11  12
ATOM     12  C   UNL     1      14.491 -15.419  39.875  1.00  0.00    -0.000 C 
BRANCH  12  13
ATOM     13  C   UNL     1      15.587 -14.364  39.649  1.00  0.00    -0.000 C 
BRANCH  13  14
ATOM     14  C   UNL     1      15.089 -13.144  38.853  1.00  0.00    -0.000 C 
BRANCH  14  15
ATOM     15  C   UNL     1      13.844 -13.395  37.983  1.00  0.00    -0.000 C 
BRANCH  15  16
ATOM     16  C   UNL     1      12.619 -12.591  38.442  1.00  0.00    -0.000 C 
BRANCH  16  17
ATOM     17  C   UNL     1      11.475 -13.522  38.859  1.00  0.00    -0.003 C 
ATOM     18  C   UNL     1      10.951 -14.321  37.669  1.00  0.00     0.004 C 
ENDBRANCH  16  17
ENDBRANCH  15  16
ENDBRANCH  14  15
ENDBRANCH  13  14
ENDBRANCH  12  13
ENDBRANCH  11  12
ENDBRANCH   1  11
TORSDOF 14
ENDMDL
MODEL 2
REMARK VINA RESULT:    -4.215     11.336     14.124
REMARK INTER + INTRA:         -10.126
REMARK INTER:                  -8.114
REMARK INTRA:                  -2.012
REMARK UNBOUND:                -2.461
REMARK SMILES CCCCCCCCCCCCCCCC(=O)[O-]
REMARK SMILES IDX 9 1 10 2 11 3 12 4 13 5 14 6 15 7 16 8 17 9 18 10 8 11 7 12
REMARK SMILES IDX 6 13 5 14 4 15 3 16 2 17 1 18
REMARK H PARENT
REMARK Flexibility Score: inf
ROOT
ATOM      1  C   UNL     1      23.829 -25.643  34.350  1.00  0.00     0.000 C 
ENDROOT
BRANCH   1   2
ATOM      2  C   UNL     1      22.478 -25.975  33.706  1.00  0.00     0.000 C 
BRANCH   2   3
ATOM      3  C   UNL     1      21.924 -24.772  32.935  1.00  0.00     0.000 C 
BRANCH   3   4
ATOM      4  C   UNL     1      20.388 -24.790  32.916  1.00  0.00     0.000 C 
BRANCH   4   5
ATOM      5  C   UNL     1      19.773 -23.465  33.394  1.00  0.00     0.000 C 
BRANCH   5   6
ATOM      6  C   UNL     1      20.701 -22.262  33.160  1.00  0.00     0.006 C 
BRANCH   6   7
ATOM      7  C   UNL     1      19.923 -21.078  32.577  1.00  0.00     0.053 C 
BRANCH   7   8
ATOM      8  C   UNL     1      20.770 -20.324  31.601  1.00  0.00     0.041 C 
ATOM      9  O   UNL     1      20.232 -19.648  30.686  1.00  0.00    -0.550 OA
ATOM     10  O   UNL     1      22.154 -20.332  31.729  1.00  0.00    -0.550 OA
ENDBRANCH   7   8
ENDBRANCH   6   7
ENDBRANCH   5   6
ENDBRANCH   4   5
ENDBRANCH   3   4
ENDBRANCH   2   3
ENDBRANCH   1   2
BRANCH   1  11
ATOM     11  C   UNL     1      24.807 -26.820  34.216  1.00  0.00     0.000 C 
BRANCH  11  12
ATOM     12  C   UNL     1      24.386 -27.817  33.123  1.00  0.00    -0.000 C 
BRANCH  12  13
ATOM     13  C   UNL     1      25.179 -27.631  31.818  1.00  0.00    -0.000 C 
BRANCH  13  14
ATOM     14  C   UNL     1      24.342 -26.993  30.694  1.00  0.00    -0.000 C 
BRANCH  14  15
ATOM     15  C   UNL     1      24.614 -25.498  30.445  1.00  0.00    -0.000 C 
BRANCH  15  16
ATOM     16  C   UNL     1      25.891 -24.997  31.134  1.00  0.00    -0.000 C 
BRANCH  16  17
ATOM     17  C   UNL     1      25.616 -23.724  31.942  1.00  0.00    -0.003 C 
ATOM     18  C   UNL     1      24.516 -22.886  31.296  1.00  0.00     0.004 C 
ENDBRANCH  16  17
ENDBRANCH  15  16
ENDBRANCH  14  15
ENDBRANCH  13  14
ENDBRANCH  12  13
ENDBRANCH  11  12
ENDBRANCH   1  11
TORSDOF 14
ENDMDL
MODEL 3
REMARK VINA RESULT:    -4.170     11.297     13.941
REMARK INTER + INTRA:         -10.044
REMARK INTER:                  -7.940
REMARK INTRA:                  -2.104
REMARK UNBOUND:                -2.461
REMARK SMILES CCCCCCCCCCCCCCCC(=O)[O-]
REMARK SMILES IDX 9 1 10 2 11 3 12 4 13 5 14 6 15 7 16 8 17 9 18 10 8 11 7 12
REMARK SMILES IDX 6 13 5 14 4 15 3 16 2 17 1 18
REMARK H PARENT
REMARK Flexibility Score: inf
ROOT
ATOM      1  C   UNL     1      24.403 -26.052  30.596  1.00  0.00     0.000 C 
ENDROOT
BRANCH   1   2
ATOM      2  C   UNL     1      24.634 -24.536  30.614  1.00  0.00     0.000 C 
BRANCH   2   3
ATOM      3  C   UNL     1      25.466 -24.119  31.831  1.00  0.00     0.000 C 
BRANCH   3   4
ATOM      4  C   UNL     1      24.856 -22.889  32.520  1.00  0.00     0.000 C 
BRANCH   4   5
ATOM      5  C   UNL     1      23.782 -22.200  31.662  1.00  0.00     0.000 C 
BRANCH   5   6
ATOM      6  C   UNL     1      23.103 -21.030  32.391  1.00  0.00     0.006 C 
BRANCH   6   7
ATOM      7  C   UNL     1      21.700 -21.422  32.866  1.00  0.00     0.053 C 
BRANCH   7   8
ATOM      8  C   UNL     1      20.657 -20.694  32.078  1.00  0.00     0.041 C 
ATOM      9  O   UNL     1      20.991 -19.969  31.104  1.00  0.00    -0.550 OA
ATOM     10  O   UNL     1      19.313 -20.849  32.393  1.00  0.00    -0.550 OA
ENDBRANCH   7   8
ENDBRANCH   6   7
ENDBRANCH   5   6
ENDBRANCH   4   5
ENDBRANCH   3   4
ENDBRANCH   2   3
ENDBRANCH   1   2
BRANCH   1  11
ATOM     11  C   UNL     1      25.482 -26.783  31.410  1.00  0.00     0.000 C 
BRANCH  11  12
ATOM     12  C   UNL     1      24.924 -27.992  32.180  1.00  0.00    -0.000 C 
BRANCH  12  13
ATOM     13  C   UNL     1      24.714 -27.692  33.674  1.00  0.00    -0.000 C 
BRANCH  13  14
ATOM     14  C   UNL     1      23.279 -27.240  33.999  1.00  0.00    -0.000 C 
BRANCH  14  15
ATOM     15  C   UNL     1      23.086 -25.718  34.127  1.00  0.00    -0.000 C 
BRANCH  15  16
ATOM     16  C   UNL     1      21.987 -25.172  33.205  1.00  0.00    -0.000 C 
BRANCH  16  17
ATOM     17  C   UNL     1      20.614 -25.245  33.884  1.00  0.00    -0.003 C 
ATOM     18  C   UNL     1      19.565 -24.469  33.092  1.00  0.00     0.004 C 
ENDBRANCH  16  17
ENDBRANCH  15  16
ENDBRANCH  14  15
ENDBRANCH  13  14
ENDBRANCH  12  13
ENDBRANCH  11  12
ENDBRANCH   1  11
TORSDOF 14
ENDMDL
MODEL 4
REMARK VINA RESULT:    -4.139      3.484      5.515
REMARK INTER + INTRA:          -9.987
REMARK INTER:                  -7.783
REMARK INTRA:                  -2.205
REMARK UNBOUND:                -2.461
REMARK SMILES CCCCCCCCCCCCCCCC(=O)[O-]
REMARK SMILES IDX 9 1 10 2 11 3 12 4 13 5 14 6 15 7 16 8 17 9 18 10 8 11 7 12
REMARK SMILES IDX 6 13 5 14 4 15 3 16 2 17 1 18
REMARK H PARENT
REMARK Flexibility Score: inf
ROOT
ATOM      1  C   UNL     1      12.529 -14.223  38.031  1.00  0.00     0.000 C 
ENDROOT
BRANCH   1   2
ATOM      2  C   UNL     1      11.910 -14.728  39.340  1.00  0.00     0.000 C 
BRANCH   2   3
ATOM      3  C   UNL     1      12.865 -15.679  40.070  1.00  0.00     0.000 C 
BRANCH   3   4
ATOM      4  C   UNL     1      13.745 -16.448  39.073  1.00  0.00     0.000 C 
BRANCH   4   5
ATOM      5  C   UNL     1      15.049 -16.960  39.705  1.00  0.00     0.000 C 
BRANCH   5   6
ATOM      6  C   UNL     1      15.389 -18.398  39.281  1.00  0.00     0.006 C 
BRANCH   6   7
ATOM      7  C   UNL     1      14.132 -19.141  38.816  1.00  0.00     0.053 C 
BRANCH   7   8
ATOM      8  C   UNL     1      13.932 -20.386  39.622  1.00  0.00     0.041 C 
ATOM      9  O   UNL     1      14.650 -20.610  40.631  1.00  0.00    -0.550 OA
ATOM     10  O   UNL     1      12.922 -21.279  39.283  1.00  0.00    -0.550 OA
ENDBRANCH   7   8
ENDBRANCH   6   7
ENDBRANCH   5   6
ENDBRANCH   4   5
ENDBRANCH   3   4
ENDBRANCH   2   3
ENDBRANCH   1   2
BRANCH   1  11
ATOM     11  C   UNL     1      13.026 -12.777  38.179  1.00  0.00     0.000 C 
BRANCH  11  12
ATOM     12  C   UNL     1      14.524 -12.699  38.517  1.00  0.00    -0.000 C 
BRANCH  12  13
ATOM     13  C   UNL     1      15.392 -13.509  37.539  1.00  0.00    -0.000 C 
BRANCH  13  14
ATOM     14  C   UNL     1      16.632 -14.127  38.210  1.00  0.00    -0.000 C 
BRANCH  14  15
ATOM     15  C   UNL     1      17.643 -14.772  37.245  1.00  0.00    -0.000 C 
BRANCH  15  16
ATOM     16  C   UNL     1      16.996 -15.283  35.950  1.00  0.00    -0.000 C 
BRANCH  16  17
ATOM     17  C   UNL     1      16.543 -16.740  36.100  1.00  0.00    -0.003 C 
ATOM     18  C   UNL     1      15.065 -16.897  35.751  1.00  0.00     0.004 C 
ENDBRANCH  16  17
ENDBRANCH  15  16
ENDBRANCH  14  15
ENDBRANCH  13  14
ENDBRANCH  12  13
ENDBRANCH  11  12
ENDBRANCH   1  11
TORSDOF 14
ENDMDL
MODEL 5
REMARK VINA RESULT:    -4.102      2.900      5.074
REMARK INTER + INTRA:          -9.921
REMARK INTER:                  -7.594
REMARK INTRA:                  -2.328
REMARK UNBOUND:                -2.461
REMARK SMILES CCCCCCCCCCCCCCCC(=O)[O-]
REMARK SMILES IDX 9 1 10 2 11 3 12 4 13 5 14 6 15 7 16 8 17 9 18 10 8 11 7 12
REMARK SMILES IDX 6 13 5 14 4 15 3 16 2 17 1 18
REMARK H PARENT
REMARK Flexibility Score: inf
ROOT
ATOM      1  C   UNL     1      12.518 -15.432  38.943  1.00  0.00     0.000 C 
ENDROOT
BRANCH   1   2
ATOM      2  C   UNL     1      13.335 -16.086  40.064  1.00  0.00     0.000 C 
BRANCH   2   3
ATOM      3  C   UNL     1      14.804 -16.243  39.656  1.00  0.00     0.000 C 
BRANCH   3   4
ATOM      4  C   UNL     1      15.201 -17.725  39.586  1.00  0.00     0.000 C 
BRANCH   4   5
ATOM      5  C   UNL     1      14.042 -18.667  39.952  1.00  0.00     0.000 C 
BRANCH   5   6
ATOM      6  C   UNL     1      13.634 -19.585  38.789  1.00  0.00     0.006 C 
BRANCH   6   7
ATOM      7  C   UNL     1      12.186 -19.320  38.366  1.00  0.00     0.053 C 
BRANCH   7   8
ATOM      8  C   UNL     1      12.132 -18.847  36.948  1.00  0.00     0.041 C 
ATOM      9  O   UNL     1      12.655 -19.533  36.031  1.00  0.00    -0.550 OA
ATOM     10  O   UNL     1      11.465 -17.669  36.632  1.00  0.00    -0.550 OA
ENDBRANCH   7   8
ENDBRANCH   6   7
ENDBRANCH   5   6
ENDBRANCH   4   5
ENDBRANCH   3   4
ENDBRANCH   2   3
ENDBRANCH   1   2
BRANCH   1  11
ATOM     11  C   UNL     1      13.435 -14.730  37.931  1.00  0.00     0.000 C 
BRANCH  11  12
ATOM     12  C   UNL     1      13.582 -13.224  38.211  1.00  0.00    -0.000 C 
BRANCH  12  13
ATOM     13  C   UNL     1      15.049 -12.798  38.385  1.00  0.00    -0.000 C 
BRANCH  13  14
ATOM     14  C   UNL     1      15.961 -13.314  37.257  1.00  0.00    -0.000 C 
BRANCH  14  15
ATOM     15  C   UNL     1      17.162 -14.158  37.721  1.00  0.00    -0.000 C 
BRANCH  15  16
ATOM     16  C   UNL     1      17.342 -15.446  36.906  1.00  0.00    -0.000 C 
BRANCH  16  17
ATOM     17  C   UNL     1      16.295 -15.542  35.791  1.00  0.00    -0.003 C 
ATOM     18  C   UNL     1      15.488 -16.832  35.900  1.00  0.00     0.004 C 
ENDBRANCH  16  17
ENDBRANCH  15  16
ENDBRANCH  14  15
ENDBRANCH  13  14
ENDBRANCH  12  13
ENDBRANCH  11  12
ENDBRANCH   1  11
TORSDOF 14
ENDMDL
MODEL 6
REMARK VINA RESULT:    -4.097      3.989      5.711
REMARK INTER + INTRA:          -9.911
REMARK INTER:                  -7.964
REMARK INTRA:                  -1.947
REMARK UNBOUND:                -2.461
REMARK SMILES CCCCCCCCCCCCCCCC(=O)[O-]
REMARK SMILES IDX 9 1 10 2 11 3 12 4 13 5 14 6 15 7 16 8 17 9 18 10 8 11 7 12
REMARK SMILES IDX 6 13 5 14 4 15 3 16 2 17 1 18
REMARK H PARENT
REMARK Flexibility Score: inf
ROOT
ATOM      1  C   UNL     1      15.198 -16.788  35.835  1.00  0.00     0.000 C 
ENDROOT
BRANCH   1   2
ATOM      2  C   UNL     1      14.737 -17.354  37.184  1.00  0.00     0.000 C 
BRANCH   2   3
ATOM      3  C   UNL     1      15.922 -17.539  38.138  1.00  0.00     0.000 C 
BRANCH   3   4
ATOM      4  C   UNL     1      15.442 -17.939  39.541  1.00  0.00     0.000 C 
BRANCH   4   5
ATOM      5  C   UNL     1      14.308 -18.977  39.507  1.00  0.00     0.000 C 
BRANCH   5   6
ATOM      6  C   UNL     1      14.654 -20.258  40.282  1.00  0.00     0.006 C 
BRANCH   6   7
ATOM      7  C   UNL     1      13.628 -21.361  40.000  1.00  0.00     0.053 C 
BRANCH   7   8
ATOM      8  C   UNL     1      14.188 -22.363  39.040  1.00  0.00     0.041 C 
ATOM      9  O   UNL     1      15.082 -23.167  39.414  1.00  0.00    -0.550 OA
ATOM     10  O   UNL     1      13.692 -22.439  37.745  1.00  0.00    -0.550 OA
ENDBRANCH   7   8
ENDBRANCH   6   7
ENDBRANCH   5   6
ENDBRANCH   4   5
ENDBRANCH   3   4
ENDBRANCH   2   3
ENDBRANCH   1   2
BRANCH   1  11
ATOM     11  C   UNL     1      16.595 -16.160  35.950  1.00  0.00     0.000 C 
BRANCH  11  12
ATOM     12  C   UNL     1      16.667 -14.758  35.322  1.00  0.00    -0.000 C 
BRANCH  12  13
ATOM     13  C   UNL     1      17.066 -13.676  36.340  1.00  0.00    -0.000 C 
BRANCH  13  14
ATOM     14  C   UNL     1      17.298 -14.241  37.754  1.00  0.00    -0.000 C 
BRANCH  14  15
ATOM     15  C   UNL     1      16.197 -13.910  38.778  1.00  0.00    -0.000 C 
BRANCH  15  16
ATOM     16  C   UNL     1      15.096 -13.006  38.205  1.00  0.00    -0.000 C 
BRANCH  16  17
ATOM     17  C   UNL     1      13.759 -13.751  38.126  1.00  0.00    -0.003 C 
ATOM     18  C   UNL     1      13.627 -14.771  39.254  1.00  0.00     0.004 C 
ENDBRANCH  16  17
ENDBRANCH  15  16
ENDBRANCH  14  15
ENDBRANCH  13  14
ENDBRANCH  12  13
ENDBRANCH  11  12
ENDBRANCH   1  11
TORSDOF 14
ENDMDL
MODEL 7
REMARK VINA RESULT:    -4.060      3.396      5.302
REMARK INTER + INTRA:          -9.844
REMARK INTER:                  -7.757
REMARK INTRA:                  -2.087
REMARK UNBOUND:                -2.461
REMARK SMILES CCCCCCCCCCCCCCCC(=O)[O-]
REMARK SMILES IDX 9 1 10 2 11 3 12 4 13 5 14 6 15 7 16 8 17 9 18 10 8 11 7 12
REMARK SMILES IDX 6 13 5 14 4 15 3 16 2 17 1 18
REMARK H PARENT
REMARK Flexibility Score: inf
ROOT
ATOM      1  C   UNL     1      15.091 -16.872  35.809  1.00  0.00     0.000 C 
ENDROOT
BRANCH   1   2
ATOM      2  C   UNL     1      14.626 -17.221  37.229  1.00  0.00     0.000 C 
BRANCH   2   3
ATOM      3  C   UNL     1      15.818 -17.559  38.131  1.00  0.00     0.000 C 
BRANCH   3   4
ATOM      4  C   UNL     1      15.345 -18.003  39.524  1.00  0.00     0.000 C 
BRANCH   4   5
ATOM      5  C   UNL     1      15.051 -19.510  39.599  1.00  0.00     0.000 C 
BRANCH   5   6
ATOM      6  C   UNL     1      13.893 -19.841  40.554  1.00  0.00     0.006 C 
BRANCH   6   7
ATOM      7  C   UNL     1      12.697 -18.918  40.303  1.00  0.00     0.053 C 
BRANCH   7   8
ATOM      8  C   UNL     1      11.908 -19.392  39.123  1.00  0.00     0.041 C 
ATOM      9  O   UNL     1      11.513 -18.571  38.254  1.00  0.00    -0.550 OA
ATOM     10  O   UNL     1      11.646 -20.747  38.961  1.00  0.00    -0.550 OA
ENDBRANCH   7   8
ENDBRANCH   6   7
ENDBRANCH   5   6
ENDBRANCH   4   5
ENDBRANCH   3   4
ENDBRANCH   2   3
ENDBRANCH   1   2
BRANCH   1  11
ATOM     11  C   UNL     1      16.579 -16.492  35.795  1.00  0.00     0.000 C 
BRANCH  11  12
ATOM     12  C   UNL     1      16.808 -15.008  35.463  1.00  0.00    -0.000 C 
BRANCH  12  13
ATOM     13  C   UNL     1      17.818 -14.341  36.412  1.00  0.00    -0.000 C 
BRANCH  13  14
ATOM     14  C   UNL     1      17.292 -14.211  37.853  1.00  0.00    -0.000 C 
BRANCH  14  15
ATOM     15  C   UNL     1      15.934 -13.498  37.991  1.00  0.00    -0.000 C 
BRANCH  15  16
ATOM     16  C   UNL     1      15.073 -14.061  39.131  1.00  0.00    -0.000 C 
BRANCH  16  17
ATOM     17  C   UNL     1      13.598 -14.136  38.721  1.00  0.00    -0.003 C 
ATOM     18  C   UNL     1      13.226 -12.987  37.787  1.00  0.00     0.004 C 
ENDBRANCH  16  17
ENDBRANCH  15  16
ENDBRANCH  14  15
ENDBRANCH  13  14
ENDBRANCH  12  13
ENDBRANCH  11  12
ENDBRANCH   1  11
TORSDOF 14
ENDMDL
MODEL 8
REMARK VINA RESULT:    -4.054      1.566      2.890
REMARK INTER + INTRA:          -9.833
REMARK INTER:                  -7.478
REMARK INTRA:                  -2.355
REMARK UNBOUND:                -2.461
REMARK SMILES CCCCCCCCCCCCCCCC(=O)[O-]
REMARK SMILES IDX 9 1 10 2 11 3 12 4 13 5 14 6 15 7 16 8 17 9 18 10 8 11 7 12
REMARK SMILES IDX 6 13 5 14 4 15 3 16 2 17 1 18
REMARK H PARENT
REMARK Flexibility Score: inf
ROOT
ATOM      1  C   UNL     1      12.539 -19.011  38.955  1.00  0.00     0.000 C 
ENDROOT
BRANCH   1   2
ATOM      2  C   UNL     1      13.690 -18.917  39.964  1.00  0.00     0.000 C 
BRANCH   2   3
ATOM      3  C   UNL     1      15.046 -18.878  39.252  1.00  0.00     0.000 C 
BRANCH   3   4
ATOM      4  C   UNL     1      15.530 -17.432  39.068  1.00  0.00     0.000 C 
BRANCH   4   5
ATOM      5  C   UNL     1      15.294 -16.904  37.643  1.00  0.00     0.000 C 
BRANCH   5   6
ATOM      6  C   UNL     1      16.573 -16.907  36.791  1.00  0.00     0.006 C 
BRANCH   6   7
ATOM      7  C   UNL     1      16.571 -15.741  35.798  1.00  0.00     0.053 C 
BRANCH   7   8
ATOM      8  C   UNL     1      17.421 -14.619  36.306  1.00  0.00     0.041 C 
ATOM      9  O   UNL     1      17.237 -13.446  35.888  1.00  0.00    -0.550 OA
ATOM     10  O   UNL     1      18.388 -14.862  37.274  1.00  0.00    -0.550 OA
ENDBRANCH   7   8
ENDBRANCH   6   7
ENDBRANCH   5   6
ENDBRANCH   4   5
ENDBRANCH   3   4
ENDBRANCH   2   3
ENDBRANCH   1   2
BRANCH   1  11
ATOM     11  C   UNL     1      11.790 -17.674  38.849  1.00  0.00     0.000 C 
BRANCH  11  12
ATOM     12  C   UNL     1      11.757 -16.906  40.181  1.00  0.00    -0.000 C 
BRANCH  12  13
ATOM     13  C   UNL     1      12.236 -15.452  40.034  1.00  0.00    -0.000 C 
BRANCH  13  14
ATOM     14  C   UNL     1      12.369 -15.011  38.565  1.00  0.00    -0.000 C 
BRANCH  14  15
ATOM     15  C   UNL     1      12.780 -13.541  38.359  1.00  0.00    -0.000 C 
BRANCH  15  16
ATOM     16  C   UNL     1      14.159 -13.390  37.699  1.00  0.00    -0.000 C 
BRANCH  16  17
ATOM     17  C   UNL     1      15.157 -12.732  38.657  1.00  0.00    -0.003 C 
ATOM     18  C   UNL     1      15.849 -13.771  39.535  1.00  0.00     0.004 C 
ENDBRANCH  16  17
ENDBRANCH  15  16
ENDBRANCH  14  15
ENDBRANCH  13  14
ENDBRANCH  12  13
ENDBRANCH  11  12
ENDBRANCH   1  11
TORSDOF 14
ENDMDL
MODEL 9
REMARK VINA RESULT:    -4.020      4.060      6.032
REMARK INTER + INTRA:          -9.772
REMARK INTER:                  -7.661
REMARK INTRA:                  -2.111
REMARK UNBOUND:                -2.461
REMARK SMILES CCCCCCCCCCCCCCCC(=O)[O-]
REMARK SMILES IDX 9 1 10 2 11 3 12 4 13 5 14 6 15 7 16 8 17 9 18 10 8 11 7 12
REMARK SMILES IDX 6 13 5 14 4 15 3 16 2 17 1 18
REMARK H PARENT
REMARK Flexibility Score: inf
ROOT
ATOM      1  C   UNL     1      15.048 -14.764  39.436  1.00  0.00     0.000 C 
ENDROOT
BRANCH   1   2
ATOM      2  C   UNL     1      14.773 -16.184  39.944  1.00  0.00     0.000 C 
BRANCH   2   3
ATOM      3  C   UNL     1      13.363 -16.644  39.560  1.00  0.00     0.000 C 
BRANCH   3   4
ATOM      4  C   UNL     1      13.264 -18.177  39.563  1.00  0.00     0.000 C 
BRANCH   4   5
ATOM      5  C   UNL     1      14.578 -18.856  39.985  1.00  0.00     0.000 C 
BRANCH   5   6
ATOM      6  C   UNL     1      14.807 -20.198  39.271  1.00  0.00     0.006 C 
BRANCH   6   7
ATOM      7  C   UNL     1      13.491 -20.968  39.121  1.00  0.00     0.053 C 
BRANCH   7   8
ATOM      8  C   UNL     1      13.755 -22.381  38.705  1.00  0.00     0.041 C 
ATOM      9  O   UNL     1      12.816 -23.219  38.677  1.00  0.00    -0.550 OA
ATOM     10  O   UNL     1      15.031 -22.762  38.307  1.00  0.00    -0.550 OA
ENDBRANCH   7   8
ENDBRANCH   6   7
ENDBRANCH   5   6
ENDBRANCH   4   5
ENDBRANCH   3   4
ENDBRANCH   2   3
ENDBRANCH   1   2
BRANCH   1  11
ATOM     11  C   UNL     1      13.871 -14.242  38.598  1.00  0.00     0.000 C 
BRANCH  11  12
ATOM     12  C   UNL     1      14.286 -13.122  37.628  1.00  0.00    -0.000 C 
BRANCH  12  13
ATOM     13  C   UNL     1      15.790 -13.149  37.307  1.00  0.00    -0.000 C 
BRANCH  13  14
ATOM     14  C   UNL     1      16.079 -13.324  35.805  1.00  0.00    -0.000 C 
BRANCH  14  15
ATOM     15  C   UNL     1      16.556 -14.728  35.391  1.00  0.00    -0.000 C 
BRANCH  15  16
ATOM     16  C   UNL     1      17.105 -15.547  36.568  1.00  0.00    -0.000 C 
BRANCH  16  17
ATOM     17  C   UNL     1      16.432 -16.922  36.643  1.00  0.00    -0.003 C 
ATOM     18  C   UNL     1      14.998 -16.864  36.122  1.00  0.00     0.004 C 
ENDBRANCH  16  17
ENDBRANCH  15  16
ENDBRANCH  14  15
ENDBRANCH  13  14
ENDBRANCH  12  13
ENDBRANCH  11  12
ENDBRANCH   1  11
TORSDOF 14
ENDMDL
