MODEL 1
REMARK VINA RESULT:    -4.265      0.000      0.000
REMARK INTER + INTRA:          -8.595
REMARK INTER:                  -6.510
REMARK INTRA:                  -2.086
REMARK UNBOUND:                -2.086
REMARK SMILES CC(=O)CCC=C(C)CCC=C(C)CCC=C(C)C
REMARK SMILES IDX 10 1 11 2 12 3 13 4 14 5 15 6 16 7 18 8 17 9 19 10 9 11 7 12
REMARK SMILES IDX 6 13 8 14 5 15 4 16 2 17 3 18 1 19
REMARK H PARENT
REMARK Flexibility Score: inf
ROOT
ATOM      1  C   UNL     1       0.910   7.721  -8.313  1.00  0.00     0.032 C 
ENDROOT
BRANCH   1   2
ATOM      2  C   UNL     1       2.071   7.913  -9.259  1.00  0.00    -0.028 C 
ATOM      3  C   UNL     1       2.187   8.914 -10.161  1.00  0.00    -0.077 C 
ATOM      4  C   UNL     1       3.379   8.903 -11.085  1.00  0.00     0.039 C 
BRANCH   3   5
ATOM      5  C   UNL     1       1.203  10.065 -10.268  1.00  0.00     0.034 C 
BRANCH   5   6
ATOM      6  C   UNL     1       0.666  10.229 -11.697  1.00  0.00     0.032 C 
BRANCH   6   7
ATOM      7  C   UNL     1      -0.659  10.952 -11.709  1.00  0.00    -0.028 C 
ATOM      8  C   UNL     1      -2.189  12.894 -11.614  1.00  0.00     0.039 C 
ATOM      9  C   UNL     1      -0.807  12.296 -11.666  1.00  0.00    -0.080 C 
ATOM     10  C   UNL     1       0.370  13.236 -11.661  1.00  0.00     0.039 C 
ENDBRANCH   6   7
ENDBRANCH   5   6
ENDBRANCH   3   5
ENDBRANCH   1   2
BRANCH   1  11
ATOM     11  C   UNL     1      -0.042   6.617  -8.797  1.00  0.00     0.034 C 
BRANCH  11  12
ATOM     12  C   UNL     1      -0.928   7.094  -9.929  1.00  0.00    -0.077 C 
ATOM     13  C   UNL     1      -1.965   7.916  -9.650  1.00  0.00    -0.028 C 
ATOM     14  C   UNL     1      -0.645   6.615 -11.334  1.00  0.00     0.039 C 
BRANCH  13  15
ATOM     15  C   UNL     1      -2.908   8.487 -10.681  1.00  0.00     0.035 C 
BRANCH  15  16
ATOM     16  C   UNL     1      -3.775   9.617 -10.109  1.00  0.00     0.079 C 
BRANCH  16  17
ATOM     17  C   UNL     1      -4.902   9.984 -11.041  1.00  0.00     0.130 C 
ATOM     18  O   UNL     1      -5.299   9.168 -11.859  1.00  0.00    -0.300 OA
ATOM     19  C   UNL     1      -5.560  11.330 -10.977  1.00  0.00     0.087 C 
ENDBRANCH  16  17
ENDBRANCH  15  16
ENDBRANCH  13  15
ENDBRANCH  11  12
ENDBRANCH   1  11
TORSDOF 9
ENDMDL
MODEL 2
REMARK VINA RESULT:    -4.016     15.711     17.969
REMARK INTER + INTRA:          -8.215
REMARK INTER:                  -6.740
REMARK INTRA:                  -1.475
REMARK UNBOUND:                -2.086
REMARK SMILES CC(=O)CCC=C(C)CCC=C(C)CCC=C(C)C
REMARK SMILES IDX 10 1 11 2 12 3 13 4 14 5 15 6 16 7 18 8 17 9 19 10 9 11 7 12
REMARK SMILES IDX 6 13 8 14 5 15 4 16 2 17 3 18 1 19
REMARK H PARENT
REMARK Flexibility Score: inf
ROOT
ATOM      1  C   UNL     1       0.893  12.551   4.288  1.00  0.00     0.032 C 
ENDROOT
BRANCH   1   2
ATOM      2  C   UNL     1      -0.482  13.170   4.374  1.00  0.00    -0.028 C 
ATOM      3  C   UNL     1      -1.530  12.655   5.057  1.00  0.00    -0.077 C 
ATOM      4  C   UNL     1      -2.857  13.366   4.965  1.00  0.00     0.039 C 
BRANCH   3   5
ATOM      5  C   UNL     1      -1.432  11.423   5.940  1.00  0.00     0.034 C 
BRANCH   5   6
ATOM      6  C   UNL     1      -1.862  10.151   5.196  1.00  0.00     0.032 C 
BRANCH   6   7
ATOM      7  C   UNL     1      -2.879   9.365   5.989  1.00  0.00    -0.028 C 
ATOM      8  C   UNL     1      -5.132   8.604   6.673  1.00  0.00     0.039 C 
ATOM      9  C   UNL     1      -4.213   9.380   5.766  1.00  0.00    -0.080 C 
ATOM     10  C   UNL     1      -4.831  10.157   4.632  1.00  0.00     0.039 C 
ENDBRANCH   6   7
ENDBRANCH   5   6
ENDBRANCH   3   5
ENDBRANCH   1   2
BRANCH   1  11
ATOM     11  C   UNL     1       1.982  13.519   4.772  1.00  0.00     0.034 C 
BRANCH  11  12
ATOM     12  C   UNL     1       2.800  12.928   5.902  1.00  0.00    -0.077 C 
ATOM     13  C   UNL     1       4.134  13.150   5.934  1.00  0.00    -0.028 C 
ATOM     14  C   UNL     1       2.106  12.084   6.945  1.00  0.00     0.039 C 
BRANCH  13  15
ATOM     15  C   UNL     1       5.061  12.646   7.013  1.00  0.00     0.035 C 
BRANCH  15  16
ATOM     16  C   UNL     1       6.032  11.580   6.489  1.00  0.00     0.079 C 
BRANCH  16  17
ATOM     17  C   UNL     1       5.439  10.196   6.569  1.00  0.00     0.130 C 
ATOM     18  O   UNL     1       5.392   9.501   5.566  1.00  0.00    -0.300 OA
ATOM     19  C   UNL     1       4.918   9.644   7.863  1.00  0.00     0.087 C 
ENDBRANCH  16  17
ENDBRANCH  15  16
ENDBRANCH  13  15
ENDBRANCH  11  12
ENDBRANCH   1  11
TORSDOF 9
ENDMDL
MODEL 3
REMARK VINA RESULT:    -3.985      1.458      2.186
REMARK INTER + INTRA:          -8.168
REMARK INTER:                  -6.274
REMARK INTRA:                  -1.894
REMARK UNBOUND:                -2.086
REMARK SMILES CC(=O)CCC=C(C)CCC=C(C)CCC=C(C)C
REMARK SMILES IDX 10 1 11 2 12 3 13 4 14 5 15 6 16 7 18 8 17 9 19 10 9 11 7 12
REMARK SMILES IDX 6 13 8 14 5 15 4 16 2 17 3 18 1 19
REMARK H PARENT
REMARK Flexibility Score: inf
ROOT
ATOM      1  C   UNL     1       0.722   7.976  -8.986  1.00  0.00     0.032 C 
ENDROOT
BRANCH   1   2
ATOM      2  C   UNL     1       1.868   7.865  -9.962  1.00  0.00    -0.028 C 
ATOM      3  C   UNL     1       1.902   8.421 -11.196  1.00  0.00    -0.077 C 
ATOM      4  C   UNL     1       3.098   8.137 -12.070  1.00  0.00     0.039 C 
BRANCH   3   5
ATOM      5  C   UNL     1       0.821   9.342 -11.730  1.00  0.00     0.034 C 
BRANCH   5   6
ATOM      6  C   UNL     1       1.317  10.788 -11.868  1.00  0.00     0.032 C 
BRANCH   6   7
ATOM      7  C   UNL     1       1.610  11.402 -10.520  1.00  0.00    -0.028 C 
ATOM      8  C   UNL     1       3.008  12.320  -8.696  1.00  0.00     0.039 C 
ATOM      9  C   UNL     1       2.836  11.782 -10.093  1.00  0.00    -0.080 C 
ATOM     10  C   UNL     1       4.059  11.683 -10.968  1.00  0.00     0.039 C 
ENDBRANCH   6   7
ENDBRANCH   5   6
ENDBRANCH   3   5
ENDBRANCH   1   2
BRANCH   1  11
ATOM     11  C   UNL     1      -0.239   6.784  -9.101  1.00  0.00     0.034 C 
BRANCH  11  12
ATOM     12  C   UNL     1      -1.287   7.006 -10.172  1.00  0.00    -0.077 C 
ATOM     13  C   UNL     1      -2.314   7.850  -9.922  1.00  0.00    -0.028 C 
ATOM     14  C   UNL     1      -1.169   6.258 -11.480  1.00  0.00     0.039 C 
BRANCH  13  15
ATOM     15  C   UNL     1      -3.409   8.183 -10.907  1.00  0.00     0.035 C 
BRANCH  15  16
ATOM     16  C   UNL     1      -3.427   9.675 -11.267  1.00  0.00     0.079 C 
BRANCH  16  17
ATOM     17  C   UNL     1      -4.580  10.394 -10.613  1.00  0.00     0.130 C 
ATOM     18  O   UNL     1      -5.648   9.819 -10.472  1.00  0.00    -0.300 OA
ATOM     19  C   UNL     1      -4.438  11.802 -10.114  1.00  0.00     0.087 C 
ENDBRANCH  16  17
ENDBRANCH  15  16
ENDBRANCH  13  15
ENDBRANCH  11  12
ENDBRANCH   1  11
TORSDOF 9
ENDMDL
MODEL 4
REMARK VINA RESULT:    -3.966      2.624      4.916
REMARK INTER + INTRA:          -8.138
REMARK INTER:                  -6.190
REMARK INTRA:                  -1.948
REMARK UNBOUND:                -2.086
REMARK SMILES CC(=O)CCC=C(C)CCC=C(C)CCC=C(C)C
REMARK SMILES IDX 10 1 11 2 12 3 13 4 14 5 15 6 16 7 18 8 17 9 19 10 9 11 7 12
REMARK SMILES IDX 6 13 8 14 5 15 4 16 2 17 3 18 1 19
REMARK H PARENT
REMARK Flexibility Score: inf
ROOT
ATOM      1  C   UNL     1      -0.360   7.146  -8.744  1.00  0.00     0.032 C 
ENDROOT
BRANCH   1   2
ATOM      2  C   UNL     1      -1.062   6.668  -9.992  1.00  0.00    -0.028 C 
ATOM      3  C   UNL     1      -2.143   7.255 -10.555  1.00  0.00    -0.077 C 
ATOM      4  C   UNL     1      -2.767   6.592 -11.757  1.00  0.00     0.039 C 
BRANCH   3   5
ATOM      5  C   UNL     1      -2.737   8.563 -10.064  1.00  0.00     0.034 C 
BRANCH   5   6
ATOM      6  C   UNL     1      -3.434   9.335 -11.193  1.00  0.00     0.032 C 
BRANCH   6   7
ATOM      7  C   UNL     1      -2.590  10.490 -11.675  1.00  0.00    -0.028 C 
ATOM      8  C   UNL     1      -1.958  12.860 -12.007  1.00  0.00     0.039 C 
ATOM      9  C   UNL     1      -2.838  11.793 -11.408  1.00  0.00    -0.080 C 
ATOM     10  C   UNL     1      -3.980  12.232 -10.527  1.00  0.00     0.039 C 
ENDBRANCH   6   7
ENDBRANCH   5   6
ENDBRANCH   3   5
ENDBRANCH   1   2
BRANCH   1  11
ATOM     11  C   UNL     1       1.139   7.373  -8.987  1.00  0.00     0.034 C 
BRANCH  11  12
ATOM     12  C   UNL     1       1.387   8.262 -10.188  1.00  0.00    -0.077 C 
ATOM     13  C   UNL     1       0.853   9.504 -10.208  1.00  0.00    -0.028 C 
ATOM     14  C   UNL     1       2.201   7.725 -11.343  1.00  0.00     0.039 C 
BRANCH  13  15
ATOM     15  C   UNL     1       1.043  10.502 -11.326  1.00  0.00     0.035 C 
BRANCH  15  16
ATOM     16  C   UNL     1       1.573  11.848 -10.815  1.00  0.00     0.079 C 
BRANCH  16  17
ATOM     17  C   UNL     1       2.846  11.684 -10.023  1.00  0.00     0.130 C 
ATOM     18  O   UNL     1       3.808  11.135 -10.536  1.00  0.00    -0.300 OA
ATOM     19  C   UNL     1       2.961  12.195  -8.617  1.00  0.00     0.087 C 
ENDBRANCH  16  17
ENDBRANCH  15  16
ENDBRANCH  13  15
ENDBRANCH  11  12
ENDBRANCH   1  11
TORSDOF 9
ENDMDL
MODEL 5
REMARK VINA RESULT:    -3.904      2.762      5.215
REMARK INTER + INTRA:          -8.043
REMARK INTER:                  -6.406
REMARK INTRA:                  -1.637
REMARK UNBOUND:                -2.086
REMARK SMILES CC(=O)CCC=C(C)CCC=C(C)CCC=C(C)C
REMARK SMILES IDX 10 1 11 2 12 3 13 4 14 5 15 6 16 7 18 8 17 9 19 10 9 11 7 12
REMARK SMILES IDX 6 13 8 14 5 15 4 16 2 17 3 18 1 19
REMARK H PARENT
REMARK Flexibility Score: inf
ROOT
ATOM      1  C   UNL     1      -1.399   7.613  -8.698  1.00  0.00     0.032 C 
ENDROOT
BRANCH   1   2
ATOM      2  C   UNL     1      -2.362   7.322  -9.823  1.00  0.00    -0.028 C 
ATOM      3  C   UNL     1      -2.750   8.207 -10.770  1.00  0.00    -0.077 C 
ATOM      4  C   UNL     1      -3.787   7.767 -11.773  1.00  0.00     0.039 C 
BRANCH   3   5
ATOM      5  C   UNL     1      -2.171   9.605 -10.897  1.00  0.00     0.034 C 
BRANCH   5   6
ATOM      6  C   UNL     1      -2.962  10.463 -11.894  1.00  0.00     0.032 C 
BRANCH   6   7
ATOM      7  C   UNL     1      -3.536  11.692 -11.231  1.00  0.00    -0.028 C 
ATOM      8  C   UNL     1      -5.295  13.146 -10.275  1.00  0.00     0.039 C 
ATOM      9  C   UNL     1      -4.830  11.841 -10.868  1.00  0.00    -0.080 C 
ATOM     10  C   UNL     1      -5.846  10.741 -11.039  1.00  0.00     0.039 C 
ENDBRANCH   6   7
ENDBRANCH   5   6
ENDBRANCH   3   5
ENDBRANCH   1   2
BRANCH   1  11
ATOM     11  C   UNL     1      -0.029   6.961  -8.939  1.00  0.00     0.034 C 
BRANCH  11  12
ATOM     12  C   UNL     1       0.875   7.844  -9.775  1.00  0.00    -0.077 C 
ATOM     13  C   UNL     1       1.456   8.921  -9.199  1.00  0.00    -0.028 C 
ATOM     14  C   UNL     1       1.079   7.511 -11.235  1.00  0.00     0.039 C 
BRANCH  13  15
ATOM     15  C   UNL     1       2.399   9.866  -9.905  1.00  0.00     0.035 C 
BRANCH  15  16
ATOM     16  C   UNL     1       1.795  11.268 -10.070  1.00  0.00     0.079 C 
BRANCH  16  17
ATOM     17  C   UNL     1       2.369  12.244  -9.073  1.00  0.00     0.130 C 
ATOM     18  O   UNL     1       3.382  11.952  -8.457  1.00  0.00    -0.300 OA
ATOM     19  C   UNL     1       1.727  13.578  -8.831  1.00  0.00     0.087 C 
ENDBRANCH  16  17
ENDBRANCH  15  16
ENDBRANCH  13  15
ENDBRANCH  11  12
ENDBRANCH   1  11
TORSDOF 9
ENDMDL
MODEL 6
REMARK VINA RESULT:    -3.883     15.425     17.647
REMARK INTER + INTRA:          -8.012
REMARK INTER:                  -6.799
REMARK INTRA:                  -1.213
REMARK UNBOUND:                -2.086
REMARK SMILES CC(=O)CCC=C(C)CCC=C(C)CCC=C(C)C
REMARK SMILES IDX 10 1 11 2 12 3 13 4 14 5 15 6 16 7 18 8 17 9 19 10 9 11 7 12
REMARK SMILES IDX 6 13 8 14 5 15 4 16 2 17 3 18 1 19
REMARK H PARENT
REMARK Flexibility Score: inf
ROOT
ATOM      1  C   UNL     1       0.881  13.322   4.555  1.00  0.00     0.032 C 
ENDROOT
BRANCH   1   2
ATOM      2  C   UNL     1       0.214  11.977   4.713  1.00  0.00    -0.028 C 
ATOM      3  C   UNL     1      -1.099  11.781   4.973  1.00  0.00    -0.077 C 
ATOM      4  C   UNL     1      -1.578  10.366   5.182  1.00  0.00     0.039 C 
BRANCH   3   5
ATOM      5  C   UNL     1      -2.119  12.903   5.029  1.00  0.00     0.034 C 
BRANCH   5   6
ATOM      6  C   UNL     1      -3.463  12.428   5.599  1.00  0.00     0.032 C 
BRANCH   6   7
ATOM      7  C   UNL     1      -4.582  12.613   4.602  1.00  0.00    -0.028 C 
ATOM      8  C   UNL     1      -6.402  11.923   3.074  1.00  0.00     0.039 C 
ATOM      9  C   UNL     1      -5.361  11.618   4.120  1.00  0.00    -0.080 C 
ATOM     10  C   UNL     1      -5.227  10.192   4.588  1.00  0.00     0.039 C 
ENDBRANCH   6   7
ENDBRANCH   5   6
ENDBRANCH   3   5
ENDBRANCH   1   2
BRANCH   1  11
ATOM     11  C   UNL     1       1.410  13.855   5.894  1.00  0.00     0.034 C 
BRANCH  11  12
ATOM     12  C   UNL     1       2.846  13.438   6.139  1.00  0.00    -0.077 C 
ATOM     13  C   UNL     1       3.132  12.661   7.208  1.00  0.00    -0.028 C 
ATOM     14  C   UNL     1       3.922  13.926   5.196  1.00  0.00     0.039 C 
BRANCH  13  15
ATOM     15  C   UNL     1       4.510  12.151   7.554  1.00  0.00     0.035 C 
BRANCH  15  16
ATOM     16  C   UNL     1       4.626  10.632   7.373  1.00  0.00     0.079 C 
BRANCH  16  17
ATOM     17  C   UNL     1       5.527  10.274   6.217  1.00  0.00     0.130 C 
ATOM     18  O   UNL     1       5.257   9.309   5.518  1.00  0.00    -0.300 OA
ATOM     19  C   UNL     1       6.745  11.089   5.896  1.00  0.00     0.087 C 
ENDBRANCH  16  17
ENDBRANCH  15  16
ENDBRANCH  13  15
ENDBRANCH  11  12
ENDBRANCH   1  11
TORSDOF 9
ENDMDL
MODEL 7
REMARK VINA RESULT:    -3.874      1.865      3.194
REMARK INTER + INTRA:          -7.998
REMARK INTER:                  -6.823
REMARK INTRA:                  -1.175
REMARK UNBOUND:                -2.086
REMARK SMILES CC(=O)CCC=C(C)CCC=C(C)CCC=C(C)C
REMARK SMILES IDX 10 1 11 2 12 3 13 4 14 5 15 6 16 7 18 8 17 9 19 10 9 11 7 12
REMARK SMILES IDX 6 13 8 14 5 15 4 16 2 17 3 18 1 19
REMARK H PARENT
REMARK Flexibility Score: inf
ROOT
ATOM      1  C   UNL     1      -1.067   6.808 -10.822  1.00  0.00     0.032 C 
ENDROOT
BRANCH   1   2
ATOM      2  C   UNL     1      -0.339   6.914  -9.504  1.00  0.00    -0.028 C 
ATOM      3  C   UNL     1       0.947   7.305  -9.349  1.00  0.00    -0.077 C 
ATOM      4  C   UNL     1       1.537   7.273  -7.962  1.00  0.00     0.039 C 
BRANCH   3   5
ATOM      5  C   UNL     1       1.813   7.807 -10.490  1.00  0.00     0.034 C 
BRANCH   5   6
ATOM      6  C   UNL     1       1.383   9.202 -10.965  1.00  0.00     0.032 C 
BRANCH   6   7
ATOM      7  C   UNL     1       1.592  10.240  -9.889  1.00  0.00    -0.028 C 
ATOM      8  C   UNL     1       2.743  12.080  -8.698  1.00  0.00     0.039 C 
ATOM      9  C   UNL     1       2.604  11.138  -9.867  1.00  0.00    -0.080 C 
ATOM     10  C   UNL     1       3.618  11.235 -10.977  1.00  0.00     0.039 C 
ENDBRANCH   6   7
ENDBRANCH   5   6
ENDBRANCH   3   5
ENDBRANCH   1   2
BRANCH   1  11
ATOM     11  C   UNL     1      -2.584   6.976 -10.650  1.00  0.00     0.034 C 
BRANCH  11  12
ATOM     12  C   UNL     1      -3.050   8.352 -11.076  1.00  0.00    -0.077 C 
ATOM     13  C   UNL     1      -4.278   8.490 -11.624  1.00  0.00    -0.028 C 
ATOM     14  C   UNL     1      -2.118   9.529 -10.900  1.00  0.00     0.039 C 
BRANCH  13  15
ATOM     15  C   UNL     1      -4.879   9.803 -12.066  1.00  0.00     0.035 C 
BRANCH  15  16
ATOM     16  C   UNL     1      -5.681  10.478 -10.945  1.00  0.00     0.079 C 
BRANCH  16  17
ATOM     17  C   UNL     1      -5.387  11.955 -10.859  1.00  0.00     0.130 C 
ATOM     18  O   UNL     1      -6.091  12.670 -10.163  1.00  0.00    -0.300 OA
ATOM     19  C   UNL     1      -4.235  12.566 -11.600  1.00  0.00     0.087 C 
ENDBRANCH  16  17
ENDBRANCH  15  16
ENDBRANCH  13  15
ENDBRANCH  11  12
ENDBRANCH   1  11
TORSDOF 9
ENDMDL
MODEL 8
REMARK VINA RESULT:    -3.807     11.323     13.511
REMARK INTER + INTRA:          -7.896
REMARK INTER:                  -5.425
REMARK INTRA:                  -2.471
REMARK UNBOUND:                -2.086
REMARK SMILES CC(=O)CCC=C(C)CCC=C(C)CCC=C(C)C
REMARK SMILES IDX 10 1 11 2 12 3 13 4 14 5 15 6 16 7 18 8 17 9 19 10 9 11 7 12
REMARK SMILES IDX 6 13 8 14 5 15 4 16 2 17 3 18 1 19
REMARK H PARENT
REMARK Flexibility Score: inf
ROOT
ATOM      1  C   UNL     1       8.276  13.043  -5.461  1.00  0.00     0.032 C 
ENDROOT
BRANCH   1   2
ATOM      2  C   UNL     1       8.794  13.382  -4.084  1.00  0.00    -0.028 C 
ATOM      3  C   UNL     1      10.097  13.528  -3.753  1.00  0.00    -0.077 C 
ATOM      4  C   UNL     1      10.438  13.786  -2.306  1.00  0.00     0.039 C 
BRANCH   3   5
ATOM      5  C   UNL     1      11.229  13.483  -4.763  1.00  0.00     0.034 C 
BRANCH   5   6
ATOM      6  C   UNL     1      12.309  12.465  -4.369  1.00  0.00     0.032 C 
BRANCH   6   7
ATOM      7  C   UNL     1      11.743  11.068  -4.278  1.00  0.00    -0.028 C 
ATOM      8  C   UNL     1      11.343   8.728  -4.977  1.00  0.00     0.039 C 
ATOM      9  C   UNL     1      12.027  10.061  -5.135  1.00  0.00    -0.080 C 
ATOM     10  C   UNL     1      13.012  10.220  -6.265  1.00  0.00     0.039 C 
ENDBRANCH   6   7
ENDBRANCH   5   6
ENDBRANCH   3   5
ENDBRANCH   1   2
BRANCH   1  11
ATOM     11  C   UNL     1       8.416  11.545  -5.769  1.00  0.00     0.034 C 
BRANCH  11  12
ATOM     12  C   UNL     1       9.106  11.304  -7.095  1.00  0.00    -0.077 C 
ATOM     13  C   UNL     1       9.211  10.039  -7.561  1.00  0.00    -0.028 C 
ATOM     14  C   UNL     1       9.682  12.482  -7.847  1.00  0.00     0.039 C 
BRANCH  13  15
ATOM     15  C   UNL     1       9.848   9.659  -8.877  1.00  0.00     0.035 C 
BRANCH  15  16
ATOM     16  C   UNL     1      10.887   8.542  -8.715  1.00  0.00     0.079 C 
BRANCH  16  17
ATOM     17  C   UNL     1      11.667   8.316  -9.986  1.00  0.00     0.130 C 
ATOM     18  O   UNL     1      12.394   7.340 -10.081  1.00  0.00    -0.300 OA
ATOM     19  C   UNL     1      11.558   9.260 -11.147  1.00  0.00     0.087 C 
ENDBRANCH  16  17
ENDBRANCH  15  16
ENDBRANCH  13  15
ENDBRANCH  11  12
ENDBRANCH   1  11
TORSDOF 9
ENDMDL
