MODEL 1
REMARK VINA RESULT:    -3.477      0.000      0.000
REMARK INTER + INTRA:          -6.676
REMARK INTER:                  -5.306
REMARK INTRA:                  -1.370
REMARK UNBOUND:                -1.370
REMARK SMILES CCCCCCCCCCC(=O)[O-]
REMARK SMILES IDX 7 1 8 2 9 3 10 4 11 5 12 6 13 7 6 8 5 9 4 10 3 11 2 12 1 13
REMARK H PARENT
REMARK Flexibility Score: inf
ROOT
ATOM      1  C   UNL     1     -23.216  -7.910  -6.822  1.00  0.00     0.000 C 
ENDROOT
BRANCH   1   2
ATOM      2  C   UNL     1     -24.393  -8.885  -6.638  1.00  0.00     0.000 C 
BRANCH   2   3
ATOM      3  C   UNL     1     -24.559  -9.447  -5.211  1.00  0.00     0.006 C 
BRANCH   3   4
ATOM      4  C   UNL     1     -24.005  -8.540  -4.100  1.00  0.00     0.053 C 
BRANCH   4   5
ATOM      5  C   UNL     1     -25.092  -7.776  -3.408  1.00  0.00     0.041 C 
ATOM      6  O   UNL     1     -26.028  -7.260  -4.074  1.00  0.00    -0.550 OA
ATOM      7  O   UNL     1     -25.051  -7.605  -2.030  1.00  0.00    -0.550 OA
ENDBRANCH   4   5
ENDBRANCH   3   4
ENDBRANCH   2   3
ENDBRANCH   1   2
BRANCH   1   8
ATOM      8  C   UNL     1     -22.339  -8.252  -8.035  1.00  0.00     0.000 C 
BRANCH   8   9
ATOM      9  C   UNL     1     -22.296  -9.767  -8.272  1.00  0.00    -0.000 C 
BRANCH   9  10
ATOM     10  C   UNL     1     -21.116 -10.406  -7.524  1.00  0.00    -0.000 C 
BRANCH  10  11
ATOM     11  C   UNL     1     -21.570 -11.415  -6.455  1.00  0.00    -0.000 C 
BRANCH  11  12
ATOM     12  C   UNL     1     -21.204 -10.972  -5.031  1.00  0.00    -0.003 C 
ATOM     13  C   UNL     1     -20.454  -9.643  -5.046  1.00  0.00     0.004 C 
ENDBRANCH  11  12
ENDBRANCH  10  11
ENDBRANCH   9  10
ENDBRANCH   8   9
ENDBRANCH   1   8
TORSDOF 9
ENDMDL
MODEL 2
REMARK VINA RESULT:    -3.434      3.805      5.569
REMARK INTER + INTRA:          -6.611
REMARK INTER:                  -5.584
REMARK INTRA:                  -1.026
REMARK UNBOUND:                -1.370
REMARK SMILES CCCCCCCCCCC(=O)[O-]
REMARK SMILES IDX 7 1 8 2 9 3 10 4 11 5 12 6 13 7 6 8 5 9 4 10 3 11 2 12 1 13
REMARK H PARENT
REMARK Flexibility Score: inf
ROOT
ATOM      1  C   UNL     1     -21.336 -11.381  -6.400  1.00  0.00     0.000 C 
ENDROOT
BRANCH   1   2
ATOM      2  C   UNL     1     -21.187 -10.758  -5.000  1.00  0.00     0.000 C 
BRANCH   2   3
ATOM      3  C   UNL     1     -19.849 -10.032  -4.748  1.00  0.00     0.006 C 
BRANCH   3   4
ATOM      4  C   UNL     1     -18.601 -10.903  -4.964  1.00  0.00     0.053 C 
BRANCH   4   5
ATOM      5  C   UNL     1     -17.556 -10.194  -5.770  1.00  0.00     0.041 C 
ATOM      6  O   UNL     1     -16.630  -9.565  -5.194  1.00  0.00    -0.550 OA
ATOM      7  O   UNL     1     -17.627 -10.200  -7.157  1.00  0.00    -0.550 OA
ENDBRANCH   4   5
ENDBRANCH   3   4
ENDBRANCH   2   3
ENDBRANCH   1   2
BRANCH   1   8
ATOM      8  C   UNL     1     -21.082 -10.375  -7.533  1.00  0.00     0.000 C 
BRANCH   8   9
ATOM      9  C   UNL     1     -22.404  -9.864  -8.121  1.00  0.00    -0.000 C 
BRANCH   9  10
ATOM     10  C   UNL     1     -22.527  -8.342  -7.953  1.00  0.00    -0.000 C 
BRANCH  10  11
ATOM     11  C   UNL     1     -23.424  -7.949  -6.767  1.00  0.00    -0.000 C 
BRANCH  11  12
ATOM     12  C   UNL     1     -24.462  -9.029  -6.428  1.00  0.00    -0.003 C 
ATOM     13  C   UNL     1     -24.523  -9.278  -4.923  1.00  0.00     0.004 C 
ENDBRANCH  11  12
ENDBRANCH  10  11
ENDBRANCH   9  10
ENDBRANCH   8   9
ENDBRANCH   1   8
TORSDOF 9
ENDMDL
MODEL 3
REMARK VINA RESULT:    -3.413      1.540      2.967
REMARK INTER + INTRA:          -6.579
REMARK INTER:                  -5.423
REMARK INTRA:                  -1.156
REMARK UNBOUND:                -1.370
REMARK SMILES CCCCCCCCCCC(=O)[O-]
REMARK SMILES IDX 7 1 8 2 9 3 10 4 11 5 12 6 13 7 6 8 5 9 4 10 3 11 2 12 1 13
REMARK H PARENT
REMARK Flexibility Score: inf
ROOT
ATOM      1  C   UNL     1     -22.789  -8.809  -4.139  1.00  0.00     0.000 C 
ENDROOT
BRANCH   1   2
ATOM      2  C   UNL     1     -24.199  -9.291  -4.526  1.00  0.00     0.000 C 
BRANCH   2   3
ATOM      3  C   UNL     1     -24.700  -8.805  -5.902  1.00  0.00     0.006 C 
BRANCH   3   4
ATOM      4  C   UNL     1     -24.615  -7.284  -6.112  1.00  0.00     0.053 C 
BRANCH   4   5
ATOM      5  C   UNL     1     -25.930  -6.611  -5.862  1.00  0.00     0.041 C 
ATOM      6  O   UNL     1     -26.582  -6.118  -6.819  1.00  0.00    -0.550 OA
ATOM      7  O   UNL     1     -26.416  -6.498  -4.566  1.00  0.00    -0.550 OA
ENDBRANCH   4   5
ENDBRANCH   3   4
ENDBRANCH   2   3
ENDBRANCH   1   2
BRANCH   1   8
ATOM      8  C   UNL     1     -21.860  -9.957  -3.715  1.00  0.00     0.000 C 
BRANCH   8   9
ATOM      9  C   UNL     1     -22.226 -11.257  -4.443  1.00  0.00    -0.000 C 
BRANCH   9  10
ATOM     10  C   UNL     1     -21.309 -11.485  -5.654  1.00  0.00    -0.000 C 
BRANCH  10  11
ATOM     11  C   UNL     1     -21.951 -11.032  -6.975  1.00  0.00    -0.000 C 
BRANCH  11  12
ATOM     12  C   UNL     1     -21.370  -9.706  -7.490  1.00  0.00    -0.003 C 
ATOM     13  C   UNL     1     -22.185  -9.169  -8.664  1.00  0.00     0.004 C 
ENDBRANCH  11  12
ENDBRANCH  10  11
ENDBRANCH   9  10
ENDBRANCH   8   9
ENDBRANCH   1   8
TORSDOF 9
ENDMDL
MODEL 4
REMARK VINA RESULT:    -3.399      3.130      5.658
REMARK INTER + INTRA:          -6.556
REMARK INTER:                  -5.933
REMARK INTRA:                  -0.623
REMARK UNBOUND:                -1.370
REMARK SMILES CCCCCCCCCCC(=O)[O-]
REMARK SMILES IDX 7 1 8 2 9 3 10 4 11 5 12 6 13 7 6 8 5 9 4 10 3 11 2 12 1 13
REMARK H PARENT
REMARK Flexibility Score: inf
ROOT
ATOM      1  C   UNL     1     -23.109  -9.436  -4.087  1.00  0.00     0.000 C 
ENDROOT
BRANCH   1   2
ATOM      2  C   UNL     1     -22.422 -10.800  -4.269  1.00  0.00     0.000 C 
BRANCH   2   3
ATOM      3  C   UNL     1     -21.312 -10.835  -5.340  1.00  0.00     0.006 C 
BRANCH   3   4
ATOM      4  C   UNL     1     -21.809 -11.127  -6.765  1.00  0.00     0.053 C 
BRANCH   4   5
ATOM      5  C   UNL     1     -21.421 -10.045  -7.726  1.00  0.00     0.041 C 
ATOM      6  O   UNL     1     -22.246  -9.631  -8.582  1.00  0.00    -0.550 OA
ATOM      7  O   UNL     1     -20.135  -9.519  -7.697  1.00  0.00    -0.550 OA
ENDBRANCH   4   5
ENDBRANCH   3   4
ENDBRANCH   2   3
ENDBRANCH   1   2
BRANCH   1   8
ATOM      8  C   UNL     1     -24.448  -9.336  -4.834  1.00  0.00     0.000 C 
BRANCH   8   9
ATOM      9  C   UNL     1     -24.361  -8.325  -5.985  1.00  0.00    -0.000 C 
BRANCH   9  10
ATOM     10  C   UNL     1     -25.399  -7.207  -5.813  1.00  0.00    -0.000 C 
BRANCH  10  11
ATOM     11  C   UNL     1     -25.797  -6.990  -4.344  1.00  0.00    -0.000 C 
BRANCH  11  12
ATOM     12  C   UNL     1     -26.713  -5.771  -4.153  1.00  0.00    -0.003 C 
ATOM     13  C   UNL     1     -27.265  -5.286  -5.491  1.00  0.00     0.004 C 
ENDBRANCH  11  12
ENDBRANCH  10  11
ENDBRANCH   9  10
ENDBRANCH   8   9
ENDBRANCH   1   8
TORSDOF 9
ENDMDL
MODEL 5
REMARK VINA RESULT:    -3.389      1.564      1.835
REMARK INTER + INTRA:          -6.542
REMARK INTER:                  -5.603
REMARK INTRA:                  -0.940
REMARK UNBOUND:                -1.370
REMARK SMILES CCCCCCCCCCC(=O)[O-]
REMARK SMILES IDX 7 1 8 2 9 3 10 4 11 5 12 6 13 7 6 8 5 9 4 10 3 11 2 12 1 13
REMARK H PARENT
REMARK Flexibility Score: inf
ROOT
ATOM      1  C   UNL     1     -23.218  -8.773  -7.142  1.00  0.00     0.000 C 
ENDROOT
BRANCH   1   2
ATOM      2  C   UNL     1     -24.459  -9.141  -6.310  1.00  0.00     0.000 C 
BRANCH   2   3
ATOM      3  C   UNL     1     -24.904  -8.070  -5.292  1.00  0.00     0.006 C 
BRANCH   3   4
ATOM      4  C   UNL     1     -25.637  -6.868  -5.909  1.00  0.00     0.053 C 
BRANCH   4   5
ATOM      5  C   UNL     1     -26.462  -6.135  -4.897  1.00  0.00     0.041 C 
ATOM      6  O   UNL     1     -27.499  -5.515  -5.252  1.00  0.00    -0.550 OA
ATOM      7  O   UNL     1     -26.065  -6.107  -3.566  1.00  0.00    -0.550 OA
ENDBRANCH   4   5
ENDBRANCH   3   4
ENDBRANCH   2   3
ENDBRANCH   1   2
BRANCH   1   8
ATOM      8  C   UNL     1     -22.605  -9.980  -7.867  1.00  0.00     0.000 C 
BRANCH   8   9
ATOM      9  C   UNL     1     -21.086 -10.036  -7.653  1.00  0.00    -0.000 C 
BRANCH   9  10
ATOM     10  C   UNL     1     -20.749 -10.330  -6.184  1.00  0.00    -0.000 C 
BRANCH  10  11
ATOM     11  C   UNL     1     -21.450 -11.594  -5.658  1.00  0.00    -0.000 C 
BRANCH  11  12
ATOM     12  C   UNL     1     -22.227 -11.341  -4.358  1.00  0.00    -0.003 C 
ATOM     13  C   UNL     1     -21.807 -10.022  -3.715  1.00  0.00     0.004 C 
ENDBRANCH  11  12
ENDBRANCH  10  11
ENDBRANCH   9  10
ENDBRANCH   8   9
ENDBRANCH   1   8
TORSDOF 9
ENDMDL
MODEL 6
REMARK VINA RESULT:    -3.361      3.885      5.785
REMARK INTER + INTRA:          -6.499
REMARK INTER:                  -5.238
REMARK INTRA:                  -1.261
REMARK UNBOUND:                -1.370
REMARK SMILES CCCCCCCCCCC(=O)[O-]
REMARK SMILES IDX 7 1 8 2 9 3 10 4 11 5 12 6 13 7 6 8 5 9 4 10 3 11 2 12 1 13
REMARK H PARENT
REMARK Flexibility Score: inf
ROOT
ATOM      1  C   UNL     1     -21.088 -11.432  -5.567  1.00  0.00     0.000 C 
ENDROOT
BRANCH   1   2
ATOM      2  C   UNL     1     -21.377 -11.033  -7.024  1.00  0.00     0.000 C 
BRANCH   2   3
ATOM      3  C   UNL     1     -20.706  -9.724  -7.489  1.00  0.00     0.006 C 
BRANCH   3   4
ATOM      4  C   UNL     1     -19.498  -9.291  -6.643  1.00  0.00     0.053 C 
BRANCH   4   5
ATOM      5  C   UNL     1     -18.229  -9.938  -7.107  1.00  0.00     0.041 C 
ATOM      6  O   UNL     1     -17.428 -10.433  -6.272  1.00  0.00    -0.550 OA
ATOM      7  O   UNL     1     -17.917  -9.962  -8.460  1.00  0.00    -0.550 OA
ENDBRANCH   4   5
ENDBRANCH   3   4
ENDBRANCH   2   3
ENDBRANCH   1   2
BRANCH   1   8
ATOM      8  C   UNL     1     -22.256 -11.122  -4.618  1.00  0.00     0.000 C 
BRANCH   8   9
ATOM      9  C   UNL     1     -22.057  -9.767  -3.927  1.00  0.00    -0.000 C 
BRANCH   9  10
ATOM     10  C   UNL     1     -23.205  -8.804  -4.266  1.00  0.00    -0.000 C 
BRANCH  10  11
ATOM     11  C   UNL     1     -24.318  -9.477  -5.086  1.00  0.00    -0.000 C 
BRANCH  11  12
ATOM     12  C   UNL     1     -24.455  -8.882  -6.496  1.00  0.00    -0.003 C 
ATOM     13  C   UNL     1     -23.589  -7.634  -6.651  1.00  0.00     0.004 C 
ENDBRANCH  11  12
ENDBRANCH  10  11
ENDBRANCH   9  10
ENDBRANCH   8   9
ENDBRANCH   1   8
TORSDOF 9
ENDMDL
MODEL 7
REMARK VINA RESULT:    -3.348      1.845      2.755
REMARK INTER + INTRA:          -6.479
REMARK INTER:                  -5.646
REMARK INTRA:                  -0.833
REMARK UNBOUND:                -1.370
REMARK SMILES CCCCCCCCCCC(=O)[O-]
REMARK SMILES IDX 7 1 8 2 9 3 10 4 11 5 12 6 13 7 6 8 5 9 4 10 3 11 2 12 1 13
REMARK H PARENT
REMARK Flexibility Score: inf
ROOT
ATOM      1  C   UNL     1     -23.679  -7.591  -6.632  1.00  0.00     0.000 C 
ENDROOT
BRANCH   1   2
ATOM      2  C   UNL     1     -24.543  -6.328  -6.794  1.00  0.00     0.000 C 
BRANCH   2   3
ATOM      3  C   UNL     1     -26.067  -6.572  -6.770  1.00  0.00     0.006 C 
BRANCH   3   4
ATOM      4  C   UNL     1     -26.834  -5.708  -5.756  1.00  0.00     0.053 C 
BRANCH   4   5
ATOM      5  C   UNL     1     -26.326  -5.899  -4.359  1.00  0.00     0.041 C 
ATOM      6  O   UNL     1     -26.255  -7.054  -3.863  1.00  0.00    -0.550 OA
ATOM      7  O   UNL     1     -25.964  -4.797  -3.596  1.00  0.00    -0.550 OA
ENDBRANCH   4   5
ENDBRANCH   3   4
ENDBRANCH   2   3
ENDBRANCH   1   2
BRANCH   1   8
ATOM      8  C   UNL     1     -24.510  -8.855  -6.365  1.00  0.00     0.000 C 
BRANCH   8   9
ATOM      9  C   UNL     1     -24.152  -9.470  -5.006  1.00  0.00    -0.000 C 
BRANCH   9  10
ATOM     10  C   UNL     1     -22.633  -9.649  -4.867  1.00  0.00    -0.000 C 
BRANCH  10  11
ATOM     11  C   UNL     1     -22.221 -11.124  -4.729  1.00  0.00    -0.000 C 
BRANCH  11  12
ATOM     12  C   UNL     1     -21.162 -11.541  -5.760  1.00  0.00    -0.003 C 
ATOM     13  C   UNL     1     -21.379 -10.824  -7.090  1.00  0.00     0.004 C 
ENDBRANCH  11  12
ENDBRANCH  10  11
ENDBRANCH   9  10
ENDBRANCH   8   9
ENDBRANCH   1   8
TORSDOF 9
ENDMDL
MODEL 8
REMARK VINA RESULT:    -3.337      2.047      3.051
REMARK INTER + INTRA:          -6.463
REMARK INTER:                  -5.305
REMARK INTRA:                  -1.157
REMARK UNBOUND:                -1.370
REMARK SMILES CCCCCCCCCCC(=O)[O-]
REMARK SMILES IDX 7 1 8 2 9 3 10 4 11 5 12 6 13 7 6 8 5 9 4 10 3 11 2 12 1 13
REMARK H PARENT
REMARK Flexibility Score: inf
ROOT
ATOM      1  C   UNL     1     -21.175 -10.998  -7.089  1.00  0.00     0.000 C 
ENDROOT
BRANCH   1   2
ATOM      2  C   UNL     1     -21.833 -11.247  -5.721  1.00  0.00     0.000 C 
BRANCH   2   3
ATOM      3  C   UNL     1     -22.223  -9.973  -4.942  1.00  0.00     0.006 C 
BRANCH   3   4
ATOM      4  C   UNL     1     -23.683  -9.939  -4.464  1.00  0.00     0.053 C 
BRANCH   4   5
ATOM      5  C   UNL     1     -24.531  -9.045  -5.316  1.00  0.00     0.041 C 
ATOM      6  O   UNL     1     -25.333  -8.234  -4.783  1.00  0.00    -0.550 OA
ATOM      7  O   UNL     1     -24.459  -9.133  -6.700  1.00  0.00    -0.550 OA
ENDBRANCH   4   5
ENDBRANCH   3   4
ENDBRANCH   2   3
ENDBRANCH   1   2
BRANCH   1   8
ATOM      8  C   UNL     1     -20.777  -9.530  -7.305  1.00  0.00     0.000 C 
BRANCH   8   9
ATOM      9  C   UNL     1     -19.360  -9.424  -7.883  1.00  0.00    -0.000 C 
BRANCH   9  10
ATOM     10  C   UNL     1     -18.336  -9.132  -6.777  1.00  0.00    -0.000 C 
BRANCH  10  11
ATOM     11  C   UNL     1     -17.578 -10.391  -6.325  1.00  0.00    -0.000 C 
BRANCH  11  12
ATOM     12  C   UNL     1     -18.073 -10.926  -4.973  1.00  0.00    -0.003 C 
ATOM     13  C   UNL     1     -18.668  -9.805  -4.124  1.00  0.00     0.004 C 
ENDBRANCH  11  12
ENDBRANCH  10  11
ENDBRANCH   9  10
ENDBRANCH   8   9
ENDBRANCH   1   8
TORSDOF 9
ENDMDL
MODEL 9
REMARK VINA RESULT:    -3.303      3.347      5.540
REMARK INTER + INTRA:          -6.411
REMARK INTER:                  -5.537
REMARK INTRA:                  -0.874
REMARK UNBOUND:                -1.370
REMARK SMILES CCCCCCCCCCC(=O)[O-]
REMARK SMILES IDX 7 1 8 2 9 3 10 4 11 5 12 6 13 7 6 8 5 9 4 10 3 11 2 12 1 13
REMARK H PARENT
REMARK Flexibility Score: inf
ROOT
ATOM      1  C   UNL     1     -23.761  -7.338  -6.398  1.00  0.00     0.000 C 
ENDROOT
BRANCH   1   2
ATOM      2  C   UNL     1     -24.461  -8.706  -6.307  1.00  0.00     0.000 C 
BRANCH   2   3
ATOM      3  C   UNL     1     -23.529  -9.899  -6.010  1.00  0.00     0.006 C 
BRANCH   3   4
ATOM      4  C   UNL     1     -22.659 -10.339  -7.199  1.00  0.00     0.053 C 
BRANCH   4   5
ATOM      5  C   UNL     1     -21.370 -10.958  -6.751  1.00  0.00     0.041 C 
ATOM      6  O   UNL     1     -21.379 -11.978  -6.014  1.00  0.00    -0.550 OA
ATOM      7  O   UNL     1     -20.160 -10.385  -7.120  1.00  0.00    -0.550 OA
ENDBRANCH   4   5
ENDBRANCH   3   4
ENDBRANCH   2   3
ENDBRANCH   1   2
BRANCH   1   8
ATOM      8  C   UNL     1     -24.615  -6.274  -7.103  1.00  0.00     0.000 C 
BRANCH   8   9
ATOM      9  C   UNL     1     -26.094  -6.415  -6.721  1.00  0.00    -0.000 C 
BRANCH   9  10
ATOM     10  C   UNL     1     -26.524  -5.290  -5.768  1.00  0.00    -0.000 C 
BRANCH  10  11
ATOM     11  C   UNL     1     -26.819  -5.798  -4.347  1.00  0.00    -0.000 C 
BRANCH  11  12
ATOM     12  C   UNL     1     -25.560  -5.859  -3.469  1.00  0.00    -0.003 C 
ATOM     13  C   UNL     1     -25.311  -7.277  -2.964  1.00  0.00     0.004 C 
ENDBRANCH  11  12
ENDBRANCH  10  11
ENDBRANCH   9  10
ENDBRANCH   8   9
ENDBRANCH   1   8
TORSDOF 9
ENDMDL
