MODEL 1
REMARK VINA RESULT:    -4.809      0.000      0.000
REMARK INTER + INTRA:          -5.347
REMARK INTER:                  -5.230
REMARK INTRA:                  -0.117
REMARK UNBOUND:                -0.117
REMARK SMILES C=C1C[C@@]2(O)O[C@@]3(C[C@H]2C(C)C)[C@@H](C)CC[C@@H]13
REMARK SMILES IDX 14 1 13 2 15 3 16 4 17 5 7 6 8 7 9 8 4 9 6 10 3 11 2 12 1 13
REMARK SMILES IDX 10 14 11 15 12 16 5 17
REMARK H PARENT 5 18
REMARK Flexibility Score: inf
ROOT
ATOM      1  C   UNL     1      12.269  25.529  -3.302  1.00  0.00     0.011 C 
ATOM      2  C   UNL     1      13.624  24.872  -2.999  1.00  0.00     0.019 C 
ATOM      3  C   UNL     1      14.350  25.537  -1.819  1.00  0.00     0.007 C 
ATOM      4  C   UNL     1      14.994  24.415  -0.999  1.00  0.00     0.011 C 
ATOM      5  C   UNL     1      14.797  23.131  -1.805  1.00  0.00     0.047 C 
ATOM      6  C   UNL     1      13.523  23.388  -2.623  1.00  0.00     0.081 C 
ATOM      7  C   UNL     1      13.419  22.430  -3.820  1.00  0.00     0.046 C 
ATOM      8  C   UNL     1      12.466  21.349  -3.318  1.00  0.00     0.054 C 
ATOM      9  C   UNL     1      12.273  21.739  -1.826  1.00  0.00     0.173 C 
ATOM     10  O   UNL     1      12.402  23.141  -1.799  1.00  0.00    -0.342 OA
ATOM     11  C   UNL     1      13.331  21.164  -0.839  1.00  0.00     0.096 C 
ATOM     12  C   UNL     1      14.660  21.893  -0.935  1.00  0.00    -0.066 C 
ATOM     13  C   UNL     1      15.713  21.444  -0.238  1.00  0.00     0.008 C 
ENDROOT
BRANCH   8  14
ATOM     14  C   UNL     1      12.924  19.892  -3.631  1.00  0.00    -0.009 C 
ATOM     15  C   UNL     1      13.273  19.733  -5.122  1.00  0.00     0.008 C 
ATOM     16  C   UNL     1      11.823  18.875  -3.279  1.00  0.00     0.008 C 
ENDBRANCH   8  14
BRANCH   9  17
ATOM     17  O   UNL     1      10.992  21.367  -1.383  1.00  0.00    -0.365 OA
ATOM     18  H   UNL     1      10.533  20.912  -2.137  1.00  0.00     0.214 HD
ENDBRANCH   9  17
TORSDOF 2
ENDMDL
MODEL 2
REMARK VINA RESULT:    -4.629      1.167      4.480
REMARK INTER + INTRA:          -5.152
REMARK INTER:                  -6.275
REMARK INTRA:                   1.123
REMARK UNBOUND:                -0.117
REMARK SMILES C=C1C[C@@]2(O)O[C@@]3(C[C@H]2C(C)C)[C@@H](C)CC[C@@H]13
REMARK SMILES IDX 14 1 13 2 15 3 16 4 17 5 7 6 8 7 9 8 4 9 6 10 3 11 2 12 1 13
REMARK SMILES IDX 10 14 11 15 12 16 5 17
REMARK H PARENT 5 18
REMARK Flexibility Score: inf
ROOT
ATOM      1  C   UNL     1      11.752  18.876  -2.664  1.00  0.00     0.011 C 
ATOM      2  C   UNL     1      12.627  19.795  -3.528  1.00  0.00     0.019 C 
ATOM      3  C   UNL     1      11.957  20.164  -4.861  1.00  0.00     0.007 C 
ATOM      4  C   UNL     1      12.266  21.641  -5.125  1.00  0.00     0.011 C 
ATOM      5  C   UNL     1      13.263  22.067  -4.047  1.00  0.00     0.047 C 
ATOM      6  C   UNL     1      12.962  21.137  -2.862  1.00  0.00     0.081 C 
ATOM      7  C   UNL     1      14.137  21.084  -1.873  1.00  0.00     0.046 C 
ATOM      8  C   UNL     1      13.709  22.055  -0.776  1.00  0.00     0.054 C 
ATOM      9  C   UNL     1      12.409  22.672  -1.361  1.00  0.00     0.173 C 
ATOM     10  O   UNL     1      11.852  21.652  -2.157  1.00  0.00    -0.342 OA
ATOM     11  C   UNL     1      12.607  23.912  -2.281  1.00  0.00     0.096 C 
ATOM     12  C   UNL     1      13.133  23.529  -3.654  1.00  0.00    -0.066 C 
ATOM     13  C   UNL     1      13.472  24.490  -4.525  1.00  0.00     0.008 C 
ENDROOT
BRANCH   8  14
ATOM     14  C   UNL     1      14.829  23.036  -0.313  1.00  0.00    -0.009 C 
ATOM     15  C   UNL     1      15.163  24.054  -1.419  1.00  0.00     0.008 C 
ATOM     16  C   UNL     1      16.118  22.277   0.053  1.00  0.00     0.008 C 
ENDBRANCH   8  14
BRANCH   9  17
ATOM     17  O   UNL     1      11.519  23.014  -0.328  1.00  0.00    -0.365 OA
ATOM     18  H   UNL     1      11.292  22.179   0.161  1.00  0.00     0.214 HD
ENDBRANCH   9  17
TORSDOF 2
ENDMDL
MODEL 3
REMARK VINA RESULT:    -4.134      1.598      3.354
REMARK INTER + INTRA:          -4.614
REMARK INTER:                  -4.953
REMARK INTRA:                   0.339
REMARK UNBOUND:                -0.117
REMARK SMILES C=C1C[C@@]2(O)O[C@@]3(C[C@H]2C(C)C)[C@@H](C)CC[C@@H]13
REMARK SMILES IDX 14 1 13 2 15 3 16 4 17 5 7 6 8 7 9 8 4 9 6 10 3 11 2 12 1 13
REMARK SMILES IDX 10 14 11 15 12 16 5 17
REMARK H PARENT 5 18
REMARK Flexibility Score: inf
ROOT
ATOM      1  C   UNL     1      15.932  21.500   0.071  1.00  0.00     0.011 C 
ATOM      2  C   UNL     1      14.867  22.570  -0.206  1.00  0.00     0.019 C 
ATOM      3  C   UNL     1      15.477  23.958  -0.455  1.00  0.00     0.007 C 
ATOM      4  C   UNL     1      14.676  24.602  -1.592  1.00  0.00     0.011 C 
ATOM      5  C   UNL     1      13.498  23.668  -1.866  1.00  0.00     0.047 C 
ATOM      6  C   UNL     1      14.006  22.281  -1.443  1.00  0.00     0.081 C 
ATOM      7  C   UNL     1      12.845  21.304  -1.201  1.00  0.00     0.046 C 
ATOM      8  C   UNL     1      12.786  20.508  -2.501  1.00  0.00     0.054 C 
ATOM      9  C   UNL     1      13.820  21.246  -3.395  1.00  0.00     0.173 C 
ATOM     10  O   UNL     1      14.782  21.747  -2.496  1.00  0.00    -0.342 OA
ATOM     11  C   UNL     1      13.270  22.460  -4.198  1.00  0.00     0.096 C 
ATOM     12  C   UNL     1      13.050  23.678  -3.318  1.00  0.00    -0.066 C 
ATOM     13  C   UNL     1      12.467  24.770  -3.831  1.00  0.00     0.008 C 
ENDROOT
BRANCH   8  14
ATOM     14  C   UNL     1      11.348  20.313  -3.071  1.00  0.00    -0.009 C 
ATOM     15  C   UNL     1      10.603  19.197  -2.316  1.00  0.00     0.008 C 
ATOM     16  C   UNL     1      11.386  19.945  -4.566  1.00  0.00     0.008 C 
ENDBRANCH   8  14
BRANCH   9  17
ATOM     17  O   UNL     1      14.425  20.348  -4.291  1.00  0.00    -0.365 OA
ATOM     18  H   UNL     1      14.771  20.875  -5.059  1.00  0.00     0.214 HD
ENDBRANCH   9  17
TORSDOF 2
ENDMDL
MODEL 4
REMARK VINA RESULT:    -2.683      1.512      4.631
REMARK INTER + INTRA:          -3.036
REMARK INTER:                  -3.600
REMARK INTRA:                   0.564
REMARK UNBOUND:                -0.117
REMARK SMILES C=C1C[C@@]2(O)O[C@@]3(C[C@H]2C(C)C)[C@@H](C)CC[C@@H]13
REMARK SMILES IDX 14 1 13 2 15 3 16 4 17 5 7 6 8 7 9 8 4 9 6 10 3 11 2 12 1 13
REMARK SMILES IDX 10 14 11 15 12 16 5 17
REMARK H PARENT 5 18
REMARK Flexibility Score: inf
ROOT
ATOM      1  C   UNL     1      14.212  19.189  -3.991  1.00  0.00     0.011 C 
ATOM      2  C   UNL     1      12.944  20.040  -3.824  1.00  0.00     0.019 C 
ATOM      3  C   UNL     1      11.796  19.261  -3.164  1.00  0.00     0.007 C 
ATOM      4  C   UNL     1      11.103  20.222  -2.192  1.00  0.00     0.011 C 
ATOM      5  C   UNL     1      11.732  21.595  -2.430  1.00  0.00     0.047 C 
ATOM      6  C   UNL     1      13.144  21.283  -2.946  1.00  0.00     0.081 C 
ATOM      7  C   UNL     1      13.759  22.488  -3.674  1.00  0.00     0.046 C 
ATOM      8  C   UNL     1      14.657  23.113  -2.611  1.00  0.00     0.054 C 
ATOM      9  C   UNL     1      14.314  22.277  -1.347  1.00  0.00     0.173 C 
ATOM     10  O   UNL     1      13.975  21.002  -1.839  1.00  0.00    -0.342 OA
ATOM     11  C   UNL     1      13.100  22.783  -0.515  1.00  0.00     0.096 C 
ATOM     12  C   UNL     1      11.774  22.459  -1.181  1.00  0.00    -0.066 C 
ATOM     13  C   UNL     1      10.635  22.931  -0.654  1.00  0.00     0.008 C 
ENDROOT
BRANCH   8  14
ATOM     14  C   UNL     1      14.543  24.665  -2.503  1.00  0.00    -0.009 C 
ATOM     15  C   UNL     1      14.692  25.128  -1.043  1.00  0.00     0.008 C 
ATOM     16  C   UNL     1      13.187  25.162  -3.035  1.00  0.00     0.008 C 
ENDBRANCH   8  14
BRANCH   9  17
ATOM     17  O   UNL     1      15.433  22.183  -0.501  1.00  0.00    -0.365 OA
ATOM     18  H   UNL     1      16.067  22.903  -0.760  1.00  0.00     0.214 HD
ENDBRANCH   9  17
TORSDOF 2
ENDMDL
MODEL 5
REMARK VINA RESULT:    -2.082      1.600      3.198
REMARK INTER + INTRA:          -2.382
REMARK INTER:                  -3.442
REMARK INTRA:                   1.061
REMARK UNBOUND:                -0.117
REMARK SMILES C=C1C[C@@]2(O)O[C@@]3(C[C@H]2C(C)C)[C@@H](C)CC[C@@H]13
REMARK SMILES IDX 14 1 13 2 15 3 16 4 17 5 7 6 8 7 9 8 4 9 6 10 3 11 2 12 1 13
REMARK SMILES IDX 10 14 11 15 12 16 5 17
REMARK H PARENT 5 18
REMARK Flexibility Score: inf
ROOT
ATOM      1  C   UNL     1      14.001  25.642  -1.397  1.00  0.00     0.011 C 
ATOM      2  C   UNL     1      13.069  24.910  -2.373  1.00  0.00     0.019 C 
ATOM      3  C   UNL     1      13.353  25.268  -3.840  1.00  0.00     0.007 C 
ATOM      4  C   UNL     1      13.226  23.974  -4.651  1.00  0.00     0.011 C 
ATOM      5  C   UNL     1      12.690  22.918  -3.685  1.00  0.00     0.047 C 
ATOM      6  C   UNL     1      13.179  23.380  -2.305  1.00  0.00     0.081 C 
ATOM      7  C   UNL     1      12.369  22.730  -1.172  1.00  0.00     0.046 C 
ATOM      8  C   UNL     1      13.264  21.579  -0.723  1.00  0.00     0.054 C 
ATOM      9  C   UNL     1      14.408  21.613  -1.773  1.00  0.00     0.173 C 
ATOM     10  O   UNL     1      14.520  22.968  -2.142  1.00  0.00    -0.342 OA
ATOM     11  C   UNL     1      14.147  20.806  -3.078  1.00  0.00     0.096 C 
ATOM     12  C   UNL     1      13.173  21.513  -4.005  1.00  0.00    -0.066 C 
ATOM     13  C   UNL     1      12.749  20.895  -5.116  1.00  0.00     0.008 C 
ENDROOT
BRANCH   8  14
ATOM     14  C   UNL     1      12.517  20.228  -0.512  1.00  0.00    -0.009 C 
ATOM     15  C   UNL     1      13.473  19.148   0.029  1.00  0.00     0.008 C 
ATOM     16  C   UNL     1      11.904  19.718  -1.829  1.00  0.00     0.008 C 
ENDBRANCH   8  14
BRANCH   9  17
ATOM     17  O   UNL     1      15.614  21.171  -1.202  1.00  0.00    -0.365 OA
ATOM     18  H   UNL     1      15.405  20.809  -0.300  1.00  0.00     0.214 HD
ENDBRANCH   9  17
TORSDOF 2
ENDMDL
