MODEL 1
REMARK VINA RESULT:    -1.732      0.000      0.000
REMARK INTER + INTRA:          -1.317
REMARK INTER:                  -1.884
REMARK INTRA:                   0.567
REMARK UNBOUND:                 0.567
REMARK SMILES C=C(C)[C@@H]1CC[C@@H](C)C[C@H]1O
REMARK SMILES IDX 8 1 7 2 6 3 5 4 4 5 10 6 9 7 11 8 2 10 1 11 3 12
REMARK H PARENT 11 9
REMARK Flexibility Score: inf
ROOT
ATOM      1  C   UNL     1     -38.760  32.203  -9.818  1.00  0.00     0.008 C 
ATOM      2  C   UNL     1     -38.974  33.520 -10.580  1.00  0.00    -0.012 C 
ATOM      3  C   UNL     1     -38.464  33.414 -12.031  1.00  0.00     0.004 C 
ATOM      4  C   UNL     1     -36.928  33.350 -12.124  1.00  0.00     0.011 C 
ATOM      5  C   UNL     1     -36.199  34.227 -11.070  1.00  0.00     0.043 C 
ATOM      6  C   UNL     1     -37.114  35.341 -10.515  1.00  0.00     0.121 C 
ATOM      7  C   UNL     1     -38.356  34.732  -9.825  1.00  0.00     0.035 C 
ENDROOT
BRANCH   6   8
ATOM      8  O   UNL     1     -36.401  36.125  -9.594  1.00  0.00    -0.392 OA
ATOM      9  H   UNL     1     -36.061  35.507  -8.894  1.00  0.00     0.210 HD
ENDBRANCH   6   8
BRANCH   5  10
ATOM     10  C   UNL     1     -34.902  34.792 -11.632  1.00  0.00    -0.075 C 
ATOM     11  C   UNL     1     -34.722  36.121 -11.690  1.00  0.00     0.008 C 
ATOM     12  C   UNL     1     -33.807  33.869 -12.104  1.00  0.00     0.039 C 
ENDBRANCH   5  10
TORSDOF 2
ENDMDL
MODEL 2
REMARK VINA RESULT:     0.808     18.599     20.703
REMARK INTER + INTRA:           1.447
REMARK INTER:                   0.627
REMARK INTRA:                   0.819
REMARK UNBOUND:                 0.567
REMARK SMILES C=C(C)[C@@H]1CC[C@@H](C)C[C@H]1O
REMARK SMILES IDX 8 1 7 2 6 3 5 4 4 5 10 6 9 7 11 8 2 10 1 11 3 12
REMARK H PARENT 11 9
REMARK Flexibility Score: inf
ROOT
ATOM      1  C   UNL     1     -39.019  20.787   8.125  1.00  0.00     0.008 C 
ATOM      2  C   UNL     1     -37.846  21.042   7.166  1.00  0.00    -0.012 C 
ATOM      3  C   UNL     1     -37.166  22.394   7.462  1.00  0.00     0.004 C 
ATOM      4  C   UNL     1     -38.038  23.602   7.074  1.00  0.00     0.011 C 
ATOM      5  C   UNL     1     -38.877  23.382   5.785  1.00  0.00     0.043 C 
ATOM      6  C   UNL     1     -38.295  22.254   4.905  1.00  0.00     0.121 C 
ATOM      7  C   UNL     1     -38.278  20.914   5.676  1.00  0.00     0.035 C 
ENDROOT
BRANCH   6   8
ATOM      8  O   UNL     1     -39.066  22.116   3.739  1.00  0.00    -0.392 OA
ATOM      9  H   UNL     1     -39.893  21.629   3.998  1.00  0.00     0.210 HD
ENDBRANCH   6   8
BRANCH   5  10
ATOM     10  C   UNL     1     -39.034  24.680   5.006  1.00  0.00    -0.075 C 
ATOM     11  C   UNL     1     -39.120  24.649   3.667  1.00  0.00     0.008 C 
ATOM     12  C   UNL     1     -39.116  26.000   5.730  1.00  0.00     0.039 C 
ENDBRANCH   5  10
TORSDOF 2
ENDMDL
MODEL 3
REMARK VINA RESULT:     1.162     18.638     20.622
REMARK INTER + INTRA:           1.831
REMARK INTER:                   1.373
REMARK INTRA:                   0.458
REMARK UNBOUND:                 0.567
REMARK SMILES C=C(C)[C@@H]1CC[C@@H](C)C[C@H]1O
REMARK SMILES IDX 8 1 7 2 6 3 5 4 4 5 10 6 9 7 11 8 2 10 1 11 3 12
REMARK H PARENT 11 9
REMARK Flexibility Score: inf
ROOT
ATOM      1  C   UNL     1     -37.926  20.535   8.048  1.00  0.00     0.008 C 
ATOM      2  C   UNL     1     -37.779  22.063   8.125  1.00  0.00    -0.012 C 
ATOM      3  C   UNL     1     -39.018  22.772   7.542  1.00  0.00     0.004 C 
ATOM      4  C   UNL     1     -39.123  22.635   6.011  1.00  0.00     0.011 C 
ATOM      5  C   UNL     1     -37.752  22.668   5.283  1.00  0.00     0.043 C 
ATOM      6  C   UNL     1     -36.657  23.331   6.147  1.00  0.00     0.121 C 
ATOM      7  C   UNL     1     -36.456  22.551   7.466  1.00  0.00     0.035 C 
ENDROOT
BRANCH   6   8
ATOM      8  O   UNL     1     -35.447  23.367   5.434  1.00  0.00    -0.392 OA
ATOM      9  H   UNL     1     -35.414  24.245   4.970  1.00  0.00     0.210 HD
ENDBRANCH   6   8
BRANCH   5  10
ATOM     10  C   UNL     1     -37.872  23.334   3.919  1.00  0.00    -0.075 C 
ATOM     11  C   UNL     1     -39.031  23.905   3.555  1.00  0.00     0.008 C 
ATOM     12  C   UNL     1     -36.691  23.375   2.982  1.00  0.00     0.039 C 
ENDBRANCH   5  10
TORSDOF 2
ENDMDL
