MODEL 1
REMARK VINA RESULT:    -6.002      0.000      0.000
REMARK INTER + INTRA:          -6.002
REMARK INTER:                  -6.002
REMARK INTRA:                   0.000
REMARK UNBOUND:                 0.000
REMARK SMILES C=C1c2ccccc2-c2ccccc21
REMARK SMILES IDX 1 1 2 2 3 3 4 4 5 5 6 6 7 7 8 8 9 9 10 10 11 11 12 12 13 13
REMARK SMILES IDX 14 14
REMARK H PARENT
REMARK Flexibility Score: inf
ROOT
ATOM      1  C   UNL     1       3.905  -0.975  10.094  1.00  0.00     0.018 C 
ATOM      2  C   UNL     1       2.739  -1.169   9.480  1.00  0.00    -0.017 C 
ATOM      3  C   UNL     1       2.108  -2.453   9.150  1.00  0.00    -0.010 A 
ATOM      4  C   UNL     1       2.549  -3.759   9.384  1.00  0.00     0.009 A 
ATOM      5  C   UNL     1       1.737  -4.823   8.957  1.00  0.00     0.001 A 
ATOM      6  C   UNL     1       0.510  -4.572   8.309  1.00  0.00     0.001 A 
ATOM      7  C   UNL     1       0.081  -3.253   8.082  1.00  0.00     0.009 A 
ATOM      8  C   UNL     1       0.902  -2.210   8.514  1.00  0.00    -0.010 A 
ATOM      9  C   UNL     1       0.715  -0.767   8.413  1.00  0.00    -0.010 A 
ATOM     10  C   UNL     1      -0.334  -0.034   7.858  1.00  0.00     0.009 A 
ATOM     11  C   UNL     1      -0.258   1.368   7.897  1.00  0.00     0.001 A 
ATOM     12  C   UNL     1       0.854   2.007   8.482  1.00  0.00     0.001 A 
ATOM     13  C   UNL     1       1.902   1.251   9.035  1.00  0.00     0.009 A 
ATOM     14  C   UNL     1       1.809  -0.142   8.989  1.00  0.00    -0.010 A 
ENDROOT
TORSDOF 0
ENDMDL
MODEL 2
REMARK VINA RESULT:    -5.993      0.068      4.268
REMARK INTER + INTRA:          -5.993
REMARK INTER:                  -5.993
REMARK INTRA:                   0.000
REMARK UNBOUND:                 0.000
REMARK SMILES C=C1c2ccccc2-c2ccccc21
REMARK SMILES IDX 1 1 2 2 3 3 4 4 5 5 6 6 7 7 8 8 9 9 10 10 11 11 12 12 13 13
REMARK SMILES IDX 14 14
REMARK H PARENT
REMARK Flexibility Score: inf
ROOT
ATOM      1  C   UNL     1       3.899  -1.019  10.139  1.00  0.00     0.018 C 
ATOM      2  C   UNL     1       2.740  -1.185   9.503  1.00  0.00    -0.017 C 
ATOM      3  C   UNL     1       1.829  -0.137   9.024  1.00  0.00    -0.010 A 
ATOM      4  C   UNL     1       1.934   1.254   9.107  1.00  0.00     0.009 A 
ATOM      5  C   UNL     1       0.902   2.034   8.559  1.00  0.00     0.001 A 
ATOM      6  C   UNL     1      -0.208   1.421   7.942  1.00  0.00     0.001 A 
ATOM      7  C   UNL     1      -0.297   0.021   7.866  1.00  0.00     0.009 A 
ATOM      8  C   UNL     1       0.738  -0.736   8.417  1.00  0.00    -0.010 A 
ATOM      9  C   UNL     1       0.908  -2.183   8.483  1.00  0.00    -0.010 A 
ATOM     10  C   UNL     1       0.083  -3.206   8.015  1.00  0.00     0.009 A 
ATOM     11  C   UNL     1       0.495  -4.535   8.215  1.00  0.00     0.001 A 
ATOM     12  C   UNL     1       1.709  -4.814   8.873  1.00  0.00     0.001 A 
ATOM     13  C   UNL     1       2.526  -3.770   9.338  1.00  0.00     0.009 A 
ATOM     14  C   UNL     1       2.102  -2.455   9.130  1.00  0.00    -0.010 A 
ENDROOT
TORSDOF 0
ENDMDL
MODEL 3
REMARK VINA RESULT:    -5.925      0.662      2.931
REMARK INTER + INTRA:          -5.925
REMARK INTER:                  -5.925
REMARK INTRA:                   0.000
REMARK UNBOUND:                 0.000
REMARK SMILES C=C1c2ccccc2-c2ccccc21
REMARK SMILES IDX 1 1 2 2 3 3 4 4 5 5 6 6 7 7 8 8 9 9 10 10 11 11 12 12 13 13
REMARK SMILES IDX 14 14
REMARK H PARENT
REMARK Flexibility Score: inf
ROOT
ATOM      1  C   UNL     1       0.073  -3.327   8.254  1.00  0.00     0.018 C 
ATOM      2  C   UNL     1       0.897  -2.336   8.591  1.00  0.00    -0.017 C 
ATOM      3  C   UNL     1       2.233  -2.454   9.189  1.00  0.00    -0.010 A 
ATOM      4  C   UNL     1       2.961  -3.592   9.550  1.00  0.00     0.009 A 
ATOM      5  C   UNL     1       4.236  -3.416  10.114  1.00  0.00     0.001 A 
ATOM      6  C   UNL     1       4.761  -2.122  10.307  1.00  0.00     0.001 A 
ATOM      7  C   UNL     1       4.016  -0.989   9.939  1.00  0.00     0.009 A 
ATOM      8  C   UNL     1       2.751  -1.184   9.381  1.00  0.00    -0.010 A 
ATOM      9  C   UNL     1       1.773  -0.210   8.914  1.00  0.00    -0.010 A 
ATOM     10  C   UNL     1       1.831   1.184   8.896  1.00  0.00     0.009 A 
ATOM     11  C   UNL     1       0.729   1.889   8.383  1.00  0.00     0.001 A 
ATOM     12  C   UNL     1      -0.400   1.196   7.901  1.00  0.00     0.001 A 
ATOM     13  C   UNL     1      -0.440  -0.209   7.927  1.00  0.00     0.009 A 
ATOM     14  C   UNL     1       0.665  -0.894   8.441  1.00  0.00    -0.010 A 
ENDROOT
TORSDOF 0
ENDMDL
MODEL 4
REMARK VINA RESULT:    -5.920      0.661      4.738
REMARK INTER + INTRA:          -5.920
REMARK INTER:                  -5.920
REMARK INTRA:                   0.000
REMARK UNBOUND:                 0.000
REMARK SMILES C=C1c2ccccc2-c2ccccc21
REMARK SMILES IDX 1 1 2 2 3 3 4 4 5 5 6 6 7 7 8 8 9 9 10 10 11 11 12 12 13 13
REMARK SMILES IDX 14 14
REMARK H PARENT
REMARK Flexibility Score: inf
ROOT
ATOM      1  C   UNL     1       0.027  -3.382   8.251  1.00  0.00     0.018 C 
ATOM      2  C   UNL     1       0.843  -2.384   8.586  1.00  0.00    -0.017 C 
ATOM      3  C   UNL     1       0.594  -0.944   8.444  1.00  0.00    -0.010 A 
ATOM      4  C   UNL     1      -0.521  -0.269   7.938  1.00  0.00     0.009 A 
ATOM      5  C   UNL     1      -0.496   1.136   7.916  1.00  0.00     0.001 A 
ATOM      6  C   UNL     1       0.629   1.839   8.393  1.00  0.00     0.001 A 
ATOM      7  C   UNL     1       1.741   1.145   8.899  1.00  0.00     0.009 A 
ATOM      8  C   UNL     1       1.697  -0.250   8.912  1.00  0.00    -0.010 A 
ATOM      9  C   UNL     1       2.690  -1.215   9.371  1.00  0.00    -0.010 A 
ATOM     10  C   UNL     1       3.955  -1.008   9.922  1.00  0.00     0.009 A 
ATOM     11  C   UNL     1       4.714  -2.134  10.282  1.00  0.00     0.001 A 
ATOM     12  C   UNL     1       4.202  -3.433  10.086  1.00  0.00     0.001 A 
ATOM     13  C   UNL     1       2.925  -3.621   9.530  1.00  0.00     0.009 A 
ATOM     14  C   UNL     1       2.183  -2.489   9.178  1.00  0.00    -0.010 A 
ENDROOT
TORSDOF 0
ENDMDL
MODEL 5
REMARK VINA RESULT:    -5.783      0.954      2.887
REMARK INTER + INTRA:          -5.783
REMARK INTER:                  -5.783
REMARK INTRA:                   0.000
REMARK UNBOUND:                 0.000
REMARK SMILES C=C1c2ccccc2-c2ccccc21
REMARK SMILES IDX 1 1 2 2 3 3 4 4 5 5 6 6 7 7 8 8 9 9 10 10 11 11 12 12 13 13
REMARK SMILES IDX 14 14
REMARK H PARENT
REMARK Flexibility Score: inf
ROOT
ATOM      1  C   UNL     1      -0.529   0.311   7.679  1.00  0.00     0.018 C 
ATOM      2  C   UNL     1       0.548  -0.238   8.241  1.00  0.00    -0.017 C 
ATOM      3  C   UNL     1       0.812  -1.667   8.450  1.00  0.00    -0.010 A 
ATOM      4  C   UNL     1       0.034  -2.783   8.129  1.00  0.00     0.009 A 
ATOM      5  C   UNL     1       0.533  -4.058   8.447  1.00  0.00     0.001 A 
ATOM      6  C   UNL     1       1.789  -4.199   9.073  1.00  0.00     0.001 A 
ATOM      7  C   UNL     1       2.558  -3.066   9.389  1.00  0.00     0.009 A 
ATOM      8  C   UNL     1       2.045  -1.809   9.066  1.00  0.00    -0.010 A 
ATOM      9  C   UNL     1       2.614  -0.483   9.272  1.00  0.00    -0.010 A 
ATOM     10  C   UNL     1       3.827  -0.106   9.850  1.00  0.00     0.009 A 
ATOM     11  C   UNL     1       4.130   1.264   9.923  1.00  0.00     0.001 A 
ATOM     12  C   UNL     1       3.226   2.223   9.424  1.00  0.00     0.001 A 
ATOM     13  C   UNL     1       2.009   1.824   8.846  1.00  0.00     0.009 A 
ATOM     14  C   UNL     1       1.723   0.458   8.781  1.00  0.00    -0.010 A 
ENDROOT
TORSDOF 0
ENDMDL
MODEL 6
REMARK VINA RESULT:    -5.778      1.020      4.887
REMARK INTER + INTRA:          -5.778
REMARK INTER:                  -5.778
REMARK INTRA:                   0.000
REMARK UNBOUND:                 0.000
REMARK SMILES C=C1c2ccccc2-c2ccccc21
REMARK SMILES IDX 1 1 2 2 3 3 4 4 5 5 6 6 7 7 8 8 9 9 10 10 11 11 12 12 13 13
REMARK SMILES IDX 14 14
REMARK H PARENT
REMARK Flexibility Score: inf
ROOT
ATOM      1  C   UNL     1      -0.653   0.357   7.705  1.00  0.00     0.018 C 
ATOM      2  C   UNL     1       0.451  -0.161   8.241  1.00  0.00    -0.017 C 
ATOM      3  C   UNL     1       1.629   0.566   8.732  1.00  0.00    -0.010 A 
ATOM      4  C   UNL     1       1.891   1.939   8.764  1.00  0.00     0.009 A 
ATOM      5  C   UNL     1       3.118   2.371   9.295  1.00  0.00     0.001 A 
ATOM      6  C   UNL     1       4.056   1.437   9.781  1.00  0.00     0.001 A 
ATOM      7  C   UNL     1       3.776   0.061   9.742  1.00  0.00     0.009 A 
ATOM      8  C   UNL     1       2.552  -0.348   9.210  1.00  0.00    -0.010 A 
ATOM      9  C   UNL     1       2.004  -1.689   9.045  1.00  0.00    -0.010 A 
ATOM     10  C   UNL     1       2.551  -2.930   9.372  1.00  0.00     0.009 A 
ATOM     11  C   UNL     1       1.795  -4.082   9.101  1.00  0.00     0.001 A 
ATOM     12  C   UNL     1       0.518  -3.976   8.512  1.00  0.00     0.001 A 
ATOM     13  C   UNL     1      -0.016  -2.717   8.189  1.00  0.00     0.009 A 
ATOM     14  C   UNL     1       0.750  -1.581   8.467  1.00  0.00    -0.010 A 
ENDROOT
TORSDOF 0
ENDMDL
MODEL 7
REMARK VINA RESULT:    -5.569      1.188      4.312
REMARK INTER + INTRA:          -5.569
REMARK INTER:                  -5.569
REMARK INTRA:                   0.000
REMARK UNBOUND:                 0.000
REMARK SMILES C=C1c2ccccc2-c2ccccc21
REMARK SMILES IDX 1 1 2 2 3 3 4 4 5 5 6 6 7 7 8 8 9 9 10 10 11 11 12 12 13 13
REMARK SMILES IDX 14 14
REMARK H PARENT
REMARK Flexibility Score: inf
ROOT
ATOM      1  C   UNL     1       4.029   1.584   9.699  1.00  0.00     0.018 C 
ATOM      2  C   UNL     1       3.139   0.645   9.381  1.00  0.00    -0.017 C 
ATOM      3  C   UNL     1       1.797   0.843   8.818  1.00  0.00    -0.010 A 
ATOM      4  C   UNL     1       1.127   2.023   8.484  1.00  0.00     0.009 A 
ATOM      5  C   UNL     1      -0.172   1.925   7.956  1.00  0.00     0.001 A 
ATOM      6  C   UNL     1      -0.775   0.664   7.770  1.00  0.00     0.001 A 
ATOM      7  C   UNL     1      -0.087  -0.512   8.111  1.00  0.00     0.009 A 
ATOM      8  C   UNL     1       1.202  -0.393   8.635  1.00  0.00    -0.010 A 
ATOM      9  C   UNL     1       2.135  -1.426   9.070  1.00  0.00    -0.010 A 
ATOM     10  C   UNL     1       1.997  -2.814   9.083  1.00  0.00     0.009 A 
ATOM     11  C   UNL     1       3.070  -3.584   9.562  1.00  0.00     0.001 A 
ATOM     12  C   UNL     1       4.249  -2.960  10.016  1.00  0.00     0.001 A 
ATOM     13  C   UNL     1       4.370  -1.560   9.996  1.00  0.00     0.009 A 
ATOM     14  C   UNL     1       3.293  -0.810   9.515  1.00  0.00    -0.010 A 
ENDROOT
TORSDOF 0
ENDMDL
MODEL 8
REMARK VINA RESULT:    -5.267      1.301      3.859
REMARK INTER + INTRA:          -5.267
REMARK INTER:                  -5.267
REMARK INTRA:                   0.000
REMARK UNBOUND:                 0.000
REMARK SMILES C=C1c2ccccc2-c2ccccc21
REMARK SMILES IDX 1 1 2 2 3 3 4 4 5 5 6 6 7 7 8 8 9 9 10 10 11 11 12 12 13 13
REMARK SMILES IDX 14 14
REMARK H PARENT
REMARK Flexibility Score: inf
ROOT
ATOM      1  C   UNL     1       2.330  -2.863   9.431  1.00  0.00     0.018 C 
ATOM      2  C   UNL     1       2.334  -1.542   9.258  1.00  0.00    -0.017 C 
ATOM      3  C   UNL     1       3.452  -0.617   9.487  1.00  0.00    -0.010 A 
ATOM      4  C   UNL     1       4.753  -0.870   9.929  1.00  0.00     0.009 A 
ATOM      5  C   UNL     1       5.634   0.216  10.063  1.00  0.00     0.001 A 
ATOM      6  C   UNL     1       5.208   1.525   9.757  1.00  0.00     0.001 A 
ATOM      7  C   UNL     1       3.896   1.762   9.313  1.00  0.00     0.009 A 
ATOM      8  C   UNL     1       3.037   0.670   9.187  1.00  0.00    -0.010 A 
ATOM      9  C   UNL     1       1.644   0.618   8.757  1.00  0.00    -0.010 A 
ATOM     10  C   UNL     1       0.790   1.645   8.354  1.00  0.00     0.009 A 
ATOM     11  C   UNL     1      -0.524   1.310   7.985  1.00  0.00     0.001 A 
ATOM     12  C   UNL     1      -0.957  -0.030   8.026  1.00  0.00     0.001 A 
ATOM     13  C   UNL     1      -0.082  -1.051   8.435  1.00  0.00     0.009 A 
ATOM     14  C   UNL     1       1.221  -0.701   8.797  1.00  0.00    -0.010 A 
ENDROOT
TORSDOF 0
ENDMDL
MODEL 9
REMARK VINA RESULT:    -5.108      2.396      4.681
REMARK INTER + INTRA:          -5.108
REMARK INTER:                  -5.108
REMARK INTRA:                   0.000
REMARK UNBOUND:                 0.000
REMARK SMILES C=C1c2ccccc2-c2ccccc21
REMARK SMILES IDX 1 1 2 2 3 3 4 4 5 5 6 6 7 7 8 8 9 9 10 10 11 11 12 12 13 13
REMARK SMILES IDX 14 14
REMARK H PARENT
REMARK Flexibility Score: inf
ROOT
ATOM      1  C   UNL     1      -0.205   1.304   7.981  1.00  0.00     0.018 C 
ATOM      2  C   UNL     1      -0.623   0.124   8.434  1.00  0.00    -0.017 C 
ATOM      3  C   UNL     1      -2.009  -0.302   8.664  1.00  0.00    -0.010 A 
ATOM      4  C   UNL     1      -3.207   0.392   8.476  1.00  0.00     0.009 A 
ATOM      5  C   UNL     1      -4.412  -0.263   8.780  1.00  0.00     0.001 A 
ATOM      6  C   UNL     1      -4.405  -1.587   9.263  1.00  0.00     0.001 A 
ATOM      7  C   UNL     1      -3.191  -2.272   9.446  1.00  0.00     0.009 A 
ATOM      8  C   UNL     1      -2.005  -1.603   9.138  1.00  0.00    -0.010 A 
ATOM      9  C   UNL     1      -0.622  -2.058   9.229  1.00  0.00    -0.010 A 
ATOM     10  C   UNL     1      -0.106  -3.285   9.649  1.00  0.00     0.009 A 
ATOM     11  C   UNL     1       1.288  -3.458   9.637  1.00  0.00     0.001 A 
ATOM     12  C   UNL     1       2.133  -2.413   9.211  1.00  0.00     0.001 A 
ATOM     13  C   UNL     1       1.595  -1.185   8.791  1.00  0.00     0.009 A 
ATOM     14  C   UNL     1       0.206  -1.030   8.809  1.00  0.00    -0.010 A 
ENDROOT
TORSDOF 0
ENDMDL
