MODEL 1
REMARK VINA RESULT:     4.806      0.000      0.000
REMARK INTER + INTRA:           5.364
REMARK INTER:                   5.649
REMARK INTRA:                  -0.286
REMARK UNBOUND:                -0.286
REMARK SMILES O=c1cc(-c2ccc(O)c(O)c2)oc2cc(O)cc(O)c12
REMARK SMILES IDX 4 1 3 2 2 3 1 4 21 5 19 6 18 7 16 8 15 9 14 10 13 11 5 12
REMARK SMILES IDX 6 13 7 14 8 15 12 16 10 17 9 18 11 20 20 22 17 24
REMARK H PARENT 9 19 11 21 20 23 17 25
REMARK Flexibility Score: inf
ROOT
ATOM      1  C   UNL     1      11.188  14.002  20.022  1.00  0.00     0.138 A 
ATOM      2  C   UNL     1      11.549  15.356  19.959  1.00  0.00     0.100 A 
ATOM      3  C   UNL     1      12.608  15.824  20.737  1.00  0.00     0.197 A 
ATOM      4  O   UNL     1      12.869  17.053  20.707  1.00  0.00    -0.289 OA
ATOM      5  C   UNL     1      13.329  14.924  21.559  1.00  0.00     0.107 A 
ATOM      6  C   UNL     1      14.452  15.280  22.364  1.00  0.00     0.134 A 
ATOM      7  C   UNL     1      15.013  14.329  23.225  1.00  0.00     0.093 A 
ATOM      8  C   UNL     1      14.532  13.022  23.267  1.00  0.00     0.123 A 
ATOM      9  C   UNL     1      13.468  12.647  22.443  1.00  0.00     0.094 A 
ATOM     10  C   UNL     1      12.865  13.581  21.600  1.00  0.00     0.146 A 
ATOM     11  O   UNL     1      11.845  13.190  20.842  1.00  0.00    -0.456 OA
ENDROOT
BRANCH   1  12
ATOM     12  C   UNL     1      10.070  13.451  19.214  1.00  0.00     0.021 A 
ATOM     13  C   UNL     1       9.293  12.368  19.667  1.00  0.00     0.016 A 
ATOM     14  C   UNL     1       8.241  11.877  18.890  1.00  0.00     0.051 A 
ATOM     15  C   UNL     1       7.942  12.462  17.654  1.00  0.00     0.157 A 
ATOM     16  C   UNL     1       9.754  14.042  17.977  1.00  0.00     0.062 A 
ATOM     17  C   UNL     1       8.699  13.547  17.197  1.00  0.00     0.158 A 
BRANCH  15  18
ATOM     18  O   UNL     1       6.895  11.973  16.876  1.00  0.00    -0.504 OA
ATOM     19  H   UNL     1       6.922  12.016  15.864  1.00  0.00     0.293 HD
ENDBRANCH  15  18
BRANCH  17  20
ATOM     20  O   UNL     1       8.397  14.130  15.968  1.00  0.00    -0.504 OA
ATOM     21  H   UNL     1       9.057  14.733  15.490  1.00  0.00     0.293 HD
ENDBRANCH  17  20
ENDBRANCH   1  12
BRANCH   6  22
ATOM     22  O   UNL     1      15.066  16.536  22.337  1.00  0.00    -0.507 OA
ATOM     23  H   UNL     1      16.036  16.700  22.118  1.00  0.00     0.293 HD
ENDBRANCH   6  22
BRANCH   8  24
ATOM     24  O   UNL     1      15.124  12.097  24.125  1.00  0.00    -0.508 OA
ATOM     25  H   UNL     1      16.120  12.109  24.311  1.00  0.00     0.293 HD
ENDBRANCH   8  24
TORSDOF 5
ENDMDL
MODEL 2
REMARK VINA RESULT:     5.345      1.205      2.703
REMARK INTER + INTRA:           5.996
REMARK INTER:                   6.311
REMARK INTRA:                  -0.314
REMARK UNBOUND:                -0.286
REMARK SMILES O=c1cc(-c2ccc(O)c(O)c2)oc2cc(O)cc(O)c12
REMARK SMILES IDX 4 1 3 2 2 3 1 4 21 5 19 6 18 7 16 8 15 9 14 10 13 11 5 12
REMARK SMILES IDX 6 13 7 14 8 15 12 16 10 17 9 18 11 20 20 22 17 24
REMARK H PARENT 9 19 11 21 20 23 17 25
REMARK Flexibility Score: inf
ROOT
ATOM      1  C   UNL     1      11.542  13.720  20.460  1.00  0.00     0.138 A 
ATOM      2  C   UNL     1      12.035  12.840  21.433  1.00  0.00     0.100 A 
ATOM      3  C   UNL     1      13.065  13.254  22.280  1.00  0.00     0.197 A 
ATOM      4  O   UNL     1      13.529  12.422  23.101  1.00  0.00    -0.289 OA
ATOM      5  C   UNL     1      13.581  14.567  22.169  1.00  0.00     0.107 A 
ATOM      6  C   UNL     1      14.602  15.112  23.005  1.00  0.00     0.134 A 
ATOM      7  C   UNL     1      15.114  16.385  22.727  1.00  0.00     0.093 A 
ATOM      8  C   UNL     1      14.602  17.157  21.685  1.00  0.00     0.123 A 
ATOM      9  C   UNL     1      13.565  16.656  20.895  1.00  0.00     0.094 A 
ATOM     10  C   UNL     1      13.057  15.376  21.125  1.00  0.00     0.146 A 
ATOM     11  O   UNL     1      12.081  14.928  20.342  1.00  0.00    -0.456 OA
ENDROOT
BRANCH   1  12
ATOM     12  C   UNL     1      10.447  13.332  19.535  1.00  0.00     0.021 A 
ATOM     13  C   UNL     1       9.603  12.237  19.806  1.00  0.00     0.016 A 
ATOM     14  C   UNL     1       8.574  11.901  18.922  1.00  0.00     0.051 A 
ATOM     15  C   UNL     1       8.365  12.653  17.760  1.00  0.00     0.157 A 
ATOM     16  C   UNL     1      10.222  14.090  18.372  1.00  0.00     0.062 A 
ATOM     17  C   UNL     1       9.190  13.750  17.485  1.00  0.00     0.158 A 
BRANCH  15  18
ATOM     18  O   UNL     1       7.341  12.319  16.877  1.00  0.00    -0.504 OA
ATOM     19  H   UNL     1       7.057  11.357  16.734  1.00  0.00     0.293 HD
ENDBRANCH  15  18
BRANCH  17  20
ATOM     20  O   UNL     1       8.978  14.500  16.329  1.00  0.00    -0.504 OA
ATOM     21  H   UNL     1       8.510  15.398  16.358  1.00  0.00     0.293 HD
ENDBRANCH  17  20
ENDBRANCH   1  12
BRANCH   6  22
ATOM     22  O   UNL     1      15.125  14.460  24.125  1.00  0.00    -0.507 OA
ATOM     23  H   UNL     1      15.935  13.859  24.117  1.00  0.00     0.293 HD
ENDBRANCH   6  22
BRANCH   8  24
ATOM     24  O   UNL     1      15.125  18.426  21.447  1.00  0.00    -0.508 OA
ATOM     25  H   UNL     1      15.339  19.062  22.206  1.00  0.00     0.293 HD
ENDBRANCH   8  24
TORSDOF 5
ENDMDL
MODEL 3
REMARK VINA RESULT:     6.799      1.320      3.003
REMARK INTER + INTRA:           7.706
REMARK INTER:                   7.980
REMARK INTRA:                  -0.274
REMARK UNBOUND:                -0.286
REMARK SMILES O=c1cc(-c2ccc(O)c(O)c2)oc2cc(O)cc(O)c12
REMARK SMILES IDX 4 1 3 2 2 3 1 4 21 5 19 6 18 7 16 8 15 9 14 10 13 11 5 12
REMARK SMILES IDX 6 13 7 14 8 15 12 16 10 17 9 18 11 20 20 22 17 24
REMARK H PARENT 9 19 11 21 20 23 17 25
REMARK Flexibility Score: inf
ROOT
ATOM      1  C   UNL     1      11.651  13.995  20.291  1.00  0.00     0.138 A 
ATOM      2  C   UNL     1      12.236  12.884  20.916  1.00  0.00     0.100 A 
ATOM      3  C   UNL     1      13.212  13.077  21.894  1.00  0.00     0.197 A 
ATOM      4  O   UNL     1      13.763  12.062  22.391  1.00  0.00    -0.289 OA
ATOM      5  C   UNL     1      13.582  14.390  22.269  1.00  0.00     0.107 A 
ATOM      6  C   UNL     1      14.536  14.708  23.282  1.00  0.00     0.134 A 
ATOM      7  C   UNL     1      14.907  16.043  23.486  1.00  0.00     0.093 A 
ATOM      8  C   UNL     1      14.316  17.075  22.759  1.00  0.00     0.123 A 
ATOM      9  C   UNL     1      13.341  16.780  21.803  1.00  0.00     0.094 A 
ATOM     10  C   UNL     1      12.976  15.457  21.552  1.00  0.00     0.146 A 
ATOM     11  O   UNL     1      12.056  15.216  20.623  1.00  0.00    -0.456 OA
ENDROOT
BRANCH   1  12
ATOM     12  C   UNL     1      10.607  13.846  19.246  1.00  0.00     0.021 A 
ATOM     13  C   UNL     1      10.672  14.552  18.028  1.00  0.00     0.016 A 
ATOM     14  C   UNL     1       9.680  14.385  17.060  1.00  0.00     0.051 A 
ATOM     15  C   UNL     1       8.612  13.508  17.284  1.00  0.00     0.157 A 
ATOM     16  C   UNL     1       9.538  12.957  19.458  1.00  0.00     0.062 A 
ATOM     17  C   UNL     1       8.541  12.791  18.485  1.00  0.00     0.158 A 
BRANCH  15  18
ATOM     18  O   UNL     1       7.620  13.340  16.320  1.00  0.00    -0.504 OA
ATOM     19  H   UNL     1       7.065  12.494  16.272  1.00  0.00     0.293 HD
ENDBRANCH  15  18
BRANCH  17  20
ATOM     20  O   UNL     1       7.480  11.916  18.704  1.00  0.00    -0.504 OA
ATOM     21  H   UNL     1       6.654  12.201  19.219  1.00  0.00     0.293 HD
ENDBRANCH  17  20
ENDBRANCH   1  12
BRANCH   6  22
ATOM     22  O   UNL     1      15.125  13.761  24.125  1.00  0.00    -0.507 OA
ATOM     23  H   UNL     1      16.078  13.438  24.053  1.00  0.00     0.293 HD
ENDBRANCH   6  22
BRANCH   8  24
ATOM     24  O   UNL     1      14.698  18.393  22.999  1.00  0.00    -0.508 OA
ATOM     25  H   UNL     1      14.579  19.115  22.299  1.00  0.00     0.293 HD
ENDBRANCH   8  24
TORSDOF 5
ENDMDL
