MODEL 1
REMARK VINA RESULT:    -4.386      0.000      0.000
REMARK INTER + INTRA:          -6.586
REMARK INTER:                  -6.694
REMARK INTRA:                   0.107
REMARK UNBOUND:                 0.107
REMARK SMILES CC1=CCC[C@@H](C)C(=O)C[C@@H](C(C)C)C(=O)C1
REMARK SMILES IDX 8 1 9 2 6 3 7 4 5 5 4 6 3 7 2 8 1 9 10 11 11 12 15 13 16 14
REMARK SMILES IDX 17 15 12 17 13 18 14 19
REMARK H PARENT
REMARK Flexibility Score: 70.00
ROOT
ATOM      1  C   UNL     1      17.069  -9.607  63.225  1.00  0.00     0.136 C 
ATOM      2  O   UNL     1      18.167  -9.996  62.855  1.00  0.00    -0.299 OA
ENDROOT
BRANCH   1   3
ATOM      3  C   UNL     1      16.095  -9.020  62.226  1.00  0.00     0.053 C 
ATOM      4  C   UNL     1      15.287  -7.905  62.897  1.00  0.00     0.016 C 
BRANCH   3   5
ATOM      5  C   UNL     1      15.147 -10.082  61.624  1.00  0.00     0.015 C 
BRANCH   5   6
ATOM      6  C   UNL     1      13.753 -10.105  62.280  1.00  0.00     0.028 C 
BRANCH   6   7
ATOM      7  C   UNL     1      13.281 -11.520  62.529  1.00  0.00    -0.028 C 
ATOM      8  C   UNL     1      13.580 -12.288  63.603  1.00  0.00    -0.070 CG0
ATOM      9  C   UNL     1      13.022 -13.688  63.647  1.00  0.00     0.039 C 
ATOM     10  G   UNL     1      14.388 -11.798  64.785  1.00  0.00     0.000 G0
ENDBRANCH   6   7
ENDBRANCH   5   6
ENDBRANCH   3   5
ENDBRANCH   1   3
BRANCH   1  11
ATOM     11  C   UNL     1      16.678  -9.753  64.677  1.00  0.00     0.087 C 
BRANCH  11  12
ATOM     12  C   UNL     1      16.916 -11.186  65.213  1.00  0.00     0.066 C 
BRANCH  12  13
ATOM     13  C   UNL     1      15.851 -12.118  64.664  1.00  0.00     0.140 C 
ATOM     14  O   UNL     1      16.186 -13.135  64.073  1.00  0.00    -0.299 OA
BRANCH  13  15
ATOM     15  C   UNL     1      14.386 -11.811  64.813  1.00  0.00     0.106 CG0
ATOM     16  G   UNL     1      13.621 -12.300  63.602  1.00  0.00     0.000 G0
ENDBRANCH  13  15
ENDBRANCH  12  13
BRANCH  12  17
ATOM     17  C   UNL     1      16.929 -11.241  66.774  1.00  0.00    -0.006 C 
ATOM     18  C   UNL     1      17.366  -9.905  67.402  1.00  0.00     0.008 C 
ATOM     19  C   UNL     1      17.861 -12.358  67.282  1.00  0.00     0.008 C 
ENDBRANCH  12  17
ENDBRANCH  11  12
ENDBRANCH   1  11
TORSDOF 1
ENDMDL
MODEL 2
REMARK VINA RESULT:    -4.384     12.910     15.207
REMARK INTER + INTRA:          -6.583
REMARK INTER:                  -6.078
REMARK INTRA:                  -0.504
REMARK UNBOUND:                 0.107
REMARK SMILES CC1=CCC[C@@H](C)C(=O)C[C@@H](C(C)C)C(=O)C1
REMARK SMILES IDX 8 1 9 2 6 3 7 4 5 5 4 6 3 7 2 8 1 9 10 11 11 12 15 13 16 14
REMARK SMILES IDX 17 15 12 17 13 18 14 19
REMARK H PARENT
REMARK Flexibility Score: 70.00
ROOT
ATOM      1  C   UNL     1       7.587   1.948  64.893  1.00  0.00     0.136 C 
ATOM      2  O   UNL     1       7.742   1.872  66.104  1.00  0.00    -0.299 OA
ENDROOT
BRANCH   1   3
ATOM      3  C   UNL     1       6.210   1.767  64.292  1.00  0.00     0.053 C 
ATOM      4  C   UNL     1       5.171   2.462  65.180  1.00  0.00     0.016 C 
BRANCH   3   5
ATOM      5  C   UNL     1       5.837   0.281  64.093  1.00  0.00     0.015 C 
BRANCH   5   6
ATOM      6  C   UNL     1       5.985  -0.201  62.638  1.00  0.00     0.028 C 
BRANCH   6   7
ATOM      7  C   UNL     1       7.270  -0.974  62.438  1.00  0.00    -0.028 C 
ATOM      8  C   UNL     1       8.298  -0.626  61.628  1.00  0.00    -0.070 CG0
ATOM      9  C   UNL     1       9.485  -1.552  61.557  1.00  0.00     0.039 C 
ATOM     10  G   UNL     1       8.345   0.667  60.842  1.00  0.00     0.000 G0
ENDBRANCH   6   7
ENDBRANCH   5   6
ENDBRANCH   3   5
ENDBRANCH   1   3
BRANCH   1  11
ATOM     11  C   UNL     1       8.770   2.264  64.010  1.00  0.00     0.087 C 
BRANCH  11  12
ATOM     12  C   UNL     1       8.350   2.638  62.567  1.00  0.00     0.066 C 
BRANCH  12  13
ATOM     13  C   UNL     1       9.078   1.748  61.578  1.00  0.00     0.140 C 
ATOM     14  O   UNL     1      10.271   1.922  61.374  1.00  0.00    -0.299 OA
BRANCH  13  15
ATOM     15  C   UNL     1       8.361   0.662  60.823  1.00  0.00     0.106 CG0
ATOM     16  G   UNL     1       8.310  -0.606  61.648  1.00  0.00     0.000 G0
ENDBRANCH  13  15
ENDBRANCH  12  13
BRANCH  12  17
ATOM     17  C   UNL     1       8.619   4.142  62.242  1.00  0.00    -0.006 C 
ATOM     18  C   UNL     1       9.579   4.796  63.252  1.00  0.00     0.008 C 
ATOM     19  C   UNL     1       7.306   4.947  62.211  1.00  0.00     0.008 C 
ENDBRANCH  12  17
ENDBRANCH  11  12
ENDBRANCH   1  11
TORSDOF 1
ENDMDL
MODEL 3
REMARK VINA RESULT:    -4.309      2.020      2.959
REMARK INTER + INTRA:          -6.468
REMARK INTER:                  -6.268
REMARK INTRA:                  -0.200
REMARK UNBOUND:                 0.107
REMARK SMILES CC1=CCC[C@@H](C)C(=O)C[C@@H](C(C)C)C(=O)C1
REMARK SMILES IDX 8 1 9 2 6 3 7 4 5 5 4 6 3 7 2 8 1 9 10 11 11 12 15 13 16 14
REMARK SMILES IDX 17 15 12 17 13 18 14 19
REMARK H PARENT
REMARK Flexibility Score: 70.00
ROOT
ATOM      1  C   UNL     1      19.261 -10.014  65.784  1.00  0.00     0.136 C 
ATOM      2  O   UNL     1      20.220  -9.588  66.412  1.00  0.00    -0.299 OA
ENDROOT
BRANCH   1   3
ATOM      3  C   UNL     1      19.371 -10.238  64.291  1.00  0.00     0.053 C 
ATOM      4  C   UNL     1      20.695  -9.656  63.785  1.00  0.00     0.016 C 
BRANCH   3   5
ATOM      5  C   UNL     1      18.185  -9.631  63.508  1.00  0.00     0.015 C 
BRANCH   5   6
ATOM      6  C   UNL     1      17.300 -10.686  62.816  1.00  0.00     0.028 C 
BRANCH   6   7
ATOM      7  C   UNL     1      15.832 -10.437  63.080  1.00  0.00    -0.028 C 
ATOM      8  C   UNL     1      15.027 -11.166  63.889  1.00  0.00    -0.070 CG0
ATOM      9  C   UNL     1      13.580 -10.760  63.997  1.00  0.00     0.039 C 
ATOM     10  G   UNL     1      15.515 -12.324  64.734  1.00  0.00     0.000 G0
ENDBRANCH   6   7
ENDBRANCH   5   6
ENDBRANCH   3   5
ENDBRANCH   1   3
BRANCH   1  11
ATOM     11  C   UNL     1      17.983 -10.350  66.515  1.00  0.00     0.087 C 
BRANCH  11  12
ATOM     12  C   UNL     1      17.550 -11.822  66.303  1.00  0.00     0.066 C 
BRANCH  12  13
ATOM     13  C   UNL     1      16.055 -11.881  66.049  1.00  0.00     0.140 C 
ATOM     14  O   UNL     1      15.279 -11.559  66.937  1.00  0.00    -0.299 OA
BRANCH  13  15
ATOM     15  C   UNL     1      15.500 -12.346  64.730  1.00  0.00     0.106 CG0
ATOM     16  G   UNL     1      15.018 -11.164  63.917  1.00  0.00     0.000 G0
ENDBRANCH  13  15
ENDBRANCH  12  13
BRANCH  12  17
ATOM     17  C   UNL     1      17.928 -12.732  67.515  1.00  0.00    -0.006 C 
ATOM     18  C   UNL     1      18.557 -11.934  68.671  1.00  0.00     0.008 C 
ATOM     19  C   UNL     1      18.905 -13.845  67.089  1.00  0.00     0.008 C 
ENDBRANCH  12  17
ENDBRANCH  11  12
ENDBRANCH   1  11
TORSDOF 1
ENDMDL
MODEL 4
REMARK VINA RESULT:    -4.271      2.149      4.542
REMARK INTER + INTRA:          -6.411
REMARK INTER:                  -6.019
REMARK INTRA:                  -0.392
REMARK UNBOUND:                 0.107
REMARK SMILES CC1=CCC[C@@H](C)C(=O)C[C@@H](C(C)C)C(=O)C1
REMARK SMILES IDX 8 1 9 2 6 3 7 4 5 5 4 6 3 7 2 8 1 9 10 11 11 12 15 13 16 14
REMARK SMILES IDX 17 15 12 17 13 18 14 19
REMARK H PARENT
REMARK Flexibility Score: 70.00
ROOT
ATOM      1  C   UNL     1      13.500 -11.360  63.178  1.00  0.00     0.136 C 
ATOM      2  O   UNL     1      12.692 -11.934  63.894  1.00  0.00    -0.299 OA
ENDROOT
BRANCH   1   3
ATOM      3  C   UNL     1      13.957 -12.000  61.885  1.00  0.00     0.053 C 
ATOM      4  C   UNL     1      12.754 -12.179  60.952  1.00  0.00     0.016 C 
BRANCH   3   5
ATOM      5  C   UNL     1      14.667 -13.354  62.110  1.00  0.00     0.015 C 
BRANCH   5   6
ATOM      6  C   UNL     1      16.204 -13.256  62.071  1.00  0.00     0.028 C 
BRANCH   6   7
ATOM      7  C   UNL     1      16.797 -13.289  63.463  1.00  0.00    -0.028 C 
ATOM      8  C   UNL     1      17.446 -12.275  64.082  1.00  0.00    -0.070 CG0
ATOM      9  C   UNL     1      17.981 -12.523  65.470  1.00  0.00     0.039 C 
ATOM     10  G   UNL     1      17.609 -10.894  63.484  1.00  0.00     0.000 G0
ENDBRANCH   6   7
ENDBRANCH   5   6
ENDBRANCH   3   5
ENDBRANCH   1   3
BRANCH   1  11
ATOM     11  C   UNL     1      14.004  -9.992  63.573  1.00  0.00     0.087 C 
BRANCH  11  12
ATOM     12  C   UNL     1      15.364  -9.649  62.915  1.00  0.00     0.066 C 
BRANCH  12  13
ATOM     13  C   UNL     1      16.491  -9.967  63.880  1.00  0.00     0.140 C 
ATOM     14  O   UNL     1      16.488  -9.466  64.996  1.00  0.00    -0.299 OA
BRANCH  13  15
ATOM     15  C   UNL     1      17.628 -10.871  63.490  1.00  0.00     0.106 CG0
ATOM     16  G   UNL     1      17.442 -12.243  64.102  1.00  0.00     0.000 G0
ENDBRANCH  13  15
ENDBRANCH  12  13
BRANCH  12  17
ATOM     17  C   UNL     1      15.444  -8.157  62.462  1.00  0.00    -0.006 C 
ATOM     18  C   UNL     1      14.101  -7.423  62.627  1.00  0.00     0.008 C 
ATOM     19  C   UNL     1      15.893  -8.046  60.993  1.00  0.00     0.008 C 
ENDBRANCH  12  17
ENDBRANCH  11  12
ENDBRANCH   1  11
TORSDOF 1
ENDMDL
MODEL 5
REMARK VINA RESULT:    -4.214      2.884      4.109
REMARK INTER + INTRA:          -6.324
REMARK INTER:                  -6.003
REMARK INTRA:                  -0.320
REMARK UNBOUND:                 0.107
REMARK SMILES CC1=CCC[C@@H](C)C(=O)C[C@@H](C(C)C)C(=O)C1
REMARK SMILES IDX 8 1 9 2 6 3 7 4 5 5 4 6 3 7 2 8 1 9 10 11 11 12 15 13 16 14
REMARK SMILES IDX 17 15 12 17 13 18 14 19
REMARK H PARENT
REMARK Flexibility Score: 70.00
ROOT
ATOM      1  C   UNL     1      19.773 -10.033  65.905  1.00  0.00     0.136 C 
ATOM      2  O   UNL     1      19.949  -8.875  66.257  1.00  0.00    -0.299 OA
ENDROOT
BRANCH   1   3
ATOM      3  C   UNL     1      19.760 -10.384  64.433  1.00  0.00     0.053 C 
ATOM      4  C   UNL     1      21.096  -9.982  63.802  1.00  0.00     0.016 C 
BRANCH   3   5
ATOM      5  C   UNL     1      18.587  -9.725  63.673  1.00  0.00     0.015 C 
BRANCH   5   6
ATOM      6  C   UNL     1      17.374 -10.656  63.487  1.00  0.00     0.028 C 
BRANCH   6   7
ATOM      7  C   UNL     1      16.553 -10.757  64.754  1.00  0.00    -0.028 C 
ATOM      8  C   UNL     1      16.483 -11.826  65.581  1.00  0.00    -0.070 CG0
ATOM      9  C   UNL     1      15.583 -11.728  66.786  1.00  0.00     0.039 C 
ATOM     10  G   UNL     1      17.304 -13.084  65.396  1.00  0.00     0.000 G0
ENDBRANCH   6   7
ENDBRANCH   5   6
ENDBRANCH   3   5
ENDBRANCH   1   3
BRANCH   1  11
ATOM     11  C   UNL     1      19.608 -11.111  66.950  1.00  0.00     0.087 C 
BRANCH  11  12
ATOM     12  C   UNL     1      19.693 -12.536  66.349  1.00  0.00     0.066 C 
BRANCH  12  13
ATOM     13  C   UNL     1      18.346 -13.223  66.476  1.00  0.00     0.140 C 
ATOM     14  O   UNL     1      18.106 -13.904  67.464  1.00  0.00    -0.299 OA
BRANCH  13  15
ATOM     15  C   UNL     1      17.298 -13.101  65.403  1.00  0.00     0.106 CG0
ATOM     16  G   UNL     1      16.505 -11.825  65.586  1.00  0.00     0.000 G0
ENDBRANCH  13  15
ENDBRANCH  12  13
BRANCH  12  17
ATOM     17  C   UNL     1      20.805 -13.399  67.024  1.00  0.00    -0.006 C 
ATOM     18  C   UNL     1      21.295 -12.789  68.350  1.00  0.00     0.008 C 
ATOM     19  C   UNL     1      22.012 -13.581  66.084  1.00  0.00     0.008 C 
ENDBRANCH  12  17
ENDBRANCH  11  12
ENDBRANCH   1  11
TORSDOF 1
ENDMDL
MODEL 6
REMARK VINA RESULT:    -4.024     14.573     16.574
REMARK INTER + INTRA:          -6.034
REMARK INTER:                  -6.087
REMARK INTRA:                   0.053
REMARK UNBOUND:                 0.107
REMARK SMILES CC1=CCC[C@@H](C)C(=O)C[C@@H](C(C)C)C(=O)C1
REMARK SMILES IDX 8 1 9 2 6 3 7 4 5 5 4 6 3 7 2 8 1 9 10 11 11 12 15 13 16 14
REMARK SMILES IDX 17 15 12 17 13 18 14 19
REMARK H PARENT
REMARK Flexibility Score: 70.00
ROOT
ATOM      1  C   UNL     1       6.062   1.565  61.117  1.00  0.00     0.136 C 
ATOM      2  O   UNL     1       5.282   1.046  60.331  1.00  0.00    -0.299 OA
ENDROOT
BRANCH   1   3
ATOM      3  C   UNL     1       6.651   0.752  62.249  1.00  0.00     0.053 C 
ATOM      4  C   UNL     1       6.523  -0.740  61.925  1.00  0.00     0.016 C 
BRANCH   3   5
ATOM      5  C   UNL     1       5.993   1.063  63.613  1.00  0.00     0.015 C 
BRANCH   5   6
ATOM      6  C   UNL     1       6.899   1.869  64.563  1.00  0.00     0.028 C 
BRANCH   6   7
ATOM      7  C   UNL     1       8.353   1.777  64.154  1.00  0.00    -0.028 C 
ATOM      8  C   UNL     1       9.048   2.703  63.454  1.00  0.00    -0.070 CG0
ATOM      9  C   UNL     1      10.490   2.406  63.129  1.00  0.00     0.039 C 
ATOM     10  G   UNL     1       8.477   4.041  63.034  1.00  0.00     0.000 G0
ENDBRANCH   6   7
ENDBRANCH   5   6
ENDBRANCH   3   5
ENDBRANCH   1   3
BRANCH   1  11
ATOM     11  C   UNL     1       6.462   3.008  60.925  1.00  0.00     0.087 C 
BRANCH  11  12
ATOM     12  C   UNL     1       7.969   3.169  60.607  1.00  0.00     0.066 C 
BRANCH  12  13
ATOM     13  C   UNL     1       8.579   4.199  61.540  1.00  0.00     0.140 C 
ATOM     14  O   UNL     1       9.160   5.167  61.071  1.00  0.00    -0.299 OA
BRANCH  13  15
ATOM     15  C   UNL     1       8.502   4.048  63.035  1.00  0.00     0.106 CG0
ATOM     16  G   UNL     1       9.050   2.700  63.455  1.00  0.00     0.000 G0
ENDBRANCH  13  15
ENDBRANCH  12  13
BRANCH  12  17
ATOM     17  C   UNL     1       8.223   3.569  59.120  1.00  0.00    -0.006 C 
ATOM     18  C   UNL     1       6.931   3.555  58.282  1.00  0.00     0.008 C 
ATOM     19  C   UNL     1       9.253   2.632  58.461  1.00  0.00     0.008 C 
ENDBRANCH  12  17
ENDBRANCH  11  12
ENDBRANCH   1  11
TORSDOF 1
ENDMDL
MODEL 7
REMARK VINA RESULT:    -3.968      2.440      4.872
REMARK INTER + INTRA:          -5.948
REMARK INTER:                  -5.513
REMARK INTRA:                  -0.435
REMARK UNBOUND:                 0.107
REMARK SMILES CC1=CCC[C@@H](C)C(=O)C[C@@H](C(C)C)C(=O)C1
REMARK SMILES IDX 8 1 9 2 6 3 7 4 5 5 4 6 3 7 2 8 1 9 10 11 11 12 15 13 16 14
REMARK SMILES IDX 17 15 12 17 13 18 14 19
REMARK H PARENT
REMARK Flexibility Score: 70.00
ROOT
ATOM      1  C   UNL     1      15.235 -11.307  64.282  1.00  0.00     0.136 C 
ATOM      2  O   UNL     1      15.605 -11.287  65.447  1.00  0.00    -0.299 OA
ENDROOT
BRANCH   1   3
ATOM      3  C   UNL     1      16.253 -11.380  63.164  1.00  0.00     0.053 C 
ATOM      4  C   UNL     1      17.246 -12.510  63.453  1.00  0.00     0.016 C 
BRANCH   3   5
ATOM      5  C   UNL     1      17.004 -10.046  62.954  1.00  0.00     0.015 C 
BRANCH   5   6
ATOM      6  C   UNL     1      16.124  -8.802  63.181  1.00  0.00     0.028 C 
BRANCH   6   7
ATOM      7  C   UNL     1      15.561  -8.276  61.879  1.00  0.00    -0.028 C 
ATOM      8  C   UNL     1      14.257  -8.265  61.515  1.00  0.00    -0.070 CG0
ATOM      9  C   UNL     1      13.908  -7.712  60.157  1.00  0.00     0.039 C 
ATOM     10  G   UNL     1      13.130  -8.718  62.419  1.00  0.00     0.000 G0
ENDBRANCH   6   7
ENDBRANCH   5   6
ENDBRANCH   3   5
ENDBRANCH   1   3
BRANCH   1  11
ATOM     11  C   UNL     1      13.758 -11.300  63.971  1.00  0.00     0.087 C 
BRANCH  11  12
ATOM     12  C   UNL     1      13.472 -11.327  62.448  1.00  0.00     0.066 C 
BRANCH  12  13
ATOM     13  C   UNL     1      12.664 -10.103  62.060  1.00  0.00     0.140 C 
ATOM     14  O   UNL     1      11.628 -10.240  61.425  1.00  0.00    -0.299 OA
BRANCH  13  15
ATOM     15  C   UNL     1      13.117  -8.715  62.424  1.00  0.00     0.106 CG0
ATOM     16  G   UNL     1      14.262  -8.285  61.532  1.00  0.00     0.000 G0
ENDBRANCH  13  15
ENDBRANCH  12  13
BRANCH  12  17
ATOM     17  C   UNL     1      12.730 -12.627  62.006  1.00  0.00    -0.006 C 
ATOM     18  C   UNL     1      12.136 -13.396  63.201  1.00  0.00     0.008 C 
ATOM     19  C   UNL     1      13.671 -13.567  61.229  1.00  0.00     0.008 C 
ENDBRANCH  12  17
ENDBRANCH  11  12
ENDBRANCH   1  11
TORSDOF 1
ENDMDL
MODEL 8
REMARK VINA RESULT:    -3.893      8.483     11.126
REMARK INTER + INTRA:          -5.834
REMARK INTER:                  -5.501
REMARK INTRA:                  -0.332
REMARK UNBOUND:                 0.107
REMARK SMILES CC1=CCC[C@@H](C)C(=O)C[C@@H](C(C)C)C(=O)C1
REMARK SMILES IDX 8 1 9 2 6 3 7 4 5 5 4 6 3 7 2 8 1 9 10 11 11 12 15 13 16 14
REMARK SMILES IDX 17 15 12 17 13 18 14 19
REMARK H PARENT
REMARK Flexibility Score: 70.00
ROOT
ATOM      1  C   UNL     1       7.658  -7.067  57.488  1.00  0.00     0.136 C 
ATOM      2  O   UNL     1       6.708  -6.329  57.711  1.00  0.00    -0.299 OA
ENDROOT
BRANCH   1   3
ATOM      3  C   UNL     1       8.094  -8.076  58.528  1.00  0.00     0.053 C 
ATOM      4  C   UNL     1       6.858  -8.696  59.187  1.00  0.00     0.016 C 
BRANCH   3   5
ATOM      5  C   UNL     1       9.023  -7.463  59.600  1.00  0.00     0.015 C 
BRANCH   5   6
ATOM      6  C   UNL     1      10.480  -7.293  59.128  1.00  0.00     0.028 C 
BRANCH   6   7
ATOM      7  C   UNL     1      11.063  -8.604  58.648  1.00  0.00    -0.028 C 
ATOM      8  C   UNL     1      11.372  -8.923  57.369  1.00  0.00    -0.070 CG0
ATOM      9  C   UNL     1      11.926 -10.299  57.100  1.00  0.00     0.039 C 
ATOM     10  G   UNL     1      11.250  -7.957  56.211  1.00  0.00     0.000 G0
ENDBRANCH   6   7
ENDBRANCH   5   6
ENDBRANCH   3   5
ENDBRANCH   1   3
BRANCH   1  11
ATOM     11  C   UNL     1       8.362  -6.990  56.155  1.00  0.00     0.087 C 
BRANCH  11  12
ATOM     12  C   UNL     1       8.718  -8.388  55.591  1.00  0.00     0.066 C 
BRANCH  12  13
ATOM     13  C   UNL     1      10.191  -8.433  55.232  1.00  0.00     0.140 C 
ATOM     14  O   UNL     1      10.534  -8.873  54.144  1.00  0.00    -0.299 OA
BRANCH  13  15
ATOM     15  C   UNL     1      11.248  -7.966  56.196  1.00  0.00     0.106 CG0
ATOM     16  G   UNL     1      11.354  -8.922  57.365  1.00  0.00     0.000 G0
ENDBRANCH  13  15
ENDBRANCH  12  13
BRANCH  12  17
ATOM     17  C   UNL     1       7.848  -8.766  54.350  1.00  0.00    -0.006 C 
ATOM     18  C   UNL     1       6.771  -7.709  54.047  1.00  0.00     0.008 C 
ATOM     19  C   UNL     1       7.162 -10.131  54.548  1.00  0.00     0.008 C 
ENDBRANCH  12  17
ENDBRANCH  11  12
ENDBRANCH   1  11
TORSDOF 1
ENDMDL
MODEL 9
REMARK VINA RESULT:    -3.745      1.644      3.705
REMARK INTER + INTRA:          -5.608
REMARK INTER:                  -5.607
REMARK INTRA:                  -0.001
REMARK UNBOUND:                 0.107
REMARK SMILES CC1=CCC[C@@H](C)C(=O)C[C@@H](C(C)C)C(=O)C1
REMARK SMILES IDX 8 1 9 2 6 3 7 4 5 5 4 6 3 7 2 8 1 9 10 11 11 12 15 13 16 14
REMARK SMILES IDX 17 15 12 17 13 18 14 19
REMARK H PARENT
REMARK Flexibility Score: 70.00
ROOT
ATOM      1  C   UNL     1      14.382 -12.385  64.779  1.00  0.00     0.136 C 
ATOM      2  O   UNL     1      13.974 -12.109  65.898  1.00  0.00    -0.299 OA
ENDROOT
BRANCH   1   3
ATOM      3  C   UNL     1      13.487 -13.121  63.805  1.00  0.00     0.053 C 
ATOM      4  C   UNL     1      14.327 -13.637  62.631  1.00  0.00     0.016 C 
BRANCH   3   5
ATOM      5  C   UNL     1      12.323 -12.246  63.288  1.00  0.00     0.015 C 
BRANCH   5   6
ATOM      6  C   UNL     1      12.582 -11.635  61.898  1.00  0.00     0.028 C 
BRANCH   6   7
ATOM      7  C   UNL     1      12.742 -10.133  61.974  1.00  0.00    -0.028 C 
ATOM      8  C   UNL     1      13.902  -9.457  62.141  1.00  0.00    -0.070 CG0
ATOM      9  C   UNL     1      13.839  -7.952  62.212  1.00  0.00     0.039 C 
ATOM     10  G   UNL     1      15.260 -10.123  62.199  1.00  0.00     0.000 G0
ENDBRANCH   6   7
ENDBRANCH   5   6
ENDBRANCH   3   5
ENDBRANCH   1   3
BRANCH   1  11
ATOM     11  C   UNL     1      15.768 -11.952  64.364  1.00  0.00     0.087 C 
BRANCH  11  12
ATOM     12  C   UNL     1      16.046 -10.464  64.691  1.00  0.00     0.066 C 
BRANCH  12  13
ATOM     13  C   UNL     1      16.028  -9.650  63.410  1.00  0.00     0.140 C 
ATOM     14  O   UNL     1      16.626  -8.584  63.364  1.00  0.00    -0.299 OA
BRANCH  13  15
ATOM     15  C   UNL     1      15.272 -10.114  62.195  1.00  0.00     0.106 CG0
ATOM     16  G   UNL     1      13.906  -9.463  62.145  1.00  0.00     0.000 G0
ENDBRANCH  13  15
ENDBRANCH  12  13
BRANCH  12  17
ATOM     17  C   UNL     1      17.402 -10.264  65.439  1.00  0.00    -0.006 C 
ATOM     18  C   UNL     1      18.318 -11.496  65.328  1.00  0.00     0.008 C 
ATOM     19  C   UNL     1      17.172  -9.947  66.929  1.00  0.00     0.008 C 
ENDBRANCH  12  17
ENDBRANCH  11  12
ENDBRANCH   1  11
TORSDOF 1
ENDMDL
