MODEL 1
REMARK VINA RESULT:    -7.246      0.000      0.000
REMARK INTER + INTRA:          -7.246
REMARK INTER:                  -7.246
REMARK INTRA:                   0.000
REMARK UNBOUND:                 0.000
REMARK SMILES C=C1CCC[C@@]2(C)CC(=O)C(=C(C)C)C[C@@H]12
REMARK SMILES IDX 13 1 12 2 11 3 15 4 16 5 2 6 1 7 3 8 4 9 5 10 6 11 8 12 9 13
REMARK SMILES IDX 10 14 7 15 14 16
REMARK H PARENT
REMARK Flexibility Score: inf
ROOT
ATOM      1  C   UNL     1       2.589  22.346   1.603  1.00  0.00     0.039 C 
ATOM      2  C   UNL     1       3.781  21.647   2.213  1.00  0.00    -0.070 C 
ATOM      3  C   UNL     1       3.990  21.639   3.560  1.00  0.00    -0.006 C 
ATOM      4  C   UNL     1       5.162  20.913   4.190  1.00  0.00     0.047 C 
ATOM      5  C   UNL     1       4.834  20.305   5.580  1.00  0.00     0.025 C 
ATOM      6  C   UNL     1       6.126  19.821   6.216  1.00  0.00    -0.073 C 
ATOM      7  C   UNL     1       6.478  18.528   6.149  1.00  0.00     0.008 C 
ATOM      8  C   UNL     1       7.085  20.846   6.786  1.00  0.00     0.031 C 
ATOM      9  C   UNL     1       6.357  21.877   7.660  1.00  0.00     0.005 C 
ATOM     10  C   UNL     1       5.077  22.420   6.998  1.00  0.00     0.008 C 
ATOM     11  C   UNL     1       4.103  21.291   6.547  1.00  0.00    -0.018 C 
ATOM     12  C   UNL     1       2.861  21.906   5.850  1.00  0.00     0.088 C 
ATOM     13  C   UNL     1       3.171  22.448   4.492  1.00  0.00     0.159 C 
ATOM     14  O   UNL     1       2.734  23.584   4.164  1.00  0.00    -0.295 OA
ATOM     15  C   UNL     1       3.584  20.517   7.787  1.00  0.00     0.012 C 
ATOM     16  C   UNL     1       4.713  20.921   1.270  1.00  0.00     0.039 C 
ENDROOT
TORSDOF 0
ENDMDL
MODEL 2
REMARK VINA RESULT:    -6.258      2.386      3.275
REMARK INTER + INTRA:          -6.258
REMARK INTER:                  -6.258
REMARK INTRA:                   0.000
REMARK UNBOUND:                 0.000
REMARK SMILES C=C1CCC[C@@]2(C)CC(=O)C(=C(C)C)C[C@@H]12
REMARK SMILES IDX 13 1 12 2 11 3 15 4 16 5 2 6 1 7 3 8 4 9 5 10 6 11 8 12 9 13
REMARK SMILES IDX 10 14 7 15 14 16
REMARK H PARENT
REMARK Flexibility Score: inf
ROOT
ATOM      1  C   UNL     1       0.875  24.616   6.533  1.00  0.00     0.039 C 
ATOM      2  C   UNL     1       2.278  24.291   6.074  1.00  0.00    -0.070 C 
ATOM      3  C   UNL     1       2.888  23.123   6.422  1.00  0.00    -0.006 C 
ATOM      4  C   UNL     1       4.281  22.767   5.942  1.00  0.00     0.047 C 
ATOM      5  C   UNL     1       4.477  21.248   5.694  1.00  0.00     0.025 C 
ATOM      6  C   UNL     1       5.954  20.980   5.454  1.00  0.00    -0.073 C 
ATOM      7  C   UNL     1       6.434  20.866   4.207  1.00  0.00     0.008 C 
ATOM      8  C   UNL     1       6.898  21.004   6.638  1.00  0.00     0.031 C 
ATOM      9  C   UNL     1       6.345  20.196   7.820  1.00  0.00     0.005 C 
ATOM     10  C   UNL     1       4.864  20.505   8.110  1.00  0.00     0.008 C 
ATOM     11  C   UNL     1       3.955  20.343   6.856  1.00  0.00    -0.018 C 
ATOM     12  C   UNL     1       2.490  20.712   7.208  1.00  0.00     0.088 C 
ATOM     13  C   UNL     1       2.296  22.181   7.400  1.00  0.00     0.159 C 
ATOM     14  O   UNL     1       1.635  22.595   8.390  1.00  0.00    -0.295 OA
ATOM     15  C   UNL     1       3.947  18.860   6.399  1.00  0.00     0.012 C 
ATOM     16  C   UNL     1       2.963  25.299   5.180  1.00  0.00     0.039 C 
ENDROOT
TORSDOF 0
ENDMDL
MODEL 3
REMARK VINA RESULT:    -6.117      1.677      3.088
REMARK INTER + INTRA:          -6.117
REMARK INTER:                  -6.117
REMARK INTRA:                   0.000
REMARK UNBOUND:                 0.000
REMARK SMILES C=C1CCC[C@@]2(C)CC(=O)C(=C(C)C)C[C@@H]12
REMARK SMILES IDX 13 1 12 2 11 3 15 4 16 5 2 6 1 7 3 8 4 9 5 10 6 11 8 12 9 13
REMARK SMILES IDX 10 14 7 15 14 16
REMARK H PARENT
REMARK Flexibility Score: inf
ROOT
ATOM      1  C   UNL     1       3.635  22.170   1.078  1.00  0.00     0.039 C 
ATOM      2  C   UNL     1       3.139  21.746   2.440  1.00  0.00    -0.070 C 
ATOM      3  C   UNL     1       3.986  21.235   3.379  1.00  0.00    -0.006 C 
ATOM      4  C   UNL     1       3.511  20.836   4.762  1.00  0.00     0.047 C 
ATOM      5  C   UNL     1       4.569  21.084   5.870  1.00  0.00     0.025 C 
ATOM      6  C   UNL     1       4.087  20.434   7.157  1.00  0.00    -0.073 C 
ATOM      7  C   UNL     1       3.473  21.162   8.101  1.00  0.00     0.008 C 
ATOM      8  C   UNL     1       4.168  18.927   7.285  1.00  0.00     0.031 C 
ATOM      9  C   UNL     1       5.538  18.395   6.842  1.00  0.00     0.005 C 
ATOM     10  C   UNL     1       6.009  19.002   5.507  1.00  0.00     0.008 C 
ATOM     11  C   UNL     1       5.997  20.560   5.512  1.00  0.00    -0.018 C 
ATOM     12  C   UNL     1       6.438  21.101   4.127  1.00  0.00     0.088 C 
ATOM     13  C   UNL     1       5.397  20.903   3.073  1.00  0.00     0.159 C 
ATOM     14  O   UNL     1       5.736  20.455   1.944  1.00  0.00    -0.295 OA
ATOM     15  C   UNL     1       7.022  21.090   6.549  1.00  0.00     0.012 C 
ATOM     16  C   UNL     1       1.671  21.949   2.736  1.00  0.00     0.039 C 
ENDROOT
TORSDOF 0
ENDMDL
MODEL 4
REMARK VINA RESULT:    -6.110      2.748      4.980
REMARK INTER + INTRA:          -6.110
REMARK INTER:                  -6.110
REMARK INTRA:                   0.000
REMARK UNBOUND:                 0.000
REMARK SMILES C=C1CCC[C@@]2(C)CC(=O)C(=C(C)C)C[C@@H]12
REMARK SMILES IDX 13 1 12 2 11 3 15 4 16 5 2 6 1 7 3 8 4 9 5 10 6 11 8 12 9 13
REMARK SMILES IDX 10 14 7 15 14 16
REMARK H PARENT
REMARK Flexibility Score: inf
ROOT
ATOM      1  C   UNL     1       6.145  19.004   7.597  1.00  0.00     0.039 C 
ATOM      2  C   UNL     1       5.976  20.386   7.011  1.00  0.00    -0.070 C 
ATOM      3  C   UNL     1       4.749  20.974   6.915  1.00  0.00    -0.006 C 
ATOM      4  C   UNL     1       4.566  22.373   6.361  1.00  0.00     0.047 C 
ATOM      5  C   UNL     1       3.415  23.159   7.044  1.00  0.00     0.025 C 
ATOM      6  C   UNL     1       3.166  24.437   6.258  1.00  0.00    -0.073 C 
ATOM      7  C   UNL     1       3.698  25.600   6.660  1.00  0.00     0.008 C 
ATOM      8  C   UNL     1       2.442  24.344   4.931  1.00  0.00     0.031 C 
ATOM      9  C   UNL     1       1.185  23.468   5.032  1.00  0.00     0.005 C 
ATOM     10  C   UNL     1       1.442  22.143   5.774  1.00  0.00     0.008 C 
ATOM     11  C   UNL     1       2.086  22.350   7.177  1.00  0.00    -0.018 C 
ATOM     12  C   UNL     1       2.357  20.977   7.846  1.00  0.00     0.088 C 
ATOM     13  C   UNL     1       3.496  20.243   7.216  1.00  0.00     0.159 C 
ATOM     14  O   UNL     1       3.372  19.018   6.949  1.00  0.00    -0.295 OA
ATOM     15  C   UNL     1       1.101  23.113   8.101  1.00  0.00     0.012 C 
ATOM     16  C   UNL     1       7.228  21.108   6.569  1.00  0.00     0.039 C 
ENDROOT
TORSDOF 0
ENDMDL
MODEL 5
REMARK VINA RESULT:    -5.755      1.700      5.230
REMARK INTER + INTRA:          -5.755
REMARK INTER:                  -5.755
REMARK INTRA:                   0.000
REMARK UNBOUND:                 0.000
REMARK SMILES C=C1CCC[C@@]2(C)CC(=O)C(=C(C)C)C[C@@H]12
REMARK SMILES IDX 13 1 12 2 11 3 15 4 16 5 2 6 1 7 3 8 4 9 5 10 6 11 8 12 9 13
REMARK SMILES IDX 10 14 7 15 14 16
REMARK H PARENT
REMARK Flexibility Score: inf
ROOT
ATOM      1  C   UNL     1       4.953  21.389   6.905  1.00  0.00     0.039 C 
ATOM      2  C   UNL     1       5.370  21.270   5.458  1.00  0.00    -0.070 C 
ATOM      3  C   UNL     1       4.449  21.220   4.453  1.00  0.00    -0.006 C 
ATOM      4  C   UNL     1       4.852  21.135   2.994  1.00  0.00     0.047 C 
ATOM      5  C   UNL     1       3.883  21.887   2.044  1.00  0.00     0.025 C 
ATOM      6  C   UNL     1       4.240  21.538   0.609  1.00  0.00    -0.073 C 
ATOM      7  C   UNL     1       5.003  22.361  -0.125  1.00  0.00     0.008 C 
ATOM      8  C   UNL     1       3.854  20.173   0.075  1.00  0.00     0.031 C 
ATOM      9  C   UNL     1       2.398  19.824   0.414  1.00  0.00     0.005 C 
ATOM     10  C   UNL     1       2.043  20.119   1.884  1.00  0.00     0.008 C 
ATOM     11  C   UNL     1       2.373  21.581   2.306  1.00  0.00    -0.018 C 
ATOM     12  C   UNL     1       2.033  21.793   3.804  1.00  0.00     0.088 C 
ATOM     13  C   UNL     1       2.997  21.106   4.717  1.00  0.00     0.159 C 
ATOM     14  O   UNL     1       2.557  20.439   5.693  1.00  0.00    -0.295 OA
ATOM     15  C   UNL     1       1.493  22.573   1.501  1.00  0.00     0.012 C 
ATOM     16  C   UNL     1       6.853  21.249   5.166  1.00  0.00     0.039 C 
ENDROOT
TORSDOF 0
ENDMDL
MODEL 6
REMARK VINA RESULT:    -5.674      1.538      3.296
REMARK INTER + INTRA:          -5.674
REMARK INTER:                  -5.674
REMARK INTRA:                   0.000
REMARK UNBOUND:                 0.000
REMARK SMILES C=C1CCC[C@@]2(C)CC(=O)C(=C(C)C)C[C@@H]12
REMARK SMILES IDX 13 1 12 2 11 3 15 4 16 5 2 6 1 7 3 8 4 9 5 10 6 11 8 12 9 13
REMARK SMILES IDX 10 14 7 15 14 16
REMARK H PARENT
REMARK Flexibility Score: inf
ROOT
ATOM      1  C   UNL     1       1.029  22.703   3.353  1.00  0.00     0.039 C 
ATOM      2  C   UNL     1       1.807  22.421   4.616  1.00  0.00    -0.070 C 
ATOM      3  C   UNL     1       3.026  21.809   4.581  1.00  0.00    -0.006 C 
ATOM      4  C   UNL     1       3.835  21.549   5.836  1.00  0.00     0.047 C 
ATOM      5  C   UNL     1       5.367  21.657   5.613  1.00  0.00     0.025 C 
ATOM      6  C   UNL     1       6.076  21.147   6.857  1.00  0.00    -0.073 C 
ATOM      7  C   UNL     1       6.527  22.003   7.785  1.00  0.00     0.008 C 
ATOM      8  C   UNL     1       6.121  19.653   7.108  1.00  0.00     0.031 C 
ATOM      9  C   UNL     1       6.531  18.880   5.846  1.00  0.00     0.005 C 
ATOM     10  C   UNL     1       5.774  19.349   4.589  1.00  0.00     0.008 C 
ATOM     11  C   UNL     1       5.880  20.885   4.355  1.00  0.00    -0.018 C 
ATOM     12  C   UNL     1       5.059  21.291   3.103  1.00  0.00     0.088 C 
ATOM     13  C   UNL     1       3.584  21.232   3.337  1.00  0.00     0.159 C 
ATOM     14  O   UNL     1       2.842  20.691   2.473  1.00  0.00    -0.295 OA
ATOM     15  C   UNL     1       7.355  21.274   4.071  1.00  0.00     0.012 C 
ATOM     16  C   UNL     1       1.197  22.880   5.921  1.00  0.00     0.039 C 
ENDROOT
TORSDOF 0
ENDMDL
MODEL 7
REMARK VINA RESULT:    -5.599      2.025      3.742
REMARK INTER + INTRA:          -5.599
REMARK INTER:                  -5.599
REMARK INTRA:                   0.000
REMARK UNBOUND:                 0.000
REMARK SMILES C=C1CCC[C@@]2(C)CC(=O)C(=C(C)C)C[C@@H]12
REMARK SMILES IDX 13 1 12 2 11 3 15 4 16 5 2 6 1 7 3 8 4 9 5 10 6 11 8 12 9 13
REMARK SMILES IDX 10 14 7 15 14 16
REMARK H PARENT
REMARK Flexibility Score: inf
ROOT
ATOM      1  C   UNL     1       2.261  26.424   4.687  1.00  0.00     0.039 C 
ATOM      2  C   UNL     1       2.933  25.607   5.765  1.00  0.00    -0.070 C 
ATOM      3  C   UNL     1       3.204  24.282   5.589  1.00  0.00    -0.006 C 
ATOM      4  C   UNL     1       3.908  23.456   6.646  1.00  0.00     0.047 C 
ATOM      5  C   UNL     1       4.831  22.358   6.055  1.00  0.00     0.025 C 
ATOM      6  C   UNL     1       5.289  21.448   7.183  1.00  0.00    -0.073 C 
ATOM      7  C   UNL     1       6.489  21.622   7.757  1.00  0.00     0.008 C 
ATOM      8  C   UNL     1       4.306  20.446   7.754  1.00  0.00     0.031 C 
ATOM      9  C   UNL     1       3.575  19.676   6.646  1.00  0.00     0.005 C 
ATOM     10  C   UNL     1       3.053  20.597   5.527  1.00  0.00     0.008 C 
ATOM     11  C   UNL     1       4.164  21.509   4.926  1.00  0.00    -0.018 C 
ATOM     12  C   UNL     1       3.561  22.438   3.840  1.00  0.00     0.088 C 
ATOM     13  C   UNL     1       2.711  23.523   4.417  1.00  0.00     0.159 C 
ATOM     14  O   UNL     1       1.588  23.772   3.899  1.00  0.00    -0.295 OA
ATOM     15  C   UNL     1       5.239  20.637   4.225  1.00  0.00     0.012 C 
ATOM     16  C   UNL     1       3.329  26.328   7.033  1.00  0.00     0.039 C 
ENDROOT
TORSDOF 0
ENDMDL
MODEL 8
REMARK VINA RESULT:    -5.176      1.957      4.788
REMARK INTER + INTRA:          -5.176
REMARK INTER:                  -5.176
REMARK INTRA:                   0.000
REMARK UNBOUND:                 0.000
REMARK SMILES C=C1CCC[C@@]2(C)CC(=O)C(=C(C)C)C[C@@H]12
REMARK SMILES IDX 13 1 12 2 11 3 15 4 16 5 2 6 1 7 3 8 4 9 5 10 6 11 8 12 9 13
REMARK SMILES IDX 10 14 7 15 14 16
REMARK H PARENT
REMARK Flexibility Score: inf
ROOT
ATOM      1  C   UNL     1       6.521  19.228   5.881  1.00  0.00     0.039 C 
ATOM      2  C   UNL     1       5.786  20.300   6.651  1.00  0.00    -0.070 C 
ATOM      3  C   UNL     1       4.833  21.076   6.060  1.00  0.00    -0.006 C 
ATOM      4  C   UNL     1       4.063  22.132   6.826  1.00  0.00     0.047 C 
ATOM      5  C   UNL     1       2.597  22.295   6.345  1.00  0.00     0.025 C 
ATOM      6  C   UNL     1       2.002  23.527   7.006  1.00  0.00    -0.073 C 
ATOM      7  C   UNL     1       1.236  23.412   8.101  1.00  0.00     0.008 C 
ATOM      8  C   UNL     1       2.418  24.895   6.505  1.00  0.00     0.031 C 
ATOM      9  C   UNL     1       2.368  24.975   4.973  1.00  0.00     0.005 C 
ATOM     10  C   UNL     1       3.022  23.759   4.291  1.00  0.00     0.008 C 
ATOM     11  C   UNL     1       2.448  22.401   4.793  1.00  0.00    -0.018 C 
ATOM     12  C   UNL     1       3.182  21.223   4.100  1.00  0.00     0.088 C 
ATOM     13  C   UNL     1       4.577  21.039   4.601  1.00  0.00     0.159 C 
ATOM     14  O   UNL     1       5.513  20.860   3.776  1.00  0.00    -0.295 OA
ATOM     15  C   UNL     1       0.950  22.288   4.404  1.00  0.00     0.012 C 
ATOM     16  C   UNL     1       6.123  20.452   8.117  1.00  0.00     0.039 C 
ENDROOT
TORSDOF 0
ENDMDL
