MODEL 1
REMARK VINA RESULT:    -3.543      0.000      0.000
REMARK INTER + INTRA:          -3.543
REMARK INTER:                  -3.543
REMARK INTRA:                   0.000
REMARK UNBOUND:                 0.000
REMARK SMILES C=C1CCC[C@]2(C)C=C3OC(=O)C(C)=C3C[C@@H]12
REMARK SMILES IDX 14 1 13 2 15 3 16 4 17 5 2 6 1 7 3 8 4 9 5 10 6 11 8 12 9 13
REMARK SMILES IDX 10 14 11 15 12 16 7 17
REMARK H PARENT
REMARK Flexibility Score: inf
ROOT
ATOM      1  C   UNL     1      32.680  37.625  25.974  1.00  0.00     0.053 C 
ATOM      2  C   UNL     1      31.710  38.359  26.843  1.00  0.00     0.041 C 
ATOM      3  C   UNL     1      30.413  38.098  26.979  1.00  0.00     0.005 C 
ATOM      4  C   UNL     1      29.602  36.990  26.379  1.00  0.00     0.049 C 
ATOM      5  C   UNL     1      28.094  37.374  26.420  1.00  0.00     0.029 C 
ATOM      6  C   UNL     1      27.135  36.263  25.990  1.00  0.00    -0.073 C 
ATOM      7  C   UNL     1      27.535  35.136  25.375  1.00  0.00     0.008 C 
ATOM      8  C   UNL     1      25.656  36.468  26.234  1.00  0.00     0.031 C 
ATOM      9  C   UNL     1      25.338  37.928  26.573  1.00  0.00     0.005 C 
ATOM     10  C   UNL     1      26.170  38.479  27.749  1.00  0.00     0.012 C 
ATOM     11  C   UNL     1      27.647  37.952  27.821  1.00  0.00    -0.004 C 
ATOM     12  C   UNL     1      28.565  39.095  28.241  1.00  0.00     0.027 C 
ATOM     13  C   UNL     1      29.843  39.093  27.870  1.00  0.00     0.131 C 
ATOM     14  O   UNL     1      30.813  40.007  28.253  1.00  0.00    -0.423 OA
ATOM     15  C   UNL     1      31.973  39.571  27.624  1.00  0.00     0.339 C 
ATOM     16  O   UNL     1      33.085  40.153  27.719  1.00  0.00    -0.246 OA
ATOM     17  C   UNL     1      27.748  36.865  28.921  1.00  0.00     0.016 C 
ENDROOT
TORSDOF 0
ENDMDL
MODEL 2
REMARK VINA RESULT:    -3.438      2.100      2.909
REMARK INTER + INTRA:          -3.438
REMARK INTER:                  -3.438
REMARK INTRA:                   0.000
REMARK UNBOUND:                 0.000
REMARK SMILES C=C1CCC[C@]2(C)C=C3OC(=O)C(C)=C3C[C@@H]12
REMARK SMILES IDX 14 1 13 2 15 3 16 4 17 5 2 6 1 7 3 8 4 9 5 10 6 11 8 12 9 13
REMARK SMILES IDX 10 14 11 15 12 16 7 17
REMARK H PARENT
REMARK Flexibility Score: inf
ROOT
ATOM      1  C   UNL     1      32.630  38.648  27.233  1.00  0.00     0.053 C 
ATOM      2  C   UNL     1      31.683  37.504  27.405  1.00  0.00     0.041 C 
ATOM      3  C   UNL     1      30.382  37.503  27.127  1.00  0.00     0.005 C 
ATOM      4  C   UNL     1      29.545  38.584  26.515  1.00  0.00     0.049 C 
ATOM      5  C   UNL     1      28.045  38.318  26.835  1.00  0.00     0.029 C 
ATOM      6  C   UNL     1      27.060  39.254  26.133  1.00  0.00    -0.073 C 
ATOM      7  C   UNL     1      27.433  40.380  25.498  1.00  0.00     0.008 C 
ATOM      8  C   UNL     1      25.588  38.912  26.194  1.00  0.00     0.031 C 
ATOM      9  C   UNL     1      25.301  37.845  27.255  1.00  0.00     0.005 C 
ATOM     10  C   UNL     1      26.155  36.571  27.089  1.00  0.00     0.012 C 
ATOM     11  C   UNL     1      27.622  36.817  26.588  1.00  0.00    -0.004 C 
ATOM     12  C   UNL     1      28.566  35.871  27.324  1.00  0.00     0.027 C 
ATOM     13  C   UNL     1      29.840  36.210  27.505  1.00  0.00     0.131 C 
ATOM     14  O   UNL     1      30.831  35.419  28.066  1.00  0.00    -0.423 OA
ATOM     15  C   UNL     1      31.976  36.204  28.017  1.00  0.00     0.339 C 
ATOM     16  O   UNL     1      33.100  35.835  28.447  1.00  0.00    -0.246 OA
ATOM     17  C   UNL     1      27.713  36.462  25.082  1.00  0.00     0.016 C 
ENDROOT
TORSDOF 0
ENDMDL
MODEL 3
REMARK VINA RESULT:    -2.923      2.198      2.955
REMARK INTER + INTRA:          -2.923
REMARK INTER:                  -2.923
REMARK INTRA:                   0.000
REMARK UNBOUND:                 0.000
REMARK SMILES C=C1CCC[C@]2(C)C=C3OC(=O)C(C)=C3C[C@@H]12
REMARK SMILES IDX 14 1 13 2 15 3 16 4 17 5 2 6 1 7 3 8 4 9 5 10 6 11 8 12 9 13
REMARK SMILES IDX 10 14 11 15 12 16 7 17
REMARK H PARENT
REMARK Flexibility Score: inf
ROOT
ATOM      1  C   UNL     1      32.596  36.851  27.281  1.00  0.00     0.053 C 
ATOM      2  C   UNL     1      31.588  37.248  26.250  1.00  0.00     0.041 C 
ATOM      3  C   UNL     1      30.301  37.511  26.460  1.00  0.00     0.005 C 
ATOM      4  C   UNL     1      29.543  37.554  27.752  1.00  0.00     0.049 C 
ATOM      5  C   UNL     1      28.020  37.416  27.461  1.00  0.00     0.029 C 
ATOM      6  C   UNL     1      27.112  37.609  28.676  1.00  0.00    -0.073 C 
ATOM      7  C   UNL     1      27.564  37.636  29.943  1.00  0.00     0.008 C 
ATOM      8  C   UNL     1      25.623  37.734  28.437  1.00  0.00     0.031 C 
ATOM      9  C   UNL     1      25.242  37.301  27.018  1.00  0.00     0.005 C 
ATOM     10  C   UNL     1      26.039  38.035  25.919  1.00  0.00     0.012 C 
ATOM     11  C   UNL     1      27.534  38.344  26.279  1.00  0.00    -0.004 C 
ATOM     12  C   UNL     1      28.400  38.126  25.043  1.00  0.00     0.027 C 
ATOM     13  C   UNL     1      29.681  37.790  25.178  1.00  0.00     0.131 C 
ATOM     14  O   UNL     1      30.609  37.654  24.156  1.00  0.00    -0.423 OA
ATOM     15  C   UNL     1      31.792  37.314  24.800  1.00  0.00     0.339 C 
ATOM     16  O   UNL     1      32.878  37.093  24.204  1.00  0.00    -0.246 OA
ATOM     17  C   UNL     1      27.668  39.839  26.665  1.00  0.00     0.016 C 
ENDROOT
TORSDOF 0
ENDMDL
MODEL 4
REMARK VINA RESULT:    -1.788      2.617      5.444
REMARK INTER + INTRA:          -1.788
REMARK INTER:                  -1.788
REMARK INTRA:                   0.000
REMARK UNBOUND:                 0.000
REMARK SMILES C=C1CCC[C@]2(C)C=C3OC(=O)C(C)=C3C[C@@H]12
REMARK SMILES IDX 14 1 13 2 15 3 16 4 17 5 2 6 1 7 3 8 4 9 5 10 6 11 8 12 9 13
REMARK SMILES IDX 10 14 11 15 12 16 7 17
REMARK H PARENT
REMARK Flexibility Score: inf
ROOT
ATOM      1  C   UNL     1      26.257  37.399  29.647  1.00  0.00     0.053 C 
ATOM      2  C   UNL     1      26.620  37.397  28.197  1.00  0.00     0.041 C 
ATOM      3  C   UNL     1      27.833  37.215  27.683  1.00  0.00     0.005 C 
ATOM      4  C   UNL     1      29.119  36.896  28.384  1.00  0.00     0.049 C 
ATOM      5  C   UNL     1      30.315  37.256  27.455  1.00  0.00     0.029 C 
ATOM      6  C   UNL     1      31.687  36.830  27.977  1.00  0.00    -0.073 C 
ATOM      7  C   UNL     1      31.904  36.416  29.238  1.00  0.00     0.008 C 
ATOM      8  C   UNL     1      32.866  36.920  27.033  1.00  0.00     0.031 C 
ATOM      9  C   UNL     1      32.532  37.757  25.794  1.00  0.00     0.005 C 
ATOM     10  C   UNL     1      31.269  37.275  25.051  1.00  0.00     0.012 C 
ATOM     11  C   UNL     1      30.122  36.736  25.976  1.00  0.00    -0.004 C 
ATOM     12  C   UNL     1      28.776  37.196  25.423  1.00  0.00     0.027 C 
ATOM     13  C   UNL     1      27.739  37.355  26.241  1.00  0.00     0.131 C 
ATOM     14  O   UNL     1      26.441  37.673  25.873  1.00  0.00    -0.423 OA
ATOM     15  C   UNL     1      25.735  37.708  27.070  1.00  0.00     0.339 C 
ATOM     16  O   UNL     1      24.509  37.976  27.154  1.00  0.00    -0.246 OA
ATOM     17  C   UNL     1      30.119  35.186  25.935  1.00  0.00     0.016 C 
ENDROOT
TORSDOF 0
ENDMDL
MODEL 5
REMARK VINA RESULT:    -1.607      2.596      5.380
REMARK INTER + INTRA:          -1.607
REMARK INTER:                  -1.607
REMARK INTRA:                   0.000
REMARK UNBOUND:                 0.000
REMARK SMILES C=C1CCC[C@]2(C)C=C3OC(=O)C(C)=C3C[C@@H]12
REMARK SMILES IDX 14 1 13 2 15 3 16 4 17 5 2 6 1 7 3 8 4 9 5 10 6 11 8 12 9 13
REMARK SMILES IDX 10 14 11 15 12 16 7 17
REMARK H PARENT
REMARK Flexibility Score: inf
ROOT
ATOM      1  C   UNL     1      26.332  40.276  25.805  1.00  0.00     0.053 C 
ATOM      2  C   UNL     1      26.697  39.027  26.543  1.00  0.00     0.041 C 
ATOM      3  C   UNL     1      27.917  38.656  26.918  1.00  0.00     0.005 C 
ATOM      4  C   UNL     1      29.215  39.392  26.777  1.00  0.00     0.049 C 
ATOM      5  C   UNL     1      30.396  38.385  26.903  1.00  0.00     0.029 C 
ATOM      6  C   UNL     1      31.785  39.022  26.943  1.00  0.00    -0.073 C 
ATOM      7  C   UNL     1      32.018  40.311  26.637  1.00  0.00     0.008 C 
ATOM      8  C   UNL     1      32.960  38.142  27.308  1.00  0.00     0.031 C 
ATOM      9  C   UNL     1      32.591  36.656  27.247  1.00  0.00     0.005 C 
ATOM     10  C   UNL     1      31.351  36.297  28.092  1.00  0.00     0.012 C 
ATOM     11  C   UNL     1      30.228  37.392  28.120  1.00  0.00    -0.004 C 
ATOM     12  C   UNL     1      28.865  36.710  28.065  1.00  0.00     0.027 C 
ATOM     13  C   UNL     1      27.820  37.351  27.546  1.00  0.00     0.131 C 
ATOM     14  O   UNL     1      26.509  36.900  27.516  1.00  0.00    -0.423 OA
ATOM     15  C   UNL     1      25.801  37.922  26.895  1.00  0.00     0.339 C 
ATOM     16  O   UNL     1      24.563  37.882  26.671  1.00  0.00    -0.246 OA
ATOM     17  C   UNL     1      30.295  38.158  29.466  1.00  0.00     0.016 C 
ENDROOT
TORSDOF 0
ENDMDL
MODEL 6
REMARK VINA RESULT:    -1.489      2.489      5.559
REMARK INTER + INTRA:          -1.489
REMARK INTER:                  -1.489
REMARK INTRA:                   0.000
REMARK UNBOUND:                 0.000
REMARK SMILES C=C1CCC[C@]2(C)C=C3OC(=O)C(C)=C3C[C@@H]12
REMARK SMILES IDX 14 1 13 2 15 3 16 4 17 5 2 6 1 7 3 8 4 9 5 10 6 11 8 12 9 13
REMARK SMILES IDX 10 14 11 15 12 16 7 17
REMARK H PARENT
REMARK Flexibility Score: inf
ROOT
ATOM      1  C   UNL     1      25.804  36.875  27.411  1.00  0.00     0.053 C 
ATOM      2  C   UNL     1      27.086  36.698  26.663  1.00  0.00     0.041 C 
ATOM      3  C   UNL     1      28.262  37.238  26.968  1.00  0.00     0.005 C 
ATOM      4  C   UNL     1      28.638  38.087  28.145  1.00  0.00     0.049 C 
ATOM      5  C   UNL     1      29.946  38.867  27.822  1.00  0.00     0.029 C 
ATOM      6  C   UNL     1      30.536  39.647  28.997  1.00  0.00    -0.073 C 
ATOM      7  C   UNL     1      29.872  39.875  30.144  1.00  0.00     0.008 C 
ATOM      8  C   UNL     1      31.925  40.227  28.838  1.00  0.00     0.031 C 
ATOM      9  C   UNL     1      32.375  40.216  27.374  1.00  0.00     0.005 C 
ATOM     10  C   UNL     1      32.282  38.824  26.714  1.00  0.00     0.012 C 
ATOM     11  C   UNL     1      31.060  37.954  27.174  1.00  0.00    -0.004 C 
ATOM     12  C   UNL     1      30.499  37.206  25.969  1.00  0.00     0.027 C 
ATOM     13  C   UNL     1      29.215  36.855  25.942  1.00  0.00     0.131 C 
ATOM     14  O   UNL     1      28.590  36.094  24.966  1.00  0.00    -0.423 OA
ATOM     15  C   UNL     1      27.272  35.990  25.393  1.00  0.00     0.339 C 
ATOM     16  O   UNL     1      26.375  35.374  24.760  1.00  0.00    -0.246 OA
ATOM     17  C   UNL     1      31.547  36.883  28.182  1.00  0.00     0.016 C 
ENDROOT
TORSDOF 0
ENDMDL
MODEL 7
REMARK VINA RESULT:    -1.343      2.902      4.788
REMARK INTER + INTRA:          -1.343
REMARK INTER:                  -1.343
REMARK INTRA:                   0.000
REMARK UNBOUND:                 0.000
REMARK SMILES C=C1CCC[C@]2(C)C=C3OC(=O)C(C)=C3C[C@@H]12
REMARK SMILES IDX 14 1 13 2 15 3 16 4 17 5 2 6 1 7 3 8 4 9 5 10 6 11 8 12 9 13
REMARK SMILES IDX 10 14 11 15 12 16 7 17
REMARK H PARENT
REMARK Flexibility Score: inf
ROOT
ATOM      1  C   UNL     1      31.557  34.927  24.731  1.00  0.00     0.053 C 
ATOM      2  C   UNL     1      30.402  35.045  25.673  1.00  0.00     0.041 C 
ATOM      3  C   UNL     1      30.142  36.066  26.485  1.00  0.00     0.005 C 
ATOM      4  C   UNL     1      30.867  37.370  26.626  1.00  0.00     0.049 C 
ATOM      5  C   UNL     1      30.511  38.012  27.999  1.00  0.00     0.029 C 
ATOM      6  C   UNL     1      31.050  39.427  28.208  1.00  0.00    -0.073 C 
ATOM      7  C   UNL     1      31.973  39.994  27.409  1.00  0.00     0.008 C 
ATOM      8  C   UNL     1      30.548  40.210  29.401  1.00  0.00     0.031 C 
ATOM      9  C   UNL     1      29.822  39.306  30.403  1.00  0.00     0.005 C 
ATOM     10  C   UNL     1      28.684  38.480  29.769  1.00  0.00     0.012 C 
ATOM     11  C   UNL     1      28.962  37.981  28.307  1.00  0.00    -0.004 C 
ATOM     12  C   UNL     1      28.418  36.565  28.151  1.00  0.00     0.027 C 
ATOM     13  C   UNL     1      28.963  35.736  27.264  1.00  0.00     0.131 C 
ATOM     14  O   UNL     1      28.518  34.462  26.946  1.00  0.00    -0.423 OA
ATOM     15  C   UNL     1      29.398  34.018  25.966  1.00  0.00     0.339 C 
ATOM     16  O   UNL     1      29.330  32.885  25.422  1.00  0.00    -0.246 OA
ATOM     17  C   UNL     1      28.185  38.875  27.307  1.00  0.00     0.016 C 
ENDROOT
TORSDOF 0
ENDMDL
MODEL 8
REMARK VINA RESULT:    -1.276      2.785      5.160
REMARK INTER + INTRA:          -1.276
REMARK INTER:                  -1.276
REMARK INTRA:                   0.000
REMARK UNBOUND:                 0.000
REMARK SMILES C=C1CCC[C@]2(C)C=C3OC(=O)C(C)=C3C[C@@H]12
REMARK SMILES IDX 14 1 13 2 15 3 16 4 17 5 2 6 1 7 3 8 4 9 5 10 6 11 8 12 9 13
REMARK SMILES IDX 10 14 11 15 12 16 7 17
REMARK H PARENT
REMARK Flexibility Score: inf
ROOT
ATOM      1  C   UNL     1      29.787  33.239  25.821  1.00  0.00     0.053 C 
ATOM      2  C   UNL     1      28.876  34.383  26.129  1.00  0.00     0.041 C 
ATOM      3  C   UNL     1      29.238  35.625  26.435  1.00  0.00     0.005 C 
ATOM      4  C   UNL     1      30.611  36.226  26.483  1.00  0.00     0.049 C 
ATOM      5  C   UNL     1      30.577  37.523  27.343  1.00  0.00     0.029 C 
ATOM      6  C   UNL     1      31.875  38.331  27.342  1.00  0.00    -0.073 C 
ATOM      7  C   UNL     1      33.041  37.858  26.867  1.00  0.00     0.008 C 
ATOM      8  C   UNL     1      31.849  39.717  27.946  1.00  0.00     0.031 C 
ATOM      9  C   UNL     1      30.581  39.948  28.774  1.00  0.00     0.005 C 
ATOM     10  C   UNL     1      29.280  39.664  27.993  1.00  0.00     0.012 C 
ATOM     11  C   UNL     1      29.362  38.466  26.983  1.00  0.00    -0.004 C 
ATOM     12  C   UNL     1      28.052  37.685  27.029  1.00  0.00     0.027 C 
ATOM     13  C   UNL     1      28.038  36.390  26.721  1.00  0.00     0.131 C 
ATOM     14  O   UNL     1      26.918  35.579  26.625  1.00  0.00    -0.423 OA
ATOM     15  C   UNL     1      27.417  34.333  26.265  1.00  0.00     0.339 C 
ATOM     16  O   UNL     1      26.700  33.313  26.089  1.00  0.00    -0.246 OA
ATOM     17  C   UNL     1      29.505  39.021  25.543  1.00  0.00     0.016 C 
ENDROOT
TORSDOF 0
ENDMDL
MODEL 9
REMARK VINA RESULT:    -1.211      2.177      4.955
REMARK INTER + INTRA:          -1.211
REMARK INTER:                  -1.211
REMARK INTRA:                   0.000
REMARK UNBOUND:                 0.000
REMARK SMILES C=C1CCC[C@]2(C)C=C3OC(=O)C(C)=C3C[C@@H]12
REMARK SMILES IDX 14 1 13 2 15 3 16 4 17 5 2 6 1 7 3 8 4 9 5 10 6 11 8 12 9 13
REMARK SMILES IDX 10 14 11 15 12 16 7 17
REMARK H PARENT
REMARK Flexibility Score: inf
ROOT
ATOM      1  C   UNL     1      25.596  37.990  27.560  1.00  0.00     0.053 C 
ATOM      2  C   UNL     1      26.900  37.930  28.290  1.00  0.00     0.041 C 
ATOM      3  C   UNL     1      28.114  37.992  27.751  1.00  0.00     0.005 C 
ATOM      4  C   UNL     1      28.503  38.207  26.319  1.00  0.00     0.049 C 
ATOM      5  C   UNL     1      29.967  37.722  26.105  1.00  0.00     0.029 C 
ATOM      6  C   UNL     1      30.553  38.034  24.728  1.00  0.00    -0.073 C 
ATOM      7  C   UNL     1      29.814  38.452  23.684  1.00  0.00     0.008 C 
ATOM      8  C   UNL     1      32.036  37.819  24.522  1.00  0.00     0.031 C 
ATOM      9  C   UNL     1      32.648  36.990  25.656  1.00  0.00     0.005 C 
ATOM     10  C   UNL     1      32.366  37.569  27.058  1.00  0.00     0.012 C 
ATOM     11  C   UNL     1      30.952  38.228  27.231  1.00  0.00    -0.004 C 
ATOM     12  C   UNL     1      30.404  37.880  28.611  1.00  0.00     0.027 C 
ATOM     13  C   UNL     1      29.090  37.832  28.813  1.00  0.00     0.131 C 
ATOM     14  O   UNL     1      28.450  37.625  30.026  1.00  0.00    -0.423 OA
ATOM     15  C   UNL     1      27.095  37.678  29.721  1.00  0.00     0.339 C 
ATOM     16  O   UNL     1      26.178  37.524  30.569  1.00  0.00    -0.246 OA
ATOM     17  C   UNL     1      31.098  39.771  27.180  1.00  0.00     0.016 C 
ENDROOT
TORSDOF 0
ENDMDL
