MODEL 1
REMARK VINA RESULT:    -5.962      0.000      0.000
REMARK INTER + INTRA:          -7.025
REMARK INTER:                  -6.834
REMARK INTRA:                  -0.191
REMARK UNBOUND:                -0.191
REMARK SMILES CC=Cc1ccc(O)c(OC)c1
REMARK SMILES IDX 4 1 12 2 9 3 7 4 6 5 5 6 3 7 1 8 2 9 10 10 11 11 8 12
REMARK H PARENT 8 13
REMARK Flexibility Score: inf
ROOT
ATOM      1  C   UNL     1       9.328   0.853  35.504  1.00  0.00    -0.022 A 
ATOM      2  C   UNL     1      10.409   1.558  36.068  1.00  0.00     0.058 A 
ATOM      3  C   UNL     1      11.711   1.419  35.544  1.00  0.00     0.161 A 
ATOM      4  C   UNL     1      11.925   0.558  34.453  1.00  0.00     0.157 A 
ATOM      5  C   UNL     1      10.856  -0.155  33.905  1.00  0.00     0.051 A 
ATOM      6  C   UNL     1       9.570  -0.014  34.428  1.00  0.00     0.012 A 
ENDROOT
BRANCH   1   7
ATOM      7  C   UNL     1       7.944   0.961  36.028  1.00  0.00     0.003 C 
ATOM      8  C   UNL     1       5.621   0.222  36.386  1.00  0.00     0.035 C 
ATOM      9  C   UNL     1       6.989   0.050  35.808  1.00  0.00    -0.030 C 
ENDBRANCH   1   7
BRANCH   3  10
ATOM     10  O   UNL     1      12.808   2.113  36.081  1.00  0.00    -0.493 OA
ATOM     11  C   UNL     1      13.176   3.442  35.727  1.00  0.00     0.278 C 
ENDBRANCH   3  10
BRANCH   4  12
ATOM     12  O   UNL     1      13.196   0.393  33.902  1.00  0.00    -0.504 OA
ATOM     13  H   UNL     1      13.809  -0.366  34.177  1.00  0.00     0.293 HD
ENDBRANCH   4  12
TORSDOF 3
ENDMDL
MODEL 2
REMARK VINA RESULT:    -5.305      1.694      2.131
REMARK INTER + INTRA:          -6.272
REMARK INTER:                  -6.116
REMARK INTRA:                  -0.156
REMARK UNBOUND:                -0.191
REMARK SMILES CC=Cc1ccc(O)c(OC)c1
REMARK SMILES IDX 4 1 12 2 9 3 7 4 6 5 5 6 3 7 1 8 2 9 10 10 11 11 8 12
REMARK H PARENT 8 13
REMARK Flexibility Score: inf
ROOT
ATOM      1  C   UNL     1       9.014   1.365  35.891  1.00  0.00    -0.022 A 
ATOM      2  C   UNL     1       9.316   1.922  34.633  1.00  0.00     0.058 A 
ATOM      3  C   UNL     1      10.654   2.116  34.234  1.00  0.00     0.161 A 
ATOM      4  C   UNL     1      11.692   1.757  35.112  1.00  0.00     0.157 A 
ATOM      5  C   UNL     1      11.393   1.221  36.367  1.00  0.00     0.051 A 
ATOM      6  C   UNL     1      10.067   1.032  36.756  1.00  0.00     0.012 A 
ENDROOT
BRANCH   1   7
ATOM      7  C   UNL     1       7.621   1.151  36.356  1.00  0.00     0.003 C 
ATOM      8  C   UNL     1       5.431   0.024  36.423  1.00  0.00     0.035 C 
ATOM      9  C   UNL     1       6.819   0.185  35.893  1.00  0.00    -0.030 C 
ENDBRANCH   1   7
BRANCH   3  10
ATOM     10  O   UNL     1      10.987   2.664  32.984  1.00  0.00    -0.493 OA
ATOM     11  C   UNL     1      11.124   4.056  32.721  1.00  0.00     0.278 C 
ENDBRANCH   3  10
BRANCH   4  12
ATOM     12  O   UNL     1      13.030   1.930  34.757  1.00  0.00    -0.504 OA
ATOM     13  H   UNL     1      13.577   1.188  34.336  1.00  0.00     0.293 HD
ENDBRANCH   4  12
TORSDOF 3
ENDMDL
MODEL 3
REMARK VINA RESULT:    -5.240      7.815     10.686
REMARK INTER + INTRA:          -6.197
REMARK INTER:                  -6.049
REMARK INTRA:                  -0.148
REMARK UNBOUND:                -0.191
REMARK SMILES CC=Cc1ccc(O)c(OC)c1
REMARK SMILES IDX 4 1 12 2 9 3 7 4 6 5 5 6 3 7 1 8 2 9 10 10 11 11 8 12
REMARK H PARENT 8 13
REMARK Flexibility Score: inf
ROOT
ATOM      1  C   UNL     1       2.634  -1.533  39.299  1.00  0.00    -0.022 A 
ATOM      2  C   UNL     1       2.444  -2.875  38.917  1.00  0.00     0.058 A 
ATOM      3  C   UNL     1       1.950  -3.822  39.838  1.00  0.00     0.161 A 
ATOM      4  C   UNL     1       1.659  -3.416  41.152  1.00  0.00     0.157 A 
ATOM      5  C   UNL     1       1.865  -2.089  41.537  1.00  0.00     0.051 A 
ATOM      6  C   UNL     1       2.353  -1.156  40.621  1.00  0.00     0.012 A 
ENDROOT
BRANCH   1   7
ATOM      7  C   UNL     1       3.160  -0.504  38.367  1.00  0.00     0.003 C 
ATOM      8  C   UNL     1       4.557   0.340  36.521  1.00  0.00     0.035 C 
ATOM      9  C   UNL     1       4.090  -0.746  37.436  1.00  0.00    -0.030 C 
ENDBRANCH   1   7
BRANCH   3  10
ATOM     10  O   UNL     1       1.744  -5.166  39.485  1.00  0.00    -0.493 OA
ATOM     11  C   UNL     1       2.643  -5.944  38.703  1.00  0.00     0.278 C 
ENDBRANCH   3  10
BRANCH   4  12
ATOM     12  O   UNL     1       1.167  -4.320  42.094  1.00  0.00    -0.504 OA
ATOM     13  H   UNL     1       0.922  -5.273  41.852  1.00  0.00     0.293 HD
ENDBRANCH   4  12
TORSDOF 3
ENDMDL
MODEL 4
REMARK VINA RESULT:    -5.054      6.719      8.404
REMARK INTER + INTRA:          -5.984
REMARK INTER:                  -5.795
REMARK INTRA:                  -0.189
REMARK UNBOUND:                -0.191
REMARK SMILES CC=Cc1ccc(O)c(OC)c1
REMARK SMILES IDX 4 1 12 2 9 3 7 4 6 5 5 6 3 7 1 8 2 9 10 10 11 11 8 12
REMARK H PARENT 8 13
REMARK Flexibility Score: inf
ROOT
ATOM      1  C   UNL     1       4.659  -2.739  36.925  1.00  0.00    -0.022 A 
ATOM      2  C   UNL     1       3.597  -2.589  37.839  1.00  0.00     0.058 A 
ATOM      3  C   UNL     1       3.123  -1.308  38.188  1.00  0.00     0.161 A 
ATOM      4  C   UNL     1       3.730  -0.173  37.623  1.00  0.00     0.157 A 
ATOM      5  C   UNL     1       4.795  -0.320  36.730  1.00  0.00     0.051 A 
ATOM      6  C   UNL     1       5.260  -1.590  36.388  1.00  0.00     0.012 A 
ENDROOT
BRANCH   1   7
ATOM      7  C   UNL     1       5.196  -4.066  36.535  1.00  0.00     0.003 C 
ATOM      8  C   UNL     1       6.507  -5.636  35.161  1.00  0.00     0.035 C 
ATOM      9  C   UNL     1       5.993  -4.269  35.480  1.00  0.00    -0.030 C 
ENDBRANCH   1   7
BRANCH   3  10
ATOM     10  O   UNL     1       2.063  -1.127  39.092  1.00  0.00    -0.493 OA
ATOM     11  C   UNL     1       2.109  -1.469  40.473  1.00  0.00     0.278 C 
ENDBRANCH   3  10
BRANCH   4  12
ATOM     12  O   UNL     1       3.292   1.113  37.939  1.00  0.00    -0.504 OA
ATOM     13  H   UNL     1       3.910   1.813  38.333  1.00  0.00     0.293 HD
ENDBRANCH   4  12
TORSDOF 3
ENDMDL
MODEL 5
REMARK VINA RESULT:    -5.034      2.648      4.877
REMARK INTER + INTRA:          -5.962
REMARK INTER:                  -5.771
REMARK INTRA:                  -0.191
REMARK UNBOUND:                -0.191
REMARK SMILES CC=Cc1ccc(O)c(OC)c1
REMARK SMILES IDX 4 1 12 2 9 3 7 4 6 5 5 6 3 7 1 8 2 9 10 10 11 11 8 12
REMARK H PARENT 8 13
REMARK Flexibility Score: inf
ROOT
ATOM      1  C   UNL     1      10.084   1.476  35.470  1.00  0.00    -0.022 A 
ATOM      2  C   UNL     1       8.909   1.038  36.111  1.00  0.00     0.058 A 
ATOM      3  C   UNL     1       8.153  -0.028  35.579  1.00  0.00     0.161 A 
ATOM      4  C   UNL     1       8.579  -0.646  34.390  1.00  0.00     0.157 A 
ATOM      5  C   UNL     1       9.735  -0.200  33.745  1.00  0.00     0.051 A 
ATOM      6  C   UNL     1      10.478   0.855  34.275  1.00  0.00     0.012 A 
ENDROOT
BRANCH   1   7
ATOM      7  C   UNL     1      10.905   2.599  35.988  1.00  0.00     0.003 C 
ATOM      8  C   UNL     1      12.746   4.235  35.939  1.00  0.00     0.035 C 
ATOM      9  C   UNL     1      11.980   3.090  35.361  1.00  0.00    -0.030 C 
ENDBRANCH   1   7
BRANCH   3  10
ATOM     10  O   UNL     1       6.981  -0.491  36.199  1.00  0.00    -0.493 OA
ATOM     11  C   UNL     1       5.777   0.260  36.316  1.00  0.00     0.278 C 
ENDBRANCH   3  10
BRANCH   4  12
ATOM     12  O   UNL     1       7.863  -1.704  33.831  1.00  0.00    -0.504 OA
ATOM     13  H   UNL     1       8.250  -2.638  33.755  1.00  0.00     0.293 HD
ENDBRANCH   4  12
TORSDOF 3
ENDMDL
MODEL 6
REMARK VINA RESULT:    -4.922      2.996      5.023
REMARK INTER + INTRA:          -5.833
REMARK INTER:                  -5.679
REMARK INTRA:                  -0.154
REMARK UNBOUND:                -0.191
REMARK SMILES CC=Cc1ccc(O)c(OC)c1
REMARK SMILES IDX 4 1 12 2 9 3 7 4 6 5 5 6 3 7 1 8 2 9 10 10 11 11 8 12
REMARK H PARENT 8 13
REMARK Flexibility Score: inf
ROOT
ATOM      1  C   UNL     1      12.032   3.873  33.409  1.00  0.00    -0.022 A 
ATOM      2  C   UNL     1      11.035   2.975  33.838  1.00  0.00     0.058 A 
ATOM      3  C   UNL     1      11.358   1.643  34.165  1.00  0.00     0.161 A 
ATOM      4  C   UNL     1      12.691   1.210  34.048  1.00  0.00     0.157 A 
ATOM      5  C   UNL     1      13.678   2.095  33.605  1.00  0.00     0.051 A 
ATOM      6  C   UNL     1      13.352   3.412  33.283  1.00  0.00     0.012 A 
ENDROOT
BRANCH   1   7
ATOM      7  C   UNL     1      11.736   5.281  33.045  1.00  0.00     0.003 C 
ATOM      8  C   UNL     1      10.500   7.090  31.918  1.00  0.00     0.035 C 
ATOM      9  C   UNL     1      10.746   5.648  32.223  1.00  0.00    -0.030 C 
ENDBRANCH   1   7
BRANCH   3  10
ATOM     10  O   UNL     1      10.387   0.726  34.602  1.00  0.00    -0.493 OA
ATOM     11  C   UNL     1       9.620  -0.110  33.743  1.00  0.00     0.278 C 
ENDBRANCH   3  10
BRANCH   4  12
ATOM     12  O   UNL     1      13.055  -0.099  34.363  1.00  0.00    -0.504 OA
ATOM     13  H   UNL     1      12.433  -0.884  34.211  1.00  0.00     0.293 HD
ENDBRANCH   4  12
TORSDOF 3
ENDMDL
MODEL 7
REMARK VINA RESULT:    -4.786      8.339     11.066
REMARK INTER + INTRA:          -5.677
REMARK INTER:                  -5.502
REMARK INTRA:                  -0.175
REMARK UNBOUND:                -0.191
REMARK SMILES CC=Cc1ccc(O)c(OC)c1
REMARK SMILES IDX 4 1 12 2 9 3 7 4 6 5 5 6 3 7 1 8 2 9 10 10 11 11 8 12
REMARK H PARENT 8 13
REMARK Flexibility Score: inf
ROOT
ATOM      1  C   UNL     1       2.995  -3.235  38.571  1.00  0.00    -0.022 A 
ATOM      2  C   UNL     1       2.259  -4.216  39.265  1.00  0.00     0.058 A 
ATOM      3  C   UNL     1       1.526  -3.881  40.422  1.00  0.00     0.161 A 
ATOM      4  C   UNL     1       1.544  -2.554  40.887  1.00  0.00     0.157 A 
ATOM      5  C   UNL     1       2.288  -1.585  40.210  1.00  0.00     0.051 A 
ATOM      6  C   UNL     1       3.012  -1.922  39.066  1.00  0.00     0.012 A 
ENDROOT
BRANCH   1   7
ATOM      7  C   UNL     1       3.787  -3.544  37.355  1.00  0.00     0.003 C 
ATOM      8  C   UNL     1       5.737  -3.395  35.856  1.00  0.00     0.035 C 
ATOM      9  C   UNL     1       4.992  -3.021  37.096  1.00  0.00    -0.030 C 
ENDBRANCH   1   7
BRANCH   3  10
ATOM     10  O   UNL     1       0.778  -4.835  41.132  1.00  0.00    -0.493 OA
ATOM     11  C   UNL     1      -0.034  -5.838  40.530  1.00  0.00     0.278 C 
ENDBRANCH   3  10
BRANCH   4  12
ATOM     12  O   UNL     1       0.832  -2.179  42.027  1.00  0.00    -0.504 OA
ATOM     13  H   UNL     1       0.368  -1.282  42.103  1.00  0.00     0.293 HD
ENDBRANCH   4  12
TORSDOF 3
ENDMDL
MODEL 8
REMARK VINA RESULT:    -4.736      5.316      8.159
REMARK INTER + INTRA:          -5.619
REMARK INTER:                  -5.443
REMARK INTRA:                  -0.176
REMARK UNBOUND:                -0.191
REMARK SMILES CC=Cc1ccc(O)c(OC)c1
REMARK SMILES IDX 4 1 12 2 9 3 7 4 6 5 5 6 3 7 1 8 2 9 10 10 11 11 8 12
REMARK H PARENT 8 13
REMARK Flexibility Score: inf
ROOT
ATOM      1  C   UNL     1       5.490  -1.184  36.419  1.00  0.00    -0.022 A 
ATOM      2  C   UNL     1       4.910  -2.397  36.839  1.00  0.00     0.058 A 
ATOM      3  C   UNL     1       3.708  -2.404  37.575  1.00  0.00     0.161 A 
ATOM      4  C   UNL     1       3.094  -1.181  37.898  1.00  0.00     0.157 A 
ATOM      5  C   UNL     1       3.678   0.023  37.497  1.00  0.00     0.051 A 
ATOM      6  C   UNL     1       4.868   0.023  36.769  1.00  0.00     0.012 A 
ENDROOT
BRANCH   1   7
ATOM      7  C   UNL     1       6.759  -1.130  35.650  1.00  0.00     0.003 C 
ATOM      8  C   UNL     1       8.807  -0.070  34.782  1.00  0.00     0.035 C 
ATOM      9  C   UNL     1       7.533  -0.042  35.562  1.00  0.00    -0.030 C 
ENDBRANCH   1   7
BRANCH   3  10
ATOM     10  O   UNL     1       3.103  -3.597  38.003  1.00  0.00    -0.493 OA
ATOM     11  C   UNL     1       3.751  -4.864  38.042  1.00  0.00     0.278 C 
ENDBRANCH   3  10
BRANCH   4  12
ATOM     12  O   UNL     1       1.903  -1.141  38.623  1.00  0.00    -0.504 OA
ATOM     13  H   UNL     1       1.207  -0.419  38.480  1.00  0.00     0.293 HD
ENDBRANCH   4  12
TORSDOF 3
ENDMDL
