MODEL 1
REMARK VINA RESULT:    -3.078      0.000      0.000
REMARK INTER + INTRA:          -3.078
REMARK INTER:                  -3.078
REMARK INTRA:                   0.000
REMARK UNBOUND:                 0.000
REMARK SMILES O=C1CCCCC1
REMARK SMILES IDX 5 1 4 2 3 3 2 4 1 5 7 6 6 7
REMARK H PARENT
REMARK Flexibility Score: inf
ROOT
ATOM      1  C   UNL     1     148.609 151.575 145.799  1.00  0.00     0.001 C 
ATOM      2  C   UNL     1     148.985 152.992 145.340  1.00  0.00     0.008 C 
ATOM      3  C   UNL     1     150.304 153.453 145.972  1.00  0.00     0.075 C 
ATOM      4  C   UNL     1     151.370 152.410 145.778  1.00  0.00     0.132 C 
ATOM      5  O   UNL     1     152.502 152.738 145.450  1.00  0.00    -0.300 OA
ATOM      6  C   UNL     1     151.055 150.972 146.083  1.00  0.00     0.075 C 
ATOM      7  C   UNL     1     149.718 150.573 145.448  1.00  0.00     0.008 C 
ENDROOT
TORSDOF 0
ENDMDL
MODEL 2
REMARK VINA RESULT:    -2.986      1.763      2.978
REMARK INTER + INTRA:          -2.986
REMARK INTER:                  -2.986
REMARK INTRA:                   0.000
REMARK UNBOUND:                 0.000
REMARK SMILES O=C1CCCCC1
REMARK SMILES IDX 5 1 4 2 3 3 2 4 1 5 7 6 6 7
REMARK H PARENT
REMARK Flexibility Score: inf
ROOT
ATOM      1  C   UNL     1     150.555 153.262 145.786  1.00  0.00     0.001 C 
ATOM      2  C   UNL     1     151.547 152.127 145.488  1.00  0.00     0.008 C 
ATOM      3  C   UNL     1     151.044 150.787 146.038  1.00  0.00     0.075 C 
ATOM      4  C   UNL     1     149.629 150.536 145.595  1.00  0.00     0.132 C 
ATOM      5  O   UNL     1     149.293 149.429 145.200  1.00  0.00    -0.300 OA
ATOM      6  C   UNL     1     148.612 151.635 145.731  1.00  0.00     0.075 C 
ATOM      7  C   UNL     1     149.175 152.954 145.189  1.00  0.00     0.008 C 
ENDROOT
TORSDOF 0
ENDMDL
MODEL 3
REMARK VINA RESULT:    -2.971      1.436      2.759
REMARK INTER + INTRA:          -2.971
REMARK INTER:                  -2.971
REMARK INTRA:                   0.000
REMARK UNBOUND:                 0.000
REMARK SMILES O=C1CCCCC1
REMARK SMILES IDX 5 1 4 2 3 3 2 4 1 5 7 6 6 7
REMARK H PARENT
REMARK Flexibility Score: inf
ROOT
ATOM      1  C   UNL     1     148.351 149.116 145.406  1.00  0.00     0.001 C 
ATOM      2  C   UNL     1     149.804 148.720 145.709  1.00  0.00     0.008 C 
ATOM      3  C   UNL     1     150.792 149.763 145.172  1.00  0.00     0.075 C 
ATOM      4  C   UNL     1     150.395 151.142 145.623  1.00  0.00     0.132 C 
ATOM      5  O   UNL     1     151.240 151.926 146.029  1.00  0.00    -0.300 OA
ATOM      6  C   UNL     1     148.962 151.576 145.482  1.00  0.00     0.075 C 
ATOM      7  C   UNL     1     148.020 150.488 146.012  1.00  0.00     0.008 C 
ENDROOT
TORSDOF 0
ENDMDL
MODEL 4
REMARK VINA RESULT:    -2.956      1.925      3.243
REMARK INTER + INTRA:          -2.956
REMARK INTER:                  -2.956
REMARK INTRA:                   0.000
REMARK UNBOUND:                 0.000
REMARK SMILES O=C1CCCCC1
REMARK SMILES IDX 5 1 4 2 3 3 2 4 1 5 7 6 6 7
REMARK H PARENT
REMARK Flexibility Score: inf
ROOT
ATOM      1  C   UNL     1     149.423 149.125 145.416  1.00  0.00     0.001 C 
ATOM      2  C   UNL     1     150.547 148.155 145.809  1.00  0.00     0.008 C 
ATOM      3  C   UNL     1     151.884 148.563 145.178  1.00  0.00     0.075 C 
ATOM      4  C   UNL     1     152.167 150.016 145.444  1.00  0.00     0.132 C 
ATOM      5  O   UNL     1     153.287 150.375 145.775  1.00  0.00    -0.300 OA
ATOM      6  C   UNL     1     151.083 151.030 145.208  1.00  0.00     0.075 C 
ATOM      7  C   UNL     1     149.766 150.561 145.838  1.00  0.00     0.008 C 
ENDROOT
TORSDOF 0
ENDMDL
MODEL 5
REMARK VINA RESULT:    -2.930      1.463      2.114
REMARK INTER + INTRA:          -2.930
REMARK INTER:                  -2.930
REMARK INTRA:                   0.000
REMARK UNBOUND:                 0.000
REMARK SMILES O=C1CCCCC1
REMARK SMILES IDX 5 1 4 2 3 3 2 4 1 5 7 6 6 7
REMARK H PARENT
REMARK Flexibility Score: inf
ROOT
ATOM      1  C   UNL     1     148.538 148.950 145.998  1.00  0.00     0.001 C 
ATOM      2  C   UNL     1     147.949 150.297 145.550  1.00  0.00     0.008 C 
ATOM      3  C   UNL     1     148.753 151.475 146.114  1.00  0.00     0.075 C 
ATOM      4  C   UNL     1     150.219 151.290 145.835  1.00  0.00     0.132 C 
ATOM      5  O   UNL     1     150.896 152.231 145.449  1.00  0.00    -0.300 OA
ATOM      6  C   UNL     1     150.860 149.961 146.125  1.00  0.00     0.075 C 
ATOM      7  C   UNL     1     150.004 148.821 145.560  1.00  0.00     0.008 C 
ENDROOT
TORSDOF 0
ENDMDL
MODEL 6
REMARK VINA RESULT:    -2.901      2.146      3.372
REMARK INTER + INTRA:          -2.901
REMARK INTER:                  -2.901
REMARK INTRA:                   0.000
REMARK UNBOUND:                 0.000
REMARK SMILES O=C1CCCCC1
REMARK SMILES IDX 5 1 4 2 3 3 2 4 1 5 7 6 6 7
REMARK H PARENT
REMARK Flexibility Score: inf
ROOT
ATOM      1  C   UNL     1     151.896 148.403 145.294  1.00  0.00     0.001 C 
ATOM      2  C   UNL     1     152.465 149.723 145.835  1.00  0.00     0.008 C 
ATOM      3  C   UNL     1     151.634 150.924 145.368  1.00  0.00     0.075 C 
ATOM      4  C   UNL     1     150.175 150.691 145.646  1.00  0.00     0.132 C 
ATOM      5  O   UNL     1     149.484 151.588 146.108  1.00  0.00    -0.300 OA
ATOM      6  C   UNL     1     149.555 149.375 145.265  1.00  0.00     0.075 C 
ATOM      7  C   UNL     1     150.438 148.213 145.735  1.00  0.00     0.008 C 
ENDROOT
TORSDOF 0
ENDMDL
MODEL 7
REMARK VINA RESULT:    -2.859      1.768      2.289
REMARK INTER + INTRA:          -2.859
REMARK INTER:                  -2.859
REMARK INTRA:                   0.000
REMARK UNBOUND:                 0.000
REMARK SMILES O=C1CCCCC1
REMARK SMILES IDX 5 1 4 2 3 3 2 4 1 5 7 6 6 7
REMARK H PARENT
REMARK Flexibility Score: inf
ROOT
ATOM      1  C   UNL     1     148.414 150.847 145.878  1.00  0.00     0.001 C 
ATOM      2  C   UNL     1     149.616 151.720 145.488  1.00  0.00     0.008 C 
ATOM      3  C   UNL     1     150.922 151.167 146.073  1.00  0.00     0.075 C 
ATOM      4  C   UNL     1     151.060 149.704 145.754  1.00  0.00     0.132 C 
ATOM      5  O   UNL     1     152.134 149.252 145.385  1.00  0.00    -0.300 OA
ATOM      6  C   UNL     1     149.890 148.788 145.986  1.00  0.00     0.075 C 
ATOM      7  C   UNL     1     148.610 149.400 145.403  1.00  0.00     0.008 C 
ENDROOT
TORSDOF 0
ENDMDL
MODEL 8
REMARK VINA RESULT:    -2.819      1.904      2.770
REMARK INTER + INTRA:          -2.819
REMARK INTER:                  -2.819
REMARK INTRA:                   0.000
REMARK UNBOUND:                 0.000
REMARK SMILES O=C1CCCCC1
REMARK SMILES IDX 5 1 4 2 3 3 2 4 1 5 7 6 6 7
REMARK H PARENT
REMARK Flexibility Score: inf
ROOT
ATOM      1  C   UNL     1     152.531 151.563 145.020  1.00  0.00     0.001 C 
ATOM      2  C   UNL     1     151.985 152.484 146.122  1.00  0.00     0.008 C 
ATOM      3  C   UNL     1     150.601 153.034 145.757  1.00  0.00     0.075 C 
ATOM      4  C   UNL     1     149.685 151.915 145.342  1.00  0.00     0.132 C 
ATOM      5  O   UNL     1     148.530 151.883 145.741  1.00  0.00    -0.300 OA
ATOM      6  C   UNL     1     150.177 150.889 144.359  1.00  0.00     0.075 C 
ATOM      7  C   UNL     1     151.572 150.393 144.759  1.00  0.00     0.008 C 
ENDROOT
TORSDOF 0
ENDMDL
MODEL 9
REMARK VINA RESULT:    -2.753      1.458      2.443
REMARK INTER + INTRA:          -2.753
REMARK INTER:                  -2.753
REMARK INTRA:                   0.000
REMARK UNBOUND:                 0.000
REMARK SMILES O=C1CCCCC1
REMARK SMILES IDX 5 1 4 2 3 3 2 4 1 5 7 6 6 7
REMARK H PARENT
REMARK Flexibility Score: inf
ROOT
ATOM      1  C   UNL     1     149.129 152.391 145.610  1.00  0.00     0.001 C 
ATOM      2  C   UNL     1     148.816 150.977 146.124  1.00  0.00     0.008 C 
ATOM      3  C   UNL     1     149.668 149.921 145.409  1.00  0.00     0.075 C 
ATOM      4  C   UNL     1     151.120 150.310 145.441  1.00  0.00     0.132 C 
ATOM      5  O   UNL     1     151.977 149.474 145.689  1.00  0.00    -0.300 OA
ATOM      6  C   UNL     1     151.513 151.714 145.075  1.00  0.00     0.075 C 
ATOM      7  C   UNL     1     150.616 152.726 145.798  1.00  0.00     0.008 C 
ENDROOT
TORSDOF 0
ENDMDL
