MODEL 1
REMARK VINA RESULT:    -3.386      0.000      0.000
REMARK INTER + INTRA:          -5.123
REMARK INTER:                  -4.574
REMARK INTRA:                  -0.549
REMARK UNBOUND:                -0.549
REMARK SMILES C[C@H](O)[C@H](O)[C@@H](O)[C@@H](O)C=O
REMARK SMILES IDX 4 1 2 2 1 3 3 4 6 6 8 7 10 8 11 9 9 10 7 12 5 14
REMARK H PARENT 3 5 9 11 7 13 5 15
REMARK Flexibility Score: inf
ROOT
ATOM      1  C   UNL     1      72.431  30.959  61.066  1.00  0.00     0.174 C 
ENDROOT
BRANCH   1   2
ATOM      2  C   UNL     1      71.666  29.665  61.454  1.00  0.00     0.142 C 
ATOM      3  C   UNL     1      71.929  28.534  60.450  1.00  0.00     0.041 C 
BRANCH   2   4
ATOM      4  O   UNL     1      70.283  29.891  61.556  1.00  0.00    -0.391 OA
ATOM      5  H   UNL     1      70.027  29.759  62.507  1.00  0.00     0.211 HD
ENDBRANCH   2   4
ENDBRANCH   1   2
BRANCH   1   6
ATOM      6  C   UNL     1      71.535  32.093  60.485  1.00  0.00     0.181 C 
BRANCH   6   7
ATOM      7  C   UNL     1      71.147  31.915  58.990  1.00  0.00     0.209 C 
BRANCH   7   8
ATOM      8  C   UNL     1      71.200  33.234  58.269  1.00  0.00     0.258 C 
ATOM      9  O   UNL     1      70.424  34.132  58.557  1.00  0.00    -0.300 OA
ENDBRANCH   7   8
BRANCH   7  10
ATOM     10  O   UNL     1      69.844  31.400  58.875  1.00  0.00    -0.383 OA
ATOM     11  H   UNL     1      69.658  31.282  57.908  1.00  0.00     0.211 HD
ENDBRANCH   7  10
ENDBRANCH   6   7
BRANCH   6  12
ATOM     12  O   UNL     1      72.115  33.353  60.729  1.00  0.00    -0.387 OA
ATOM     13  H   UNL     1      71.398  34.038  60.720  1.00  0.00     0.211 HD
ENDBRANCH   6  12
ENDBRANCH   1   6
BRANCH   1  14
ATOM     14  O   UNL     1      73.125  31.439  62.192  1.00  0.00    -0.388 OA
ATOM     15  H   UNL     1      73.978  31.829  61.865  1.00  0.00     0.211 HD
ENDBRANCH   1  14
TORSDOF 8
ENDMDL
MODEL 2
REMARK VINA RESULT:    -3.373     19.843     21.466
REMARK INTER + INTRA:          -5.105
REMARK INTER:                  -4.556
REMARK INTRA:                  -0.549
REMARK UNBOUND:                -0.549
REMARK SMILES C[C@H](O)[C@H](O)[C@@H](O)[C@@H](O)C=O
REMARK SMILES IDX 4 1 2 2 1 3 3 4 6 6 8 7 10 8 11 9 9 10 7 12 5 14
REMARK H PARENT 3 5 9 11 7 13 5 15
REMARK Flexibility Score: inf
ROOT
ATOM      1  C   UNL     1      58.060  17.614  49.921  1.00  0.00     0.174 C 
ENDROOT
BRANCH   1   2
ATOM      2  C   UNL     1      59.420  18.291  49.598  1.00  0.00     0.142 C 
ATOM      3  C   UNL     1      60.454  18.031  50.703  1.00  0.00     0.041 C 
BRANCH   2   4
ATOM      4  O   UNL     1      59.276  19.675  49.404  1.00  0.00    -0.391 OA
ATOM      5  H   UNL     1      58.344  19.917  49.649  1.00  0.00     0.211 HD
ENDBRANCH   2   4
ENDBRANCH   1   2
BRANCH   1   6
ATOM      6  C   UNL     1      56.954  18.588  50.426  1.00  0.00     0.181 C 
BRANCH   6   7
ATOM      7  C   UNL     1      57.096  19.020  51.913  1.00  0.00     0.209 C 
BRANCH   7   8
ATOM      8  C   UNL     1      55.746  19.099  52.571  1.00  0.00     0.258 C 
ATOM      9  O   UNL     1      54.914  19.906  52.190  1.00  0.00    -0.300 OA
ENDBRANCH   7   8
BRANCH   7  10
ATOM     10  O   UNL     1      57.707  20.282  52.005  1.00  0.00    -0.383 OA
ATOM     11  H   UNL     1      57.521  20.635  52.914  1.00  0.00     0.211 HD
ENDBRANCH   7  10
ENDBRANCH   6   7
BRANCH   6  12
ATOM     12  O   UNL     1      55.675  18.065  50.152  1.00  0.00    -0.387 OA
ATOM     13  H   UNL     1      55.737  17.076  50.126  1.00  0.00     0.211 HD
ENDBRANCH   6  12
ENDBRANCH   1   6
BRANCH   1  14
ATOM     14  O   UNL     1      57.602  16.933  48.778  1.00  0.00    -0.388 OA
ATOM     15  H   UNL     1      56.687  17.269  48.586  1.00  0.00     0.211 HD
ENDBRANCH   1  14
TORSDOF 8
ENDMDL
MODEL 3
REMARK VINA RESULT:    -3.301      0.990      3.781
REMARK INTER + INTRA:          -5.009
REMARK INTER:                  -4.675
REMARK INTRA:                  -0.334
REMARK UNBOUND:                -0.549
REMARK SMILES C[C@H](O)[C@H](O)[C@@H](O)[C@@H](O)C=O
REMARK SMILES IDX 4 1 2 2 1 3 3 4 6 6 8 7 10 8 11 9 9 10 7 12 5 14
REMARK H PARENT 3 5 9 11 7 13 5 15
REMARK Flexibility Score: inf
ROOT
ATOM      1  C   UNL     1      71.490  32.182  60.381  1.00  0.00     0.174 C 
ENDROOT
BRANCH   1   2
ATOM      2  C   UNL     1      71.077  32.081  58.888  1.00  0.00     0.142 C 
ATOM      3  C   UNL     1      71.230  33.428  58.169  1.00  0.00     0.041 C 
BRANCH   2   4
ATOM      4  O   UNL     1      69.757  31.619  58.746  1.00  0.00    -0.391 OA
ATOM      5  H   UNL     1      69.409  31.424  59.656  1.00  0.00     0.211 HD
ENDBRANCH   2   4
ENDBRANCH   1   2
BRANCH   1   6
ATOM      6  C   UNL     1      72.503  31.095  60.850  1.00  0.00     0.181 C 
BRANCH   6   7
ATOM      7  C   UNL     1      71.942  29.645  60.865  1.00  0.00     0.209 C 
BRANCH   7   8
ATOM      8  C   UNL     1      70.544  29.625  61.418  1.00  0.00     0.258 C 
ATOM      9  O   UNL     1      69.606  29.262  60.726  1.00  0.00    -0.300 OA
ENDBRANCH   7   8
BRANCH   7  10
ATOM     10  O   UNL     1      72.746  28.813  61.663  1.00  0.00    -0.383 OA
ATOM     11  H   UNL     1      73.687  28.950  61.377  1.00  0.00     0.211 HD
ENDBRANCH   7  10
ENDBRANCH   6   7
BRANCH   6  12
ATOM     12  O   UNL     1      73.069  31.452  62.089  1.00  0.00    -0.387 OA
ATOM     13  H   UNL     1      73.914  31.942  61.921  1.00  0.00     0.211 HD
ENDBRANCH   6  12
ENDBRANCH   1   6
BRANCH   1  14
ATOM     14  O   UNL     1      72.025  33.460  60.625  1.00  0.00    -0.388 OA
ATOM     15  H   UNL     1      72.638  33.669  59.872  1.00  0.00     0.211 HD
ENDBRANCH   1  14
TORSDOF 8
ENDMDL
MODEL 4
REMARK VINA RESULT:    -3.292     13.511     14.359
REMARK INTER + INTRA:          -4.997
REMARK INTER:                  -4.766
REMARK INTRA:                  -0.231
REMARK UNBOUND:                -0.549
REMARK SMILES C[C@H](O)[C@H](O)[C@@H](O)[C@@H](O)C=O
REMARK SMILES IDX 4 1 2 2 1 3 3 4 6 6 8 7 10 8 11 9 9 10 7 12 5 14
REMARK H PARENT 3 5 9 11 7 13 5 15
REMARK Flexibility Score: inf
ROOT
ATOM      1  C   UNL     1      62.498  32.351  49.863  1.00  0.00     0.174 C 
ENDROOT
BRANCH   1   2
ATOM      2  C   UNL     1      63.877  31.791  49.421  1.00  0.00     0.142 C 
ATOM      3  C   UNL     1      64.830  32.916  48.994  1.00  0.00     0.041 C 
BRANCH   2   4
ATOM      4  O   UNL     1      63.747  30.862  48.374  1.00  0.00    -0.391 OA
ATOM      5  H   UNL     1      64.049  31.307  47.539  1.00  0.00     0.211 HD
ENDBRANCH   2   4
ENDBRANCH   1   2
BRANCH   1   6
ATOM      6  C   UNL     1      62.178  33.781  49.333  1.00  0.00     0.181 C 
BRANCH   6   7
ATOM      7  C   UNL     1      61.694  34.785  50.417  1.00  0.00     0.209 C 
BRANCH   7   8
ATOM      8  C   UNL     1      61.514  34.090  51.738  1.00  0.00     0.258 C 
ATOM      9  O   UNL     1      60.455  34.165  52.341  1.00  0.00    -0.300 OA
ENDBRANCH   7   8
BRANCH   7  10
ATOM     10  O   UNL     1      60.465  35.357  50.046  1.00  0.00    -0.383 OA
ATOM     11  H   UNL     1      60.639  36.308  49.822  1.00  0.00     0.211 HD
ENDBRANCH   7  10
ENDBRANCH   6   7
BRANCH   6  12
ATOM     12  O   UNL     1      61.287  33.714  48.244  1.00  0.00    -0.387 OA
ATOM     13  H   UNL     1      61.759  33.306  47.474  1.00  0.00     0.211 HD
ENDBRANCH   6  12
ENDBRANCH   1   6
BRANCH   1  14
ATOM     14  O   UNL     1      61.487  31.461  49.456  1.00  0.00    -0.388 OA
ATOM     15  H   UNL     1      61.167  31.769  48.568  1.00  0.00     0.211 HD
ENDBRANCH   1  14
TORSDOF 8
ENDMDL
MODEL 5
REMARK VINA RESULT:    -3.265      7.959      9.204
REMARK INTER + INTRA:          -4.959
REMARK INTER:                  -4.298
REMARK INTRA:                  -0.661
REMARK UNBOUND:                -0.549
REMARK SMILES C[C@H](O)[C@H](O)[C@@H](O)[C@@H](O)C=O
REMARK SMILES IDX 4 1 2 2 1 3 3 4 6 6 8 7 10 8 11 9 9 10 7 12 5 14
REMARK H PARENT 3 5 9 11 7 13 5 15
REMARK Flexibility Score: inf
ROOT
ATOM      1  C   UNL     1      64.118  32.980  60.784  1.00  0.00     0.174 C 
ENDROOT
BRANCH   1   2
ATOM      2  C   UNL     1      63.895  34.514  60.690  1.00  0.00     0.142 C 
ATOM      3  C   UNL     1      64.800  35.274  61.670  1.00  0.00     0.041 C 
BRANCH   2   4
ATOM      4  O   UNL     1      62.553  34.857  60.927  1.00  0.00    -0.391 OA
ATOM      5  H   UNL     1      62.401  35.758  60.536  1.00  0.00     0.211 HD
ENDBRANCH   2   4
ENDBRANCH   1   2
BRANCH   1   6
ATOM      6  C   UNL     1      62.814  32.130  60.720  1.00  0.00     0.181 C 
BRANCH   6   7
ATOM      7  C   UNL     1      63.003  30.620  61.042  1.00  0.00     0.209 C 
BRANCH   7   8
ATOM      8  C   UNL     1      61.808  30.083  61.779  1.00  0.00     0.258 C 
ATOM      9  O   UNL     1      60.779  30.736  61.856  1.00  0.00    -0.300 OA
ENDBRANCH   7   8
BRANCH   7  10
ATOM     10  O   UNL     1      64.142  30.426  61.843  1.00  0.00    -0.383 OA
ATOM     11  H   UNL     1      63.845  30.458  62.790  1.00  0.00     0.211 HD
ENDBRANCH   7  10
ENDBRANCH   6   7
BRANCH   6  12
ATOM     12  O   UNL     1      62.160  32.325  59.488  1.00  0.00    -0.387 OA
ATOM     13  H   UNL     1      62.756  32.012  58.760  1.00  0.00     0.211 HD
ENDBRANCH   6  12
ENDBRANCH   1   6
BRANCH   1  14
ATOM     14  O   UNL     1      64.992  32.578  59.758  1.00  0.00    -0.388 OA
ATOM     15  H   UNL     1      64.987  31.585  59.742  1.00  0.00     0.211 HD
ENDBRANCH   1  14
TORSDOF 8
ENDMDL
MODEL 6
REMARK VINA RESULT:    -3.235     16.930     18.314
REMARK INTER + INTRA:          -4.919
REMARK INTER:                  -4.276
REMARK INTRA:                  -0.643
REMARK UNBOUND:                -0.549
REMARK SMILES C[C@H](O)[C@H](O)[C@@H](O)[C@@H](O)C=O
REMARK SMILES IDX 4 1 2 2 1 3 3 4 6 6 8 7 10 8 11 9 9 10 7 12 5 14
REMARK H PARENT 3 5 9 11 7 13 5 15
REMARK Flexibility Score: inf
ROOT
ATOM      1  C   UNL     1      56.621  26.062  50.113  1.00  0.00     0.174 C 
ENDROOT
BRANCH   1   2
ATOM      2  C   UNL     1      55.104  26.377  50.226  1.00  0.00     0.142 C 
ATOM      3  C   UNL     1      54.273  25.471  49.307  1.00  0.00     0.041 C 
BRANCH   2   4
ATOM      4  O   UNL     1      54.832  27.724  49.931  1.00  0.00    -0.391 OA
ATOM      5  H   UNL     1      53.867  27.881  50.113  1.00  0.00     0.211 HD
ENDBRANCH   2   4
ENDBRANCH   1   2
BRANCH   1   6
ATOM      6  C   UNL     1      57.547  27.315  50.137  1.00  0.00     0.181 C 
BRANCH   6   7
ATOM      7  C   UNL     1      59.051  27.018  49.877  1.00  0.00     0.209 C 
BRANCH   7   8
ATOM      8  C   UNL     1      59.722  28.206  49.244  1.00  0.00     0.258 C 
ATOM      9  O   UNL     1      59.071  29.181  48.904  1.00  0.00    -0.300 OA
ENDBRANCH   7   8
BRANCH   7  10
ATOM     10  O   UNL     1      59.196  25.917  49.016  1.00  0.00    -0.383 OA
ATOM     11  H   UNL     1      59.868  26.166  48.330  1.00  0.00     0.211 HD
ENDBRANCH   7  10
ENDBRANCH   6   7
BRANCH   6  12
ATOM     12  O   UNL     1      57.354  28.047  51.325  1.00  0.00    -0.387 OA
ATOM     13  H   UNL     1      57.245  29.004  51.092  1.00  0.00     0.211 HD
ENDBRANCH   6  12
ENDBRANCH   1   6
BRANCH   1  14
ATOM     14  O   UNL     1      56.987  25.186  51.151  1.00  0.00    -0.388 OA
ATOM     15  H   UNL     1      57.604  24.513  50.761  1.00  0.00     0.211 HD
ENDBRANCH   1  14
TORSDOF 8
ENDMDL
MODEL 7
REMARK VINA RESULT:    -3.233     19.648     21.267
REMARK INTER + INTRA:          -4.916
REMARK INTER:                  -4.337
REMARK INTRA:                  -0.579
REMARK UNBOUND:                -0.549
REMARK SMILES C[C@H](O)[C@H](O)[C@@H](O)[C@@H](O)C=O
REMARK SMILES IDX 4 1 2 2 1 3 3 4 6 6 8 7 10 8 11 9 9 10 7 12 5 14
REMARK H PARENT 3 5 9 11 7 13 5 15
REMARK Flexibility Score: inf
ROOT
ATOM      1  C   UNL     1      57.069  18.507  50.447  1.00  0.00     0.174 C 
ENDROOT
BRANCH   1   2
ATOM      2  C   UNL     1      57.215  18.734  51.976  1.00  0.00     0.142 C 
ATOM      3  C   UNL     1      55.853  18.975  52.642  1.00  0.00     0.041 C 
BRANCH   2   4
ATOM      4  O   UNL     1      58.074  19.809  52.260  1.00  0.00    -0.391 OA
ATOM      5  H   UNL     1      57.638  20.637  51.927  1.00  0.00     0.211 HD
ENDBRANCH   2   4
ENDBRANCH   1   2
BRANCH   1   6
ATOM      6  C   UNL     1      58.111  17.525  49.834  1.00  0.00     0.181 C 
BRANCH   6   7
ATOM      7  C   UNL     1      59.516  18.141  49.580  1.00  0.00     0.209 C 
BRANCH   7   8
ATOM      8  C   UNL     1      60.471  17.746  50.671  1.00  0.00     0.258 C 
ATOM      9  O   UNL     1      60.754  18.529  51.565  1.00  0.00    -0.300 OA
ENDBRANCH   7   8
BRANCH   7  10
ATOM     10  O   UNL     1      59.441  19.544  49.543  1.00  0.00    -0.383 OA
ATOM     11  H   UNL     1      60.308  19.877  49.194  1.00  0.00     0.211 HD
ENDBRANCH   7  10
ENDBRANCH   6   7
BRANCH   6  12
ATOM     12  O   UNL     1      57.590  16.914  48.677  1.00  0.00    -0.387 OA
ATOM     13  H   UNL     1      58.323  16.431  48.216  1.00  0.00     0.211 HD
ENDBRANCH   6  12
ENDBRANCH   1   6
BRANCH   1  14
ATOM     14  O   UNL     1      55.769  18.045  50.173  1.00  0.00    -0.388 OA
ATOM     15  H   UNL     1      55.269  18.801  49.768  1.00  0.00     0.211 HD
ENDBRANCH   1  14
TORSDOF 8
ENDMDL
MODEL 8
REMARK VINA RESULT:    -3.224     13.210     14.361
REMARK INTER + INTRA:          -4.904
REMARK INTER:                  -4.639
REMARK INTRA:                  -0.264
REMARK UNBOUND:                -0.549
REMARK SMILES C[C@H](O)[C@H](O)[C@@H](O)[C@@H](O)C=O
REMARK SMILES IDX 4 1 2 2 1 3 3 4 6 6 8 7 10 8 11 9 9 10 7 12 5 14
REMARK H PARENT 3 5 9 11 7 13 5 15
REMARK Flexibility Score: inf
ROOT
ATOM      1  C   UNL     1      62.310  33.684  49.290  1.00  0.00     0.174 C 
ENDROOT
BRANCH   1   2
ATOM      2  C   UNL     1      61.884  34.735  50.350  1.00  0.00     0.142 C 
ATOM      3  C   UNL     1      62.035  34.188  51.776  1.00  0.00     0.041 C 
BRANCH   2   4
ATOM      4  O   UNL     1      60.562  35.167  50.149  1.00  0.00    -0.391 OA
ATOM      5  H   UNL     1      60.072  34.430  49.699  1.00  0.00     0.211 HD
ENDBRANCH   2   4
ENDBRANCH   1   2
BRANCH   1   6
ATOM      6  C   UNL     1      62.511  32.244  49.848  1.00  0.00     0.181 C 
BRANCH   6   7
ATOM      7  C   UNL     1      63.879  31.594  49.498  1.00  0.00     0.209 C 
BRANCH   7   8
ATOM      8  C   UNL     1      64.930  32.650  49.293  1.00  0.00     0.258 C 
ATOM      9  O   UNL     1      65.685  32.599  48.336  1.00  0.00    -0.300 OA
ENDBRANCH   7   8
BRANCH   7  10
ATOM     10  O   UNL     1      63.778  30.836  48.318  1.00  0.00    -0.383 OA
ATOM     11  H   UNL     1      63.798  31.472  47.556  1.00  0.00     0.211 HD
ENDBRANCH   7  10
ENDBRANCH   6   7
BRANCH   6  12
ATOM     12  O   UNL     1      61.429  31.419  49.483  1.00  0.00    -0.387 OA
ATOM     13  H   UNL     1      61.333  31.443  48.496  1.00  0.00     0.211 HD
ENDBRANCH   6  12
ENDBRANCH   1   6
BRANCH   1  14
ATOM     14  O   UNL     1      61.356  33.659  48.257  1.00  0.00    -0.388 OA
ATOM     15  H   UNL     1      61.344  34.564  47.848  1.00  0.00     0.211 HD
ENDBRANCH   1  14
TORSDOF 8
ENDMDL
MODEL 9
REMARK VINA RESULT:    -3.189     15.441     16.882
REMARK INTER + INTRA:          -4.856
REMARK INTER:                  -4.081
REMARK INTRA:                  -0.775
REMARK UNBOUND:                -0.549
REMARK SMILES C[C@H](O)[C@H](O)[C@@H](O)[C@@H](O)C=O
REMARK SMILES IDX 4 1 2 2 1 3 3 4 6 6 8 7 10 8 11 9 9 10 7 12 5 14
REMARK H PARENT 3 5 9 11 7 13 5 15
REMARK Flexibility Score: inf
ROOT
ATOM      1  C   UNL     1      59.804  27.558  50.614  1.00  0.00     0.174 C 
ENDROOT
BRANCH   1   2
ATOM      2  C   UNL     1      59.354  28.852  49.884  1.00  0.00     0.142 C 
ATOM      3  C   UNL     1      57.853  29.111  50.072  1.00  0.00     0.041 C 
BRANCH   2   4
ATOM      4  O   UNL     1      59.655  28.803  48.512  1.00  0.00    -0.391 OA
ATOM      5  H   UNL     1      59.888  29.725  48.224  1.00  0.00     0.211 HD
ENDBRANCH   2   4
ENDBRANCH   1   2
BRANCH   1   6
ATOM      6  C   UNL     1      58.993  26.283  50.234  1.00  0.00     0.181 C 
BRANCH   6   7
ATOM      7  C   UNL     1      59.203  25.070  51.183  1.00  0.00     0.209 C 
BRANCH   7   8
ATOM      8  C   UNL     1      59.991  23.990  50.494  1.00  0.00     0.258 C 
ATOM      9  O   UNL     1      61.110  24.217  50.061  1.00  0.00    -0.300 OA
ENDBRANCH   7   8
BRANCH   7  10
ATOM     10  O   UNL     1      57.966  24.531  51.577  1.00  0.00    -0.383 OA
ATOM     11  H   UNL     1      57.332  25.289  51.674  1.00  0.00     0.211 HD
ENDBRANCH   7  10
ENDBRANCH   6   7
BRANCH   6  12
ATOM     12  O   UNL     1      59.219  25.940  48.887  1.00  0.00    -0.387 OA
ATOM     13  H   UNL     1      59.344  26.774  48.365  1.00  0.00     0.211 HD
ENDBRANCH   6  12
ENDBRANCH   1   6
BRANCH   1  14
ATOM     14  O   UNL     1      61.170  27.338  50.364  1.00  0.00    -0.388 OA
ATOM     15  H   UNL     1      61.279  26.373  50.160  1.00  0.00     0.211 HD
ENDBRANCH   1  14
TORSDOF 8
ENDMDL
