MODEL 1
REMARK VINA RESULT:    -5.333      0.000      0.000
REMARK INTER + INTRA:          -6.751
REMARK INTER:                  -6.579
REMARK INTRA:                  -0.171
REMARK UNBOUND:                -0.171
REMARK SMILES O=c1c(O)c(-c2cc(O)c(O)c(O)c2)oc2cc(O)cc(O)c12
REMARK SMILES IDX 5 1 3 2 2 3 1 4 23 5 21 6 20 7 18 8 17 9 16 10 15 11 6 12
REMARK SMILES IDX 7 13 8 14 14 15 10 16 12 17 9 18 11 20 13 22 4 24 22 26
REMARK SMILES IDX 19 28
REMARK H PARENT 9 19 11 21 13 23 4 25 22 27 19 29
REMARK Flexibility Score: inf
ROOT
ATOM      1  C   UNL     1      36.124  -5.918  52.345  1.00  0.00     0.180 A 
ATOM      2  C   UNL     1      36.490  -5.404  53.600  1.00  0.00     0.208 A 
ATOM      3  C   UNL     1      36.744  -6.296  54.655  1.00  0.00     0.238 A 
ATOM      4  O   UNL     1      37.124  -5.832  55.761  1.00  0.00    -0.285 OA
ATOM      5  C   UNL     1      36.610  -7.690  54.444  1.00  0.00     0.111 A 
ATOM      6  C   UNL     1      36.803  -8.683  55.452  1.00  0.00     0.134 A 
ATOM      7  C   UNL     1      36.775 -10.038  55.099  1.00  0.00     0.093 A 
ATOM      8  C   UNL     1      36.494 -10.436  53.790  1.00  0.00     0.123 A 
ATOM      9  C   UNL     1      36.246  -9.476  52.813  1.00  0.00     0.094 A 
ATOM     10  C   UNL     1      36.304  -8.115  53.125  1.00  0.00     0.146 A 
ATOM     11  O   UNL     1      36.071  -7.233  52.162  1.00  0.00    -0.452 OA
ENDROOT
BRANCH   1  12
ATOM     12  C   UNL     1      35.817  -5.040  51.193  1.00  0.00     0.029 A 
ATOM     13  C   UNL     1      36.619  -5.040  50.038  1.00  0.00     0.062 A 
ATOM     14  C   UNL     1      36.324  -4.185  48.968  1.00  0.00     0.162 A 
ATOM     15  C   UNL     1      34.737  -4.148  51.274  1.00  0.00     0.062 A 
ATOM     16  C   UNL     1      35.227  -3.311  49.049  1.00  0.00     0.200 A 
ATOM     17  C   UNL     1      34.435  -3.293  50.209  1.00  0.00     0.162 A 
BRANCH  14  18
ATOM     18  O   UNL     1      37.124  -4.197  47.825  1.00  0.00    -0.504 OA
ATOM     19  H   UNL     1      36.738  -4.029  46.904  1.00  0.00     0.293 HD
ENDBRANCH  14  18
BRANCH  16  20
ATOM     20  O   UNL     1      34.917  -2.456  47.989  1.00  0.00    -0.502 OA
ATOM     21  H   UNL     1      34.030  -2.500  47.502  1.00  0.00     0.293 HD
ENDBRANCH  16  20
BRANCH  17  22
ATOM     22  O   UNL     1      33.343  -2.432  50.323  1.00  0.00    -0.504 OA
ATOM     23  H   UNL     1      32.758  -2.409  51.148  1.00  0.00     0.293 HD
ENDBRANCH  17  22
ENDBRANCH   1  12
BRANCH   2  24
ATOM     24  O   UNL     1      36.636  -4.025  53.780  1.00  0.00    -0.502 OA
ATOM     25  H   UNL     1      36.204  -3.528  54.549  1.00  0.00     0.293 HD
ENDBRANCH   2  24
BRANCH   6  26
ATOM     26  O   UNL     1      36.998  -8.395  56.805  1.00  0.00    -0.507 OA
ATOM     27  H   UNL     1      37.724  -8.797  57.379  1.00  0.00     0.293 HD
ENDBRANCH   6  26
BRANCH   8  28
ATOM     28  O   UNL     1      36.452 -11.788  53.452  1.00  0.00    -0.508 OA
ATOM     29  H   UNL     1      36.264 -12.092  52.505  1.00  0.00     0.293 HD
ENDBRANCH   8  28
TORSDOF 7
ENDMDL
MODEL 2
REMARK VINA RESULT:    -5.291      0.132      1.759
REMARK INTER + INTRA:          -6.700
REMARK INTER:                  -6.508
REMARK INTRA:                  -0.192
REMARK UNBOUND:                -0.171
REMARK SMILES O=c1c(O)c(-c2cc(O)c(O)c(O)c2)oc2cc(O)cc(O)c12
REMARK SMILES IDX 5 1 3 2 2 3 1 4 23 5 21 6 20 7 18 8 17 9 16 10 15 11 6 12
REMARK SMILES IDX 7 13 8 14 14 15 10 16 12 17 9 18 11 20 13 22 4 24 22 26
REMARK SMILES IDX 19 28
REMARK H PARENT 9 19 11 21 13 23 4 25 22 27 19 29
REMARK Flexibility Score: inf
ROOT
ATOM      1  C   UNL     1      36.161  -5.933  52.464  1.00  0.00     0.180 A 
ATOM      2  C   UNL     1      36.504  -5.433  53.731  1.00  0.00     0.208 A 
ATOM      3  C   UNL     1      36.764  -6.337  54.774  1.00  0.00     0.238 A 
ATOM      4  O   UNL     1      37.123  -5.884  55.891  1.00  0.00    -0.285 OA
ATOM      5  C   UNL     1      36.661  -7.729  54.539  1.00  0.00     0.111 A 
ATOM      6  C   UNL     1      36.863  -8.735  55.532  1.00  0.00     0.134 A 
ATOM      7  C   UNL     1      36.865 -10.084  55.157  1.00  0.00     0.093 A 
ATOM      8  C   UNL     1      36.606 -10.466  53.838  1.00  0.00     0.123 A 
ATOM      9  C   UNL     1      36.349  -9.495  52.875  1.00  0.00     0.094 A 
ATOM     10  C   UNL     1      36.377  -8.138  53.210  1.00  0.00     0.146 A 
ATOM     11  O   UNL     1      36.137  -7.245  52.259  1.00  0.00    -0.452 OA
ENDROOT
BRANCH   1  12
ATOM     12  C   UNL     1      35.849  -5.042  51.323  1.00  0.00     0.029 A 
ATOM     13  C   UNL     1      34.763  -4.150  51.367  1.00  0.00     0.062 A 
ATOM     14  C   UNL     1      34.469  -3.331  50.269  1.00  0.00     0.162 A 
ATOM     15  C   UNL     1      36.615  -5.127  50.151  1.00  0.00     0.062 A 
ATOM     16  C   UNL     1      35.256  -3.407  49.107  1.00  0.00     0.200 A 
ATOM     17  C   UNL     1      36.330  -4.311  49.051  1.00  0.00     0.162 A 
BRANCH  14  18
ATOM     18  O   UNL     1      33.393  -2.446  50.326  1.00  0.00    -0.504 OA
ATOM     19  H   UNL     1      32.961  -2.080  49.487  1.00  0.00     0.293 HD
ENDBRANCH  14  18
BRANCH  16  20
ATOM     20  O   UNL     1      34.980  -2.594  48.006  1.00  0.00    -0.502 OA
ATOM     21  H   UNL     1      35.668  -1.960  47.616  1.00  0.00     0.293 HD
ENDBRANCH  16  20
BRANCH  17  22
ATOM     22  O   UNL     1      37.125  -4.415  47.909  1.00  0.00    -0.504 OA
ATOM     23  H   UNL     1      37.973  -4.967  47.891  1.00  0.00     0.293 HD
ENDBRANCH  17  22
ENDBRANCH   1  12
BRANCH   2  24
ATOM     24  O   UNL     1      36.620  -4.054  53.935  1.00  0.00    -0.502 OA
ATOM     25  H   UNL     1      37.453  -3.631  54.325  1.00  0.00     0.293 HD
ENDBRANCH   2  24
BRANCH   6  26
ATOM     26  O   UNL     1      37.037  -8.466  56.892  1.00  0.00    -0.507 OA
ATOM     27  H   UNL     1      36.299  -8.186  57.521  1.00  0.00     0.293 HD
ENDBRANCH   6  26
BRANCH   8  28
ATOM     28  O   UNL     1      36.595 -11.812  53.478  1.00  0.00    -0.508 OA
ATOM     29  H   UNL     1      37.446 -12.359  53.445  1.00  0.00     0.293 HD
ENDBRANCH   8  28
TORSDOF 7
ENDMDL
MODEL 3
REMARK VINA RESULT:    -4.210      3.637      8.579
REMARK INTER + INTRA:          -5.366
REMARK INTER:                  -5.073
REMARK INTRA:                  -0.293
REMARK UNBOUND:                -0.171
REMARK SMILES O=c1c(O)c(-c2cc(O)c(O)c(O)c2)oc2cc(O)cc(O)c12
REMARK SMILES IDX 5 1 3 2 2 3 1 4 23 5 21 6 20 7 18 8 17 9 16 10 15 11 6 12
REMARK SMILES IDX 7 13 8 14 14 15 10 16 12 17 9 18 11 20 13 22 4 24 22 26
REMARK SMILES IDX 19 28
REMARK H PARENT 9 19 11 21 13 23 4 25 22 27 19 29
REMARK Flexibility Score: inf
ROOT
ATOM      1  C   UNL     1      35.418  -3.755  47.455  1.00  0.00     0.180 A 
ATOM      2  C   UNL     1      35.027  -2.494  46.975  1.00  0.00     0.208 A 
ATOM      3  C   UNL     1      35.129  -2.224  45.601  1.00  0.00     0.238 A 
ATOM      4  O   UNL     1      34.725  -1.113  45.171  1.00  0.00    -0.285 OA
ATOM      5  C   UNL     1      35.638  -3.214  44.726  1.00  0.00     0.111 A 
ATOM      6  C   UNL     1      35.823  -3.036  43.322  1.00  0.00     0.134 A 
ATOM      7  C   UNL     1      36.210  -4.127  42.533  1.00  0.00     0.093 A 
ATOM      8  C   UNL     1      36.482  -5.371  43.108  1.00  0.00     0.123 A 
ATOM      9  C   UNL     1      36.361  -5.538  44.485  1.00  0.00     0.094 A 
ATOM     10  C   UNL     1      35.942  -4.479  45.294  1.00  0.00     0.146 A 
ATOM     11  O   UNL     1      35.830  -4.684  46.600  1.00  0.00    -0.452 OA
ENDROOT
BRANCH   1  12
ATOM     12  C   UNL     1      35.364  -4.103  48.893  1.00  0.00     0.029 A 
ATOM     13  C   UNL     1      36.274  -3.556  49.814  1.00  0.00     0.062 A 
ATOM     14  C   UNL     1      36.220  -3.916  51.167  1.00  0.00     0.162 A 
ATOM     15  C   UNL     1      34.422  -5.042  49.340  1.00  0.00     0.062 A 
ATOM     16  C   UNL     1      35.259  -4.840  51.610  1.00  0.00     0.200 A 
ATOM     17  C   UNL     1      34.360  -5.405  50.689  1.00  0.00     0.162 A 
BRANCH  14  18
ATOM     18  O   UNL     1      37.125  -3.362  52.072  1.00  0.00    -0.504 OA
ATOM     19  H   UNL     1      37.588  -2.480  51.888  1.00  0.00     0.293 HD
ENDBRANCH  14  18
BRANCH  16  20
ATOM     20  O   UNL     1      35.189  -5.205  52.956  1.00  0.00    -0.502 OA
ATOM     21  H   UNL     1      35.935  -5.711  53.417  1.00  0.00     0.293 HD
ENDBRANCH  16  20
BRANCH  17  22
ATOM     22  O   UNL     1      33.399  -6.331  51.097  1.00  0.00    -0.504 OA
ATOM     23  H   UNL     1      33.125  -7.114  50.517  1.00  0.00     0.293 HD
ENDBRANCH  17  22
ENDBRANCH   1  12
BRANCH   2  24
ATOM     24  O   UNL     1      34.507  -1.538  47.854  1.00  0.00    -0.502 OA
ATOM     25  H   UNL     1      34.177  -0.633  47.541  1.00  0.00     0.293 HD
ENDBRANCH   2  24
BRANCH   6  26
ATOM     26  O   UNL     1      35.668  -1.814  42.662  1.00  0.00    -0.507 OA
ATOM     27  H   UNL     1      34.924  -1.156  42.841  1.00  0.00     0.293 HD
ENDBRANCH   6  26
BRANCH   8  28
ATOM     28  O   UNL     1      36.881  -6.447  42.317  1.00  0.00    -0.508 OA
ATOM     29  H   UNL     1      36.710  -6.463  41.319  1.00  0.00     0.293 HD
ENDBRANCH   8  28
TORSDOF 7
ENDMDL
MODEL 4
REMARK VINA RESULT:    -3.934      3.559      8.691
REMARK INTER + INTRA:          -5.025
REMARK INTER:                  -4.781
REMARK INTRA:                  -0.244
REMARK UNBOUND:                -0.171
REMARK SMILES O=c1c(O)c(-c2cc(O)c(O)c(O)c2)oc2cc(O)cc(O)c12
REMARK SMILES IDX 5 1 3 2 2 3 1 4 23 5 21 6 20 7 18 8 17 9 16 10 15 11 6 12
REMARK SMILES IDX 7 13 8 14 14 15 10 16 12 17 9 18 11 20 13 22 4 24 22 26
REMARK SMILES IDX 19 28
REMARK H PARENT 9 19 11 21 13 23 4 25 22 27 19 29
REMARK Flexibility Score: inf
ROOT
ATOM      1  C   UNL     1      35.354  -3.635  47.537  1.00  0.00     0.180 A 
ATOM      2  C   UNL     1      34.884  -2.365  47.161  1.00  0.00     0.208 A 
ATOM      3  C   UNL     1      34.937  -1.991  45.809  1.00  0.00     0.238 A 
ATOM      4  O   UNL     1      34.464  -0.875  45.472  1.00  0.00    -0.285 OA
ATOM      5  C   UNL     1      35.475  -2.885  44.852  1.00  0.00     0.111 A 
ATOM      6  C   UNL     1      35.614  -2.595  43.461  1.00  0.00     0.134 A 
ATOM      7  C   UNL     1      36.038  -3.603  42.586  1.00  0.00     0.093 A 
ATOM      8  C   UNL     1      36.390  -4.868  43.060  1.00  0.00     0.123 A 
ATOM      9  C   UNL     1      36.314  -5.142  44.423  1.00  0.00     0.094 A 
ATOM     10  C   UNL     1      35.860  -4.170  45.317  1.00  0.00     0.146 A 
ATOM     11  O   UNL     1      35.793  -4.476  46.607  1.00  0.00    -0.452 OA
ENDROOT
BRANCH   1  12
ATOM     12  C   UNL     1      35.355  -4.090  48.946  1.00  0.00     0.029 A 
ATOM     13  C   UNL     1      34.463  -5.079  49.396  1.00  0.00     0.062 A 
ATOM     14  C   UNL     1      34.464  -5.480  50.739  1.00  0.00     0.162 A 
ATOM     15  C   UNL     1      36.224  -3.485  49.866  1.00  0.00     0.062 A 
ATOM     16  C   UNL     1      35.353  -4.884  51.649  1.00  0.00     0.200 A 
ATOM     17  C   UNL     1      36.232  -3.881  51.207  1.00  0.00     0.162 A 
BRANCH  14  18
ATOM     18  O   UNL     1      33.578  -6.466  51.173  1.00  0.00    -0.504 OA
ATOM     19  H   UNL     1      32.583  -6.402  50.994  1.00  0.00     0.293 HD
ENDBRANCH  14  18
BRANCH  16  20
ATOM     20  O   UNL     1      35.370  -5.276  52.989  1.00  0.00    -0.502 OA
ATOM     21  H   UNL     1      36.189  -5.161  53.574  1.00  0.00     0.293 HD
ENDBRANCH  16  20
BRANCH  17  22
ATOM     22  O   UNL     1      37.122  -3.265  52.088  1.00  0.00    -0.504 OA
ATOM     23  H   UNL     1      37.813  -3.788  52.611  1.00  0.00     0.293 HD
ENDBRANCH  17  22
ENDBRANCH   1  12
BRANCH   2  24
ATOM     24  O   UNL     1      34.337  -1.506  48.119  1.00  0.00    -0.502 OA
ATOM     25  H   UNL     1      33.472  -1.004  47.969  1.00  0.00     0.293 HD
ENDBRANCH   2  24
BRANCH   6  26
ATOM     26  O   UNL     1      35.378  -1.338  42.898  1.00  0.00    -0.507 OA
ATOM     27  H   UNL     1      35.102  -0.519  43.418  1.00  0.00     0.293 HD
ENDBRANCH   6  26
BRANCH   8  28
ATOM     28  O   UNL     1      36.825  -5.860  42.183  1.00  0.00    -0.508 OA
ATOM     29  H   UNL     1      37.584  -6.486  42.424  1.00  0.00     0.293 HD
ENDBRANCH   8  28
TORSDOF 7
ENDMDL
MODEL 5
REMARK VINA RESULT:    -3.498      3.306      6.184
REMARK INTER + INTRA:          -4.487
REMARK INTER:                  -4.747
REMARK INTRA:                   0.259
REMARK UNBOUND:                -0.171
REMARK SMILES O=c1c(O)c(-c2cc(O)c(O)c(O)c2)oc2cc(O)cc(O)c12
REMARK SMILES IDX 5 1 3 2 2 3 1 4 23 5 21 6 20 7 18 8 17 9 16 10 15 11 6 12
REMARK SMILES IDX 7 13 8 14 14 15 10 16 12 17 9 18 11 20 13 22 4 24 22 26
REMARK SMILES IDX 19 28
REMARK H PARENT 9 19 11 21 13 23 4 25 22 27 19 29
REMARK Flexibility Score: inf
ROOT
ATOM      1  C   UNL     1      36.228  -4.528  55.185  1.00  0.00     0.180 A 
ATOM      2  C   UNL     1      36.189  -3.852  53.953  1.00  0.00     0.208 A 
ATOM      3  C   UNL     1      36.402  -4.578  52.770  1.00  0.00     0.238 A 
ATOM      4  O   UNL     1      36.312  -3.978  51.668  1.00  0.00    -0.285 OA
ATOM      5  C   UNL     1      36.668  -5.967  52.835  1.00  0.00     0.111 A 
ATOM      6  C   UNL     1      36.939  -6.794  51.703  1.00  0.00     0.134 A 
ATOM      7  C   UNL     1      37.059  -8.179  51.873  1.00  0.00     0.093 A 
ATOM      8  C   UNL     1      36.984  -8.758  53.142  1.00  0.00     0.123 A 
ATOM      9  C   UNL     1      36.779  -7.953  54.259  1.00  0.00     0.094 A 
ATOM     10  C   UNL     1      36.619  -6.572  54.118  1.00  0.00     0.146 A 
ATOM     11  O   UNL     1      36.415  -5.843  55.208  1.00  0.00    -0.452 OA
ENDROOT
BRANCH   1  12
ATOM     12  C   UNL     1      36.038  -3.826  56.474  1.00  0.00     0.029 A 
ATOM     13  C   UNL     1      36.677  -4.265  57.647  1.00  0.00     0.062 A 
ATOM     14  C   UNL     1      36.467  -3.601  58.863  1.00  0.00     0.162 A 
ATOM     15  C   UNL     1      35.158  -2.735  56.544  1.00  0.00     0.062 A 
ATOM     16  C   UNL     1      35.601  -2.496  58.919  1.00  0.00     0.200 A 
ATOM     17  C   UNL     1      34.945  -2.066  57.753  1.00  0.00     0.162 A 
BRANCH  14  18
ATOM     18  O   UNL     1      37.111  -4.042  60.019  1.00  0.00    -0.504 OA
ATOM     19  H   UNL     1      36.963  -3.593  60.914  1.00  0.00     0.293 HD
ENDBRANCH  14  18
BRANCH  16  20
ATOM     20  O   UNL     1      35.385  -1.820  60.122  1.00  0.00    -0.502 OA
ATOM     21  H   UNL     1      34.706  -2.136  60.803  1.00  0.00     0.293 HD
ENDBRANCH  16  20
BRANCH  17  22
ATOM     22  O   UNL     1      34.074  -0.976  57.778  1.00  0.00    -0.504 OA
ATOM     23  H   UNL     1      33.690  -0.574  56.932  1.00  0.00     0.293 HD
ENDBRANCH  17  22
ENDBRANCH   1  12
BRANCH   2  24
ATOM     24  O   UNL     1      35.903  -2.484  53.910  1.00  0.00    -0.502 OA
ATOM     25  H   UNL     1      35.117  -2.109  53.394  1.00  0.00     0.293 HD
ENDBRANCH   2  24
BRANCH   6  26
ATOM     26  O   UNL     1      37.125  -6.306  50.407  1.00  0.00    -0.507 OA
ATOM     27  H   UNL     1      37.223  -6.883  49.585  1.00  0.00     0.293 HD
ENDBRANCH   6  26
BRANCH   8  28
ATOM     28  O   UNL     1      37.119 -10.136  53.303  1.00  0.00    -0.508 OA
ATOM     29  H   UNL     1      38.002 -10.604  53.139  1.00  0.00     0.293 HD
ENDBRANCH   8  28
TORSDOF 7
ENDMDL
MODEL 6
REMARK VINA RESULT:    -3.494      3.067      4.889
REMARK INTER + INTRA:          -4.482
REMARK INTER:                  -4.294
REMARK INTRA:                  -0.189
REMARK UNBOUND:                -0.171
REMARK SMILES O=c1c(O)c(-c2cc(O)c(O)c(O)c2)oc2cc(O)cc(O)c12
REMARK SMILES IDX 5 1 3 2 2 3 1 4 23 5 21 6 20 7 18 8 17 9 16 10 15 11 6 12
REMARK SMILES IDX 7 13 8 14 14 15 10 16 12 17 9 18 11 20 13 22 4 24 22 26
REMARK SMILES IDX 19 28
REMARK H PARENT 9 19 11 21 13 23 4 25 22 27 19 29
REMARK Flexibility Score: inf
ROOT
ATOM      1  C   UNL     1      36.017  -4.450  54.088  1.00  0.00     0.180 A 
ATOM      2  C   UNL     1      36.533  -5.575  54.752  1.00  0.00     0.208 A 
ATOM      3  C   UNL     1      36.681  -5.536  56.148  1.00  0.00     0.238 A 
ATOM      4  O   UNL     1      37.093  -6.566  56.742  1.00  0.00    -0.285 OA
ATOM      5  C   UNL     1      36.328  -4.364  56.859  1.00  0.00     0.111 A 
ATOM      6  C   UNL     1      36.474  -4.198  58.270  1.00  0.00     0.134 A 
ATOM      7  C   UNL     1      35.968  -3.046  58.885  1.00  0.00     0.093 A 
ATOM      8  C   UNL     1      35.383  -2.025  58.132  1.00  0.00     0.123 A 
ATOM      9  C   UNL     1      35.289  -2.152  56.749  1.00  0.00     0.094 A 
ATOM     10  C   UNL     1      35.751  -3.306  56.110  1.00  0.00     0.146 A 
ATOM     11  O   UNL     1      35.633  -3.390  54.791  1.00  0.00    -0.452 OA
ENDROOT
BRANCH   1  12
ATOM     12  C   UNL     1      35.856  -4.408  52.617  1.00  0.00     0.029 A 
ATOM     13  C   UNL     1      36.580  -3.498  51.827  1.00  0.00     0.062 A 
ATOM     14  C   UNL     1      36.397  -3.458  50.438  1.00  0.00     0.162 A 
ATOM     15  C   UNL     1      34.921  -5.253  52.001  1.00  0.00     0.062 A 
ATOM     16  C   UNL     1      35.474  -4.324  49.827  1.00  0.00     0.200 A 
ATOM     17  C   UNL     1      34.733  -5.221  50.615  1.00  0.00     0.162 A 
BRANCH  14  18
ATOM     18  O   UNL     1      37.125  -2.555  49.664  1.00  0.00    -0.504 OA
ATOM     19  H   UNL     1      37.866  -1.991  50.062  1.00  0.00     0.293 HD
ENDBRANCH  14  18
BRANCH  16  20
ATOM     20  O   UNL     1      35.283  -4.300  48.444  1.00  0.00    -0.502 OA
ATOM     21  H   UNL     1      35.783  -3.657  47.841  1.00  0.00     0.293 HD
ENDBRANCH  16  20
BRANCH  17  22
ATOM     22  O   UNL     1      33.804  -6.088  50.039  1.00  0.00    -0.504 OA
ATOM     23  H   UNL     1      33.641  -6.117  49.040  1.00  0.00     0.293 HD
ENDBRANCH  17  22
ENDBRANCH   1  12
BRANCH   2  24
ATOM     24  O   UNL     1      36.857  -6.730  54.032  1.00  0.00    -0.502 OA
ATOM     25  H   UNL     1      36.634  -7.659  54.366  1.00  0.00     0.293 HD
ENDBRANCH   2  24
BRANCH   6  26
ATOM     26  O   UNL     1      37.125  -5.114  59.101  1.00  0.00    -0.507 OA
ATOM     27  H   UNL     1      36.675  -5.889  59.565  1.00  0.00     0.293 HD
ENDBRANCH   6  26
BRANCH   8  28
ATOM     28  O   UNL     1      34.897  -0.875  58.752  1.00  0.00    -0.508 OA
ATOM     29  H   UNL     1      34.493  -0.903  59.680  1.00  0.00     0.293 HD
ENDBRANCH   8  28
TORSDOF 7
ENDMDL
MODEL 7
REMARK VINA RESULT:    -2.944      2.547      4.619
REMARK INTER + INTRA:          -3.804
REMARK INTER:                  -3.685
REMARK INTRA:                  -0.119
REMARK UNBOUND:                -0.171
REMARK SMILES O=c1c(O)c(-c2cc(O)c(O)c(O)c2)oc2cc(O)cc(O)c12
REMARK SMILES IDX 5 1 3 2 2 3 1 4 23 5 21 6 20 7 18 8 17 9 16 10 15 11 6 12
REMARK SMILES IDX 7 13 8 14 14 15 10 16 12 17 9 18 11 20 13 22 4 24 22 26
REMARK SMILES IDX 19 28
REMARK H PARENT 9 19 11 21 13 23 4 25 22 27 19 29
REMARK Flexibility Score: inf
ROOT
ATOM      1  C   UNL     1      35.920  -4.333  52.867  1.00  0.00     0.180 A 
ATOM      2  C   UNL     1      36.342  -5.534  53.463  1.00  0.00     0.208 A 
ATOM      3  C   UNL     1      36.537  -5.574  54.853  1.00  0.00     0.238 A 
ATOM      4  O   UNL     1      36.862  -6.667  55.386  1.00  0.00    -0.285 OA
ATOM      5  C   UNL     1      36.326  -4.408  55.627  1.00  0.00     0.111 A 
ATOM      6  C   UNL     1      36.533  -4.324  57.037  1.00  0.00     0.134 A 
ATOM      7  C   UNL     1      36.166  -3.157  57.719  1.00  0.00     0.093 A 
ATOM      8  C   UNL     1      35.663  -2.049  57.033  1.00  0.00     0.123 A 
ATOM      9  C   UNL     1      35.513  -2.101  55.650  1.00  0.00     0.094 A 
ATOM     10  C   UNL     1      35.836  -3.264  54.945  1.00  0.00     0.146 A 
ATOM     11  O   UNL     1      35.668  -3.275  53.629  1.00  0.00    -0.452 OA
ENDROOT
BRANCH   1  12
ATOM     12  C   UNL     1      35.717  -4.206  51.406  1.00  0.00     0.029 A 
ATOM     13  C   UNL     1      34.807  -5.029  50.720  1.00  0.00     0.062 A 
ATOM     14  C   UNL     1      34.646  -4.909  49.333  1.00  0.00     0.162 A 
ATOM     15  C   UNL     1      36.488  -3.287  50.679  1.00  0.00     0.062 A 
ATOM     16  C   UNL     1      35.407  -3.970  48.616  1.00  0.00     0.200 A 
ATOM     17  C   UNL     1      36.332  -3.160  49.296  1.00  0.00     0.162 A 
BRANCH  14  18
ATOM     18  O   UNL     1      33.736  -5.727  48.663  1.00  0.00    -0.504 OA
ATOM     19  H   UNL     1      32.760  -5.768  48.932  1.00  0.00     0.293 HD
ENDBRANCH  14  18
BRANCH  16  20
ATOM     20  O   UNL     1      35.254  -3.834  47.235  1.00  0.00    -0.502 OA
ATOM     21  H   UNL     1      34.935  -2.972  46.809  1.00  0.00     0.293 HD
ENDBRANCH  16  20
BRANCH  17  22
ATOM     22  O   UNL     1      37.107  -2.223  48.611  1.00  0.00    -0.504 OA
ATOM     23  H   UNL     1      36.859  -1.888  47.689  1.00  0.00     0.293 HD
ENDBRANCH  17  22
ENDBRANCH   1  12
BRANCH   2  24
ATOM     24  O   UNL     1      36.524  -6.680  52.682  1.00  0.00    -0.502 OA
ATOM     25  H   UNL     1      37.002  -7.503  53.027  1.00  0.00     0.293 HD
ENDBRANCH   2  24
BRANCH   6  26
ATOM     26  O   UNL     1      37.115  -5.337  57.803  1.00  0.00    -0.507 OA
ATOM     27  H   UNL     1      38.068  -5.655  57.706  1.00  0.00     0.293 HD
ENDBRANCH   6  26
BRANCH   8  28
ATOM     28  O   UNL     1      35.315  -0.887  57.719  1.00  0.00    -0.508 OA
ATOM     29  H   UNL     1      34.483  -0.360  57.483  1.00  0.00     0.293 HD
ENDBRANCH   8  28
TORSDOF 7
ENDMDL
MODEL 8
REMARK VINA RESULT:    -2.656      2.058      7.594
REMARK INTER + INTRA:          -3.449
REMARK INTER:                  -3.770
REMARK INTRA:                   0.321
REMARK UNBOUND:                -0.171
REMARK SMILES O=c1c(O)c(-c2cc(O)c(O)c(O)c2)oc2cc(O)cc(O)c12
REMARK SMILES IDX 5 1 3 2 2 3 1 4 23 5 21 6 20 7 18 8 17 9 16 10 15 11 6 12
REMARK SMILES IDX 7 13 8 14 14 15 10 16 12 17 9 18 11 20 13 22 4 24 22 26
REMARK SMILES IDX 19 28
REMARK H PARENT 9 19 11 21 13 23 4 25 22 27 19 29
REMARK Flexibility Score: inf
ROOT
ATOM      1  C   UNL     1      35.587  -4.080  49.965  1.00  0.00     0.180 A 
ATOM      2  C   UNL     1      34.633  -3.048  49.962  1.00  0.00     0.208 A 
ATOM      3  C   UNL     1      34.377  -2.358  48.766  1.00  0.00     0.238 A 
ATOM      4  O   UNL     1      33.484  -1.473  48.758  1.00  0.00    -0.285 OA
ATOM      5  C   UNL     1      35.092  -2.698  47.592  1.00  0.00     0.111 A 
ATOM      6  C   UNL     1      34.943  -2.039  46.334  1.00  0.00     0.134 A 
ATOM      7  C   UNL     1      35.604  -2.544  45.208  1.00  0.00     0.093 A 
ATOM      8  C   UNL     1      36.459  -3.644  45.308  1.00  0.00     0.123 A 
ATOM      9  C   UNL     1      36.657  -4.257  46.542  1.00  0.00     0.094 A 
ATOM     10  C   UNL     1      35.983  -3.799  47.677  1.00  0.00     0.146 A 
ATOM     11  O   UNL     1      36.192  -4.419  48.832  1.00  0.00    -0.452 OA
ENDROOT
BRANCH   1  12
ATOM     12  C   UNL     1      35.928  -4.835  51.191  1.00  0.00     0.029 A 
ATOM     13  C   UNL     1      36.366  -6.170  51.132  1.00  0.00     0.062 A 
ATOM     14  C   UNL     1      36.663  -6.874  52.306  1.00  0.00     0.162 A 
ATOM     15  C   UNL     1      35.759  -4.228  52.445  1.00  0.00     0.062 A 
ATOM     16  C   UNL     1      36.512  -6.250  53.556  1.00  0.00     0.200 A 
ATOM     17  C   UNL     1      36.055  -4.923  53.621  1.00  0.00     0.162 A 
BRANCH  14  18
ATOM     18  O   UNL     1      37.102  -8.196  52.234  1.00  0.00    -0.504 OA
ATOM     19  H   UNL     1      38.069  -8.425  52.041  1.00  0.00     0.293 HD
ENDBRANCH  14  18
BRANCH  16  20
ATOM     20  O   UNL     1      36.808  -6.937  54.735  1.00  0.00    -0.502 OA
ATOM     21  H   UNL     1      36.869  -7.948  54.771  1.00  0.00     0.293 HD
ENDBRANCH  16  20
BRANCH  17  22
ATOM     22  O   UNL     1      35.888  -4.279  54.848  1.00  0.00    -0.504 OA
ATOM     23  H   UNL     1      35.869  -3.270  54.929  1.00  0.00     0.293 HD
ENDBRANCH  17  22
ENDBRANCH   1  12
BRANCH   2  24
ATOM     24  O   UNL     1      33.924  -2.744  51.128  1.00  0.00    -0.502 OA
ATOM     25  H   UNL     1      34.295  -2.135  51.847  1.00  0.00     0.293 HD
ENDBRANCH   2  24
BRANCH   6  26
ATOM     26  O   UNL     1      34.186  -0.879  46.145  1.00  0.00    -0.507 OA
ATOM     27  H   UNL     1      33.242  -0.861  45.789  1.00  0.00     0.293 HD
ENDBRANCH   6  26
BRANCH   8  28
ATOM     28  O   UNL     1      37.125  -4.130  44.184  1.00  0.00    -0.508 OA
ATOM     29  H   UNL     1      36.983  -3.724  43.267  1.00  0.00     0.293 HD
ENDBRANCH   8  28
TORSDOF 7
ENDMDL
MODEL 9
REMARK VINA RESULT:    -2.564      2.444      4.522
REMARK INTER + INTRA:          -3.335
REMARK INTER:                  -3.607
REMARK INTRA:                   0.272
REMARK UNBOUND:                -0.171
REMARK SMILES O=c1c(O)c(-c2cc(O)c(O)c(O)c2)oc2cc(O)cc(O)c12
REMARK SMILES IDX 5 1 3 2 2 3 1 4 23 5 21 6 20 7 18 8 17 9 16 10 15 11 6 12
REMARK SMILES IDX 7 13 8 14 14 15 10 16 12 17 9 18 11 20 13 22 4 24 22 26
REMARK SMILES IDX 19 28
REMARK H PARENT 9 19 11 21 13 23 4 25 22 27 19 29
REMARK Flexibility Score: inf
ROOT
ATOM      1  C   UNL     1      36.128  -4.173  51.389  1.00  0.00     0.180 A 
ATOM      2  C   UNL     1      36.364  -5.504  51.774  1.00  0.00     0.208 A 
ATOM      3  C   UNL     1      36.541  -5.799  53.135  1.00  0.00     0.238 A 
ATOM      4  O   UNL     1      36.697  -7.000  53.478  1.00  0.00    -0.285 OA
ATOM      5  C   UNL     1      36.498  -4.757  54.092  1.00  0.00     0.111 A 
ATOM      6  C   UNL     1      36.704  -4.936  55.494  1.00  0.00     0.134 A 
ATOM      7  C   UNL     1      36.508  -3.856  56.363  1.00  0.00     0.093 A 
ATOM      8  C   UNL     1      36.178  -2.589  55.875  1.00  0.00     0.123 A 
ATOM      9  C   UNL     1      36.032  -2.391  54.505  1.00  0.00     0.094 A 
ATOM     10  C   UNL     1      36.186  -3.458  53.615  1.00  0.00     0.146 A 
ATOM     11  O   UNL     1      36.028  -3.228  52.317  1.00  0.00    -0.452 OA
ENDROOT
BRANCH   1  12
ATOM     12  C   UNL     1      35.957  -3.781  49.972  1.00  0.00     0.029 A 
ATOM     13  C   UNL     1      35.111  -2.720  49.603  1.00  0.00     0.062 A 
ATOM     14  C   UNL     1      34.944  -2.379  48.254  1.00  0.00     0.162 A 
ATOM     15  C   UNL     1      36.607  -4.516  48.969  1.00  0.00     0.062 A 
ATOM     16  C   UNL     1      35.617  -3.107  47.258  1.00  0.00     0.200 A 
ATOM     17  C   UNL     1      36.448  -4.180  47.621  1.00  0.00     0.162 A 
BRANCH  14  18
ATOM     18  O   UNL     1      34.107  -1.321  47.901  1.00  0.00    -0.504 OA
ATOM     19  H   UNL     1      33.577  -0.808  48.595  1.00  0.00     0.293 HD
ENDBRANCH  14  18
BRANCH  16  20
ATOM     20  O   UNL     1      35.466  -2.776  45.910  1.00  0.00    -0.502 OA
ATOM     21  H   UNL     1      35.696  -1.857  45.550  1.00  0.00     0.293 HD
ENDBRANCH  16  20
BRANCH  17  22
ATOM     22  O   UNL     1      37.123  -4.926  46.654  1.00  0.00    -0.504 OA
ATOM     23  H   UNL     1      36.680  -5.220  45.793  1.00  0.00     0.293 HD
ENDBRANCH  17  22
ENDBRANCH   1  12
BRANCH   2  24
ATOM     24  O   UNL     1      36.381  -6.520  50.814  1.00  0.00    -0.502 OA
ATOM     25  H   UNL     1      36.443  -7.500  51.061  1.00  0.00     0.293 HD
ENDBRANCH   2  24
BRANCH   6  26
ATOM     26  O   UNL     1      37.125  -6.135  56.075  1.00  0.00    -0.507 OA
ATOM     27  H   UNL     1      38.064  -6.321  56.392  1.00  0.00     0.293 HD
ENDBRANCH   6  26
BRANCH   8  28
ATOM     28  O   UNL     1      36.000  -1.516  56.747  1.00  0.00    -0.508 OA
ATOM     29  H   UNL     1      35.272  -1.521  57.453  1.00  0.00     0.293 HD
ENDBRANCH   8  28
TORSDOF 7
ENDMDL
