MODEL 1
REMARK VINA RESULT:    -4.081      0.000      0.000
REMARK INTER + INTRA:          -6.024
REMARK INTER:                  -5.512
REMARK INTRA:                  -0.511
REMARK UNBOUND:                -0.511
REMARK SMILES [NH3+]CCCC[C@H]([NH3+])C(=O)[O-]
REMARK SMILES IDX 4 1 3 2 2 3 1 4 5 8 6 9 7 10 8 14 9 15 10 16
REMARK H PARENT 1 5 1 6 1 7 7 11 7 12 7 13
REMARK Flexibility Score: inf
ROOT
ATOM      1  C   UNL     1     156.172 166.176 167.400  1.00  0.00     0.012 C 
ENDROOT
BRANCH   1   2
ATOM      2  C   UNL     1     156.221 164.774 166.781  1.00  0.00     0.061 C 
BRANCH   2   3
ATOM      3  C   UNL     1     157.106 164.755 165.526  1.00  0.00     0.258 C 
BRANCH   3   4
ATOM      4  N   UNL     1     158.373 164.075 165.791  1.00  0.00    -0.358 N 
ATOM      5  H   UNL     1     158.332 163.109 165.394  1.00  0.00     0.344 HD
ATOM      6  H   UNL     1     159.160 164.593 165.339  1.00  0.00     0.344 HD
ATOM      7  H   UNL     1     158.537 164.010 166.822  1.00  0.00     0.344 HD
ENDBRANCH   3   4
ENDBRANCH   2   3
ENDBRANCH   1   2
BRANCH   1   8
ATOM      8  C   UNL     1     157.266 166.346 168.466  1.00  0.00     0.072 C 
BRANCH   8   9
ATOM      9  C   UNL     1     158.245 167.487 168.121  1.00  0.00     0.227 C 
BRANCH   9  10
ATOM     10  N   UNL     1     157.589 168.487 167.270  1.00  0.00    -0.350 N 
ATOM     11  H   UNL     1     156.555 168.456 167.418  1.00  0.00     0.345 HD
ATOM     12  H   UNL     1     157.781 168.277 166.263  1.00  0.00     0.345 HD
ATOM     13  H   UNL     1     157.940 169.448 167.492  1.00  0.00     0.345 HD
ENDBRANCH   9  10
BRANCH   9  14
ATOM     14  C   UNL     1     159.476 166.955 167.432  1.00  0.00     0.099 C 
ATOM     15  O   UNL     1     159.983 167.585 166.468  1.00  0.00    -0.544 OA
ATOM     16  O   UNL     1     160.062 165.769 167.859  1.00  0.00    -0.544 OA
ENDBRANCH   9  14
ENDBRANCH   8   9
ENDBRANCH   1   8
TORSDOF 7
ENDMDL
MODEL 2
REMARK VINA RESULT:    -4.081     15.455     16.765
REMARK INTER + INTRA:          -6.023
REMARK INTER:                  -5.511
REMARK INTRA:                  -0.513
REMARK UNBOUND:                -0.511
REMARK SMILES [NH3+]CCCC[C@H]([NH3+])C(=O)[O-]
REMARK SMILES IDX 4 1 3 2 2 3 1 4 5 8 6 9 7 10 8 14 9 15 10 16
REMARK H PARENT 1 5 1 6 1 7 7 11 7 12 7 13
REMARK Flexibility Score: inf
ROOT
ATOM      1  C   UNL     1     161.841 166.230 150.411  1.00  0.00     0.012 C 
ENDROOT
BRANCH   1   2
ATOM      2  C   UNL     1     161.773 164.863 151.102  1.00  0.00     0.061 C 
BRANCH   2   3
ATOM      3  C   UNL     1     160.897 164.925 152.362  1.00  0.00     0.258 C 
BRANCH   3   4
ATOM      4  N   UNL     1     159.676 164.139 152.188  1.00  0.00    -0.358 N 
ATOM      5  H   UNL     1     159.912 163.123 152.252  1.00  0.00     0.344 HD
ATOM      6  H   UNL     1     158.988 164.374 152.940  1.00  0.00     0.344 HD
ATOM      7  H   UNL     1     159.255 164.332 151.250  1.00  0.00     0.344 HD
ENDBRANCH   3   4
ENDBRANCH   2   3
ENDBRANCH   1   2
BRANCH   1   8
ATOM      8  C   UNL     1     160.704 166.390 149.390  1.00  0.00     0.072 C 
BRANCH   8   9
ATOM      9  C   UNL     1     159.699 167.486 149.801  1.00  0.00     0.227 C 
BRANCH   9  10
ATOM     10  N   UNL     1     160.332 168.447 150.713  1.00  0.00    -0.350 N 
ATOM     11  H   UNL     1     160.596 167.970 151.605  1.00  0.00     0.345 HD
ATOM     12  H   UNL     1     159.660 169.215 150.941  1.00  0.00     0.345 HD
ATOM     13  H   UNL     1     161.190 168.860 150.276  1.00  0.00     0.345 HD
ENDBRANCH   9  10
BRANCH   9  14
ATOM     14  C   UNL     1     158.480 166.886 150.453  1.00  0.00     0.099 C 
ATOM     15  O   UNL     1     157.918 167.480 151.410  1.00  0.00    -0.544 OA
ATOM     16  O   UNL     1     157.966 165.677 150.000  1.00  0.00    -0.544 OA
ENDBRANCH   9  14
ENDBRANCH   8   9
ENDBRANCH   1   8
TORSDOF 7
ENDMDL
MODEL 3
REMARK VINA RESULT:    -4.022     13.675     15.153
REMARK INTER + INTRA:          -5.944
REMARK INTER:                  -5.497
REMARK INTRA:                  -0.447
REMARK UNBOUND:                -0.511
REMARK SMILES [NH3+]CCCC[C@H]([NH3+])C(=O)[O-]
REMARK SMILES IDX 4 1 3 2 2 3 1 4 5 8 6 9 7 10 8 14 9 15 10 16
REMARK H PARENT 1 5 1 6 1 7 7 11 7 12 7 13
REMARK Flexibility Score: inf
ROOT
ATOM      1  C   UNL     1     161.487 151.538 167.475  1.00  0.00     0.012 C 
ENDROOT
BRANCH   1   2
ATOM      2  C   UNL     1     161.662 153.038 167.210  1.00  0.00     0.061 C 
BRANCH   2   3
ATOM      3  C   UNL     1     161.134 153.418 165.820  1.00  0.00     0.258 C 
BRANCH   3   4
ATOM      4  N   UNL     1     159.702 153.707 165.865  1.00  0.00    -0.358 N 
ATOM      5  H   UNL     1     159.520 154.422 166.605  1.00  0.00     0.344 HD
ATOM      6  H   UNL     1     159.382 154.085 164.944  1.00  0.00     0.344 HD
ATOM      7  H   UNL     1     159.167 152.837 166.096  1.00  0.00     0.344 HD
ENDBRANCH   3   4
ENDBRANCH   2   3
ENDBRANCH   1   2
BRANCH   1   8
ATOM      8  C   UNL     1     160.623 151.295 168.722  1.00  0.00     0.072 C 
BRANCH   8   9
ATOM      9  C   UNL     1     159.402 150.402 168.422  1.00  0.00     0.227 C 
BRANCH   9  10
ATOM     10  N   UNL     1     159.809 149.215 167.660  1.00  0.00    -0.350 N 
ATOM     11  H   UNL     1     159.278 148.378 167.995  1.00  0.00     0.345 HD
ATOM     12  H   UNL     1     160.829 149.034 167.805  1.00  0.00     0.345 HD
ATOM     13  H   UNL     1     159.627 149.352 166.638  1.00  0.00     0.345 HD
ENDBRANCH   9  10
BRANCH   9  14
ATOM     14  C   UNL     1     158.348 151.164 167.661  1.00  0.00     0.099 C 
ATOM     15  O   UNL     1     157.845 150.675 166.615  1.00  0.00    -0.544 OA
ATOM     16  O   UNL     1     157.920 152.408 168.109  1.00  0.00    -0.544 OA
ENDBRANCH   9  14
ENDBRANCH   8   9
ENDBRANCH   1   8
TORSDOF 7
ENDMDL
MODEL 4
REMARK VINA RESULT:    -3.994     20.031     21.891
REMARK INTER + INTRA:          -5.906
REMARK INTER:                  -5.392
REMARK INTRA:                  -0.514
REMARK UNBOUND:                -0.511
REMARK SMILES [NH3+]CCCC[C@H]([NH3+])C(=O)[O-]
REMARK SMILES IDX 4 1 3 2 2 3 1 4 5 8 6 9 7 10 8 14 9 15 10 16
REMARK H PARENT 1 5 1 6 1 7 7 11 7 12 7 13
REMARK Flexibility Score: inf
ROOT
ATOM      1  C   UNL     1     156.095 152.006 150.750  1.00  0.00     0.012 C 
ENDROOT
BRANCH   1   2
ATOM      2  C   UNL     1     156.214 153.414 151.347  1.00  0.00     0.061 C 
BRANCH   2   3
ATOM      3  C   UNL     1     157.141 153.419 152.570  1.00  0.00     0.258 C 
BRANCH   3   4
ATOM      4  N   UNL     1     158.434 154.019 152.244  1.00  0.00    -0.358 N 
ATOM      5  H   UNL     1     158.302 154.722 151.482  1.00  0.00     0.344 HD
ATOM      6  H   UNL     1     158.829 154.500 153.083  1.00  0.00     0.344 HD
ATOM      7  H   UNL     1     159.099 153.282 151.913  1.00  0.00     0.344 HD
ENDBRANCH   3   4
ENDBRANCH   2   3
ENDBRANCH   1   2
BRANCH   1   8
ATOM      8  C   UNL     1     157.119 151.797 149.624  1.00  0.00     0.072 C 
BRANCH   8   9
ATOM      9  C   UNL     1     158.059 150.606 149.904  1.00  0.00     0.227 C 
BRANCH   9  10
ATOM     10  N   UNL     1     157.383 149.602 150.736  1.00  0.00    -0.350 N 
ATOM     11  H   UNL     1     157.867 148.680 150.645  1.00  0.00     0.345 HD
ATOM     12  H   UNL     1     156.394 149.485 150.416  1.00  0.00     0.345 HD
ATOM     13  H   UNL     1     157.385 149.895 151.741  1.00  0.00     0.345 HD
ENDBRANCH   9  10
BRANCH   9  14
ATOM     14  C   UNL     1     159.327 151.062 150.579  1.00  0.00     0.099 C 
ATOM     15  O   UNL     1     159.829 150.380 151.510  1.00  0.00    -0.544 OA
ATOM     16  O   UNL     1     159.952 152.236 150.176  1.00  0.00    -0.544 OA
ENDBRANCH   9  14
ENDBRANCH   8   9
ENDBRANCH   1   8
TORSDOF 7
ENDMDL
MODEL 5
REMARK VINA RESULT:    -3.949      2.443      4.029
REMARK INTER + INTRA:          -5.846
REMARK INTER:                  -5.279
REMARK INTRA:                  -0.567
REMARK UNBOUND:                -0.511
REMARK SMILES [NH3+]CCCC[C@H]([NH3+])C(=O)[O-]
REMARK SMILES IDX 4 1 3 2 2 3 1 4 5 8 6 9 7 10 8 14 9 15 10 16
REMARK H PARENT 1 5 1 6 1 7 7 11 7 12 7 13
REMARK Flexibility Score: inf
ROOT
ATOM      1  C   UNL     1     158.559 165.493 168.776  1.00  0.00     0.012 C 
ENDROOT
BRANCH   1   2
ATOM      2  C   UNL     1     158.024 166.887 169.125  1.00  0.00     0.061 C 
BRANCH   2   3
ATOM      3  C   UNL     1     158.432 167.917 168.062  1.00  0.00     0.258 C 
BRANCH   3   4
ATOM      4  N   UNL     1     157.268 168.372 167.302  1.00  0.00    -0.358 N 
ATOM      5  H   UNL     1     157.542 169.194 166.717  1.00  0.00     0.344 HD
ATOM      6  H   UNL     1     156.928 167.609 166.674  1.00  0.00     0.344 HD
ATOM      7  H   UNL     1     156.504 168.661 167.955  1.00  0.00     0.344 HD
ENDBRANCH   3   4
ENDBRANCH   2   3
ENDBRANCH   1   2
BRANCH   1   8
ATOM      8  C   UNL     1     157.410 164.528 168.446  1.00  0.00     0.072 C 
BRANCH   8   9
ATOM      9  C   UNL     1     157.312 164.231 166.936  1.00  0.00     0.227 C 
BRANCH   9  10
ATOM     10  N   UNL     1     158.542 164.646 166.250  1.00  0.00    -0.350 N 
ATOM     11  H   UNL     1     159.155 163.816 166.086  1.00  0.00     0.345 HD
ATOM     12  H   UNL     1     159.068 165.327 166.846  1.00  0.00     0.345 HD
ATOM     13  H   UNL     1     158.319 165.097 165.331  1.00  0.00     0.345 HD
ENDBRANCH   9  10
BRANCH   9  14
ATOM     14  C   UNL     1     156.124 164.927 166.323  1.00  0.00     0.099 C 
ATOM     15  O   UNL     1     155.567 165.879 166.928  1.00  0.00    -0.544 OA
ATOM     16  O   UNL     1     155.638 164.525 165.084  1.00  0.00    -0.544 OA
ENDBRANCH   9  14
ENDBRANCH   8   9
ENDBRANCH   1   8
TORSDOF 7
ENDMDL
MODEL 6
REMARK VINA RESULT:    -3.937     20.187     21.763
REMARK INTER + INTRA:          -5.829
REMARK INTER:                  -5.269
REMARK INTRA:                  -0.560
REMARK UNBOUND:                -0.511
REMARK SMILES [NH3+]CCCC[C@H]([NH3+])C(=O)[O-]
REMARK SMILES IDX 4 1 3 2 2 3 1 4 5 8 6 9 7 10 8 14 9 15 10 16
REMARK H PARENT 1 5 1 6 1 7 7 11 7 12 7 13
REMARK Flexibility Score: inf
ROOT
ATOM      1  C   UNL     1     158.612 152.562 149.245  1.00  0.00     0.012 C 
ENDROOT
BRANCH   1   2
ATOM      2  C   UNL     1     158.073 151.166 148.911  1.00  0.00     0.061 C 
BRANCH   2   3
ATOM      3  C   UNL     1     158.425 150.159 150.016  1.00  0.00     0.258 C 
BRANCH   3   4
ATOM      4  N   UNL     1     157.216 149.633 150.647  1.00  0.00    -0.358 N 
ATOM      5  H   UNL     1     157.172 148.600 150.493  1.00  0.00     0.344 HD
ATOM      6  H   UNL     1     157.237 149.820 151.676  1.00  0.00     0.344 HD
ATOM      7  H   UNL     1     156.368 150.075 150.224  1.00  0.00     0.344 HD
ENDBRANCH   3   4
ENDBRANCH   2   3
ENDBRANCH   1   2
BRANCH   1   8
ATOM      8  C   UNL     1     157.468 153.528 149.587  1.00  0.00     0.072 C 
BRANCH   8   9
ATOM      9  C   UNL     1     157.344 153.773 151.106  1.00  0.00     0.227 C 
BRANCH   9  10
ATOM     10  N   UNL     1     158.550 153.307 151.800  1.00  0.00    -0.350 N 
ATOM     11  H   UNL     1     158.448 153.457 152.830  1.00  0.00     0.345 HD
ATOM     12  H   UNL     1     159.381 153.852 151.473  1.00  0.00     0.345 HD
ATOM     13  H   UNL     1     158.714 152.290 151.615  1.00  0.00     0.345 HD
ENDBRANCH   9  10
BRANCH   9  14
ATOM     14  C   UNL     1     156.128 153.082 151.669  1.00  0.00     0.099 C 
ATOM     15  O   UNL     1     155.558 152.171 151.014  1.00  0.00    -0.544 OA
ATOM     16  O   UNL     1     155.632 153.442 152.916  1.00  0.00    -0.544 OA
ENDBRANCH   9  14
ENDBRANCH   8   9
ENDBRANCH   1   8
TORSDOF 7
ENDMDL
MODEL 7
REMARK VINA RESULT:    -3.907     12.992     14.162
REMARK INTER + INTRA:          -5.788
REMARK INTER:                  -5.218
REMARK INTRA:                  -0.569
REMARK UNBOUND:                -0.511
REMARK SMILES [NH3+]CCCC[C@H]([NH3+])C(=O)[O-]
REMARK SMILES IDX 4 1 3 2 2 3 1 4 5 8 6 9 7 10 8 14 9 15 10 16
REMARK H PARENT 1 5 1 6 1 7 7 11 7 12 7 13
REMARK Flexibility Score: inf
ROOT
ATOM      1  C   UNL     1     158.593 152.713 167.907  1.00  0.00     0.012 C 
ENDROOT
BRANCH   1   2
ATOM      2  C   UNL     1     158.584 151.196 168.133  1.00  0.00     0.061 C 
BRANCH   2   3
ATOM      3  C   UNL     1     159.065 150.448 166.882  1.00  0.00     0.258 C 
BRANCH   3   4
ATOM      4  N   UNL     1     160.218 149.604 167.188  1.00  0.00    -0.358 N 
ATOM      5  H   UNL     1     160.152 149.281 168.180  1.00  0.00     0.344 HD
ATOM      6  H   UNL     1     160.229 148.768 166.561  1.00  0.00     0.344 HD
ATOM      7  H   UNL     1     161.104 150.148 167.067  1.00  0.00     0.344 HD
ENDBRANCH   3   4
ENDBRANCH   2   3
ENDBRANCH   1   2
BRANCH   1   8
ATOM      8  C   UNL     1     159.991 153.299 168.156  1.00  0.00     0.072 C 
BRANCH   8   9
ATOM      9  C   UNL     1     160.637 153.840 166.864  1.00  0.00     0.227 C 
BRANCH   9  10
ATOM     10  N   UNL     1     159.653 153.876 165.775  1.00  0.00    -0.350 N 
ATOM     11  H   UNL     1     159.562 154.851 165.410  1.00  0.00     0.345 HD
ATOM     12  H   UNL     1     158.717 153.573 166.132  1.00  0.00     0.345 HD
ATOM     13  H   UNL     1     159.942 153.241 164.994  1.00  0.00     0.345 HD
ENDBRANCH   9  10
BRANCH   9  14
ATOM     14  C   UNL     1     161.821 153.001 166.458  1.00  0.00     0.099 C 
ATOM     15  O   UNL     1     162.461 153.276 165.409  1.00  0.00    -0.544 OA
ATOM     16  O   UNL     1     162.218 151.922 167.240  1.00  0.00    -0.544 OA
ENDBRANCH   9  14
ENDBRANCH   8   9
ENDBRANCH   1   8
TORSDOF 7
ENDMDL
MODEL 8
REMARK VINA RESULT:    -3.884     13.374     14.813
REMARK INTER + INTRA:          -5.757
REMARK INTER:                  -5.287
REMARK INTRA:                  -0.470
REMARK UNBOUND:                -0.511
REMARK SMILES [NH3+]CCCC[C@H]([NH3+])C(=O)[O-]
REMARK SMILES IDX 4 1 3 2 2 3 1 4 5 8 6 9 7 10 8 14 9 15 10 16
REMARK H PARENT 1 5 1 6 1 7 7 11 7 12 7 13
REMARK Flexibility Score: inf
ROOT
ATOM      1  C   UNL     1     158.425 152.570 168.166  1.00  0.00     0.012 C 
ENDROOT
BRANCH   1   2
ATOM      2  C   UNL     1     159.158 153.914 168.261  1.00  0.00     0.061 C 
BRANCH   2   3
ATOM      3  C   UNL     1     159.162 154.639 166.908  1.00  0.00     0.258 C 
BRANCH   3   4
ATOM      4  N   UNL     1     159.695 153.776 165.855  1.00  0.00    -0.358 N 
ATOM      5  H   UNL     1     158.952 153.107 165.551  1.00  0.00     0.344 HD
ATOM      6  H   UNL     1     159.988 154.352 165.032  1.00  0.00     0.344 HD
ATOM      7  H   UNL     1     160.514 153.233 166.215  1.00  0.00     0.344 HD
ENDBRANCH   3   4
ENDBRANCH   2   3
ENDBRANCH   1   2
BRANCH   1   8
ATOM      8  C   UNL     1     159.309 151.423 168.679  1.00  0.00     0.072 C 
BRANCH   8   9
ATOM      9  C   UNL     1     160.018 150.673 167.532  1.00  0.00     0.227 C 
BRANCH   9  10
ATOM     10  N   UNL     1     159.727 149.236 167.601  1.00  0.00    -0.350 N 
ATOM     11  H   UNL     1     159.463 148.973 168.578  1.00  0.00     0.345 HD
ATOM     12  H   UNL     1     160.578 148.689 167.334  1.00  0.00     0.345 HD
ATOM     13  H   UNL     1     158.943 148.986 166.953  1.00  0.00     0.345 HD
ENDBRANCH   9  10
BRANCH   9  14
ATOM     14  C   UNL     1     161.507 150.898 167.576  1.00  0.00     0.099 C 
ATOM     15  O   UNL     1     162.281 149.953 167.880  1.00  0.00    -0.544 OA
ATOM     16  O   UNL     1     162.037 152.148 167.276  1.00  0.00    -0.544 OA
ENDBRANCH   9  14
ENDBRANCH   8   9
ENDBRANCH   1   8
TORSDOF 7
ENDMDL
MODEL 9
REMARK VINA RESULT:    -3.874     20.476     22.356
REMARK INTER + INTRA:          -5.744
REMARK INTER:                  -5.267
REMARK INTRA:                  -0.477
REMARK UNBOUND:                -0.511
REMARK SMILES [NH3+]CCCC[C@H]([NH3+])C(=O)[O-]
REMARK SMILES IDX 4 1 3 2 2 3 1 4 5 8 6 9 7 10 8 14 9 15 10 16
REMARK H PARENT 1 5 1 6 1 7 7 11 7 12 7 13
REMARK Flexibility Score: inf
ROOT
ATOM      1  C   UNL     1     159.840 152.516 150.042  1.00  0.00     0.012 C 
ENDROOT
BRANCH   1   2
ATOM      2  C   UNL     1     159.357 153.905 149.607  1.00  0.00     0.061 C 
BRANCH   2   3
ATOM      3  C   UNL     1     158.926 154.744 150.818  1.00  0.00     0.258 C 
BRANCH   3   4
ATOM      4  N   UNL     1     158.616 153.890 151.963  1.00  0.00    -0.358 N 
ATOM      5  H   UNL     1     158.841 154.404 152.844  1.00  0.00     0.344 HD
ATOM      6  H   UNL     1     157.599 153.646 151.964  1.00  0.00     0.344 HD
ATOM      7  H   UNL     1     159.189 153.015 151.924  1.00  0.00     0.344 HD
ENDBRANCH   3   4
ENDBRANCH   2   3
ENDBRANCH   1   2
BRANCH   1   8
ATOM      8  C   UNL     1     158.946 151.413 149.455  1.00  0.00     0.072 C 
BRANCH   8   9
ATOM      9  C   UNL     1     158.148 150.666 150.544  1.00  0.00     0.227 C 
BRANCH   9  10
ATOM     10  N   UNL     1     158.302 149.215 150.389  1.00  0.00    -0.350 N 
ATOM     11  H   UNL     1     157.554 148.718 150.925  1.00  0.00     0.345 HD
ATOM     12  H   UNL     1     159.230 148.914 150.769  1.00  0.00     0.345 HD
ATOM     13  H   UNL     1     158.242 148.943 149.380  1.00  0.00     0.345 HD
ENDBRANCH   9  10
BRANCH   9  14
ATOM     14  C   UNL     1     156.688 151.036 150.495  1.00  0.00     0.099 C 
ATOM     15  O   UNL     1     156.327 152.220 150.721  1.00  0.00    -0.544 OA
ATOM     16  O   UNL     1     155.731 150.073 150.195  1.00  0.00    -0.544 OA
ENDBRANCH   9  14
ENDBRANCH   8   9
ENDBRANCH   1   8
TORSDOF 7
ENDMDL
