MODEL 1
REMARK VINA RESULT:    -4.284      0.000      0.000
REMARK INTER + INTRA:          -6.480
REMARK INTER:                  -6.038
REMARK INTRA:                  -0.442
REMARK UNBOUND:                -0.442
REMARK SMILES C=CCCCCCCC(=O)[O-]
REMARK SMILES IDX 6 1 7 2 8 3 9 4 10 5 11 6 5 7 4 8 3 9 2 10 1 11
REMARK H PARENT
REMARK Flexibility Score: inf
ROOT
ATOM      1  C   UNL     1       9.743   8.698  79.696  1.00  0.00     0.000 C 
ENDROOT
BRANCH   1   2
ATOM      2  C   UNL     1      10.242   7.310  79.257  1.00  0.00     0.006 C 
BRANCH   2   3
ATOM      3  C   UNL     1       9.091   6.387  78.835  1.00  0.00     0.053 C 
BRANCH   3   4
ATOM      4  C   UNL     1       9.038   5.147  79.675  1.00  0.00     0.041 C 
ATOM      5  O   UNL     1      10.087   4.485  79.895  1.00  0.00    -0.550 OA
ATOM      6  O   UNL     1       7.837   4.742  80.244  1.00  0.00    -0.550 OA
ENDBRANCH   3   4
ENDBRANCH   2   3
ENDBRANCH   1   2
BRANCH   1   7
ATOM      7  C   UNL     1       8.213   8.826  79.619  1.00  0.00     0.000 C 
BRANCH   7   8
ATOM      8  C   UNL     1       7.555   8.884  81.006  1.00  0.00     0.004 C 
BRANCH   8   9
ATOM      9  C   UNL     1       6.394   7.888  81.104  1.00  0.00     0.027 C 
BRANCH   9  10
ATOM     10  C   UNL     1       5.251   8.457  81.900  1.00  0.00    -0.035 C 
ATOM     11  C   UNL     1       5.247   9.727  82.317  1.00  0.00     0.004 C 
ENDBRANCH   9  10
ENDBRANCH   8   9
ENDBRANCH   7   8
ENDBRANCH   1   7
TORSDOF 7
ENDMDL
MODEL 2
REMARK VINA RESULT:    -4.053      1.047      1.994
REMARK INTER + INTRA:          -6.153
REMARK INTER:                  -5.927
REMARK INTRA:                  -0.227
REMARK UNBOUND:                -0.442
REMARK SMILES C=CCCCCCCC(=O)[O-]
REMARK SMILES IDX 6 1 7 2 8 3 9 4 10 5 11 6 5 7 4 8 3 9 2 10 1 11
REMARK H PARENT
REMARK Flexibility Score: inf
ROOT
ATOM      1  C   UNL     1       7.554   8.828  80.098  1.00  0.00     0.000 C 
ENDROOT
BRANCH   1   2
ATOM      2  C   UNL     1       8.940   8.170  79.983  1.00  0.00     0.006 C 
BRANCH   2   3
ATOM      3  C   UNL     1       8.965   7.051  78.933  1.00  0.00     0.053 C 
BRANCH   3   4
ATOM      4  C   UNL     1       8.883   5.694  79.564  1.00  0.00     0.041 C 
ATOM      5  O   UNL     1       7.767   5.218  79.900  1.00  0.00    -0.550 OA
ATOM      6  O   UNL     1      10.037   4.942  79.749  1.00  0.00    -0.550 OA
ENDBRANCH   3   4
ENDBRANCH   2   3
ENDBRANCH   1   2
BRANCH   1   7
ATOM      7  C   UNL     1       6.680   8.178  81.182  1.00  0.00     0.000 C 
BRANCH   7   8
ATOM      8  C   UNL     1       5.766   9.190  81.889  1.00  0.00     0.004 C 
BRANCH   8   9
ATOM      9  C   UNL     1       4.518   8.500  82.454  1.00  0.00     0.027 C 
BRANCH   9  10
ATOM     10  C   UNL     1       3.492   9.506  82.898  1.00  0.00    -0.035 C 
ATOM     11  C   UNL     1       3.760  10.815  82.937  1.00  0.00     0.004 C 
ENDBRANCH   9  10
ENDBRANCH   8   9
ENDBRANCH   7   8
ENDBRANCH   1   7
TORSDOF 7
ENDMDL
MODEL 3
REMARK VINA RESULT:    -3.998      1.771      3.034
REMARK INTER + INTRA:          -6.075
REMARK INTER:                  -5.621
REMARK INTRA:                  -0.454
REMARK UNBOUND:                -0.442
REMARK SMILES C=CCCCCCCC(=O)[O-]
REMARK SMILES IDX 6 1 7 2 8 3 9 4 10 5 11 6 5 7 4 8 3 9 2 10 1 11
REMARK H PARENT
REMARK Flexibility Score: inf
ROOT
ATOM      1  C   UNL     1       6.702   8.817  81.572  1.00  0.00     0.000 C 
ENDROOT
BRANCH   1   2
ATOM      2  C   UNL     1       7.173   8.379  80.174  1.00  0.00     0.006 C 
BRANCH   2   3
ATOM      3  C   UNL     1       7.192   6.852  80.021  1.00  0.00     0.053 C 
BRANCH   3   4
ATOM      4  C   UNL     1       8.523   6.358  79.541  1.00  0.00     0.041 C 
ATOM      5  O   UNL     1       9.337   7.154  79.004  1.00  0.00    -0.550 OA
ATOM      6  O   UNL     1       8.877   5.027  79.720  1.00  0.00    -0.550 OA
ENDBRANCH   3   4
ENDBRANCH   2   3
ENDBRANCH   1   2
BRANCH   1   7
ATOM      7  C   UNL     1       5.299   8.291  81.914  1.00  0.00     0.000 C 
BRANCH   7   8
ATOM      8  C   UNL     1       4.363   9.395  82.426  1.00  0.00     0.004 C 
BRANCH   8   9
ATOM      9  C   UNL     1       4.980  10.782  82.208  1.00  0.00     0.027 C 
BRANCH   9  10
ATOM     10  C   UNL     1       4.236  11.551  81.150  1.00  0.00    -0.035 C 
ATOM     11  C   UNL     1       4.875  12.227  80.191  1.00  0.00     0.004 C 
ENDBRANCH   9  10
ENDBRANCH   8   9
ENDBRANCH   7   8
ENDBRANCH   1   7
TORSDOF 7
ENDMDL
MODEL 4
REMARK VINA RESULT:    -3.959      3.726      5.938
REMARK INTER + INTRA:          -6.021
REMARK INTER:                  -5.758
REMARK INTRA:                  -0.263
REMARK UNBOUND:                -0.442
REMARK SMILES C=CCCCCCCC(=O)[O-]
REMARK SMILES IDX 6 1 7 2 8 3 9 4 10 5 11 6 5 7 4 8 3 9 2 10 1 11
REMARK H PARENT
REMARK Flexibility Score: inf
ROOT
ATOM      1  C   UNL     1       6.856   9.044  80.832  1.00  0.00     0.000 C 
ENDROOT
BRANCH   1   2
ATOM      2  C   UNL     1       5.674   8.744  81.771  1.00  0.00     0.006 C 
BRANCH   2   3
ATOM      3  C   UNL     1       5.273   9.968  82.606  1.00  0.00     0.053 C 
BRANCH   3   4
ATOM      4  C   UNL     1       4.000  10.585  82.110  1.00  0.00     0.041 C 
ATOM      5  O   UNL     1       4.025  11.417  81.165  1.00  0.00    -0.550 OA
ATOM      6  O   UNL     1       2.783  10.214  82.669  1.00  0.00    -0.550 OA
ENDBRANCH   3   4
ENDBRANCH   2   3
ENDBRANCH   1   2
BRANCH   1   7
ATOM      7  C   UNL     1       7.582   7.771  80.372  1.00  0.00     0.000 C 
BRANCH   7   8
ATOM      8  C   UNL     1       8.794   8.073  79.478  1.00  0.00     0.004 C 
BRANCH   8   9
ATOM      9  C   UNL     1       9.507   6.779  79.065  1.00  0.00     0.027 C 
BRANCH   9  10
ATOM     10  C   UNL     1       8.749   5.565  79.530  1.00  0.00    -0.035 C 
ATOM     11  C   UNL     1       9.375   4.447  79.909  1.00  0.00     0.004 C 
ENDBRANCH   9  10
ENDBRANCH   8   9
ENDBRANCH   7   8
ENDBRANCH   1   7
TORSDOF 7
ENDMDL
MODEL 5
REMARK VINA RESULT:    -3.926      3.499      5.504
REMARK INTER + INTRA:          -5.975
REMARK INTER:                  -5.612
REMARK INTRA:                  -0.363
REMARK UNBOUND:                -0.442
REMARK SMILES C=CCCCCCCC(=O)[O-]
REMARK SMILES IDX 6 1 7 2 8 3 9 4 10 5 11 6 5 7 4 8 3 9 2 10 1 11
REMARK H PARENT
REMARK Flexibility Score: inf
ROOT
ATOM      1  C   UNL     1       6.666   7.368  80.583  1.00  0.00     0.000 C 
ENDROOT
BRANCH   1   2
ATOM      2  C   UNL     1       6.250   8.640  81.342  1.00  0.00     0.006 C 
BRANCH   2   3
ATOM      3  C   UNL     1       4.934   8.451  82.110  1.00  0.00     0.053 C 
BRANCH   3   4
ATOM      4  C   UNL     1       4.359   9.761  82.556  1.00  0.00     0.041 C 
ATOM      5  O   UNL     1       3.116   9.959  82.502  1.00  0.00    -0.550 OA
ATOM      6  O   UNL     1       5.192  10.750  83.064  1.00  0.00    -0.550 OA
ENDBRANCH   3   4
ENDBRANCH   2   3
ENDBRANCH   1   2
BRANCH   1   7
ATOM      7  C   UNL     1       7.519   7.673  79.342  1.00  0.00     0.000 C 
BRANCH   7   8
ATOM      8  C   UNL     1       8.882   6.966  79.374  1.00  0.00     0.004 C 
BRANCH   8   9
ATOM      9  C   UNL     1      10.028   7.980  79.266  1.00  0.00     0.027 C 
BRANCH   9  10
ATOM     10  C   UNL     1       9.782   9.178  80.143  1.00  0.00    -0.035 C 
ATOM     11  C   UNL     1       9.803  10.422  79.656  1.00  0.00     0.004 C 
ENDBRANCH   9  10
ENDBRANCH   8   9
ENDBRANCH   7   8
ENDBRANCH   1   7
TORSDOF 7
ENDMDL
MODEL 6
REMARK VINA RESULT:    -3.803      4.169      6.298
REMARK INTER + INTRA:          -5.802
REMARK INTER:                  -5.472
REMARK INTRA:                  -0.329
REMARK UNBOUND:                -0.442
REMARK SMILES C=CCCCCCCC(=O)[O-]
REMARK SMILES IDX 6 1 7 2 8 3 9 4 10 5 11 6 5 7 4 8 3 9 2 10 1 11
REMARK H PARENT
REMARK Flexibility Score: inf
ROOT
ATOM      1  C   UNL     1       5.020   8.494  82.112  1.00  0.00     0.000 C 
ENDROOT
BRANCH   1   2
ATOM      2  C   UNL     1       4.354   9.833  82.475  1.00  0.00     0.006 C 
BRANCH   2   3
ATOM      3  C   UNL     1       4.981  11.015  81.721  1.00  0.00     0.053 C 
BRANCH   3   4
ATOM      4  C   UNL     1       3.967  11.749  80.898  1.00  0.00     0.041 C 
ATOM      5  O   UNL     1       2.748  11.705  81.208  1.00  0.00    -0.550 OA
ATOM      6  O   UNL     1       4.374  12.512  79.810  1.00  0.00    -0.550 OA
ENDBRANCH   3   4
ENDBRANCH   2   3
ENDBRANCH   1   2
BRANCH   1   7
ATOM      7  C   UNL     1       6.439   8.673  81.550  1.00  0.00     0.000 C 
BRANCH   7   8
ATOM      8  C   UNL     1       6.828   7.562  80.563  1.00  0.00     0.004 C 
BRANCH   8   9
ATOM      9  C   UNL     1       7.690   8.118  79.423  1.00  0.00     0.027 C 
BRANCH   9  10
ATOM     10  C   UNL     1       9.122   8.285  79.852  1.00  0.00    -0.035 C 
ATOM     11  C   UNL     1       9.713   9.484  79.880  1.00  0.00     0.004 C 
ENDBRANCH   9  10
ENDBRANCH   8   9
ENDBRANCH   7   8
ENDBRANCH   1   7
TORSDOF 7
ENDMDL
MODEL 7
REMARK VINA RESULT:    -3.773      7.966      9.162
REMARK INTER + INTRA:          -5.758
REMARK INTER:                  -5.382
REMARK INTRA:                  -0.376
REMARK UNBOUND:                -0.442
REMARK SMILES C=CCCCCCCC(=O)[O-]
REMARK SMILES IDX 6 1 7 2 8 3 9 4 10 5 11 6 5 7 4 8 3 9 2 10 1 11
REMARK H PARENT
REMARK Flexibility Score: inf
ROOT
ATOM      1  C   UNL     1       2.837   6.533  85.365  1.00  0.00     0.000 C 
ENDROOT
BRANCH   1   2
ATOM      2  C   UNL     1       2.721   5.018  85.607  1.00  0.00     0.006 C 
BRANCH   2   3
ATOM      3  C   UNL     1       1.825   4.691  86.810  1.00  0.00     0.053 C 
BRANCH   3   4
ATOM      4  C   UNL     1       2.207   3.390  87.448  1.00  0.00     0.041 C 
ATOM      5  O   UNL     1       3.079   2.654  86.914  1.00  0.00    -0.550 OA
ATOM      6  O   UNL     1       1.625   3.008  88.651  1.00  0.00    -0.550 OA
ENDBRANCH   3   4
ENDBRANCH   2   3
ENDBRANCH   1   2
BRANCH   1   7
ATOM      7  C   UNL     1       1.632   7.313  85.913  1.00  0.00     0.000 C 
BRANCH   7   8
ATOM      8  C   UNL     1       1.830   8.834  85.839  1.00  0.00     0.004 C 
BRANCH   8   9
ATOM      9  C   UNL     1       2.882   9.300  86.853  1.00  0.00     0.027 C 
BRANCH   9  10
ATOM     10  C   UNL     1       2.380   9.164  88.264  1.00  0.00    -0.035 C 
ATOM     11  C   UNL     1       1.971  10.222  88.971  1.00  0.00     0.004 C 
ENDBRANCH   9  10
ENDBRANCH   8   9
ENDBRANCH   7   8
ENDBRANCH   1   7
TORSDOF 7
ENDMDL
MODEL 8
REMARK VINA RESULT:    -3.711      7.926      9.781
REMARK INTER + INTRA:          -5.671
REMARK INTER:                  -5.295
REMARK INTRA:                  -0.376
REMARK UNBOUND:                -0.442
REMARK SMILES C=CCCCCCCC(=O)[O-]
REMARK SMILES IDX 6 1 7 2 8 3 9 4 10 5 11 6 5 7 4 8 3 9 2 10 1 11
REMARK H PARENT
REMARK Flexibility Score: inf
ROOT
ATOM      1  C   UNL     1       3.006   6.500  85.308  1.00  0.00     0.000 C 
ENDROOT
BRANCH   1   2
ATOM      2  C   UNL     1       2.010   7.588  85.747  1.00  0.00     0.006 C 
BRANCH   2   3
ATOM      3  C   UNL     1       2.628   8.566  86.755  1.00  0.00     0.053 C 
BRANCH   3   4
ATOM      4  C   UNL     1       2.626   9.972  86.237  1.00  0.00     0.041 C 
ATOM      5  O   UNL     1       2.941  10.206  85.040  1.00  0.00    -0.550 OA
ATOM      6  O   UNL     1       2.242  11.019  87.065  1.00  0.00    -0.550 OA
ENDBRANCH   3   4
ENDBRANCH   2   3
ENDBRANCH   1   2
BRANCH   1   7
ATOM      7  C   UNL     1       2.558   5.089  85.719  1.00  0.00     0.000 C 
BRANCH   7   8
ATOM      8  C   UNL     1       1.405   5.106  86.733  1.00  0.00     0.004 C 
BRANCH   8   9
ATOM      9  C   UNL     1       1.451   3.868  87.636  1.00  0.00     0.027 C 
BRANCH   9  10
ATOM     10  C   UNL     1       2.693   3.055  87.388  1.00  0.00    -0.035 C 
ATOM     11  C   UNL     1       2.845   1.829  87.897  1.00  0.00     0.004 C 
ENDBRANCH   9  10
ENDBRANCH   8   9
ENDBRANCH   7   8
ENDBRANCH   1   7
TORSDOF 7
ENDMDL
MODEL 9
REMARK VINA RESULT:    -3.673      4.266      6.747
REMARK INTER + INTRA:          -5.618
REMARK INTER:                  -5.430
REMARK INTRA:                  -0.189
REMARK UNBOUND:                -0.442
REMARK SMILES C=CCCCCCCC(=O)[O-]
REMARK SMILES IDX 6 1 7 2 8 3 9 4 10 5 11 6 5 7 4 8 3 9 2 10 1 11
REMARK H PARENT
REMARK Flexibility Score: inf
ROOT
ATOM      1  C   UNL     1       5.256  10.140  82.246  1.00  0.00     0.000 C 
ENDROOT
BRANCH   1   2
ATOM      2  C   UNL     1       3.746  10.253  82.520  1.00  0.00     0.006 C 
BRANCH   2   3
ATOM      3  C   UNL     1       3.181   8.988  83.180  1.00  0.00     0.053 C 
BRANCH   3   4
ATOM      4  C   UNL     1       2.331   9.316  84.371  1.00  0.00     0.041 C 
ATOM      5  O   UNL     1       1.084   9.148  84.324  1.00  0.00    -0.550 OA
ATOM      6  O   UNL     1       2.922   9.773  85.543  1.00  0.00    -0.550 OA
ENDBRANCH   3   4
ENDBRANCH   2   3
ENDBRANCH   1   2
BRANCH   1   7
ATOM      7  C   UNL     1       5.684   8.710  81.880  1.00  0.00     0.000 C 
BRANCH   7   8
ATOM      8  C   UNL     1       7.037   8.666  81.155  1.00  0.00     0.004 C 
BRANCH   8   9
ATOM      9  C   UNL     1       7.163   7.396  80.305  1.00  0.00     0.027 C 
BRANCH   9  10
ATOM     10  C   UNL     1       8.262   7.527  79.286  1.00  0.00    -0.035 C 
ATOM     11  C   UNL     1       9.209   6.593  79.148  1.00  0.00     0.004 C 
ENDBRANCH   9  10
ENDBRANCH   8   9
ENDBRANCH   7   8
ENDBRANCH   1   7
TORSDOF 7
ENDMDL
