MODEL 1
REMARK VINA RESULT:    -4.978      0.000      0.000
REMARK INTER + INTRA:         -10.515
REMARK INTER:                  -9.053
REMARK INTRA:                  -1.462
REMARK UNBOUND:                -1.462
REMARK SMILES CCCCCCCCCCCCCCCC(=O)[O-]
REMARK SMILES IDX 9 1 10 2 11 3 12 4 13 5 14 6 15 7 16 8 17 9 18 10 8 11 7 12
REMARK SMILES IDX 6 13 5 14 4 15 3 16 2 17 1 18
REMARK H PARENT
REMARK Flexibility Score: inf
ROOT
ATOM      1  C   UNL     1      48.254  21.251  50.656  1.00  0.00     0.000 C 
ENDROOT
BRANCH   1   2
ATOM      2  C   UNL     1      47.822  21.646  52.076  1.00  0.00     0.000 C 
BRANCH   2   3
ATOM      3  C   UNL     1      48.098  23.133  52.338  1.00  0.00     0.000 C 
BRANCH   3   4
ATOM      4  C   UNL     1      49.597  23.444  52.470  1.00  0.00     0.000 C 
BRANCH   4   5
ATOM      5  C   UNL     1      50.088  23.389  53.924  1.00  0.00     0.000 C 
BRANCH   5   6
ATOM      6  C   UNL     1      51.601  23.149  53.984  1.00  0.00     0.006 C 
BRANCH   6   7
ATOM      7  C   UNL     1      51.967  22.228  55.151  1.00  0.00     0.053 C 
BRANCH   7   8
ATOM      8  C   UNL     1      52.544  20.944  54.644  1.00  0.00     0.041 C 
ATOM      9  O   UNL     1      53.716  20.916  54.181  1.00  0.00    -0.550 OA
ATOM     10  O   UNL     1      51.807  19.770  54.724  1.00  0.00    -0.550 OA
ENDBRANCH   7   8
ENDBRANCH   6   7
ENDBRANCH   5   6
ENDBRANCH   4   5
ENDBRANCH   3   4
ENDBRANCH   2   3
ENDBRANCH   1   2
BRANCH   1  11
ATOM     11  C   UNL     1      48.549  19.748  50.518  1.00  0.00     0.000 C 
BRANCH  11  12
ATOM     12  C   UNL     1      50.015  19.465  50.146  1.00  0.00    -0.000 C 
BRANCH  12  13
ATOM     13  C   UNL     1      50.833  20.753  49.963  1.00  0.00    -0.000 C 
BRANCH  13  14
ATOM     14  C   UNL     1      51.931  20.915  51.029  1.00  0.00    -0.000 C 
BRANCH  14  15
ATOM     15  C   UNL     1      53.337  21.063  50.422  1.00  0.00    -0.000 C 
BRANCH  15  16
ATOM     16  C   UNL     1      53.667  20.065  49.298  1.00  0.00    -0.000 C 
BRANCH  16  17
ATOM     17  C   UNL     1      55.111  20.189  48.791  1.00  0.00    -0.003 C 
ATOM     18  C   UNL     1      55.279  21.418  47.903  1.00  0.00     0.004 C 
ENDBRANCH  16  17
ENDBRANCH  15  16
ENDBRANCH  14  15
ENDBRANCH  13  14
ENDBRANCH  12  13
ENDBRANCH  11  12
ENDBRANCH   1  11
TORSDOF 14
ENDMDL
MODEL 2
REMARK VINA RESULT:    -4.750      3.517      5.301
REMARK INTER + INTRA:         -10.100
REMARK INTER:                  -8.937
REMARK INTRA:                  -1.164
REMARK UNBOUND:                -1.462
REMARK SMILES CCCCCCCCCCCCCCCC(=O)[O-]
REMARK SMILES IDX 9 1 10 2 11 3 12 4 13 5 14 6 15 7 16 8 17 9 18 10 8 11 7 12
REMARK SMILES IDX 6 13 5 14 4 15 3 16 2 17 1 18
REMARK H PARENT
REMARK Flexibility Score: inf
ROOT
ATOM      1  C   UNL     1      50.155  22.475  53.664  1.00  0.00     0.000 C 
ENDROOT
BRANCH   1   2
ATOM      2  C   UNL     1      48.699  22.137  53.306  1.00  0.00     0.000 C 
BRANCH   2   3
ATOM      3  C   UNL     1      48.380  22.552  51.863  1.00  0.00     0.000 C 
BRANCH   3   4
ATOM      4  C   UNL     1      47.764  21.410  51.039  1.00  0.00     0.000 C 
BRANCH   4   5
ATOM      5  C   UNL     1      47.223  20.272  51.917  1.00  0.00     0.000 C 
BRANCH   5   6
ATOM      6  C   UNL     1      46.286  19.360  51.117  1.00  0.00     0.006 C 
BRANCH   6   7
ATOM      7  C   UNL     1      45.571  18.364  52.035  1.00  0.00     0.053 C 
BRANCH   7   8
ATOM      8  C   UNL     1      44.444  17.700  51.309  1.00  0.00     0.041 C 
ATOM      9  O   UNL     1      44.550  16.502  50.935  1.00  0.00    -0.550 OA
ATOM     10  O   UNL     1      43.258  18.389  51.086  1.00  0.00    -0.550 OA
ENDBRANCH   7   8
ENDBRANCH   6   7
ENDBRANCH   5   6
ENDBRANCH   4   5
ENDBRANCH   3   4
ENDBRANCH   2   3
ENDBRANCH   1   2
BRANCH   1  11
ATOM     11  C   UNL     1      50.845  23.341  52.598  1.00  0.00     0.000 C 
BRANCH  11  12
ATOM     12  C   UNL     1      52.195  22.758  52.144  1.00  0.00    -0.000 C 
BRANCH  12  13
ATOM     13  C   UNL     1      52.140  21.233  51.955  1.00  0.00    -0.000 C 
BRANCH  13  14
ATOM     14  C   UNL     1      51.464  20.824  50.635  1.00  0.00    -0.000 C 
BRANCH  14  15
ATOM     15  C   UNL     1      52.470  20.372  49.562  1.00  0.00    -0.000 C 
BRANCH  15  16
ATOM     16  C   UNL     1      53.950  20.581  49.932  1.00  0.00    -0.000 C 
BRANCH  16  17
ATOM     17  C   UNL     1      54.912  20.170  48.808  1.00  0.00    -0.003 C 
ATOM     18  C   UNL     1      55.286  21.366  47.938  1.00  0.00     0.004 C 
ENDBRANCH  16  17
ENDBRANCH  15  16
ENDBRANCH  14  15
ENDBRANCH  13  14
ENDBRANCH  12  13
ENDBRANCH  11  12
ENDBRANCH   1  11
TORSDOF 14
ENDMDL
MODEL 3
REMARK VINA RESULT:    -4.721      3.401      4.679
REMARK INTER + INTRA:         -10.047
REMARK INTER:                  -8.856
REMARK INTRA:                  -1.191
REMARK UNBOUND:                -1.462
REMARK SMILES CCCCCCCCCCCCCCCC(=O)[O-]
REMARK SMILES IDX 9 1 10 2 11 3 12 4 13 5 14 6 15 7 16 8 17 9 18 10 8 11 7 12
REMARK SMILES IDX 6 13 5 14 4 15 3 16 2 17 1 18
REMARK H PARENT
REMARK Flexibility Score: inf
ROOT
ATOM      1  C   UNL     1      53.104  21.326  53.700  1.00  0.00     0.000 C 
ENDROOT
BRANCH   1   2
ATOM      2  C   UNL     1      53.377  22.633  52.940  1.00  0.00     0.000 C 
BRANCH   2   3
ATOM      3  C   UNL     1      53.804  23.748  53.904  1.00  0.00     0.000 C 
BRANCH   3   4
ATOM      4  C   UNL     1      54.047  23.237  55.333  1.00  0.00     0.000 C 
BRANCH   4   5
ATOM      5  C   UNL     1      55.541  23.137  55.680  1.00  0.00     0.000 C 
BRANCH   5   6
ATOM      6  C   UNL     1      55.804  23.614  57.113  1.00  0.00     0.006 C 
BRANCH   6   7
ATOM      7  C   UNL     1      56.446  22.505  57.952  1.00  0.00     0.053 C 
BRANCH   7   8
ATOM      8  C   UNL     1      57.922  22.458  57.716  1.00  0.00     0.041 C 
ATOM      9  O   UNL     1      58.545  23.502  57.387  1.00  0.00    -0.550 OA
ATOM     10  O   UNL     1      58.619  21.270  57.904  1.00  0.00    -0.550 OA
ENDBRANCH   7   8
ENDBRANCH   6   7
ENDBRANCH   5   6
ENDBRANCH   4   5
ENDBRANCH   3   4
ENDBRANCH   2   3
ENDBRANCH   1   2
BRANCH   1  11
ATOM     11  C   UNL     1      51.676  20.799  53.488  1.00  0.00     0.000 C 
BRANCH  11  12
ATOM     12  C   UNL     1      50.879  21.639  52.475  1.00  0.00    -0.000 C 
BRANCH  12  13
ATOM     13  C   UNL     1      50.529  20.848  51.204  1.00  0.00    -0.000 C 
BRANCH  13  14
ATOM     14  C   UNL     1      51.332  21.314  49.977  1.00  0.00    -0.000 C 
BRANCH  14  15
ATOM     15  C   UNL     1      52.399  20.295  49.538  1.00  0.00    -0.000 C 
BRANCH  15  16
ATOM     16  C   UNL     1      53.830  20.611  50.007  1.00  0.00    -0.000 C 
BRANCH  16  17
ATOM     17  C   UNL     1      54.900  20.204  48.984  1.00  0.00    -0.003 C 
ATOM     18  C   UNL     1      55.185  21.337  48.003  1.00  0.00     0.004 C 
ENDBRANCH  16  17
ENDBRANCH  15  16
ENDBRANCH  14  15
ENDBRANCH  13  14
ENDBRANCH  12  13
ENDBRANCH  11  12
ENDBRANCH   1  11
TORSDOF 14
ENDMDL
MODEL 4
REMARK VINA RESULT:    -4.653      1.819      2.894
REMARK INTER + INTRA:          -9.923
REMARK INTER:                  -8.210
REMARK INTRA:                  -1.713
REMARK UNBOUND:                -1.462
REMARK SMILES CCCCCCCCCCCCCCCC(=O)[O-]
REMARK SMILES IDX 9 1 10 2 11 3 12 4 13 5 14 6 15 7 16 8 17 9 18 10 8 11 7 12
REMARK SMILES IDX 6 13 5 14 4 15 3 16 2 17 1 18
REMARK H PARENT
REMARK Flexibility Score: inf
ROOT
ATOM      1  C   UNL     1      50.010  23.303  53.188  1.00  0.00     0.000 C 
ENDROOT
BRANCH   1   2
ATOM      2  C   UNL     1      49.498  22.105  54.003  1.00  0.00     0.000 C 
BRANCH   2   3
ATOM      3  C   UNL     1      50.568  21.619  54.991  1.00  0.00     0.000 C 
BRANCH   3   4
ATOM      4  C   UNL     1      51.511  20.572  54.379  1.00  0.00     0.000 C 
BRANCH   4   5
ATOM      5  C   UNL     1      52.983  20.815  54.744  1.00  0.00     0.000 C 
BRANCH   5   6
ATOM      6  C   UNL     1      53.613  21.857  53.813  1.00  0.00     0.006 C 
BRANCH   6   7
ATOM      7  C   UNL     1      53.909  23.159  54.563  1.00  0.00     0.053 C 
BRANCH   7   8
ATOM      8  C   UNL     1      55.235  23.078  55.251  1.00  0.00     0.041 C 
ATOM      9  O   UNL     1      56.261  23.565  54.708  1.00  0.00    -0.550 OA
ATOM     10  O   UNL     1      55.329  22.505  56.513  1.00  0.00    -0.550 OA
ENDBRANCH   7   8
ENDBRANCH   6   7
ENDBRANCH   5   6
ENDBRANCH   4   5
ENDBRANCH   3   4
ENDBRANCH   2   3
ENDBRANCH   1   2
BRANCH   1  11
ATOM     11  C   UNL     1      50.203  22.973  51.699  1.00  0.00     0.000 C 
BRANCH  11  12
ATOM     12  C   UNL     1      49.472  21.685  51.278  1.00  0.00    -0.000 C 
BRANCH  12  13
ATOM     13  C   UNL     1      50.437  20.604  50.764  1.00  0.00    -0.000 C 
BRANCH  13  14
ATOM     14  C   UNL     1      51.910  21.040  50.843  1.00  0.00    -0.000 C 
BRANCH  14  15
ATOM     15  C   UNL     1      52.715  20.655  49.589  1.00  0.00    -0.000 C 
BRANCH  15  16
ATOM     16  C   UNL     1      54.198  20.329  49.845  1.00  0.00    -0.000 C 
BRANCH  16  17
ATOM     17  C   UNL     1      54.997  20.116  48.551  1.00  0.00    -0.003 C 
ATOM     18  C   UNL     1      55.298  21.445  47.865  1.00  0.00     0.004 C 
ENDBRANCH  16  17
ENDBRANCH  15  16
ENDBRANCH  14  15
ENDBRANCH  13  14
ENDBRANCH  12  13
ENDBRANCH  11  12
ENDBRANCH   1  11
TORSDOF 14
ENDMDL
MODEL 5
REMARK VINA RESULT:    -4.638      4.238      6.017
REMARK INTER + INTRA:          -9.897
REMARK INTER:                  -9.128
REMARK INTRA:                  -0.769
REMARK UNBOUND:                -1.462
REMARK SMILES CCCCCCCCCCCCCCCC(=O)[O-]
REMARK SMILES IDX 9 1 10 2 11 3 12 4 13 5 14 6 15 7 16 8 17 9 18 10 8 11 7 12
REMARK SMILES IDX 6 13 5 14 4 15 3 16 2 17 1 18
REMARK H PARENT
REMARK Flexibility Score: inf
ROOT
ATOM      1  C   UNL     1      48.040  21.065  50.425  1.00  0.00     0.000 C 
ENDROOT
BRANCH   1   2
ATOM      2  C   UNL     1      46.793  20.168  50.411  1.00  0.00     0.000 C 
BRANCH   2   3
ATOM      3  C   UNL     1      46.591  19.491  51.774  1.00  0.00     0.000 C 
BRANCH   3   4
ATOM      4  C   UNL     1      45.667  18.266  51.697  1.00  0.00     0.000 C 
BRANCH   4   5
ATOM      5  C   UNL     1      44.350  18.562  50.965  1.00  0.00     0.000 C 
BRANCH   5   6
ATOM      6  C   UNL     1      43.181  18.655  51.952  1.00  0.00     0.006 C 
BRANCH   6   7
ATOM      7  C   UNL     1      43.606  18.204  53.352  1.00  0.00     0.053 C 
BRANCH   7   8
ATOM      8  C   UNL     1      42.809  18.918  54.398  1.00  0.00     0.041 C 
ATOM      9  O   UNL     1      41.644  19.322  54.140  1.00  0.00    -0.550 OA
ATOM     10  O   UNL     1      43.335  19.098  55.671  1.00  0.00    -0.550 OA
ENDBRANCH   7   8
ENDBRANCH   6   7
ENDBRANCH   5   6
ENDBRANCH   4   5
ENDBRANCH   3   4
ENDBRANCH   2   3
ENDBRANCH   1   2
BRANCH   1  11
ATOM     11  C   UNL     1      48.330  21.663  51.812  1.00  0.00     0.000 C 
BRANCH  11  12
ATOM     12  C   UNL     1      49.821  21.593  52.186  1.00  0.00    -0.000 C 
BRANCH  12  13
ATOM     13  C   UNL     1      50.702  21.148  51.007  1.00  0.00    -0.000 C 
BRANCH  13  14
ATOM     14  C   UNL     1      52.027  21.926  50.931  1.00  0.00    -0.000 C 
BRANCH  14  15
ATOM     15  C   UNL     1      53.255  21.006  50.812  1.00  0.00    -0.000 C 
BRANCH  15  16
ATOM     16  C   UNL     1      53.401  20.292  49.456  1.00  0.00    -0.000 C 
BRANCH  16  17
ATOM     17  C   UNL     1      54.861  20.183  48.991  1.00  0.00    -0.003 C 
ATOM     18  C   UNL     1      55.233  21.340  48.069  1.00  0.00     0.004 C 
ENDBRANCH  16  17
ENDBRANCH  15  16
ENDBRANCH  14  15
ENDBRANCH  13  14
ENDBRANCH  12  13
ENDBRANCH  11  12
ENDBRANCH   1  11
TORSDOF 14
ENDMDL
MODEL 6
REMARK VINA RESULT:    -4.626      2.421      5.508
REMARK INTER + INTRA:          -9.874
REMARK INTER:                  -8.044
REMARK INTRA:                  -1.831
REMARK UNBOUND:                -1.462
REMARK SMILES CCCCCCCCCCCCCCCC(=O)[O-]
REMARK SMILES IDX 9 1 10 2 11 3 12 4 13 5 14 6 15 7 16 8 17 9 18 10 8 11 7 12
REMARK SMILES IDX 6 13 5 14 4 15 3 16 2 17 1 18
REMARK H PARENT
REMARK Flexibility Score: inf
ROOT
ATOM      1  C   UNL     1      51.812  24.871  52.116  1.00  0.00     0.000 C 
ENDROOT
BRANCH   1   2
ATOM      2  C   UNL     1      52.302  24.085  53.342  1.00  0.00     0.000 C 
BRANCH   2   3
ATOM      3  C   UNL     1      53.246  22.950  52.923  1.00  0.00     0.000 C 
BRANCH   3   4
ATOM      4  C   UNL     1      52.562  21.574  52.934  1.00  0.00     0.000 C 
BRANCH   4   5
ATOM      5  C   UNL     1      52.251  21.056  51.522  1.00  0.00     0.000 C 
BRANCH   5   6
ATOM      6  C   UNL     1      53.391  21.385  50.553  1.00  0.00     0.006 C 
BRANCH   6   7
ATOM      7  C   UNL     1      53.540  20.297  49.486  1.00  0.00     0.053 C 
BRANCH   7   8
ATOM      8  C   UNL     1      54.868  20.407  48.806  1.00  0.00     0.041 C 
ATOM      9  O   UNL     1      55.758  19.541  49.012  1.00  0.00    -0.550 OA
ATOM     10  O   UNL     1      55.106  21.441  47.910  1.00  0.00    -0.550 OA
ENDBRANCH   7   8
ENDBRANCH   6   7
ENDBRANCH   5   6
ENDBRANCH   4   5
ENDBRANCH   3   4
ENDBRANCH   2   3
ENDBRANCH   1   2
BRANCH   1  11
ATOM     11  C   UNL     1      50.399  24.463  51.671  1.00  0.00     0.000 C 
BRANCH  11  12
ATOM     12  C   UNL     1      49.358  24.609  52.794  1.00  0.00    -0.000 C 
BRANCH  12  13
ATOM     13  C   UNL     1      48.277  23.517  52.738  1.00  0.00    -0.000 C 
BRANCH  13  14
ATOM     14  C   UNL     1      48.827  22.164  52.253  1.00  0.00    -0.000 C 
BRANCH  14  15
ATOM     15  C   UNL     1      47.725  21.224  51.732  1.00  0.00    -0.000 C 
BRANCH  15  16
ATOM     16  C   UNL     1      47.741  20.986  50.211  1.00  0.00    -0.000 C 
BRANCH  16  17
ATOM     17  C   UNL     1      49.124  20.576  49.684  1.00  0.00    -0.003 C 
ATOM     18  C   UNL     1      49.436  19.123  50.028  1.00  0.00     0.004 C 
ENDBRANCH  16  17
ENDBRANCH  15  16
ENDBRANCH  14  15
ENDBRANCH  13  14
ENDBRANCH  12  13
ENDBRANCH  11  12
ENDBRANCH   1  11
TORSDOF 14
ENDMDL
MODEL 7
REMARK VINA RESULT:    -4.621      2.273      4.908
REMARK INTER + INTRA:          -9.866
REMARK INTER:                  -7.944
REMARK INTRA:                  -1.922
REMARK UNBOUND:                -1.462
REMARK SMILES CCCCCCCCCCCCCCCC(=O)[O-]
REMARK SMILES IDX 9 1 10 2 11 3 12 4 13 5 14 6 15 7 16 8 17 9 18 10 8 11 7 12
REMARK SMILES IDX 6 13 5 14 4 15 3 16 2 17 1 18
REMARK H PARENT
REMARK Flexibility Score: inf
ROOT
ATOM      1  C   UNL     1      47.761  21.095  51.598  1.00  0.00     0.000 C 
ENDROOT
BRANCH   1   2
ATOM      2  C   UNL     1      48.644  21.052  50.342  1.00  0.00     0.000 C 
BRANCH   2   3
ATOM      3  C   UNL     1      48.923  19.603  49.918  1.00  0.00     0.000 C 
BRANCH   3   4
ATOM      4  C   UNL     1      50.362  19.160  50.226  1.00  0.00     0.000 C 
BRANCH   4   5
ATOM      5  C   UNL     1      51.272  20.334  50.616  1.00  0.00     0.000 C 
BRANCH   5   6
ATOM      6  C   UNL     1      52.301  20.619  49.517  1.00  0.00     0.006 C 
BRANCH   6   7
ATOM      7  C   UNL     1      53.716  20.705  50.096  1.00  0.00     0.053 C 
BRANCH   7   8
ATOM      8  C   UNL     1      54.736  20.543  49.013  1.00  0.00     0.041 C 
ATOM      9  O   UNL     1      54.821  21.396  48.091  1.00  0.00    -0.550 OA
ATOM     10  O   UNL     1      55.622  19.474  49.046  1.00  0.00    -0.550 OA
ENDBRANCH   7   8
ENDBRANCH   6   7
ENDBRANCH   5   6
ENDBRANCH   4   5
ENDBRANCH   3   4
ENDBRANCH   2   3
ENDBRANCH   1   2
BRANCH   1  11
ATOM     11  C   UNL     1      48.098  22.274  52.525  1.00  0.00     0.000 C 
BRANCH  11  12
ATOM     12  C   UNL     1      49.141  23.227  51.915  1.00  0.00    -0.000 C 
BRANCH  12  13
ATOM     13  C   UNL     1      50.268  23.573  52.902  1.00  0.00    -0.000 C 
BRANCH  13  14
ATOM     14  C   UNL     1      51.556  24.029  52.195  1.00  0.00    -0.000 C 
BRANCH  14  15
ATOM     15  C   UNL     1      52.800  23.252  52.661  1.00  0.00    -0.000 C 
BRANCH  15  16
ATOM     16  C   UNL     1      52.612  22.445  53.958  1.00  0.00    -0.000 C 
BRANCH  16  17
ATOM     17  C   UNL     1      52.899  20.947  53.778  1.00  0.00    -0.003 C 
ATOM     18  C   UNL     1      51.985  20.101  54.660  1.00  0.00     0.004 C 
ENDBRANCH  16  17
ENDBRANCH  15  16
ENDBRANCH  14  15
ENDBRANCH  13  14
ENDBRANCH  12  13
ENDBRANCH  11  12
ENDBRANCH   1  11
TORSDOF 14
ENDMDL
MODEL 8
REMARK VINA RESULT:    -4.594      1.484      2.038
REMARK INTER + INTRA:          -9.816
REMARK INTER:                  -8.180
REMARK INTRA:                  -1.636
REMARK UNBOUND:                -1.462
REMARK SMILES CCCCCCCCCCCCCCCC(=O)[O-]
REMARK SMILES IDX 9 1 10 2 11 3 12 4 13 5 14 6 15 7 16 8 17 9 18 10 8 11 7 12
REMARK SMILES IDX 6 13 5 14 4 15 3 16 2 17 1 18
REMARK H PARENT
REMARK Flexibility Score: inf
ROOT
ATOM      1  C   UNL     1      48.385  21.947  51.356  1.00  0.00     0.000 C 
ENDROOT
BRANCH   1   2
ATOM      2  C   UNL     1      48.410  21.752  52.879  1.00  0.00     0.000 C 
BRANCH   2   3
ATOM      3  C   UNL     1      49.374  22.747  53.542  1.00  0.00     0.000 C 
BRANCH   3   4
ATOM      4  C   UNL     1      50.446  22.056  54.399  1.00  0.00     0.000 C 
BRANCH   4   5
ATOM      5  C   UNL     1      51.168  20.928  53.647  1.00  0.00     0.000 C 
BRANCH   5   6
ATOM      6  C   UNL     1      52.598  20.749  54.168  1.00  0.00     0.006 C 
BRANCH   6   7
ATOM      7  C   UNL     1      52.986  21.888  55.116  1.00  0.00     0.053 C 
BRANCH   7   8
ATOM      8  C   UNL     1      54.006  22.777  54.477  1.00  0.00     0.041 C 
ATOM      9  O   UNL     1      55.004  23.171  55.136  1.00  0.00    -0.550 OA
ATOM     10  O   UNL     1      53.879  23.133  53.140  1.00  0.00    -0.550 OA
ENDBRANCH   7   8
ENDBRANCH   6   7
ENDBRANCH   5   6
ENDBRANCH   4   5
ENDBRANCH   3   4
ENDBRANCH   2   3
ENDBRANCH   1   2
BRANCH   1  11
ATOM     11  C   UNL     1      47.725  20.772  50.615  1.00  0.00     0.000 C 
BRANCH  11  12
ATOM     12  C   UNL     1      48.704  20.031  49.689  1.00  0.00    -0.000 C 
BRANCH  12  13
ATOM     13  C   UNL     1      49.887  19.417  50.457  1.00  0.00    -0.000 C 
BRANCH  13  14
ATOM     14  C   UNL     1      51.234  19.642  49.748  1.00  0.00    -0.000 C 
BRANCH  14  15
ATOM     15  C   UNL     1      51.868  21.002  50.089  1.00  0.00    -0.000 C 
BRANCH  15  16
ATOM     16  C   UNL     1      53.372  20.953  50.413  1.00  0.00    -0.000 C 
BRANCH  16  17
ATOM     17  C   UNL     1      54.190  20.205  49.349  1.00  0.00    -0.003 C 
ATOM     18  C   UNL     1      54.885  21.179  48.403  1.00  0.00     0.004 C 
ENDBRANCH  16  17
ENDBRANCH  15  16
ENDBRANCH  14  15
ENDBRANCH  13  14
ENDBRANCH  12  13
ENDBRANCH  11  12
ENDBRANCH   1  11
TORSDOF 14
ENDMDL
MODEL 9
REMARK VINA RESULT:    -4.499      2.223      4.117
REMARK INTER + INTRA:          -9.644
REMARK INTER:                  -8.010
REMARK INTRA:                  -1.634
REMARK UNBOUND:                -1.462
REMARK SMILES CCCCCCCCCCCCCCCC(=O)[O-]
REMARK SMILES IDX 9 1 10 2 11 3 12 4 13 5 14 6 15 7 16 8 17 9 18 10 8 11 7 12
REMARK SMILES IDX 6 13 5 14 4 15 3 16 2 17 1 18
REMARK H PARENT
REMARK Flexibility Score: inf
ROOT
ATOM      1  C   UNL     1      51.930  20.758  54.263  1.00  0.00     0.000 C 
ENDROOT
BRANCH   1   2
ATOM      2  C   UNL     1      50.544  20.968  54.893  1.00  0.00     0.000 C 
BRANCH   2   3
ATOM      3  C   UNL     1      50.062  22.411  54.684  1.00  0.00     0.000 C 
BRANCH   3   4
ATOM      4  C   UNL     1      48.665  22.484  54.048  1.00  0.00     0.000 C 
BRANCH   4   5
ATOM      5  C   UNL     1      48.687  23.093  52.638  1.00  0.00     0.000 C 
BRANCH   5   6
ATOM      6  C   UNL     1      48.404  22.026  51.574  1.00  0.00     0.006 C 
BRANCH   6   7
ATOM      7  C   UNL     1      49.667  21.225  51.248  1.00  0.00     0.053 C 
BRANCH   7   8
ATOM      8  C   UNL     1      49.360  20.143  50.262  1.00  0.00     0.041 C 
ATOM      9  O   UNL     1      48.382  20.260  49.477  1.00  0.00    -0.550 OA
ATOM     10  O   UNL     1      50.182  19.026  50.177  1.00  0.00    -0.550 OA
ENDBRANCH   7   8
ENDBRANCH   6   7
ENDBRANCH   5   6
ENDBRANCH   4   5
ENDBRANCH   3   4
ENDBRANCH   2   3
ENDBRANCH   1   2
BRANCH   1  11
ATOM     11  C   UNL     1      53.007  21.671  54.872  1.00  0.00     0.000 C 
BRANCH  11  12
ATOM     12  C   UNL     1      53.789  22.457  53.805  1.00  0.00    -0.000 C 
BRANCH  12  13
ATOM     13  C   UNL     1      52.898  22.904  52.635  1.00  0.00    -0.000 C 
BRANCH  13  14
ATOM     14  C   UNL     1      53.459  22.478  51.267  1.00  0.00    -0.000 C 
BRANCH  14  15
ATOM     15  C   UNL     1      53.209  20.991  50.956  1.00  0.00    -0.000 C 
BRANCH  15  16
ATOM     16  C   UNL     1      53.337  20.609  49.470  1.00  0.00    -0.000 C 
BRANCH  16  17
ATOM     17  C   UNL     1      54.788  20.332  49.047  1.00  0.00    -0.003 C 
ATOM     18  C   UNL     1      55.251  21.327  47.987  1.00  0.00     0.004 C 
ENDBRANCH  16  17
ENDBRANCH  15  16
ENDBRANCH  14  15
ENDBRANCH  13  14
ENDBRANCH  12  13
ENDBRANCH  11  12
ENDBRANCH   1  11
TORSDOF 14
ENDMDL
