MODEL 1
REMARK VINA RESULT:    -2.621      0.000      0.000
REMARK INTER + INTRA:          -2.621
REMARK INTER:                  -2.621
REMARK INTRA:                   0.000
REMARK UNBOUND:                 0.000
REMARK SMILES CC(C)=C1CC[C@@H](C)CC1=O
REMARK SMILES IDX 8 1 7 2 6 3 5 4 4 5 2 6 1 7 3 8 10 9 11 10 9 11
REMARK H PARENT
REMARK Flexibility Score: inf
ROOT
ATOM      1  C   UNL     1      29.799  57.480   8.118  1.00  0.00     0.008 C 
ATOM      2  C   UNL     1      31.246  57.241   8.577  1.00  0.00    -0.006 C 
ATOM      3  C   UNL     1      31.400  55.927   9.363  1.00  0.00     0.008 C 
ATOM      4  C   UNL     1      30.670  55.945  10.715  1.00  0.00     0.039 C 
ATOM      5  C   UNL     1      30.979  57.188  11.541  1.00  0.00    -0.006 C 
ATOM      6  C   UNL     1      30.963  57.152  12.906  1.00  0.00    -0.070 C 
ATOM      7  C   UNL     1      31.322  58.362  13.738  1.00  0.00     0.039 C 
ATOM      8  C   UNL     1      30.622  55.883  13.651  1.00  0.00     0.039 C 
ATOM      9  C   UNL     1      31.178  58.455  10.777  1.00  0.00     0.159 C 
ATOM     10  O   UNL     1      30.836  59.570  11.258  1.00  0.00    -0.295 OA
ATOM     11  C   UNL     1      31.783  58.420   9.403  1.00  0.00     0.084 C 
ENDROOT
TORSDOF 0
ENDMDL
MODEL 2
REMARK VINA RESULT:    -2.566      1.791      3.432
REMARK INTER + INTRA:          -2.566
REMARK INTER:                  -2.566
REMARK INTRA:                   0.000
REMARK UNBOUND:                 0.000
REMARK SMILES CC(C)=C1CC[C@@H](C)CC1=O
REMARK SMILES IDX 8 1 7 2 6 3 5 4 4 5 2 6 1 7 3 8 10 9 11 10 9 11
REMARK H PARENT
REMARK Flexibility Score: inf
ROOT
ATOM      1  C   UNL     1      29.843  61.521  10.240  1.00  0.00     0.008 C 
ATOM      2  C   UNL     1      31.202  61.079  10.806  1.00  0.00    -0.006 C 
ATOM      3  C   UNL     1      32.063  60.353   9.757  1.00  0.00     0.008 C 
ATOM      4  C   UNL     1      31.477  58.998   9.331  1.00  0.00     0.039 C 
ATOM      5  C   UNL     1      31.088  58.120  10.514  1.00  0.00    -0.006 C 
ATOM      6  C   UNL     1      31.133  56.758  10.427  1.00  0.00    -0.070 C 
ATOM      7  C   UNL     1      30.805  55.875  11.610  1.00  0.00     0.039 C 
ATOM      8  C   UNL     1      31.551  56.068   9.150  1.00  0.00     0.039 C 
ATOM      9  C   UNL     1      30.550  58.828  11.713  1.00  0.00     0.159 C 
ATOM     10  O   UNL     1      29.675  58.297  12.448  1.00  0.00    -0.295 OA
ATOM     11  C   UNL     1      31.040  60.205  12.058  1.00  0.00     0.084 C 
ENDROOT
TORSDOF 0
ENDMDL
MODEL 3
REMARK VINA RESULT:    -2.542      1.512      3.746
REMARK INTER + INTRA:          -2.542
REMARK INTER:                  -2.542
REMARK INTRA:                   0.000
REMARK UNBOUND:                 0.000
REMARK SMILES CC(C)=C1CC[C@@H](C)CC1=O
REMARK SMILES IDX 8 1 7 2 6 3 5 4 4 5 2 6 1 7 3 8 10 9 11 10 9 11
REMARK H PARENT
REMARK Flexibility Score: inf
ROOT
ATOM      1  C   UNL     1      31.746  55.875  13.506  1.00  0.00     0.008 C 
ATOM      2  C   UNL     1      30.417  56.195  12.805  1.00  0.00    -0.006 C 
ATOM      3  C   UNL     1      30.497  55.994  11.281  1.00  0.00     0.008 C 
ATOM      4  C   UNL     1      31.434  56.997  10.590  1.00  0.00     0.039 C 
ATOM      5  C   UNL     1      31.167  58.439  11.001  1.00  0.00    -0.006 C 
ATOM      6  C   UNL     1      31.409  59.474  10.143  1.00  0.00    -0.070 C 
ATOM      7  C   UNL     1      31.095  60.905  10.515  1.00  0.00     0.039 C 
ATOM      8  C   UNL     1      31.966  59.231   8.760  1.00  0.00     0.039 C 
ATOM      9  C   UNL     1      30.747  58.656  12.417  1.00  0.00     0.159 C 
ATOM     10  O   UNL     1      31.073  59.700  13.044  1.00  0.00    -0.295 OA
ATOM     11  C   UNL     1      29.930  57.616  13.128  1.00  0.00     0.084 C 
ENDROOT
TORSDOF 0
ENDMDL
MODEL 4
REMARK VINA RESULT:    -2.535      1.294      1.693
REMARK INTER + INTRA:          -2.535
REMARK INTER:                  -2.535
REMARK INTRA:                   0.000
REMARK UNBOUND:                 0.000
REMARK SMILES CC(C)=C1CC[C@@H](C)CC1=O
REMARK SMILES IDX 8 1 7 2 6 3 5 4 4 5 2 6 1 7 3 8 10 9 11 10 9 11
REMARK H PARENT
REMARK Flexibility Score: inf
ROOT
ATOM      1  C   UNL     1      30.044  59.570   8.466  1.00  0.00     0.008 C 
ATOM      2  C   UNL     1      31.426  59.670   9.129  1.00  0.00    -0.006 C 
ATOM      3  C   UNL     1      32.095  58.294   9.294  1.00  0.00     0.008 C 
ATOM      4  C   UNL     1      31.363  57.384  10.293  1.00  0.00     0.039 C 
ATOM      5  C   UNL     1      31.061  58.077  11.616  1.00  0.00    -0.006 C 
ATOM      6  C   UNL     1      30.994  57.372  12.783  1.00  0.00    -0.070 C 
ATOM      7  C   UNL     1      30.751  58.053  14.111  1.00  0.00     0.039 C 
ATOM      8  C   UNL     1      31.200  55.875  12.807  1.00  0.00     0.039 C 
ATOM      9  C   UNL     1      30.729  59.530  11.540  1.00  0.00     0.159 C 
ATOM     10  O   UNL     1      29.914  60.058  12.344  1.00  0.00    -0.295 OA
ATOM     11  C   UNL     1      31.357  60.392  10.483  1.00  0.00     0.084 C 
ENDROOT
TORSDOF 0
ENDMDL
MODEL 5
REMARK VINA RESULT:    -2.318      1.684      3.184
REMARK INTER + INTRA:          -2.318
REMARK INTER:                  -2.318
REMARK INTRA:                   0.000
REMARK UNBOUND:                 0.000
REMARK SMILES CC(C)=C1CC[C@@H](C)CC1=O
REMARK SMILES IDX 8 1 7 2 6 3 5 4 4 5 2 6 1 7 3 8 10 9 11 10 9 11
REMARK H PARENT
REMARK Flexibility Score: inf
ROOT
ATOM      1  C   UNL     1      29.432  55.875  11.998  1.00  0.00     0.008 C 
ATOM      2  C   UNL     1      30.913  56.249  11.834  1.00  0.00    -0.006 C 
ATOM      3  C   UNL     1      31.623  56.429  13.188  1.00  0.00     0.008 C 
ATOM      4  C   UNL     1      31.107  57.640  13.981  1.00  0.00     0.039 C 
ATOM      5  C   UNL     1      31.050  58.915  13.149  1.00  0.00    -0.006 C 
ATOM      6  C   UNL     1      31.217  60.142  13.725  1.00  0.00    -0.070 C 
ATOM      7  C   UNL     1      31.219  61.412  12.904  1.00  0.00     0.039 C 
ATOM      8  C   UNL     1      31.446  60.285  15.211  1.00  0.00     0.039 C 
ATOM      9  C   UNL     1      30.687  58.749  11.711  1.00  0.00     0.159 C 
ATOM     10  O   UNL     1      30.032  59.633  11.096  1.00  0.00    -0.295 OA
ATOM     11  C   UNL     1      31.091  57.507  10.970  1.00  0.00     0.084 C 
ENDROOT
TORSDOF 0
ENDMDL
MODEL 6
REMARK VINA RESULT:    -2.307      2.152      3.837
REMARK INTER + INTRA:          -2.307
REMARK INTER:                  -2.307
REMARK INTRA:                   0.000
REMARK UNBOUND:                 0.000
REMARK SMILES CC(C)=C1CC[C@@H](C)CC1=O
REMARK SMILES IDX 8 1 7 2 6 3 5 4 4 5 2 6 1 7 3 8 10 9 11 10 9 11
REMARK H PARENT
REMARK Flexibility Score: inf
ROOT
ATOM      1  C   UNL     1      29.191  61.141  12.936  1.00  0.00     0.008 C 
ATOM      2  C   UNL     1      30.696  60.957  12.685  1.00  0.00    -0.006 C 
ATOM      3  C   UNL     1      30.982  60.235  11.357  1.00  0.00     0.008 C 
ATOM      4  C   UNL     1      30.510  58.772  11.352  1.00  0.00     0.039 C 
ATOM      5  C   UNL     1      30.970  57.995  12.580  1.00  0.00    -0.006 C 
ATOM      6  C   UNL     1      31.201  56.651  12.519  1.00  0.00    -0.070 C 
ATOM      7  C   UNL     1      31.712  55.877  13.713  1.00  0.00     0.039 C 
ATOM      8  C   UNL     1      30.994  55.878  11.237  1.00  0.00     0.039 C 
ATOM      9  C   UNL     1      31.034  58.760  13.860  1.00  0.00     0.159 C 
ATOM     10  O   UNL     1      30.791  58.207  14.966  1.00  0.00    -0.295 OA
ATOM     11  C   UNL     1      31.380  60.222  13.848  1.00  0.00     0.084 C 
ENDROOT
TORSDOF 0
ENDMDL
MODEL 7
REMARK VINA RESULT:    -2.303      1.215      3.858
REMARK INTER + INTRA:          -2.303
REMARK INTER:                  -2.303
REMARK INTRA:                   0.000
REMARK UNBOUND:                 0.000
REMARK SMILES CC(C)=C1CC[C@@H](C)CC1=O
REMARK SMILES IDX 8 1 7 2 6 3 5 4 4 5 2 6 1 7 3 8 10 9 11 10 9 11
REMARK H PARENT
REMARK Flexibility Score: inf
ROOT
ATOM      1  C   UNL     1      31.370  58.871  13.948  1.00  0.00     0.008 C 
ATOM      2  C   UNL     1      30.095  58.775  13.095  1.00  0.00    -0.006 C 
ATOM      3  C   UNL     1      29.828  57.341  12.604  1.00  0.00     0.008 C 
ATOM      4  C   UNL     1      30.881  56.843  11.602  1.00  0.00     0.039 C 
ATOM      5  C   UNL     1      31.144  57.834  10.475  1.00  0.00    -0.006 C 
ATOM      6  C   UNL     1      31.526  57.408   9.235  1.00  0.00    -0.070 C 
ATOM      7  C   UNL     1      31.736  58.375   8.092  1.00  0.00     0.039 C 
ATOM      8  C   UNL     1      31.718  55.939   8.935  1.00  0.00     0.039 C 
ATOM      9  C   UNL     1      31.079  59.280  10.838  1.00  0.00     0.159 C 
ATOM     10  O   UNL     1      31.816  60.131  10.272  1.00  0.00    -0.295 OA
ATOM     11  C   UNL     1      30.131  59.746  11.906  1.00  0.00     0.084 C 
ENDROOT
TORSDOF 0
ENDMDL
MODEL 8
REMARK VINA RESULT:    -2.280      1.642      2.679
REMARK INTER + INTRA:          -2.280
REMARK INTER:                  -2.280
REMARK INTRA:                   0.000
REMARK UNBOUND:                 0.000
REMARK SMILES CC(C)=C1CC[C@@H](C)CC1=O
REMARK SMILES IDX 8 1 7 2 6 3 5 4 4 5 2 6 1 7 3 8 10 9 11 10 9 11
REMARK H PARENT
REMARK Flexibility Score: inf
ROOT
ATOM      1  C   UNL     1      32.075  57.159   8.946  1.00  0.00     0.008 C 
ATOM      2  C   UNL     1      30.618  57.287   9.418  1.00  0.00    -0.006 C 
ATOM      3  C   UNL     1      30.256  58.729   9.812  1.00  0.00     0.008 C 
ATOM      4  C   UNL     1      31.005  59.217  11.062  1.00  0.00     0.039 C 
ATOM      5  C   UNL     1      30.930  58.231  12.222  1.00  0.00    -0.006 C 
ATOM      6  C   UNL     1      30.967  58.661  13.517  1.00  0.00    -0.070 C 
ATOM      7  C   UNL     1      30.837  57.701  14.678  1.00  0.00     0.039 C 
ATOM      8  C   UNL     1      31.100  60.128  13.853  1.00  0.00     0.039 C 
ATOM      9  C   UNL     1      30.937  56.783  11.859  1.00  0.00     0.159 C 
ATOM     10  O   UNL     1      31.474  55.924  12.609  1.00  0.00    -0.295 OA
ATOM     11  C   UNL     1      30.308  56.326  10.575  1.00  0.00     0.084 C 
ENDROOT
TORSDOF 0
ENDMDL
