MODEL 1
REMARK VINA RESULT:    -6.762      0.000      0.000
REMARK INTER + INTRA:          -8.003
REMARK INTER:                  -7.948
REMARK INTRA:                  -0.055
REMARK UNBOUND:                -0.055
REMARK SMILES O=c1c(O)c(-c2ccc(O)cc2)oc2cc(O)cc(O)c12
REMARK SMILES IDX 5 1 3 2 2 3 1 4 21 5 19 6 18 7 16 8 15 9 14 10 13 11 6 12
REMARK SMILES IDX 7 13 8 14 9 15 12 16 11 17 10 18 4 20 20 22 17 24
REMARK H PARENT 10 19 4 21 20 23 17 25
REMARK Flexibility Score: inf
ROOT
ATOM      1  C   UNL     1      14.014  31.882  30.236  1.00  0.00     0.180 A 
ATOM      2  C   UNL     1      14.591  33.063  30.740  1.00  0.00     0.208 A 
ATOM      3  C   UNL     1      14.493  33.332  32.114  1.00  0.00     0.238 A 
ATOM      4  O   UNL     1      14.997  34.392  32.576  1.00  0.00    -0.285 OA
ATOM      5  C   UNL     1      13.841  32.411  32.961  1.00  0.00     0.111 A 
ATOM      6  C   UNL     1      13.703  32.606  34.356  1.00  0.00     0.134 A 
ATOM      7  C   UNL     1      13.049  31.638  35.132  1.00  0.00     0.093 A 
ATOM      8  C   UNL     1      12.531  30.481  34.539  1.00  0.00     0.123 A 
ATOM      9  C   UNL     1      12.664  30.285  33.164  1.00  0.00     0.094 A 
ATOM     10  C   UNL     1      13.312  31.238  32.373  1.00  0.00     0.146 A 
ATOM     11  O   UNL     1      13.420  31.029  31.066  1.00  0.00    -0.452 OA
ENDROOT
BRANCH   1  12
ATOM     12  C   UNL     1      14.058  31.537  28.796  1.00  0.00     0.021 A 
ATOM     13  C   UNL     1      14.542  30.277  28.402  1.00  0.00     0.016 A 
ATOM     14  C   UNL     1      14.572  29.922  27.050  1.00  0.00     0.047 A 
ATOM     15  C   UNL     1      14.105  30.815  26.077  1.00  0.00     0.115 A 
ATOM     16  C   UNL     1      13.572  32.420  27.815  1.00  0.00     0.016 A 
ATOM     17  C   UNL     1      13.602  32.061  26.464  1.00  0.00     0.047 A 
BRANCH  15  18
ATOM     18  O   UNL     1      14.130  30.473  24.727  1.00  0.00    -0.508 OA
ATOM     19  H   UNL     1      14.743  30.946  24.073  1.00  0.00     0.293 HD
ENDBRANCH  15  18
ENDBRANCH   1  12
BRANCH   2  20
ATOM     20  O   UNL     1      15.274  33.934  29.888  1.00  0.00    -0.502 OA
ATOM     21  H   UNL     1      14.979  34.892  29.743  1.00  0.00     0.293 HD
ENDBRANCH   2  20
BRANCH   6  22
ATOM     22  O   UNL     1      14.210  33.748  34.975  1.00  0.00    -0.507 OA
ATOM     23  H   UNL     1      14.629  33.714  35.897  1.00  0.00     0.293 HD
ENDBRANCH   6  22
BRANCH   8  24
ATOM     24  O   UNL     1      11.882  29.518  35.309  1.00  0.00    -0.508 OA
ATOM     25  H   UNL     1      10.883  29.559  35.477  1.00  0.00     0.293 HD
ENDBRANCH   8  24
TORSDOF 5
ENDMDL
MODEL 2
REMARK VINA RESULT:    -6.462      8.508     10.797
REMARK INTER + INTRA:          -7.650
REMARK INTER:                  -7.421
REMARK INTRA:                  -0.229
REMARK UNBOUND:                -0.055
REMARK SMILES O=c1c(O)c(-c2ccc(O)cc2)oc2cc(O)cc(O)c12
REMARK SMILES IDX 5 1 3 2 2 3 1 4 21 5 19 6 18 7 16 8 15 9 14 10 13 11 6 12
REMARK SMILES IDX 7 13 8 14 9 15 12 16 11 17 10 18 4 20 20 22 17 24
REMARK H PARENT 10 19 4 21 20 23 17 25
REMARK Flexibility Score: inf
ROOT
ATOM      1  C   UNL     1      18.954  38.265  35.851  1.00  0.00     0.180 A 
ATOM      2  C   UNL     1      19.946  37.399  35.351  1.00  0.00     0.208 A 
ATOM      3  C   UNL     1      21.004  37.023  36.193  1.00  0.00     0.238 A 
ATOM      4  O   UNL     1      21.904  36.257  35.753  1.00  0.00    -0.285 OA
ATOM      5  C   UNL     1      21.042  37.497  37.521  1.00  0.00     0.111 A 
ATOM      6  C   UNL     1      22.070  37.161  38.434  1.00  0.00     0.134 A 
ATOM      7  C   UNL     1      22.031  37.666  39.742  1.00  0.00     0.093 A 
ATOM      8  C   UNL     1      20.984  38.500  40.153  1.00  0.00     0.123 A 
ATOM      9  C   UNL     1      19.969  38.834  39.255  1.00  0.00     0.094 A 
ATOM     10  C   UNL     1      19.990  38.342  37.947  1.00  0.00     0.146 A 
ATOM     11  O   UNL     1      19.014  38.680  37.113  1.00  0.00    -0.452 OA
ENDROOT
BRANCH   1  12
ATOM     12  C   UNL     1      17.818  38.723  35.019  1.00  0.00     0.021 A 
ATOM     13  C   UNL     1      16.750  37.846  34.764  1.00  0.00     0.016 A 
ATOM     14  C   UNL     1      15.657  38.265  34.000  1.00  0.00     0.047 A 
ATOM     15  C   UNL     1      15.611  39.570  33.494  1.00  0.00     0.115 A 
ATOM     16  C   UNL     1      17.755  40.039  34.525  1.00  0.00     0.016 A 
ATOM     17  C   UNL     1      16.660  40.455  33.762  1.00  0.00     0.047 A 
BRANCH  15  18
ATOM     18  O   UNL     1      14.527  40.000  32.730  1.00  0.00    -0.508 OA
ATOM     19  H   UNL     1      13.907  39.340  32.276  1.00  0.00     0.293 HD
ENDBRANCH  15  18
ENDBRANCH   1  12
BRANCH   2  20
ATOM     20  O   UNL     1      19.860  36.905  34.047  1.00  0.00    -0.502 OA
ATOM     21  H   UNL     1      20.644  36.464  33.582  1.00  0.00     0.293 HD
ENDBRANCH   2  20
BRANCH   6  22
ATOM     22  O   UNL     1      23.125  36.331  38.054  1.00  0.00    -0.507 OA
ATOM     23  H   UNL     1      24.084  36.536  38.311  1.00  0.00     0.293 HD
ENDBRANCH   6  22
BRANCH   8  24
ATOM     24  O   UNL     1      20.945  39.002  41.452  1.00  0.00    -0.508 OA
ATOM     25  H   UNL     1      20.320  39.756  41.710  1.00  0.00     0.293 HD
ENDBRANCH   8  24
TORSDOF 5
ENDMDL
MODEL 3
REMARK VINA RESULT:    -6.356      8.520     10.099
REMARK INTER + INTRA:          -7.526
REMARK INTER:                  -7.228
REMARK INTRA:                  -0.297
REMARK UNBOUND:                -0.055
REMARK SMILES O=c1c(O)c(-c2ccc(O)cc2)oc2cc(O)cc(O)c12
REMARK SMILES IDX 5 1 3 2 2 3 1 4 21 5 19 6 18 7 16 8 15 9 14 10 13 11 6 12
REMARK SMILES IDX 7 13 8 14 9 15 12 16 11 17 10 18 4 20 20 22 17 24
REMARK H PARENT 10 19 4 21 20 23 17 25
REMARK Flexibility Score: inf
ROOT
ATOM      1  C   UNL     1      18.069  38.591  34.734  1.00  0.00     0.180 A 
ATOM      2  C   UNL     1      18.993  37.869  33.954  1.00  0.00     0.208 A 
ATOM      3  C   UNL     1      20.123  37.319  34.580  1.00  0.00     0.238 A 
ATOM      4  O   UNL     1      20.964  36.680  33.890  1.00  0.00    -0.285 OA
ATOM      5  C   UNL     1      20.299  37.480  35.970  1.00  0.00     0.111 A 
ATOM      6  C   UNL     1      21.407  36.954  36.676  1.00  0.00     0.134 A 
ATOM      7  C   UNL     1      21.506  37.149  38.061  1.00  0.00     0.093 A 
ATOM      8  C   UNL     1      20.518  37.860  38.752  1.00  0.00     0.123 A 
ATOM      9  C   UNL     1      19.424  38.381  38.060  1.00  0.00     0.094 A 
ATOM     10  C   UNL     1      19.308  38.198  36.679  1.00  0.00     0.146 A 
ATOM     11  O   UNL     1      18.260  38.710  36.044  1.00  0.00    -0.452 OA
ENDROOT
BRANCH   1  12
ATOM     12  C   UNL     1      16.863  39.218  34.144  1.00  0.00     0.021 A 
ATOM     13  C   UNL     1      15.658  38.496  34.107  1.00  0.00     0.016 A 
ATOM     14  C   UNL     1      14.502  39.076  33.575  1.00  0.00     0.047 A 
ATOM     15  C   UNL     1      14.533  40.389  33.090  1.00  0.00     0.115 A 
ATOM     16  C   UNL     1      16.881  40.543  33.673  1.00  0.00     0.016 A 
ATOM     17  C   UNL     1      15.723  41.121  33.144  1.00  0.00     0.047 A 
BRANCH  15  18
ATOM     18  O   UNL     1      13.388  40.979  32.557  1.00  0.00    -0.508 OA
ATOM     19  H   UNL     1      12.461  40.700  32.859  1.00  0.00     0.293 HD
ENDBRANCH  15  18
ENDBRANCH   1  12
BRANCH   2  20
ATOM     20  O   UNL     1      18.771  37.682  32.588  1.00  0.00    -0.502 OA
ATOM     21  H   UNL     1      19.000  36.816  32.115  1.00  0.00     0.293 HD
ENDBRANCH   2  20
BRANCH   6  22
ATOM     22  O   UNL     1      22.407  36.239  36.015  1.00  0.00    -0.507 OA
ATOM     23  H   UNL     1      23.342  36.153  36.396  1.00  0.00     0.293 HD
ENDBRANCH   6  22
BRANCH   8  24
ATOM     24  O   UNL     1      20.614  38.054  40.128  1.00  0.00    -0.508 OA
ATOM     25  H   UNL     1      19.836  38.410  40.670  1.00  0.00     0.293 HD
ENDBRANCH   8  24
TORSDOF 5
ENDMDL
MODEL 4
REMARK VINA RESULT:    -6.259      9.400     12.917
REMARK INTER + INTRA:          -7.412
REMARK INTER:                  -7.135
REMARK INTRA:                  -0.277
REMARK UNBOUND:                -0.055
REMARK SMILES O=c1c(O)c(-c2ccc(O)cc2)oc2cc(O)cc(O)c12
REMARK SMILES IDX 5 1 3 2 2 3 1 4 21 5 19 6 18 7 16 8 15 9 14 10 13 11 6 12
REMARK SMILES IDX 7 13 8 14 9 15 12 16 11 17 10 18 4 20 20 22 17 24
REMARK H PARENT 10 19 4 21 20 23 17 25
REMARK Flexibility Score: inf
ROOT
ATOM      1  C   UNL     1      20.946  38.342  37.595  1.00  0.00     0.180 A 
ATOM      2  C   UNL     1      21.787  37.603  36.741  1.00  0.00     0.208 A 
ATOM      3  C   UNL     1      21.264  37.115  35.533  1.00  0.00     0.238 A 
ATOM      4  O   UNL     1      22.005  36.442  34.764  1.00  0.00    -0.285 OA
ATOM      5  C   UNL     1      19.924  37.389  35.191  1.00  0.00     0.111 A 
ATOM      6  C   UNL     1      19.323  36.937  33.992  1.00  0.00     0.134 A 
ATOM      7  C   UNL     1      17.986  37.260  33.719  1.00  0.00     0.093 A 
ATOM      8  C   UNL     1      17.239  38.026  34.622  1.00  0.00     0.123 A 
ATOM      9  C   UNL     1      17.828  38.472  35.806  1.00  0.00     0.094 A 
ATOM     10  C   UNL     1      19.159  38.160  36.097  1.00  0.00     0.146 A 
ATOM     11  O   UNL     1      19.692  38.594  37.233  1.00  0.00    -0.452 OA
ENDROOT
BRANCH   1  12
ATOM     12  C   UNL     1      21.418  38.874  38.895  1.00  0.00     0.021 A 
ATOM     13  C   UNL     1      21.735  40.238  39.009  1.00  0.00     0.016 A 
ATOM     14  C   UNL     1      22.161  40.766  40.231  1.00  0.00     0.047 A 
ATOM     15  C   UNL     1      22.259  39.940  41.359  1.00  0.00     0.115 A 
ATOM     16  C   UNL     1      21.499  38.055  40.036  1.00  0.00     0.016 A 
ATOM     17  C   UNL     1      21.924  38.587  41.258  1.00  0.00     0.047 A 
BRANCH  15  18
ATOM     18  O   UNL     1      22.682  40.455  42.583  1.00  0.00    -0.508 OA
ATOM     19  H   UNL     1      22.881  41.441  42.701  1.00  0.00     0.293 HD
ENDBRANCH  15  18
ENDBRANCH   1  12
BRANCH   2  20
ATOM     20  O   UNL     1      23.125  37.387  37.080  1.00  0.00    -0.502 OA
ATOM     21  H   UNL     1      23.732  36.787  36.534  1.00  0.00     0.293 HD
ENDBRANCH   2  20
BRANCH   6  22
ATOM     22  O   UNL     1      20.042  36.174  33.071  1.00  0.00    -0.507 OA
ATOM     23  H   UNL     1      21.016  35.936  33.220  1.00  0.00     0.293 HD
ENDBRANCH   6  22
BRANCH   8  24
ATOM     24  O   UNL     1      15.911  38.347  34.352  1.00  0.00    -0.508 OA
ATOM     25  H   UNL     1      15.529  38.279  33.416  1.00  0.00     0.293 HD
ENDBRANCH   8  24
TORSDOF 5
ENDMDL
MODEL 5
REMARK VINA RESULT:    -6.230      2.855      6.729
REMARK INTER + INTRA:          -7.378
REMARK INTER:                  -7.083
REMARK INTRA:                  -0.296
REMARK UNBOUND:                -0.055
REMARK SMILES O=c1c(O)c(-c2ccc(O)cc2)oc2cc(O)cc(O)c12
REMARK SMILES IDX 5 1 3 2 2 3 1 4 21 5 19 6 18 7 16 8 15 9 14 10 13 11 6 12
REMARK SMILES IDX 7 13 8 14 9 15 12 16 11 17 10 18 4 20 20 22 17 24
REMARK H PARENT 10 19 4 21 20 23 17 25
REMARK Flexibility Score: inf
ROOT
ATOM      1  C   UNL     1      12.854  30.837  33.716  1.00  0.00     0.180 A 
ATOM      2  C   UNL     1      13.007  30.465  32.367  1.00  0.00     0.208 A 
ATOM      3  C   UNL     1      13.651  31.350  31.489  1.00  0.00     0.238 A 
ATOM      4  O   UNL     1      13.785  31.033  30.275  1.00  0.00    -0.285 OA
ATOM      5  C   UNL     1      14.148  32.578  31.975  1.00  0.00     0.111 A 
ATOM      6  C   UNL     1      14.812  33.523  31.157  1.00  0.00     0.134 A 
ATOM      7  C   UNL     1      15.285  34.718  31.719  1.00  0.00     0.093 A 
ATOM      8  C   UNL     1      15.107  34.984  33.081  1.00  0.00     0.123 A 
ATOM      9  C   UNL     1      14.452  34.056  33.891  1.00  0.00     0.094 A 
ATOM     10  C   UNL     1      13.972  32.859  33.350  1.00  0.00     0.146 A 
ATOM     11  O   UNL     1      13.348  31.996  34.143  1.00  0.00    -0.452 OA
ENDROOT
BRANCH   1  12
ATOM     12  C   UNL     1      12.168  29.966  34.700  1.00  0.00     0.021 A 
ATOM     13  C   UNL     1      12.919  29.035  35.438  1.00  0.00     0.016 A 
ATOM     14  C   UNL     1      12.296  28.218  36.387  1.00  0.00     0.047 A 
ATOM     15  C   UNL     1      10.920  28.334  36.621  1.00  0.00     0.115 A 
ATOM     16  C   UNL     1      10.791  30.091  34.955  1.00  0.00     0.016 A 
ATOM     17  C   UNL     1      10.172  29.274  35.905  1.00  0.00     0.047 A 
BRANCH  15  18
ATOM     18  O   UNL     1      10.288  27.526  37.564  1.00  0.00    -0.508 OA
ATOM     19  H   UNL     1      10.806  27.090  38.318  1.00  0.00     0.293 HD
ENDBRANCH  15  18
ENDBRANCH   1  12
BRANCH   2  20
ATOM     20  O   UNL     1      12.550  29.222  31.921  1.00  0.00    -0.502 OA
ATOM     21  H   UNL     1      11.572  29.041  31.728  1.00  0.00     0.293 HD
ENDBRANCH   2  20
BRANCH   6  22
ATOM     22  O   UNL     1      15.006  33.285  29.797  1.00  0.00    -0.507 OA
ATOM     23  H   UNL     1      14.246  33.354  29.129  1.00  0.00     0.293 HD
ENDBRANCH   6  22
BRANCH   8  24
ATOM     24  O   UNL     1      15.577  36.171  33.640  1.00  0.00    -0.508 OA
ATOM     25  H   UNL     1      14.948  36.921  33.899  1.00  0.00     0.293 HD
ENDBRANCH   8  24
TORSDOF 5
ENDMDL
MODEL 6
REMARK VINA RESULT:    -6.055      1.838      6.667
REMARK INTER + INTRA:          -7.173
REMARK INTER:                  -6.885
REMARK INTRA:                  -0.287
REMARK UNBOUND:                -0.055
REMARK SMILES O=c1c(O)c(-c2ccc(O)cc2)oc2cc(O)cc(O)c12
REMARK SMILES IDX 5 1 3 2 2 3 1 4 21 5 19 6 18 7 16 8 15 9 14 10 13 11 6 12
REMARK SMILES IDX 7 13 8 14 9 15 12 16 11 17 10 18 4 20 20 22 17 24
REMARK H PARENT 10 19 4 21 20 23 17 25
REMARK Flexibility Score: inf
ROOT
ATOM      1  C   UNL     1      12.948  31.011  33.855  1.00  0.00     0.180 A 
ATOM      2  C   UNL     1      13.402  32.287  34.239  1.00  0.00     0.208 A 
ATOM      3  C   UNL     1      14.019  33.103  33.279  1.00  0.00     0.238 A 
ATOM      4  O   UNL     1      14.440  34.245  33.614  1.00  0.00    -0.285 OA
ATOM      5  C   UNL     1      14.151  32.643  31.952  1.00  0.00     0.111 A 
ATOM      6  C   UNL     1      14.756  33.406  30.925  1.00  0.00     0.134 A 
ATOM      7  C   UNL     1      14.841  32.881  29.627  1.00  0.00     0.093 A 
ATOM      8  C   UNL     1      14.334  31.609  29.339  1.00  0.00     0.123 A 
ATOM      9  C   UNL     1      13.738  30.853  30.349  1.00  0.00     0.094 A 
ATOM     10  C   UNL     1      13.644  31.358  31.649  1.00  0.00     0.146 A 
ATOM     11  O   UNL     1      13.076  30.615  32.592  1.00  0.00    -0.452 OA
ENDROOT
BRANCH   1  12
ATOM     12  C   UNL     1      12.306  30.082  34.815  1.00  0.00     0.021 A 
ATOM     13  C   UNL     1      10.919  30.160  35.028  1.00  0.00     0.016 A 
ATOM     14  C   UNL     1      10.288  29.280  35.912  1.00  0.00     0.047 A 
ATOM     15  C   UNL     1      11.033  28.301  36.582  1.00  0.00     0.115 A 
ATOM     16  C   UNL     1      13.044  29.084  35.476  1.00  0.00     0.016 A 
ATOM     17  C   UNL     1      12.410  28.204  36.359  1.00  0.00     0.047 A 
BRANCH  15  18
ATOM     18  O   UNL     1      10.417  27.418  37.466  1.00  0.00    -0.508 OA
ATOM     19  H   UNL     1       9.897  26.614  37.133  1.00  0.00     0.293 HD
ENDBRANCH  15  18
ENDBRANCH   1  12
BRANCH   2  20
ATOM     20  O   UNL     1      13.215  32.739  35.548  1.00  0.00    -0.502 OA
ATOM     21  H   UNL     1      13.988  32.888  36.186  1.00  0.00     0.293 HD
ENDBRANCH   2  20
BRANCH   6  22
ATOM     22  O   UNL     1      15.269  34.677  31.181  1.00  0.00    -0.507 OA
ATOM     23  H   UNL     1      14.915  35.253  31.937  1.00  0.00     0.293 HD
ENDBRANCH   6  22
BRANCH   8  24
ATOM     24  O   UNL     1      14.418  31.087  28.050  1.00  0.00    -0.508 OA
ATOM     25  H   UNL     1      14.385  30.089  27.879  1.00  0.00     0.293 HD
ENDBRANCH   8  24
TORSDOF 5
ENDMDL
MODEL 7
REMARK VINA RESULT:    -5.985      9.247     11.368
REMARK INTER + INTRA:          -7.090
REMARK INTER:                  -6.911
REMARK INTRA:                  -0.179
REMARK UNBOUND:                -0.055
REMARK SMILES O=c1c(O)c(-c2ccc(O)cc2)oc2cc(O)cc(O)c12
REMARK SMILES IDX 5 1 3 2 2 3 1 4 21 5 19 6 18 7 16 8 15 9 14 10 13 11 6 12
REMARK SMILES IDX 7 13 8 14 9 15 12 16 11 17 10 18 4 20 20 22 17 24
REMARK H PARENT 10 19 4 21 20 23 17 25
REMARK Flexibility Score: inf
ROOT
ATOM      1  C   UNL     1      20.650  37.772  36.167  1.00  0.00     0.180 A 
ATOM      2  C   UNL     1      21.625  36.861  36.615  1.00  0.00     0.208 A 
ATOM      3  C   UNL     1      22.130  36.996  37.917  1.00  0.00     0.238 A 
ATOM      4  O   UNL     1      23.012  36.191  38.326  1.00  0.00    -0.285 OA
ATOM      5  C   UNL     1      21.640  38.020  38.754  1.00  0.00     0.111 A 
ATOM      6  C   UNL     1      22.094  38.220  40.080  1.00  0.00     0.134 A 
ATOM      7  C   UNL     1      21.550  39.257  40.852  1.00  0.00     0.093 A 
ATOM      8  C   UNL     1      20.561  40.095  40.324  1.00  0.00     0.123 A 
ATOM      9  C   UNL     1      20.112  39.902  39.017  1.00  0.00     0.094 A 
ATOM     10  C   UNL     1      20.643  38.875  38.230  1.00  0.00     0.146 A 
ATOM     11  O   UNL     1      20.200  38.717  36.988  1.00  0.00    -0.452 OA
ENDROOT
BRANCH   1  12
ATOM     12  C   UNL     1      20.082  37.709  34.800  1.00  0.00     0.021 A 
ATOM     13  C   UNL     1      20.898  38.020  33.699  1.00  0.00     0.016 A 
ATOM     14  C   UNL     1      20.390  37.945  32.398  1.00  0.00     0.047 A 
ATOM     15  C   UNL     1      19.065  37.543  32.182  1.00  0.00     0.115 A 
ATOM     16  C   UNL     1      18.760  37.286  34.574  1.00  0.00     0.016 A 
ATOM     17  C   UNL     1      18.255  37.211  33.272  1.00  0.00     0.047 A 
BRANCH  15  18
ATOM     18  O   UNL     1      18.547  37.465  30.891  1.00  0.00    -0.508 OA
ATOM     19  H   UNL     1      18.157  36.602  30.530  1.00  0.00     0.293 HD
ENDBRANCH  15  18
ENDBRANCH   1  12
BRANCH   2  20
ATOM     20  O   UNL     1      22.058  35.825  35.784  1.00  0.00    -0.502 OA
ATOM     21  H   UNL     1      21.573  35.576  34.930  1.00  0.00     0.293 HD
ENDBRANCH   2  20
BRANCH   6  22
ATOM     22  O   UNL     1      23.077  37.400  40.634  1.00  0.00    -0.507 OA
ATOM     23  H   UNL     1      24.059  37.523  40.419  1.00  0.00     0.293 HD
ENDBRANCH   6  22
BRANCH   8  24
ATOM     24  O   UNL     1      20.020  41.124  41.090  1.00  0.00    -0.508 OA
ATOM     25  H   UNL     1      19.607  40.948  41.999  1.00  0.00     0.293 HD
ENDBRANCH   8  24
TORSDOF 5
ENDMDL
MODEL 8
REMARK VINA RESULT:    -5.840      8.146     11.742
REMARK INTER + INTRA:          -6.919
REMARK INTER:                  -6.981
REMARK INTRA:                   0.062
REMARK UNBOUND:                -0.055
REMARK SMILES O=c1c(O)c(-c2ccc(O)cc2)oc2cc(O)cc(O)c12
REMARK SMILES IDX 5 1 3 2 2 3 1 4 21 5 19 6 18 7 16 8 15 9 14 10 13 11 6 12
REMARK SMILES IDX 7 13 8 14 9 15 12 16 11 17 10 18 4 20 20 22 17 24
REMARK H PARENT 10 19 4 21 20 23 17 25
REMARK Flexibility Score: inf
ROOT
ATOM      1  C   UNL     1      20.126  37.728  36.087  1.00  0.00     0.180 A 
ATOM      2  C   UNL     1      18.787  38.164  36.095  1.00  0.00     0.208 A 
ATOM      3  C   UNL     1      18.096  38.251  34.877  1.00  0.00     0.238 A 
ATOM      4  O   UNL     1      16.900  38.651  34.871  1.00  0.00    -0.285 OA
ATOM      5  C   UNL     1      18.743  37.881  33.679  1.00  0.00     0.111 A 
ATOM      6  C   UNL     1      18.115  37.936  32.412  1.00  0.00     0.134 A 
ATOM      7  C   UNL     1      18.823  37.542  31.267  1.00  0.00     0.093 A 
ATOM      8  C   UNL     1      20.146  37.095  31.367  1.00  0.00     0.123 A 
ATOM      9  C   UNL     1      20.769  37.041  32.615  1.00  0.00     0.094 A 
ATOM     10  C   UNL     1      20.080  37.430  33.767  1.00  0.00     0.146 A 
ATOM     11  O   UNL     1      20.699  37.373  34.940  1.00  0.00    -0.452 OA
ENDROOT
BRANCH   1  12
ATOM     12  C   UNL     1      20.929  37.629  37.328  1.00  0.00     0.021 A 
ATOM     13  C   UNL     1      20.957  38.714  38.221  1.00  0.00     0.016 A 
ATOM     14  C   UNL     1      21.689  38.635  39.409  1.00  0.00     0.047 A 
ATOM     15  C   UNL     1      22.390  37.464  39.726  1.00  0.00     0.115 A 
ATOM     16  C   UNL     1      21.619  36.450  37.664  1.00  0.00     0.016 A 
ATOM     17  C   UNL     1      22.349  36.373  38.853  1.00  0.00     0.047 A 
BRANCH  15  18
ATOM     18  O   UNL     1      23.125  37.373  40.907  1.00  0.00    -0.508 OA
ATOM     19  H   UNL     1      22.750  37.703  41.789  1.00  0.00     0.293 HD
ENDBRANCH  15  18
ENDBRANCH   1  12
BRANCH   2  20
ATOM     20  O   UNL     1      18.154  38.478  37.300  1.00  0.00    -0.502 OA
ATOM     21  H   UNL     1      17.496  37.850  37.746  1.00  0.00     0.293 HD
ENDBRANCH   2  20
BRANCH   6  22
ATOM     22  O   UNL     1      16.797  38.375  32.281  1.00  0.00    -0.507 OA
ATOM     23  H   UNL     1      16.568  39.358  32.197  1.00  0.00     0.293 HD
ENDBRANCH   6  22
BRANCH   8  24
ATOM     24  O   UNL     1      20.850  36.703  30.231  1.00  0.00    -0.508 OA
ATOM     25  H   UNL     1      21.559  35.980  30.269  1.00  0.00     0.293 HD
ENDBRANCH   8  24
TORSDOF 5
ENDMDL
MODEL 9
REMARK VINA RESULT:    -5.777      9.421     13.135
REMARK INTER + INTRA:          -6.845
REMARK INTER:                  -6.608
REMARK INTRA:                  -0.237
REMARK UNBOUND:                -0.055
REMARK SMILES O=c1c(O)c(-c2ccc(O)cc2)oc2cc(O)cc(O)c12
REMARK SMILES IDX 5 1 3 2 2 3 1 4 21 5 19 6 18 7 16 8 15 9 14 10 13 11 6 12
REMARK SMILES IDX 7 13 8 14 9 15 12 16 11 17 10 18 4 20 20 22 17 24
REMARK H PARENT 10 19 4 21 20 23 17 25
REMARK Flexibility Score: inf
ROOT
ATOM      1  C   UNL     1      20.520  38.715  37.294  1.00  0.00     0.180 A 
ATOM      2  C   UNL     1      19.155  38.460  37.057  1.00  0.00     0.208 A 
ATOM      3  C   UNL     1      18.719  38.287  35.735  1.00  0.00     0.238 A 
ATOM      4  O   UNL     1      17.496  38.069  35.509  1.00  0.00    -0.285 OA
ATOM      5  C   UNL     1      19.650  38.350  34.677  1.00  0.00     0.111 A 
ATOM      6  C   UNL     1      19.292  38.183  33.318  1.00  0.00     0.134 A 
ATOM      7  C   UNL     1      20.280  38.250  32.325  1.00  0.00     0.093 A 
ATOM      8  C   UNL     1      21.618  38.482  32.666  1.00  0.00     0.123 A 
ATOM      9  C   UNL     1      21.975  38.648  34.004  1.00  0.00     0.094 A 
ATOM     10  C   UNL     1      21.005  38.586  35.009  1.00  0.00     0.146 A 
ATOM     11  O   UNL     1      21.373  38.753  36.274  1.00  0.00    -0.452 OA
ENDROOT
BRANCH   1  12
ATOM     12  C   UNL     1      21.055  38.928  38.659  1.00  0.00     0.021 A 
ATOM     13  C   UNL     1      21.864  37.940  39.246  1.00  0.00     0.016 A 
ATOM     14  C   UNL     1      22.398  38.130  40.524  1.00  0.00     0.047 A 
ATOM     15  C   UNL     1      22.142  39.316  41.224  1.00  0.00     0.115 A 
ATOM     16  C   UNL     1      20.819  40.125  39.361  1.00  0.00     0.016 A 
ATOM     17  C   UNL     1      21.356  40.312  40.638  1.00  0.00     0.047 A 
BRANCH  15  18
ATOM     18  O   UNL     1      22.668  39.517  42.499  1.00  0.00    -0.508 OA
ATOM     19  H   UNL     1      22.128  39.969  43.228  1.00  0.00     0.293 HD
ENDBRANCH  15  18
ENDBRANCH   1  12
BRANCH   2  20
ATOM     20  O   UNL     1      18.261  38.354  38.125  1.00  0.00    -0.502 OA
ATOM     21  H   UNL     1      18.567  38.354  39.091  1.00  0.00     0.293 HD
ENDBRANCH   2  20
BRANCH   6  22
ATOM     22  O   UNL     1      17.967  37.949  32.949  1.00  0.00    -0.507 OA
ATOM     23  H   UNL     1      17.212  38.550  33.259  1.00  0.00     0.293 HD
ENDBRANCH   6  22
BRANCH   8  24
ATOM     24  O   UNL     1      22.600  38.548  31.680  1.00  0.00    -0.508 OA
ATOM     25  H   UNL     1      22.370  38.759  30.716  1.00  0.00     0.293 HD
ENDBRANCH   8  24
TORSDOF 5
ENDMDL
