MODEL 1
REMARK VINA RESULT:    -7.888      0.000      0.000
REMARK INTER + INTRA:          -9.824
REMARK INTER:                  -9.502
REMARK INTRA:                  -0.322
REMARK UNBOUND:                -0.322
REMARK SMILES O=c1c(O)c(-c2ccc(O)c(O)c2)oc2cc(O)cc(O)c12
REMARK SMILES IDX 5 1 3 2 2 3 1 4 22 5 20 6 19 7 17 8 16 9 15 10 14 11 6 12
REMARK SMILES IDX 7 13 8 14 9 15 13 16 11 17 10 18 12 20 4 22 21 24 18 26
REMARK H PARENT 10 19 12 21 4 23 21 25 18 27
REMARK Flexibility Score: inf
ROOT
ATOM      1  C   UNL     1     -13.503 -29.380 -12.722  1.00  0.00     0.180 A 
ATOM      2  C   UNL     1     -12.364 -29.747 -11.984  1.00  0.00     0.208 A 
ATOM      3  C   UNL     1     -12.066 -31.110 -11.825  1.00  0.00     0.238 A 
ATOM      4  O   UNL     1     -11.088 -31.432 -11.101  1.00  0.00    -0.285 OA
ATOM      5  C   UNL     1     -12.876 -32.087 -12.453  1.00  0.00     0.111 A 
ATOM      6  C   UNL     1     -12.642 -33.494 -12.397  1.00  0.00     0.134 A 
ATOM      7  C   UNL     1     -13.571 -34.373 -12.968  1.00  0.00     0.093 A 
ATOM      8  C   UNL     1     -14.691 -33.895 -13.647  1.00  0.00     0.123 A 
ATOM      9  C   UNL     1     -14.901 -32.520 -13.756  1.00  0.00     0.094 A 
ATOM     10  C   UNL     1     -14.013 -31.620 -13.164  1.00  0.00     0.146 A 
ATOM     11  O   UNL     1     -14.262 -30.320 -13.272  1.00  0.00    -0.452 OA
ENDROOT
BRANCH   1  12
ATOM     12  C   UNL     1     -13.891 -27.965 -12.921  1.00  0.00     0.025 A 
ATOM     13  C   UNL     1     -14.688 -27.326 -11.958  1.00  0.00     0.016 A 
ATOM     14  C   UNL     1     -15.048 -25.985 -12.115  1.00  0.00     0.051 A 
ATOM     15  C   UNL     1     -14.604 -25.260 -13.227  1.00  0.00     0.157 A 
ATOM     16  C   UNL     1     -13.430 -27.228 -14.027  1.00  0.00     0.062 A 
ATOM     17  C   UNL     1     -13.790 -25.881 -14.183  1.00  0.00     0.158 A 
BRANCH  15  18
ATOM     18  O   UNL     1     -14.963 -23.923 -13.388  1.00  0.00    -0.504 OA
ATOM     19  H   UNL     1     -14.797 -23.238 -12.659  1.00  0.00     0.293 HD
ENDBRANCH  15  18
BRANCH  17  20
ATOM     20  O   UNL     1     -13.338 -25.153 -15.282  1.00  0.00    -0.504 OA
ATOM     21  H   UNL     1     -13.913 -24.444 -15.720  1.00  0.00     0.293 HD
ENDBRANCH  17  20
ENDBRANCH   1  12
BRANCH   2  22
ATOM     22  O   UNL     1     -11.534 -28.765 -11.436  1.00  0.00    -0.502 OA
ATOM     23  H   UNL     1     -11.078 -28.877 -10.538  1.00  0.00     0.293 HD
ENDBRANCH   2  22
BRANCH   6  24
ATOM     24  O   UNL     1     -11.510 -34.078 -11.821  1.00  0.00    -0.507 OA
ATOM     25  H   UNL     1     -10.990 -34.846 -12.218  1.00  0.00     0.293 HD
ENDBRANCH   6  24
BRANCH   8  26
ATOM     26  O   UNL     1     -15.586 -34.798 -14.218  1.00  0.00    -0.508 OA
ATOM     27  H   UNL     1     -15.418 -35.797 -14.196  1.00  0.00     0.293 HD
ENDBRANCH   8  26
TORSDOF 6
ENDMDL
MODEL 2
REMARK VINA RESULT:    -7.750      1.825      3.529
REMARK INTER + INTRA:          -9.658
REMARK INTER:                  -9.329
REMARK INTRA:                  -0.329
REMARK UNBOUND:                -0.322
REMARK SMILES O=c1c(O)c(-c2ccc(O)c(O)c2)oc2cc(O)cc(O)c12
REMARK SMILES IDX 5 1 3 2 2 3 1 4 22 5 20 6 19 7 17 8 16 9 15 10 14 11 6 12
REMARK SMILES IDX 7 13 8 14 9 15 13 16 11 17 10 18 12 20 4 22 21 24 18 26
REMARK H PARENT 10 19 12 21 4 23 21 25 18 27
REMARK Flexibility Score: inf
ROOT
ATOM      1  C   UNL     1     -13.286 -29.193 -11.862  1.00  0.00     0.180 A 
ATOM      2  C   UNL     1     -13.763 -30.394 -12.415  1.00  0.00     0.208 A 
ATOM      3  C   UNL     1     -13.333 -31.614 -11.869  1.00  0.00     0.238 A 
ATOM      4  O   UNL     1     -13.705 -32.685 -12.415  1.00  0.00    -0.285 OA
ATOM      5  C   UNL     1     -12.476 -31.618 -10.741  1.00  0.00     0.111 A 
ATOM      6  C   UNL     1     -12.013 -32.794 -10.077  1.00  0.00     0.134 A 
ATOM      7  C   UNL     1     -11.083 -32.680  -9.036  1.00  0.00     0.093 A 
ATOM      8  C   UNL     1     -10.648 -31.431  -8.593  1.00  0.00     0.123 A 
ATOM      9  C   UNL     1     -11.136 -30.273  -9.198  1.00  0.00     0.094 A 
ATOM     10  C   UNL     1     -12.035 -30.356 -10.263  1.00  0.00     0.146 A 
ATOM     11  O   UNL     1     -12.457 -29.230 -10.825  1.00  0.00    -0.452 OA
ENDROOT
BRANCH   1  12
ATOM     12  C   UNL     1     -13.683 -27.869 -12.392  1.00  0.00     0.025 A 
ATOM     13  C   UNL     1     -14.725 -27.162 -11.773  1.00  0.00     0.016 A 
ATOM     14  C   UNL     1     -15.103 -25.902 -12.243  1.00  0.00     0.051 A 
ATOM     15  C   UNL     1     -14.432 -25.324 -13.329  1.00  0.00     0.157 A 
ATOM     16  C   UNL     1     -12.999 -27.276 -13.469  1.00  0.00     0.062 A 
ATOM     17  C   UNL     1     -13.375 -26.010 -13.939  1.00  0.00     0.158 A 
BRANCH  15  18
ATOM     18  O   UNL     1     -14.807 -24.067 -13.801  1.00  0.00    -0.504 OA
ATOM     19  H   UNL     1     -14.445 -23.215 -13.388  1.00  0.00     0.293 HD
ENDBRANCH  15  18
BRANCH  17  20
ATOM     20  O   UNL     1     -12.701 -25.426 -15.010  1.00  0.00    -0.504 OA
ATOM     21  H   UNL     1     -11.699 -25.522 -15.122  1.00  0.00     0.293 HD
ENDBRANCH  17  20
ENDBRANCH   1  12
BRANCH   2  22
ATOM     22  O   UNL     1     -14.668 -30.368 -13.480  1.00  0.00    -0.502 OA
ATOM     23  H   UNL     1     -15.397 -29.670 -13.557  1.00  0.00     0.293 HD
ENDBRANCH   2  22
BRANCH   6  24
ATOM     24  O   UNL     1     -12.449 -34.088 -10.379  1.00  0.00    -0.507 OA
ATOM     25  H   UNL     1     -13.394 -34.335 -10.631  1.00  0.00     0.293 HD
ENDBRANCH   6  24
BRANCH   8  26
ATOM     26  O   UNL     1      -9.735 -31.354  -7.544  1.00  0.00    -0.508 OA
ATOM     27  H   UNL     1      -8.891 -30.796  -7.614  1.00  0.00     0.293 HD
ENDBRANCH   8  26
TORSDOF 6
ENDMDL
MODEL 3
REMARK VINA RESULT:    -7.570      1.016      1.078
REMARK INTER + INTRA:          -9.441
REMARK INTER:                  -9.186
REMARK INTRA:                  -0.256
REMARK UNBOUND:                -0.322
REMARK SMILES O=c1c(O)c(-c2ccc(O)c(O)c2)oc2cc(O)cc(O)c12
REMARK SMILES IDX 5 1 3 2 2 3 1 4 22 5 20 6 19 7 17 8 16 9 15 10 14 11 6 12
REMARK SMILES IDX 7 13 8 14 9 15 13 16 11 17 10 18 12 20 4 22 21 24 18 26
REMARK H PARENT 10 19 12 21 4 23 21 25 18 27
REMARK Flexibility Score: inf
ROOT
ATOM      1  C   UNL     1     -13.741 -30.231 -12.371  1.00  0.00     0.180 A 
ATOM      2  C   UNL     1     -12.856 -30.741 -11.405  1.00  0.00     0.208 A 
ATOM      3  C   UNL     1     -12.750 -32.132 -11.246  1.00  0.00     0.238 A 
ATOM      4  O   UNL     1     -12.012 -32.579 -10.330  1.00  0.00    -0.285 OA
ATOM      5  C   UNL     1     -13.485 -32.996 -12.092  1.00  0.00     0.111 A 
ATOM      6  C   UNL     1     -13.421 -34.423 -12.050  1.00  0.00     0.134 A 
ATOM      7  C   UNL     1     -14.276 -35.177 -12.864  1.00  0.00     0.093 A 
ATOM      8  C   UNL     1     -15.145 -34.560 -13.763  1.00  0.00     0.123 A 
ATOM      9  C   UNL     1     -15.177 -33.169 -13.852  1.00  0.00     0.094 A 
ATOM     10  C   UNL     1     -14.365 -32.388 -13.026  1.00  0.00     0.146 A 
ATOM     11  O   UNL     1     -14.443 -31.067 -13.127  1.00  0.00    -0.452 OA
ENDROOT
BRANCH   1  12
ATOM     12  C   UNL     1     -13.919 -28.777 -12.587  1.00  0.00     0.025 A 
ATOM     13  C   UNL     1     -14.639 -28.023 -11.648  1.00  0.00     0.016 A 
ATOM     14  C   UNL     1     -14.801 -26.646 -11.821  1.00  0.00     0.051 A 
ATOM     15  C   UNL     1     -14.232 -26.001 -12.926  1.00  0.00     0.157 A 
ATOM     16  C   UNL     1     -13.331 -28.123 -13.685  1.00  0.00     0.062 A 
ATOM     17  C   UNL     1     -13.492 -26.740 -13.858  1.00  0.00     0.158 A 
BRANCH  15  18
ATOM     18  O   UNL     1     -14.393 -24.628 -13.103  1.00  0.00    -0.504 OA
ATOM     19  H   UNL     1     -13.615 -24.032 -13.360  1.00  0.00     0.293 HD
ENDBRANCH  15  18
BRANCH  17  20
ATOM     20  O   UNL     1     -12.915 -26.094 -14.949  1.00  0.00    -0.504 OA
ATOM     21  H   UNL     1     -13.337 -26.128 -15.869  1.00  0.00     0.293 HD
ENDBRANCH  17  20
ENDBRANCH   1  12
BRANCH   2  22
ATOM     22  O   UNL     1     -12.081 -29.872 -10.632  1.00  0.00    -0.502 OA
ATOM     23  H   UNL     1     -11.140 -30.100 -10.335  1.00  0.00     0.293 HD
ENDBRANCH   2  22
BRANCH   6  24
ATOM     24  O   UNL     1     -12.527 -35.144 -11.253  1.00  0.00    -0.507 OA
ATOM     25  H   UNL     1     -12.792 -35.773 -10.510  1.00  0.00     0.293 HD
ENDBRANCH   6  24
BRANCH   8  26
ATOM     26  O   UNL     1     -15.968 -35.343 -14.570  1.00  0.00    -0.508 OA
ATOM     27  H   UNL     1     -16.629 -36.001 -14.173  1.00  0.00     0.293 HD
ENDBRANCH   8  26
TORSDOF 6
ENDMDL
MODEL 4
REMARK VINA RESULT:    -7.566      1.749      3.257
REMARK INTER + INTRA:          -9.436
REMARK INTER:                  -9.212
REMARK INTRA:                  -0.224
REMARK UNBOUND:                -0.322
REMARK SMILES O=c1c(O)c(-c2ccc(O)c(O)c2)oc2cc(O)cc(O)c12
REMARK SMILES IDX 5 1 3 2 2 3 1 4 22 5 20 6 19 7 17 8 16 9 15 10 14 11 6 12
REMARK SMILES IDX 7 13 8 14 9 15 13 16 11 17 10 18 12 20 4 22 21 24 18 26
REMARK H PARENT 10 19 12 21 4 23 21 25 18 27
REMARK Flexibility Score: inf
ROOT
ATOM      1  C   UNL     1     -13.540 -30.306 -12.159  1.00  0.00     0.180 A 
ATOM      2  C   UNL     1     -14.103 -31.386 -12.861  1.00  0.00     0.208 A 
ATOM      3  C   UNL     1     -13.770 -32.695 -12.478  1.00  0.00     0.238 A 
ATOM      4  O   UNL     1     -14.218 -33.655 -13.157  1.00  0.00    -0.285 OA
ATOM      5  C   UNL     1     -12.924 -32.910 -11.363  1.00  0.00     0.111 A 
ATOM      6  C   UNL     1     -12.556 -34.194 -10.858  1.00  0.00     0.134 A 
ATOM      7  C   UNL     1     -11.626 -34.285  -9.814  1.00  0.00     0.093 A 
ATOM      8  C   UNL     1     -11.101 -33.141  -9.215  1.00  0.00     0.123 A 
ATOM      9  C   UNL     1     -11.496 -31.881  -9.663  1.00  0.00     0.094 A 
ATOM     10  C   UNL     1     -12.392 -31.757 -10.728  1.00  0.00     0.146 A 
ATOM     11  O   UNL     1     -12.724 -30.539 -11.138  1.00  0.00    -0.452 OA
ENDROOT
BRANCH   1  12
ATOM     12  C   UNL     1     -13.831 -28.899 -12.512  1.00  0.00     0.025 A 
ATOM     13  C   UNL     1     -14.533 -28.090 -11.605  1.00  0.00     0.016 A 
ATOM     14  C   UNL     1     -14.801 -26.753 -11.908  1.00  0.00     0.051 A 
ATOM     15  C   UNL     1     -14.358 -26.201 -13.116  1.00  0.00     0.157 A 
ATOM     16  C   UNL     1     -13.370 -28.335 -13.716  1.00  0.00     0.062 A 
ATOM     17  C   UNL     1     -13.636 -26.991 -14.020  1.00  0.00     0.158 A 
BRANCH  15  18
ATOM     18  O   UNL     1     -14.624 -24.868 -13.423  1.00  0.00    -0.504 OA
ATOM     19  H   UNL     1     -13.990 -24.317 -13.991  1.00  0.00     0.293 HD
ENDBRANCH  15  18
BRANCH  17  20
ATOM     20  O   UNL     1     -13.184 -26.436 -15.215  1.00  0.00    -0.504 OA
ATOM     21  H   UNL     1     -13.810 -26.276 -15.995  1.00  0.00     0.293 HD
ENDBRANCH  17  20
ENDBRANCH   1  12
BRANCH   2  22
ATOM     22  O   UNL     1     -14.996 -31.154 -13.911  1.00  0.00    -0.502 OA
ATOM     23  H   UNL     1     -14.688 -30.997 -14.863  1.00  0.00     0.293 HD
ENDBRANCH   2  22
BRANCH   6  24
ATOM     24  O   UNL     1     -13.086 -35.401 -11.323  1.00  0.00    -0.507 OA
ATOM     25  H   UNL     1     -13.902 -35.485 -11.911  1.00  0.00     0.293 HD
ENDBRANCH   6  24
BRANCH   8  26
ATOM     26  O   UNL     1     -10.192 -33.270  -8.167  1.00  0.00    -0.508 OA
ATOM     27  H   UNL     1     -10.464 -33.100  -7.205  1.00  0.00     0.293 HD
ENDBRANCH   8  26
TORSDOF 6
ENDMDL
MODEL 5
REMARK VINA RESULT:    -7.435      1.279      1.544
REMARK INTER + INTRA:          -9.278
REMARK INTER:                  -8.975
REMARK INTRA:                  -0.303
REMARK UNBOUND:                -0.322
REMARK SMILES O=c1c(O)c(-c2ccc(O)c(O)c2)oc2cc(O)cc(O)c12
REMARK SMILES IDX 5 1 3 2 2 3 1 4 22 5 20 6 19 7 17 8 16 9 15 10 14 11 6 12
REMARK SMILES IDX 7 13 8 14 9 15 13 16 11 17 10 18 12 20 4 22 21 24 18 26
REMARK H PARENT 10 19 12 21 4 23 21 25 18 27
REMARK Flexibility Score: inf
ROOT
ATOM      1  C   UNL     1     -12.761 -28.746 -12.096  1.00  0.00     0.180 A 
ATOM      2  C   UNL     1     -11.583 -28.778 -11.328  1.00  0.00     0.208 A 
ATOM      3  C   UNL     1     -11.075 -30.019 -10.912  1.00  0.00     0.238 A 
ATOM      4  O   UNL     1     -10.064 -30.036 -10.163  1.00  0.00    -0.285 OA
ATOM      5  C   UNL     1     -11.716 -31.215 -11.317  1.00  0.00     0.111 A 
ATOM      6  C   UNL     1     -11.263 -32.530 -10.992  1.00  0.00     0.134 A 
ATOM      7  C   UNL     1     -12.038 -33.638 -11.357  1.00  0.00     0.093 A 
ATOM      8  C   UNL     1     -13.215 -33.484 -12.089  1.00  0.00     0.123 A 
ATOM      9  C   UNL     1     -13.639 -32.208 -12.460  1.00  0.00     0.094 A 
ATOM     10  C   UNL     1     -12.908 -31.081 -12.078  1.00  0.00     0.146 A 
ATOM     11  O   UNL     1     -13.358 -29.883 -12.432  1.00  0.00    -0.452 OA
ENDROOT
BRANCH   1  12
ATOM     12  C   UNL     1     -13.365 -27.477 -12.559  1.00  0.00     0.025 A 
ATOM     13  C   UNL     1     -14.413 -26.902 -11.822  1.00  0.00     0.016 A 
ATOM     14  C   UNL     1     -14.984 -25.694 -12.229  1.00  0.00     0.051 A 
ATOM     15  C   UNL     1     -14.506 -25.035 -13.368  1.00  0.00     0.157 A 
ATOM     16  C   UNL     1     -12.874 -26.801 -13.691  1.00  0.00     0.062 A 
ATOM     17  C   UNL     1     -13.446 -25.587 -14.098  1.00  0.00     0.158 A 
BRANCH  15  18
ATOM     18  O   UNL     1     -15.074 -23.830 -13.778  1.00  0.00    -0.504 OA
ATOM     19  H   UNL     1     -15.787 -23.365 -13.227  1.00  0.00     0.293 HD
ENDBRANCH  15  18
BRANCH  17  20
ATOM     20  O   UNL     1     -12.963 -24.922 -15.223  1.00  0.00    -0.504 OA
ATOM     21  H   UNL     1     -13.414 -25.012 -16.126  1.00  0.00     0.293 HD
ENDBRANCH  17  20
ENDBRANCH   1  12
BRANCH   2  22
ATOM     22  O   UNL     1     -10.922 -27.590 -11.003  1.00  0.00    -0.502 OA
ATOM     23  H   UNL     1     -10.997 -27.158 -10.090  1.00  0.00     0.293 HD
ENDBRANCH   2  22
BRANCH   6  24
ATOM     24  O   UNL     1     -10.057 -32.804 -10.340  1.00  0.00    -0.507 OA
ATOM     25  H   UNL     1      -9.511 -33.643 -10.464  1.00  0.00     0.293 HD
ENDBRANCH   6  24
BRANCH   8  26
ATOM     26  O   UNL     1     -13.952 -34.610 -12.450  1.00  0.00    -0.508 OA
ATOM     27  H   UNL     1     -14.881 -34.531 -12.846  1.00  0.00     0.293 HD
ENDBRANCH   8  26
TORSDOF 6
ENDMDL
MODEL 6
REMARK VINA RESULT:    -7.020      1.607      6.722
REMARK INTER + INTRA:          -8.778
REMARK INTER:                  -8.577
REMARK INTRA:                  -0.201
REMARK UNBOUND:                -0.322
REMARK SMILES O=c1c(O)c(-c2ccc(O)c(O)c2)oc2cc(O)cc(O)c12
REMARK SMILES IDX 5 1 3 2 2 3 1 4 22 5 20 6 19 7 17 8 16 9 15 10 14 11 6 12
REMARK SMILES IDX 7 13 8 14 9 15 13 16 11 17 10 18 12 20 4 22 21 24 18 26
REMARK H PARENT 10 19 12 21 4 23 21 25 18 27
REMARK Flexibility Score: inf
ROOT
ATOM      1  C   UNL     1     -13.467 -31.994 -12.528  1.00  0.00     0.180 A 
ATOM      2  C   UNL     1     -12.136 -31.808 -12.115  1.00  0.00     0.208 A 
ATOM      3  C   UNL     1     -11.689 -30.509 -11.824  1.00  0.00     0.238 A 
ATOM      4  O   UNL     1     -10.477 -30.340 -11.528  1.00  0.00    -0.285 OA
ATOM      5  C   UNL     1     -12.592 -29.420 -11.893  1.00  0.00     0.111 A 
ATOM      6  C   UNL     1     -12.260 -28.068 -11.577  1.00  0.00     0.134 A 
ATOM      7  C   UNL     1     -13.207 -27.057 -11.785  1.00  0.00     0.093 A 
ATOM      8  C   UNL     1     -14.492 -27.355 -12.236  1.00  0.00     0.123 A 
ATOM      9  C   UNL     1     -14.845 -28.679 -12.496  1.00  0.00     0.094 A 
ATOM     10  C   UNL     1     -13.911 -29.705 -12.335  1.00  0.00     0.146 A 
ATOM     11  O   UNL     1     -14.281 -30.949 -12.615  1.00  0.00    -0.452 OA
ENDROOT
BRANCH   1  12
ATOM     12  C   UNL     1     -14.007 -33.330 -12.866  1.00  0.00     0.025 A 
ATOM     13  C   UNL     1     -14.204 -34.273 -11.845  1.00  0.00     0.016 A 
ATOM     14  C   UNL     1     -14.733 -35.533 -12.138  1.00  0.00     0.051 A 
ATOM     15  C   UNL     1     -15.086 -35.862 -13.452  1.00  0.00     0.157 A 
ATOM     16  C   UNL     1     -14.382 -33.657 -14.182  1.00  0.00     0.062 A 
ATOM     17  C   UNL     1     -14.915 -34.921 -14.476  1.00  0.00     0.158 A 
BRANCH  15  18
ATOM     18  O   UNL     1     -15.612 -37.118 -13.749  1.00  0.00    -0.504 OA
ATOM     19  H   UNL     1     -15.399 -37.930 -13.180  1.00  0.00     0.293 HD
ENDBRANCH  15  18
BRANCH  17  20
ATOM     20  O   UNL     1     -15.281 -35.246 -15.780  1.00  0.00    -0.504 OA
ATOM     21  H   UNL     1     -16.093 -35.819 -15.976  1.00  0.00     0.293 HD
ENDBRANCH  17  20
ENDBRANCH   1  12
BRANCH   2  22
ATOM     22  O   UNL     1     -11.281 -32.904 -11.979  1.00  0.00    -0.502 OA
ATOM     23  H   UNL     1     -11.128 -33.571 -12.726  1.00  0.00     0.293 HD
ENDBRANCH   2  22
BRANCH   6  24
ATOM     24  O   UNL     1     -11.034 -27.668 -11.036  1.00  0.00    -0.507 OA
ATOM     25  H   UNL     1     -10.581 -28.104 -10.247  1.00  0.00     0.293 HD
ENDBRANCH   6  24
BRANCH   8  26
ATOM     26  O   UNL     1     -15.414 -26.326 -12.415  1.00  0.00    -0.508 OA
ATOM     27  H   UNL     1     -15.904 -25.911 -11.631  1.00  0.00     0.293 HD
ENDBRANCH   8  26
TORSDOF 6
ENDMDL
MODEL 7
REMARK VINA RESULT:    -6.981      2.180      3.600
REMARK INTER + INTRA:          -8.732
REMARK INTER:                  -8.427
REMARK INTRA:                  -0.305
REMARK UNBOUND:                -0.322
REMARK SMILES O=c1c(O)c(-c2ccc(O)c(O)c2)oc2cc(O)cc(O)c12
REMARK SMILES IDX 5 1 3 2 2 3 1 4 22 5 20 6 19 7 17 8 16 9 15 10 14 11 6 12
REMARK SMILES IDX 7 13 8 14 9 15 13 16 11 17 10 18 12 20 4 22 21 24 18 26
REMARK H PARENT 10 19 12 21 4 23 21 25 18 27
REMARK Flexibility Score: inf
ROOT
ATOM      1  C   UNL     1     -13.802 -32.324 -13.312  1.00  0.00     0.180 A 
ATOM      2  C   UNL     1     -12.738 -33.036 -13.894  1.00  0.00     0.208 A 
ATOM      3  C   UNL     1     -12.945 -34.368 -14.288  1.00  0.00     0.238 A 
ATOM      4  O   UNL     1     -11.969 -35.022 -14.739  1.00  0.00    -0.285 OA
ATOM      5  C   UNL     1     -14.227 -34.952 -14.150  1.00  0.00     0.111 A 
ATOM      6  C   UNL     1     -14.563 -36.279 -14.558  1.00  0.00     0.134 A 
ATOM      7  C   UNL     1     -15.837 -36.788 -14.274  1.00  0.00     0.093 A 
ATOM      8  C   UNL     1     -16.806 -35.999 -13.656  1.00  0.00     0.123 A 
ATOM      9  C   UNL     1     -16.507 -34.683 -13.303  1.00  0.00     0.094 A 
ATOM     10  C   UNL     1     -15.234 -34.160 -13.538  1.00  0.00     0.146 A 
ATOM     11  O   UNL     1     -14.984 -32.910 -13.166  1.00  0.00    -0.452 OA
ENDROOT
BRANCH   1  12
ATOM     12  C   UNL     1     -13.656 -30.923 -12.858  1.00  0.00     0.025 A 
ATOM     13  C   UNL     1     -13.376 -30.661 -11.507  1.00  0.00     0.016 A 
ATOM     14  C   UNL     1     -13.214 -29.347 -11.060  1.00  0.00     0.051 A 
ATOM     15  C   UNL     1     -13.314 -28.278 -11.959  1.00  0.00     0.157 A 
ATOM     16  C   UNL     1     -13.736 -29.847 -13.761  1.00  0.00     0.062 A 
ATOM     17  C   UNL     1     -13.570 -28.529 -13.313  1.00  0.00     0.158 A 
BRANCH  15  18
ATOM     18  O   UNL     1     -13.154 -26.966 -11.517  1.00  0.00    -0.504 OA
ATOM     19  H   UNL     1     -13.153 -26.185 -12.163  1.00  0.00     0.293 HD
ENDBRANCH  15  18
BRANCH  17  20
ATOM     20  O   UNL     1     -13.656 -27.464 -14.208  1.00  0.00    -0.504 OA
ATOM     21  H   UNL     1     -14.301 -27.478 -14.989  1.00  0.00     0.293 HD
ENDBRANCH  17  20
ENDBRANCH   1  12
BRANCH   2  22
ATOM     22  O   UNL     1     -11.501 -32.417 -14.091  1.00  0.00    -0.502 OA
ATOM     23  H   UNL     1     -10.889 -32.166 -13.324  1.00  0.00     0.293 HD
ENDBRANCH   2  22
BRANCH   6  24
ATOM     24  O   UNL     1     -13.701 -37.125 -15.262  1.00  0.00    -0.507 OA
ATOM     25  H   UNL     1     -12.696 -37.130 -15.172  1.00  0.00     0.293 HD
ENDBRANCH   6  24
BRANCH   8  26
ATOM     26  O   UNL     1     -18.069 -36.533 -13.404  1.00  0.00    -0.508 OA
ATOM     27  H   UNL     1     -18.901 -36.155 -13.843  1.00  0.00     0.293 HD
ENDBRANCH   8  26
TORSDOF 6
ENDMDL
MODEL 8
REMARK VINA RESULT:    -6.852      1.688      6.897
REMARK INTER + INTRA:          -8.576
REMARK INTER:                  -8.270
REMARK INTRA:                  -0.306
REMARK UNBOUND:                -0.322
REMARK SMILES O=c1c(O)c(-c2ccc(O)c(O)c2)oc2cc(O)cc(O)c12
REMARK SMILES IDX 5 1 3 2 2 3 1 4 22 5 20 6 19 7 17 8 16 9 15 10 14 11 6 12
REMARK SMILES IDX 7 13 8 14 9 15 13 16 11 17 10 18 12 20 4 22 21 24 18 26
REMARK H PARENT 10 19 12 21 4 23 21 25 18 27
REMARK Flexibility Score: inf
ROOT
ATOM      1  C   UNL     1     -13.527 -30.416 -13.170  1.00  0.00     0.180 A 
ATOM      2  C   UNL     1     -13.884 -30.144 -11.837  1.00  0.00     0.208 A 
ATOM      3  C   UNL     1     -14.097 -28.813 -11.447  1.00  0.00     0.238 A 
ATOM      4  O   UNL     1     -14.342 -28.570 -10.237  1.00  0.00    -0.285 OA
ATOM      5  C   UNL     1     -14.008 -27.774 -12.406  1.00  0.00     0.111 A 
ATOM      6  C   UNL     1     -14.248 -26.393 -12.133  1.00  0.00     0.134 A 
ATOM      7  C   UNL     1     -14.025 -25.441 -13.136  1.00  0.00     0.093 A 
ATOM      8  C   UNL     1     -13.634 -25.825 -14.418  1.00  0.00     0.123 A 
ATOM      9  C   UNL     1     -13.450 -27.175 -14.712  1.00  0.00     0.094 A 
ATOM     10  C   UNL     1     -13.626 -28.145 -13.723  1.00  0.00     0.146 A 
ATOM     11  O   UNL     1     -13.419 -29.418 -14.039  1.00  0.00    -0.452 OA
ENDROOT
BRANCH   1  12
ATOM     12  C   UNL     1     -13.273 -31.792 -13.653  1.00  0.00     0.025 A 
ATOM     13  C   UNL     1     -11.955 -32.273 -13.701  1.00  0.00     0.016 A 
ATOM     14  C   UNL     1     -11.693 -33.576 -14.133  1.00  0.00     0.051 A 
ATOM     15  C   UNL     1     -12.745 -34.421 -14.507  1.00  0.00     0.157 A 
ATOM     16  C   UNL     1     -14.328 -32.650 -14.010  1.00  0.00     0.062 A 
ATOM     17  C   UNL     1     -14.065 -33.959 -14.441  1.00  0.00     0.158 A 
BRANCH  15  18
ATOM     18  O   UNL     1     -12.487 -35.720 -14.940  1.00  0.00    -0.504 OA
ATOM     19  H   UNL     1     -13.016 -36.511 -14.589  1.00  0.00     0.293 HD
ENDBRANCH  15  18
BRANCH  17  20
ATOM     20  O   UNL     1     -15.111 -34.806 -14.801  1.00  0.00    -0.504 OA
ATOM     21  H   UNL     1     -15.940 -34.457 -15.269  1.00  0.00     0.293 HD
ENDBRANCH  17  20
ENDBRANCH   1  12
BRANCH   2  22
ATOM     22  O   UNL     1     -14.042 -31.190 -10.924  1.00  0.00    -0.502 OA
ATOM     23  H   UNL     1     -14.430 -31.051  -9.999  1.00  0.00     0.293 HD
ENDBRANCH   2  22
BRANCH   6  24
ATOM     24  O   UNL     1     -14.725 -25.908 -10.912  1.00  0.00    -0.507 OA
ATOM     25  H   UNL     1     -15.697 -25.747 -10.694  1.00  0.00     0.293 HD
ENDBRANCH   6  24
BRANCH   8  26
ATOM     26  O   UNL     1     -13.438 -24.852 -15.397  1.00  0.00    -0.508 OA
ATOM     27  H   UNL     1     -13.876 -24.922 -16.309  1.00  0.00     0.293 HD
ENDBRANCH   8  26
TORSDOF 6
ENDMDL
MODEL 9
REMARK VINA RESULT:    -6.597      2.606      4.292
REMARK INTER + INTRA:          -8.269
REMARK INTER:                  -8.347
REMARK INTRA:                   0.078
REMARK UNBOUND:                -0.322
REMARK SMILES O=c1c(O)c(-c2ccc(O)c(O)c2)oc2cc(O)cc(O)c12
REMARK SMILES IDX 5 1 3 2 2 3 1 4 22 5 20 6 19 7 17 8 16 9 15 10 14 11 6 12
REMARK SMILES IDX 7 13 8 14 9 15 13 16 11 17 10 18 12 20 4 22 21 24 18 26
REMARK H PARENT 10 19 12 21 4 23 21 25 18 27
REMARK Flexibility Score: inf
ROOT
ATOM      1  C   UNL     1     -12.590 -30.395 -11.118  1.00  0.00     0.180 A 
ATOM      2  C   UNL     1     -12.740 -31.603 -11.822  1.00  0.00     0.208 A 
ATOM      3  C   UNL     1     -12.130 -32.763 -11.320  1.00  0.00     0.238 A 
ATOM      4  O   UNL     1     -12.206 -33.824 -11.993  1.00  0.00    -0.285 OA
ATOM      5  C   UNL     1     -11.427 -32.715 -10.091  1.00  0.00     0.111 A 
ATOM      6  C   UNL     1     -10.808 -33.840  -9.465  1.00  0.00     0.134 A 
ATOM      7  C   UNL     1     -10.048 -33.652  -8.304  1.00  0.00     0.093 A 
ATOM      8  C   UNL     1      -9.937 -32.395  -7.711  1.00  0.00     0.123 A 
ATOM      9  C   UNL     1     -10.583 -31.300  -8.283  1.00  0.00     0.094 A 
ATOM     10  C   UNL     1     -11.317 -31.447  -9.462  1.00  0.00     0.146 A 
ATOM     11  O   UNL     1     -11.897 -30.374  -9.986  1.00  0.00    -0.452 OA
ENDROOT
BRANCH   1  12
ATOM     12  C   UNL     1     -13.191 -29.127 -11.592  1.00  0.00     0.025 A 
ATOM     13  C   UNL     1     -12.405 -27.965 -11.635  1.00  0.00     0.016 A 
ATOM     14  C   UNL     1     -12.945 -26.762 -12.098  1.00  0.00     0.051 A 
ATOM     15  C   UNL     1     -14.273 -26.708 -12.540  1.00  0.00     0.157 A 
ATOM     16  C   UNL     1     -14.518 -29.074 -12.055  1.00  0.00     0.062 A 
ATOM     17  C   UNL     1     -15.059 -27.867 -12.523  1.00  0.00     0.158 A 
BRANCH  15  18
ATOM     18  O   UNL     1     -14.815 -25.511 -13.001  1.00  0.00    -0.504 OA
ATOM     19  H   UNL     1     -15.547 -25.028 -12.492  1.00  0.00     0.293 HD
ENDBRANCH  15  18
BRANCH  17  20
ATOM     20  O   UNL     1     -16.376 -27.813 -12.976  1.00  0.00    -0.504 OA
ATOM     21  H   UNL     1     -16.608 -27.437 -13.888  1.00  0.00     0.293 HD
ENDBRANCH  17  20
ENDBRANCH   1  12
BRANCH   2  22
ATOM     22  O   UNL     1     -13.502 -31.645 -12.993  1.00  0.00    -0.502 OA
ATOM     23  H   UNL     1     -13.720 -30.815 -13.531  1.00  0.00     0.293 HD
ENDBRANCH   2  22
BRANCH   6  24
ATOM     24  O   UNL     1     -10.927 -35.155  -9.923  1.00  0.00    -0.507 OA
ATOM     25  H   UNL     1     -11.041 -35.965  -9.332  1.00  0.00     0.293 HD
ENDBRANCH   6  24
BRANCH   8  26
ATOM     26  O   UNL     1      -9.187 -32.249  -6.546  1.00  0.00    -0.508 OA
ATOM     27  H   UNL     1      -9.238 -31.407  -5.984  1.00  0.00     0.293 HD
ENDBRANCH   8  26
TORSDOF 6
ENDMDL
