MODEL 1
REMARK VINA RESULT:    -4.675      0.000      0.000
REMARK INTER + INTRA:          -5.842
REMARK INTER:                  -5.768
REMARK INTRA:                  -0.074
REMARK UNBOUND:                -0.074
REMARK SMILES CCCCCC(=O)[O-]
REMARK SMILES IDX 4 1 5 2 6 3 7 4 8 5 3 6 2 7 1 8
REMARK H PARENT
REMARK Flexibility Score: inf
ROOT
ATOM      1  C   UNL     1      -3.818  28.648  56.112  1.00  0.00     0.006 C 
ENDROOT
BRANCH   1   2
ATOM      2  C   UNL     1      -4.567  29.418  57.207  1.00  0.00     0.053 C 
BRANCH   2   3
ATOM      3  C   UNL     1      -3.665  30.426  57.847  1.00  0.00     0.041 C 
ATOM      4  O   UNL     1      -2.439  30.179  57.990  1.00  0.00    -0.550 OA
ATOM      5  O   UNL     1      -4.170  31.659  58.243  1.00  0.00    -0.550 OA
ENDBRANCH   2   3
ENDBRANCH   1   2
BRANCH   1   6
ATOM      6  C   UNL     1      -4.691  27.578  55.438  1.00  0.00     0.000 C 
BRANCH   6   7
ATOM      7  C   UNL     1      -3.913  26.742  54.411  1.00  0.00    -0.003 C 
ATOM      8  C   UNL     1      -2.669  26.120  55.039  1.00  0.00     0.004 C 
ENDBRANCH   6   7
ENDBRANCH   1   6
TORSDOF 4
ENDMDL
MODEL 2
REMARK VINA RESULT:    -4.655      3.257      4.669
REMARK INTER + INTRA:          -5.817
REMARK INTER:                  -5.715
REMARK INTRA:                  -0.102
REMARK UNBOUND:                -0.074
REMARK SMILES CCCCCC(=O)[O-]
REMARK SMILES IDX 4 1 5 2 6 3 7 4 8 5 3 6 2 7 1 8
REMARK H PARENT
REMARK Flexibility Score: inf
ROOT
ATOM      1  C   UNL     1      -4.565  27.683  55.488  1.00  0.00     0.006 C 
ENDROOT
BRANCH   1   2
ATOM      2  C   UNL     1      -3.343  26.793  55.750  1.00  0.00     0.053 C 
BRANCH   2   3
ATOM      3  C   UNL     1      -2.640  26.481  54.467  1.00  0.00     0.041 C 
ATOM      4  O   UNL     1      -3.284  26.432  53.386  1.00  0.00    -0.550 OA
ATOM      5  O   UNL     1      -1.263  26.293  54.456  1.00  0.00    -0.550 OA
ENDBRANCH   2   3
ENDBRANCH   1   2
BRANCH   1   6
ATOM      6  C   UNL     1      -4.783  28.729  56.594  1.00  0.00     0.000 C 
BRANCH   6   7
ATOM      7  C   UNL     1      -3.498  29.493  56.945  1.00  0.00    -0.003 C 
ATOM      8  C   UNL     1      -3.758  30.534  58.029  1.00  0.00     0.004 C 
ENDBRANCH   6   7
ENDBRANCH   1   6
TORSDOF 4
ENDMDL
MODEL 3
REMARK VINA RESULT:    -4.612      3.261      4.553
REMARK INTER + INTRA:          -5.764
REMARK INTER:                  -5.649
REMARK INTRA:                  -0.115
REMARK UNBOUND:                -0.074
REMARK SMILES CCCCCC(=O)[O-]
REMARK SMILES IDX 4 1 5 2 6 3 7 4 8 5 3 6 2 7 1 8
REMARK H PARENT
REMARK Flexibility Score: inf
ROOT
ATOM      1  C   UNL     1      -4.538  27.549  55.468  1.00  0.00     0.006 C 
ENDROOT
BRANCH   1   2
ATOM      2  C   UNL     1      -3.292  26.707  55.771  1.00  0.00     0.053 C 
BRANCH   2   3
ATOM      3  C   UNL     1      -2.510  26.463  54.519  1.00  0.00     0.041 C 
ATOM      4  O   UNL     1      -1.282  26.190  54.582  1.00  0.00    -0.550 OA
ATOM      5  O   UNL     1      -3.147  26.488  53.284  1.00  0.00    -0.550 OA
ENDBRANCH   2   3
ENDBRANCH   1   2
BRANCH   1   6
ATOM      6  C   UNL     1      -4.736  28.696  56.472  1.00  0.00     0.000 C 
BRANCH   6   7
ATOM      7  C   UNL     1      -3.409  29.345  56.895  1.00  0.00    -0.003 C 
ATOM      8  C   UNL     1      -3.633  30.389  57.984  1.00  0.00     0.004 C 
ENDBRANCH   6   7
ENDBRANCH   1   6
TORSDOF 4
ENDMDL
MODEL 4
REMARK VINA RESULT:    -4.558      1.185      1.672
REMARK INTER + INTRA:          -5.697
REMARK INTER:                  -5.650
REMARK INTRA:                  -0.047
REMARK UNBOUND:                -0.074
REMARK SMILES CCCCCC(=O)[O-]
REMARK SMILES IDX 4 1 5 2 6 3 7 4 8 5 3 6 2 7 1 8
REMARK H PARENT
REMARK Flexibility Score: inf
ROOT
ATOM      1  C   UNL     1      -4.321  29.231  56.895  1.00  0.00     0.006 C 
ENDROOT
BRANCH   1   2
ATOM      2  C   UNL     1      -3.455  30.170  57.745  1.00  0.00     0.053 C 
BRANCH   2   3
ATOM      3  C   UNL     1      -4.219  30.647  58.939  1.00  0.00     0.041 C 
ATOM      4  O   UNL     1      -3.888  31.715  59.518  1.00  0.00    -0.550 OA
ATOM      5  O   UNL     1      -5.329  29.938  59.384  1.00  0.00    -0.550 OA
ENDBRANCH   2   3
ENDBRANCH   1   2
BRANCH   1   6
ATOM      6  C   UNL     1      -3.485  28.317  55.985  1.00  0.00     0.000 C 
BRANCH   6   7
ATOM      7  C   UNL     1      -4.349  27.332  55.183  1.00  0.00    -0.003 C 
ATOM      8  C   UNL     1      -3.510  26.574  54.159  1.00  0.00     0.004 C 
ENDBRANCH   6   7
ENDBRANCH   1   6
TORSDOF 4
ENDMDL
MODEL 5
REMARK VINA RESULT:    -4.485      1.482      2.371
REMARK INTER + INTRA:          -5.608
REMARK INTER:                  -5.448
REMARK INTRA:                  -0.160
REMARK UNBOUND:                -0.074
REMARK SMILES CCCCCC(=O)[O-]
REMARK SMILES IDX 4 1 5 2 6 3 7 4 8 5 3 6 2 7 1 8
REMARK H PARENT
REMARK Flexibility Score: inf
ROOT
ATOM      1  C   UNL     1      -3.542  26.741  55.541  1.00  0.00     0.006 C 
ENDROOT
BRANCH   1   2
ATOM      2  C   UNL     1      -4.577  27.872  55.604  1.00  0.00     0.053 C 
BRANCH   2   3
ATOM      3  C   UNL     1      -4.147  28.919  56.581  1.00  0.00     0.041 C 
ATOM      4  O   UNL     1      -4.970  29.387  57.412  1.00  0.00    -0.550 OA
ATOM      5  O   UNL     1      -2.825  29.346  56.608  1.00  0.00    -0.550 OA
ENDBRANCH   2   3
ENDBRANCH   1   2
BRANCH   1   6
ATOM      6  C   UNL     1      -3.119  26.405  54.102  1.00  0.00     0.000 C 
BRANCH   6   7
ATOM      7  C   UNL     1      -1.599  26.237  53.957  1.00  0.00    -0.003 C 
ATOM      8  C   UNL     1      -0.906  26.325  55.314  1.00  0.00     0.004 C 
ENDBRANCH   6   7
ENDBRANCH   1   6
TORSDOF 4
ENDMDL
MODEL 6
REMARK VINA RESULT:    -4.450      1.924      2.860
REMARK INTER + INTRA:          -5.564
REMARK INTER:                  -5.438
REMARK INTRA:                  -0.126
REMARK UNBOUND:                -0.074
REMARK SMILES CCCCCC(=O)[O-]
REMARK SMILES IDX 4 1 5 2 6 3 7 4 8 5 3 6 2 7 1 8
REMARK H PARENT
REMARK Flexibility Score: inf
ROOT
ATOM      1  C   UNL     1      -3.164  26.392  55.442  1.00  0.00     0.006 C 
ENDROOT
BRANCH   1   2
ATOM      2  C   UNL     1      -4.298  27.410  55.260  1.00  0.00     0.053 C 
BRANCH   2   3
ATOM      3  C   UNL     1      -4.135  28.549  56.216  1.00  0.00     0.041 C 
ATOM      4  O   UNL     1      -5.113  28.944  56.904  1.00  0.00    -0.550 OA
ATOM      5  O   UNL     1      -2.890  29.143  56.384  1.00  0.00    -0.550 OA
ENDBRANCH   2   3
ENDBRANCH   1   2
BRANCH   1   6
ATOM      6  C   UNL     1      -2.248  26.301  54.211  1.00  0.00     0.000 C 
BRANCH   6   7
ATOM      7  C   UNL     1      -3.028  26.353  52.889  1.00  0.00    -0.003 C 
ATOM      8  C   UNL     1      -2.085  26.271  51.693  1.00  0.00     0.004 C 
ENDBRANCH   6   7
ENDBRANCH   1   6
TORSDOF 4
ENDMDL
MODEL 7
REMARK VINA RESULT:    -4.419      2.574      4.317
REMARK INTER + INTRA:          -5.526
REMARK INTER:                  -5.356
REMARK INTRA:                  -0.170
REMARK UNBOUND:                -0.074
REMARK SMILES CCCCCC(=O)[O-]
REMARK SMILES IDX 4 1 5 2 6 3 7 4 8 5 3 6 2 7 1 8
REMARK H PARENT
REMARK Flexibility Score: inf
ROOT
ATOM      1  C   UNL     1      -2.474  29.098  56.368  1.00  0.00     0.006 C 
ENDROOT
BRANCH   1   2
ATOM      2  C   UNL     1      -3.012  27.662  56.426  1.00  0.00     0.053 C 
BRANCH   2   3
ATOM      3  C   UNL     1      -4.150  27.492  55.471  1.00  0.00     0.041 C 
ATOM      4  O   UNL     1      -4.007  26.795  54.432  1.00  0.00    -0.550 OA
ATOM      5  O   UNL     1      -5.386  28.063  55.752  1.00  0.00    -0.550 OA
ENDBRANCH   2   3
ENDBRANCH   1   2
BRANCH   1   6
ATOM      6  C   UNL     1      -2.673  29.858  57.689  1.00  0.00     0.000 C 
BRANCH   6   7
ATOM      7  C   UNL     1      -4.032  30.569  57.762  1.00  0.00    -0.003 C 
ATOM      8  C   UNL     1      -4.670  30.391  59.136  1.00  0.00     0.004 C 
ENDBRANCH   6   7
ENDBRANCH   1   6
TORSDOF 4
ENDMDL
MODEL 8
REMARK VINA RESULT:    -4.409      2.105      2.816
REMARK INTER + INTRA:          -5.514
REMARK INTER:                  -5.445
REMARK INTRA:                  -0.069
REMARK UNBOUND:                -0.074
REMARK SMILES CCCCCC(=O)[O-]
REMARK SMILES IDX 4 1 5 2 6 3 7 4 8 5 3 6 2 7 1 8
REMARK H PARENT
REMARK Flexibility Score: inf
ROOT
ATOM      1  C   UNL     1      -3.194  26.606  54.944  1.00  0.00     0.006 C 
ENDROOT
BRANCH   1   2
ATOM      2  C   UNL     1      -4.438  27.431  55.298  1.00  0.00     0.053 C 
BRANCH   2   3
ATOM      3  C   UNL     1      -4.076  28.555  56.217  1.00  0.00     0.041 C 
ATOM      4  O   UNL     1      -2.930  29.074  56.162  1.00  0.00    -0.550 OA
ATOM      5  O   UNL     1      -5.020  29.062  57.101  1.00  0.00    -0.550 OA
ENDBRANCH   2   3
ENDBRANCH   1   2
BRANCH   1   6
ATOM      6  C   UNL     1      -3.030  26.401  53.430  1.00  0.00     0.000 C 
BRANCH   6   7
ATOM      7  C   UNL     1      -1.567  26.181  53.019  1.00  0.00    -0.003 C 
ATOM      8  C   UNL     1      -1.418  26.181  51.501  1.00  0.00     0.004 C 
ENDBRANCH   6   7
ENDBRANCH   1   6
TORSDOF 4
ENDMDL
MODEL 9
REMARK VINA RESULT:    -4.351      4.267      5.611
REMARK INTER + INTRA:          -5.443
REMARK INTER:                  -5.388
REMARK INTRA:                  -0.054
REMARK UNBOUND:                -0.074
REMARK SMILES CCCCCC(=O)[O-]
REMARK SMILES IDX 4 1 5 2 6 3 7 4 8 5 3 6 2 7 1 8
REMARK H PARENT
REMARK Flexibility Score: inf
ROOT
ATOM      1  C   UNL     1      -3.519  26.387  54.114  1.00  0.00     0.006 C 
ENDROOT
BRANCH   1   2
ATOM      2  C   UNL     1      -2.150  26.349  53.424  1.00  0.00     0.053 C 
BRANCH   2   3
ATOM      3  C   UNL     1      -2.316  26.324  51.937  1.00  0.00     0.041 C 
ATOM      4  O   UNL     1      -1.309  26.393  51.185  1.00  0.00    -0.550 OA
ATOM      5  O   UNL     1      -3.581  26.174  51.381  1.00  0.00    -0.550 OA
ENDBRANCH   2   3
ENDBRANCH   1   2
BRANCH   1   6
ATOM      6  C   UNL     1      -3.468  27.065  55.493  1.00  0.00     0.000 C 
BRANCH   6   7
ATOM      7  C   UNL     1      -4.712  27.920  55.777  1.00  0.00    -0.003 C 
ATOM      8  C   UNL     1      -4.390  29.050  56.750  1.00  0.00     0.004 C 
ENDBRANCH   6   7
ENDBRANCH   1   6
TORSDOF 4
ENDMDL
