MODEL 1
REMARK VINA RESULT:    -2.779      0.000      0.000
REMARK INTER + INTRA:          -3.391
REMARK INTER:                  -3.266
REMARK INTRA:                  -0.125
REMARK UNBOUND:                -0.125
REMARK SMILES O=C([O-])CCC(=O)[O-]
REMARK SMILES IDX 4 1 2 2 1 3 3 4 5 5 6 6 7 7 8 8
REMARK H PARENT
REMARK Flexibility Score: inf
ROOT
ATOM      1  C   UNL     1     -15.198  14.104  -9.050  1.00  0.00     0.059 C 
ENDROOT
BRANCH   1   2
ATOM      2  C   UNL     1     -15.104  13.458  -7.705  1.00  0.00     0.042 C 
ATOM      3  O   UNL     1     -16.050  13.567  -6.881  1.00  0.00    -0.550 OA
ATOM      4  O   UNL     1     -13.949  12.776  -7.341  1.00  0.00    -0.550 OA
ENDBRANCH   1   2
BRANCH   1   5
ATOM      5  C   UNL     1     -15.736  13.114 -10.085  1.00  0.00     0.059 C 
BRANCH   5   6
ATOM      6  C   UNL     1     -14.611  12.468 -10.828  1.00  0.00     0.042 C 
ATOM      7  O   UNL     1     -14.142  11.366 -10.436  1.00  0.00    -0.550 OA
ATOM      8  O   UNL     1     -14.113  13.056 -11.983  1.00  0.00    -0.550 OA
ENDBRANCH   5   6
ENDBRANCH   1   5
TORSDOF 3
ENDMDL
MODEL 2
REMARK VINA RESULT:    -2.777      0.155      3.724
REMARK INTER + INTRA:          -3.389
REMARK INTER:                  -3.265
REMARK INTRA:                  -0.124
REMARK UNBOUND:                -0.125
REMARK SMILES O=C([O-])CCC(=O)[O-]
REMARK SMILES IDX 4 1 2 2 1 3 3 4 5 5 6 6 7 7 8 8
REMARK H PARENT
REMARK Flexibility Score: inf
ROOT
ATOM      1  C   UNL     1     -15.815  13.136  -9.980  1.00  0.00     0.059 C 
ENDROOT
BRANCH   1   2
ATOM      2  C   UNL     1     -14.743  12.494 -10.801  1.00  0.00     0.042 C 
ATOM      3  O   UNL     1     -14.230  11.403 -10.435  1.00  0.00    -0.550 OA
ATOM      4  O   UNL     1     -14.274  13.125 -11.947  1.00  0.00    -0.550 OA
ENDBRANCH   1   2
BRANCH   1   5
ATOM      5  C   UNL     1     -15.203  14.079  -8.942  1.00  0.00     0.059 C 
BRANCH   5   6
ATOM      6  C   UNL     1     -15.045  13.382  -7.629  1.00  0.00     0.042 C 
ATOM      7  O   UNL     1     -16.016  13.304  -6.831  1.00  0.00    -0.550 OA
ATOM      8  O   UNL     1     -13.838  12.773  -7.306  1.00  0.00    -0.550 OA
ENDBRANCH   5   6
ENDBRANCH   1   5
TORSDOF 3
ENDMDL
MODEL 3
REMARK VINA RESULT:    -2.771      0.185      1.624
REMARK INTER + INTRA:          -3.382
REMARK INTER:                  -3.255
REMARK INTRA:                  -0.127
REMARK UNBOUND:                -0.125
REMARK SMILES O=C([O-])CCC(=O)[O-]
REMARK SMILES IDX 4 1 2 2 1 3 3 4 5 5 6 6 7 7 8 8
REMARK H PARENT
REMARK Flexibility Score: inf
ROOT
ATOM      1  C   UNL     1     -15.229  14.110  -8.927  1.00  0.00     0.059 C 
ENDROOT
BRANCH   1   2
ATOM      2  C   UNL     1     -15.053  13.393  -7.627  1.00  0.00     0.042 C 
ATOM      3  O   UNL     1     -13.971  12.803  -7.369  1.00  0.00    -0.550 OA
ATOM      4  O   UNL     1     -16.104  13.333  -6.720  1.00  0.00    -0.550 OA
ENDBRANCH   1   2
BRANCH   1   5
ATOM      5  C   UNL     1     -15.843  13.180  -9.975  1.00  0.00     0.059 C 
BRANCH   5   6
ATOM      6  C   UNL     1     -14.775  12.565 -10.822  1.00  0.00     0.042 C 
ATOM      7  O   UNL     1     -14.341  13.173 -11.836  1.00  0.00    -0.550 OA
ATOM      8  O   UNL     1     -14.221  11.342 -10.463  1.00  0.00    -0.550 OA
ENDBRANCH   5   6
ENDBRANCH   1   5
TORSDOF 3
ENDMDL
MODEL 4
REMARK VINA RESULT:    -2.771      0.112      3.687
REMARK INTER + INTRA:          -3.382
REMARK INTER:                  -3.253
REMARK INTRA:                  -0.129
REMARK UNBOUND:                -0.125
REMARK SMILES O=C([O-])CCC(=O)[O-]
REMARK SMILES IDX 4 1 2 2 1 3 3 4 5 5 6 6 7 7 8 8
REMARK H PARENT
REMARK Flexibility Score: inf
ROOT
ATOM      1  C   UNL     1     -15.787  13.174 -10.049  1.00  0.00     0.059 C 
ENDROOT
BRANCH   1   2
ATOM      2  C   UNL     1     -14.672  12.568 -10.842  1.00  0.00     0.042 C 
ATOM      3  O   UNL     1     -14.259  13.132 -11.889  1.00  0.00    -0.550 OA
ATOM      4  O   UNL     1     -14.123  11.353 -10.451  1.00  0.00    -0.550 OA
ENDBRANCH   1   2
BRANCH   1   5
ATOM      5  C   UNL     1     -15.234  14.126  -8.987  1.00  0.00     0.059 C 
BRANCH   5   6
ATOM      6  C   UNL     1     -15.092  13.423  -7.675  1.00  0.00     0.042 C 
ATOM      7  O   UNL     1     -16.057  13.389  -6.866  1.00  0.00    -0.550 OA
ATOM      8  O   UNL     1     -13.910  12.761  -7.366  1.00  0.00    -0.550 OA
ENDBRANCH   5   6
ENDBRANCH   1   5
TORSDOF 3
ENDMDL
MODEL 5
REMARK VINA RESULT:    -2.689     17.699     18.409
REMARK INTER + INTRA:          -3.285
REMARK INTER:                  -3.195
REMARK INTRA:                  -0.090
REMARK UNBOUND:                -0.125
REMARK SMILES O=C([O-])CCC(=O)[O-]
REMARK SMILES IDX 4 1 2 2 1 3 3 4 5 5 6 6 7 7 8 8
REMARK H PARENT
REMARK Flexibility Score: inf
ROOT
ATOM      1  C   UNL     1       1.210   4.866 -11.243  1.00  0.00     0.059 C 
ENDROOT
BRANCH   1   2
ATOM      2  C   UNL     1       0.445   3.655 -11.672  1.00  0.00     0.042 C 
ATOM      3  O   UNL     1      -0.768   3.753 -11.997  1.00  0.00    -0.550 OA
ATOM      4  O   UNL     1       1.057   2.408 -11.665  1.00  0.00    -0.550 OA
ENDBRANCH   1   2
BRANCH   1   5
ATOM      5  C   UNL     1       2.289   5.211 -12.271  1.00  0.00     0.059 C 
BRANCH   5   6
ATOM      6  C   UNL     1       2.053   6.572 -12.843  1.00  0.00     0.042 C 
ATOM      7  O   UNL     1       0.881   6.964 -13.086  1.00  0.00    -0.550 OA
ATOM      8  O   UNL     1       3.125   7.429 -13.062  1.00  0.00    -0.550 OA
ENDBRANCH   5   6
ENDBRANCH   1   5
TORSDOF 3
ENDMDL
MODEL 6
REMARK VINA RESULT:    -2.610      1.482      4.054
REMARK INTER + INTRA:          -3.193
REMARK INTER:                  -3.095
REMARK INTRA:                  -0.098
REMARK UNBOUND:                -0.125
REMARK SMILES O=C([O-])CCC(=O)[O-]
REMARK SMILES IDX 4 1 2 2 1 3 3 4 5 5 6 6 7 7 8 8
REMARK H PARENT
REMARK Flexibility Score: inf
ROOT
ATOM      1  C   UNL     1     -14.422  12.004 -10.904  1.00  0.00     0.059 C 
ENDROOT
BRANCH   1   2
ATOM      2  C   UNL     1     -14.059  12.723 -12.164  1.00  0.00     0.042 C 
ATOM      3  O   UNL     1     -14.854  13.557 -12.671  1.00  0.00    -0.550 OA
ATOM      4  O   UNL     1     -12.861  12.435 -12.808  1.00  0.00    -0.550 OA
ENDBRANCH   1   2
BRANCH   1   5
ATOM      5  C   UNL     1     -15.552  12.735 -10.176  1.00  0.00     0.059 C 
BRANCH   5   6
ATOM      6  C   UNL     1     -15.007  13.556  -9.052  1.00  0.00     0.042 C 
ATOM      7  O   UNL     1     -15.218  14.797  -9.012  1.00  0.00    -0.550 OA
ATOM      8  O   UNL     1     -14.309  12.943  -8.019  1.00  0.00    -0.550 OA
ENDBRANCH   5   6
ENDBRANCH   1   5
TORSDOF 3
ENDMDL
MODEL 7
REMARK VINA RESULT:    -2.479      2.382      3.693
REMARK INTER + INTRA:          -3.039
REMARK INTER:                  -2.993
REMARK INTRA:                  -0.046
REMARK UNBOUND:                -0.125
REMARK SMILES O=C([O-])CCC(=O)[O-]
REMARK SMILES IDX 4 1 2 2 1 3 3 4 5 5 6 6 7 7 8 8
REMARK H PARENT
REMARK Flexibility Score: inf
ROOT
ATOM      1  C   UNL     1     -15.198  13.962  -8.785  1.00  0.00     0.059 C 
ENDROOT
BRANCH   1   2
ATOM      2  C   UNL     1     -14.994  13.248  -7.487  1.00  0.00     0.042 C 
ATOM      3  O   UNL     1     -15.917  13.210  -6.631  1.00  0.00    -0.550 OA
ATOM      4  O   UNL     1     -13.764  12.667  -7.200  1.00  0.00    -0.550 OA
ENDBRANCH   1   2
BRANCH   1   5
ATOM      5  C   UNL     1     -16.521  14.730  -8.772  1.00  0.00     0.059 C 
BRANCH   5   6
ATOM      6  C   UNL     1     -16.335  16.085  -8.169  1.00  0.00     0.042 C 
ATOM      7  O   UNL     1     -15.593  16.933  -8.731  1.00  0.00    -0.550 OA
ATOM      8  O   UNL     1     -17.023  16.431  -7.012  1.00  0.00    -0.550 OA
ENDBRANCH   5   6
ENDBRANCH   1   5
TORSDOF 3
ENDMDL
MODEL 8
REMARK VINA RESULT:    -2.478      2.508      3.641
REMARK INTER + INTRA:          -3.037
REMARK INTER:                  -2.901
REMARK INTRA:                  -0.136
REMARK UNBOUND:                -0.125
REMARK SMILES O=C([O-])CCC(=O)[O-]
REMARK SMILES IDX 4 1 2 2 1 3 3 4 5 5 6 6 7 7 8 8
REMARK H PARENT
REMARK Flexibility Score: inf
ROOT
ATOM      1  C   UNL     1     -16.508  15.563  -7.335  1.00  0.00     0.059 C 
ENDROOT
BRANCH   1   2
ATOM      2  C   UNL     1     -16.202  16.248  -8.629  1.00  0.00     0.042 C 
ATOM      3  O   UNL     1     -15.471  17.273  -8.647  1.00  0.00    -0.550 OA
ATOM      4  O   UNL     1     -16.767  15.784  -9.810  1.00  0.00    -0.550 OA
ENDBRANCH   1   2
BRANCH   1   5
ATOM      5  C   UNL     1     -16.614  14.051  -7.541  1.00  0.00     0.059 C 
BRANCH   5   6
ATOM      6  C   UNL     1     -15.255  13.430  -7.584  1.00  0.00     0.042 C 
ATOM      7  O   UNL     1     -14.657  13.136  -6.516  1.00  0.00    -0.550 OA
ATOM      8  O   UNL     1     -14.667  13.129  -8.807  1.00  0.00    -0.550 OA
ENDBRANCH   5   6
ENDBRANCH   1   5
TORSDOF 3
ENDMDL
MODEL 9
REMARK VINA RESULT:    -2.316     17.703     18.465
REMARK INTER + INTRA:          -2.847
REMARK INTER:                  -2.741
REMARK INTRA:                  -0.106
REMARK UNBOUND:                -0.125
REMARK SMILES O=C([O-])CCC(=O)[O-]
REMARK SMILES IDX 4 1 2 2 1 3 3 4 5 5 6 6 7 7 8 8
REMARK H PARENT
REMARK Flexibility Score: inf
ROOT
ATOM      1  C   UNL     1       2.017  17.470  -8.914  1.00  0.00     0.059 C 
ENDROOT
BRANCH   1   2
ATOM      2  C   UNL     1       2.527  16.242  -9.599  1.00  0.00     0.042 C 
ATOM      3  O   UNL     1       3.115  15.345  -8.939  1.00  0.00    -0.550 OA
ATOM      4  O   UNL     1       2.399  16.111 -10.976  1.00  0.00    -0.550 OA
ENDBRANCH   1   2
BRANCH   1   5
ATOM      5  C   UNL     1       3.125  18.121  -8.084  1.00  0.00     0.059 C 
BRANCH   5   6
ATOM      6  C   UNL     1       2.838  17.980  -6.623  1.00  0.00     0.042 C 
ATOM      7  O   UNL     1       2.307  18.928  -5.987  1.00  0.00    -0.550 OA
ATOM      8  O   UNL     1       3.110  16.782  -5.974  1.00  0.00    -0.550 OA
ENDBRANCH   5   6
ENDBRANCH   1   5
TORSDOF 3
ENDMDL
