MODEL 1
REMARK VINA RESULT:    -6.419      0.000      0.000
REMARK INTER + INTRA:          -6.419
REMARK INTER:                  -6.419
REMARK INTRA:                   0.000
REMARK UNBOUND:                 0.000
REMARK SMILES CC(C)=C1CC[C@@H](C)CC1=O
REMARK SMILES IDX 8 1 7 2 6 3 5 4 4 5 2 6 1 7 3 8 10 9 11 10 9 11
REMARK H PARENT
REMARK Flexibility Score: inf
ROOT
ATOM      1  C   UNL     1      20.973  25.416   4.041  1.00  0.00     0.008 C 
ATOM      2  C   UNL     1      20.372  26.782   4.411  1.00  0.00    -0.006 C 
ATOM      3  C   UNL     1      20.075  26.900   5.916  1.00  0.00     0.008 C 
ATOM      4  C   UNL     1      18.953  25.958   6.384  1.00  0.00     0.039 C 
ATOM      5  C   UNL     1      17.709  26.036   5.509  1.00  0.00    -0.006 C 
ATOM      6  C   UNL     1      16.468  25.797   6.025  1.00  0.00    -0.070 C 
ATOM      7  C   UNL     1      15.218  25.925   5.184  1.00  0.00     0.039 C 
ATOM      8  C   UNL     1      16.280  25.431   7.479  1.00  0.00     0.039 C 
ATOM      9  C   UNL     1      17.939  26.264   4.051  1.00  0.00     0.159 C 
ATOM     10  O   UNL     1      17.172  25.767   3.182  1.00  0.00    -0.295 OA
ATOM     11  C   UNL     1      19.107  27.088   3.594  1.00  0.00     0.084 C 
ENDROOT
TORSDOF 0
ENDMDL
MODEL 2
REMARK VINA RESULT:    -6.314      1.727      4.489
REMARK INTER + INTRA:          -6.314
REMARK INTER:                  -6.314
REMARK INTRA:                   0.000
REMARK UNBOUND:                 0.000
REMARK SMILES CC(C)=C1CC[C@@H](C)CC1=O
REMARK SMILES IDX 8 1 7 2 6 3 5 4 4 5 2 6 1 7 3 8 10 9 11 10 9 11
REMARK H PARENT
REMARK Flexibility Score: inf
ROOT
ATOM      1  C   UNL     1      15.321  23.886   6.737  1.00  0.00     0.008 C 
ATOM      2  C   UNL     1      15.244  25.422   6.697  1.00  0.00    -0.006 C 
ATOM      3  C   UNL     1      15.197  25.966   5.258  1.00  0.00     0.008 C 
ATOM      4  C   UNL     1      16.501  25.725   4.481  1.00  0.00     0.039 C 
ATOM      5  C   UNL     1      17.742  26.152   5.255  1.00  0.00    -0.006 C 
ATOM      6  C   UNL     1      18.861  26.590   4.607  1.00  0.00    -0.070 C 
ATOM      7  C   UNL     1      20.080  27.071   5.361  1.00  0.00     0.039 C 
ATOM      8  C   UNL     1      18.921  26.651   3.098  1.00  0.00     0.039 C 
ATOM      9  C   UNL     1      17.701  25.951   6.733  1.00  0.00     0.159 C 
ATOM     10  O   UNL     1      18.743  25.669   7.384  1.00  0.00    -0.295 OA
ATOM     11  C   UNL     1      16.401  26.070   7.474  1.00  0.00     0.084 C 
ENDROOT
TORSDOF 0
ENDMDL
MODEL 3
REMARK VINA RESULT:    -6.298      1.541      2.499
REMARK INTER + INTRA:          -6.298
REMARK INTER:                  -6.298
REMARK INTRA:                   0.000
REMARK UNBOUND:                 0.000
REMARK SMILES CC(C)=C1CC[C@@H](C)CC1=O
REMARK SMILES IDX 8 1 7 2 6 3 5 4 4 5 2 6 1 7 3 8 10 9 11 10 9 11
REMARK H PARENT
REMARK Flexibility Score: inf
ROOT
ATOM      1  C   UNL     1      20.192  28.180   3.682  1.00  0.00     0.008 C 
ATOM      2  C   UNL     1      20.221  26.707   4.122  1.00  0.00    -0.006 C 
ATOM      3  C   UNL     1      19.210  25.846   3.344  1.00  0.00     0.008 C 
ATOM      4  C   UNL     1      17.748  26.207   3.654  1.00  0.00     0.039 C 
ATOM      5  C   UNL     1      17.461  26.287   5.148  1.00  0.00    -0.006 C 
ATOM      6  C   UNL     1      16.223  25.995   5.645  1.00  0.00    -0.070 C 
ATOM      7  C   UNL     1      15.936  26.014   7.128  1.00  0.00     0.039 C 
ATOM      8  C   UNL     1      15.085  25.598   4.732  1.00  0.00     0.039 C 
ATOM      9  C   UNL     1      18.563  26.813   6.007  1.00  0.00     0.159 C 
ATOM     10  O   UNL     1      18.319  27.484   7.046  1.00  0.00    -0.295 OA
ATOM     11  C   UNL     1      19.994  26.558   5.634  1.00  0.00     0.084 C 
ENDROOT
TORSDOF 0
ENDMDL
MODEL 4
REMARK VINA RESULT:    -5.864      1.942      3.159
REMARK INTER + INTRA:          -5.864
REMARK INTER:                  -5.864
REMARK INTRA:                   0.000
REMARK UNBOUND:                 0.000
REMARK SMILES CC(C)=C1CC[C@@H](C)CC1=O
REMARK SMILES IDX 8 1 7 2 6 3 5 4 4 5 2 6 1 7 3 8 10 9 11 10 9 11
REMARK H PARENT
REMARK Flexibility Score: inf
ROOT
ATOM      1  C   UNL     1      18.243  27.252   3.250  1.00  0.00     0.008 C 
ATOM      2  C   UNL     1      17.972  25.814   3.725  1.00  0.00    -0.006 C 
ATOM      3  C   UNL     1      16.678  25.706   4.550  1.00  0.00     0.008 C 
ATOM      4  C   UNL     1      16.760  26.442   5.898  1.00  0.00     0.039 C 
ATOM      5  C   UNL     1      18.017  26.097   6.686  1.00  0.00    -0.006 C 
ATOM      6  C   UNL     1      18.022  26.121   8.051  1.00  0.00    -0.070 C 
ATOM      7  C   UNL     1      19.244  25.728   8.850  1.00  0.00     0.039 C 
ATOM      8  C   UNL     1      16.788  26.507   8.834  1.00  0.00     0.039 C 
ATOM      9  C   UNL     1      19.254  25.854   5.886  1.00  0.00     0.159 C 
ATOM     10  O   UNL     1      20.393  26.162   6.332  1.00  0.00    -0.295 OA
ATOM     11  C   UNL     1      19.158  25.244   4.518  1.00  0.00     0.084 C 
ENDROOT
TORSDOF 0
ENDMDL
MODEL 5
REMARK VINA RESULT:    -5.626      1.626      3.875
REMARK INTER + INTRA:          -5.626
REMARK INTER:                  -5.626
REMARK INTRA:                   0.000
REMARK UNBOUND:                 0.000
REMARK SMILES CC(C)=C1CC[C@@H](C)CC1=O
REMARK SMILES IDX 8 1 7 2 6 3 5 4 4 5 2 6 1 7 3 8 10 9 11 10 9 11
REMARK H PARENT
REMARK Flexibility Score: inf
ROOT
ATOM      1  C   UNL     1      17.521  27.223   9.356  1.00  0.00     0.008 C 
ATOM      2  C   UNL     1      17.668  25.771   8.872  1.00  0.00    -0.006 C 
ATOM      3  C   UNL     1      19.079  25.476   8.332  1.00  0.00     0.008 C 
ATOM      4  C   UNL     1      19.400  26.242   7.038  1.00  0.00     0.039 C 
ATOM      5  C   UNL     1      18.305  26.116   5.987  1.00  0.00    -0.006 C 
ATOM      6  C   UNL     1      18.597  26.168   4.654  1.00  0.00    -0.070 C 
ATOM      7  C   UNL     1      17.531  25.988   3.598  1.00  0.00     0.039 C 
ATOM      8  C   UNL     1      20.015  26.369   4.169  1.00  0.00     0.039 C 
ATOM      9  C   UNL     1      16.903  26.056   6.496  1.00  0.00     0.159 C 
ATOM     10  O   UNL     1      15.946  26.548   5.838  1.00  0.00    -0.295 OA
ATOM     11  C   UNL     1      16.609  25.411   7.819  1.00  0.00     0.084 C 
ENDROOT
TORSDOF 0
ENDMDL
MODEL 6
REMARK VINA RESULT:    -5.597      1.744      2.584
REMARK INTER + INTRA:          -5.597
REMARK INTER:                  -5.597
REMARK INTRA:                   0.000
REMARK UNBOUND:                 0.000
REMARK SMILES CC(C)=C1CC[C@@H](C)CC1=O
REMARK SMILES IDX 8 1 7 2 6 3 5 4 4 5 2 6 1 7 3 8 10 9 11 10 9 11
REMARK H PARENT
REMARK Flexibility Score: inf
ROOT
ATOM      1  C   UNL     1      21.886  27.073   1.591  1.00  0.00     0.008 C 
ATOM      2  C   UNL     1      21.896  27.345   3.105  1.00  0.00    -0.006 C 
ATOM      3  C   UNL     1      21.970  26.048   3.930  1.00  0.00     0.008 C 
ATOM      4  C   UNL     1      20.707  25.181   3.804  1.00  0.00     0.039 C 
ATOM      5  C   UNL     1      19.422  25.969   4.021  1.00  0.00    -0.006 C 
ATOM      6  C   UNL     1      18.308  25.374   4.539  1.00  0.00    -0.070 C 
ATOM      7  C   UNL     1      17.043  26.153   4.814  1.00  0.00     0.039 C 
ATOM      8  C   UNL     1      18.301  23.906   4.902  1.00  0.00     0.039 C 
ATOM      9  C   UNL     1      19.418  27.378   3.526  1.00  0.00     0.159 C 
ATOM     10  O   UNL     1      18.367  27.912   3.081  1.00  0.00    -0.295 OA
ATOM     11  C   UNL     1      20.684  28.184   3.541  1.00  0.00     0.084 C 
ENDROOT
TORSDOF 0
ENDMDL
MODEL 7
REMARK VINA RESULT:    -5.108      1.765      2.744
REMARK INTER + INTRA:          -5.108
REMARK INTER:                  -5.108
REMARK INTRA:                   0.000
REMARK UNBOUND:                 0.000
REMARK SMILES CC(C)=C1CC[C@@H](C)CC1=O
REMARK SMILES IDX 8 1 7 2 6 3 5 4 4 5 2 6 1 7 3 8 10 9 11 10 9 11
REMARK H PARENT
REMARK Flexibility Score: inf
ROOT
ATOM      1  C   UNL     1      18.246  25.047   3.372  1.00  0.00     0.008 C 
ATOM      2  C   UNL     1      18.008  26.438   3.981  1.00  0.00    -0.006 C 
ATOM      3  C   UNL     1      19.197  26.913   4.835  1.00  0.00     0.008 C 
ATOM      4  C   UNL     1      19.395  26.074   6.108  1.00  0.00     0.039 C 
ATOM      5  C   UNL     1      18.109  25.887   6.903  1.00  0.00    -0.006 C 
ATOM      6  C   UNL     1      18.134  25.738   8.259  1.00  0.00    -0.070 C 
ATOM      7  C   UNL     1      16.864  25.608   9.069  1.00  0.00     0.039 C 
ATOM      8  C   UNL     1      19.437  25.734   9.025  1.00  0.00     0.039 C 
ATOM      9  C   UNL     1      16.853  25.758   6.107  1.00  0.00     0.159 C 
ATOM     10  O   UNL     1      15.899  25.034   6.502  1.00  0.00    -0.295 OA
ATOM     11  C   UNL     1      16.710  26.486   4.802  1.00  0.00     0.084 C 
ENDROOT
TORSDOF 0
ENDMDL
MODEL 8
REMARK VINA RESULT:    -5.022     18.075     20.772
REMARK INTER + INTRA:          -5.022
REMARK INTER:                  -5.022
REMARK INTRA:                   0.000
REMARK UNBOUND:                 0.000
REMARK SMILES CC(C)=C1CC[C@@H](C)CC1=O
REMARK SMILES IDX 8 1 7 2 6 3 5 4 4 5 2 6 1 7 3 8 10 9 11 10 9 11
REMARK H PARENT
REMARK Flexibility Score: inf
ROOT
ATOM      1  C   UNL     1      30.671  18.196  -4.335  1.00  0.00     0.008 C 
ATOM      2  C   UNL     1      31.434  18.280  -5.667  1.00  0.00    -0.006 C 
ATOM      3  C   UNL     1      30.814  17.383  -6.753  1.00  0.00     0.008 C 
ATOM      4  C   UNL     1      30.946  15.883  -6.442  1.00  0.00     0.039 C 
ATOM      5  C   UNL     1      32.362  15.480  -6.053  1.00  0.00    -0.006 C 
ATOM      6  C   UNL     1      32.837  14.228  -6.319  1.00  0.00    -0.070 C 
ATOM      7  C   UNL     1      34.258  13.829  -5.992  1.00  0.00     0.039 C 
ATOM      8  C   UNL     1      31.972  13.187  -6.994  1.00  0.00     0.039 C 
ATOM      9  C   UNL     1      33.143  16.481  -5.268  1.00  0.00     0.159 C 
ATOM     10  O   UNL     1      33.986  16.120  -4.403  1.00  0.00    -0.295 OA
ATOM     11  C   UNL     1      32.925  17.949  -5.491  1.00  0.00     0.084 C 
ENDROOT
TORSDOF 0
ENDMDL
