MODEL 1
REMARK VINA RESULT:    -4.063      0.000      0.000
REMARK INTER + INTRA:          -6.328
REMARK INTER:                  -6.200
REMARK INTRA:                  -0.127
REMARK UNBOUND:                -0.127
REMARK SMILES CC1=CCC[C@@H](C)C(=O)C[C@H](C(C)C)C(=O)C1
REMARK SMILES IDX 8 1 9 2 6 3 7 4 5 5 4 6 3 7 2 8 1 9 10 11 11 12 15 13 16 14
REMARK SMILES IDX 17 15 12 17 13 18 14 19
REMARK H PARENT
REMARK Flexibility Score: 70.00
ROOT
ATOM      1  C   UNL     1       9.242 -20.907  21.400  1.00  0.00     0.136 C 
ATOM      2  O   UNL     1       8.092 -20.518  21.554  1.00  0.00    -0.299 OA
ENDROOT
BRANCH   1   3
ATOM      3  C   UNL     1       9.870 -21.824  22.430  1.00  0.00     0.053 C 
ATOM      4  C   UNL     1       9.087 -23.140  22.483  1.00  0.00     0.016 C 
BRANCH   3   5
ATOM      5  C   UNL     1       9.915 -21.170  23.830  1.00  0.00     0.015 C 
BRANCH   5   6
ATOM      6  C   UNL     1      11.268 -20.517  24.152  1.00  0.00     0.028 C 
BRANCH   6   7
ATOM      7  C   UNL     1      11.202 -19.016  23.996  1.00  0.00    -0.028 C 
ATOM      8  C   UNL     1      11.624 -18.315  22.918  1.00  0.00    -0.070 CG0
ATOM      9  C   UNL     1      11.474 -16.815  22.948  1.00  0.00     0.039 C 
ATOM     10  G   UNL     1      12.269 -18.962  21.707  1.00  0.00     0.000 G0
ENDBRANCH   6   7
ENDBRANCH   5   6
ENDBRANCH   3   5
ENDBRANCH   1   3
BRANCH   1  11
ATOM     11  C   UNL     1      10.001 -20.476  20.173  1.00  0.00     0.087 C 
BRANCH  11  12
ATOM     12  C   UNL     1      10.173 -18.938  20.108  1.00  0.00     0.066 C 
BRANCH  12  13
ATOM     13  C   UNL     1      11.605 -18.533  20.422  1.00  0.00     0.140 C 
ATOM     14  O   UNL     1      12.218 -17.816  19.644  1.00  0.00    -0.299 OA
BRANCH  13  15
ATOM     15  C   UNL     1      12.278 -18.963  21.699  1.00  0.00     0.106 CG0
ATOM     16  G   UNL     1      11.625 -18.310  22.902  1.00  0.00     0.000 G0
ENDBRANCH  13  15
ENDBRANCH  12  13
BRANCH  12  17
ATOM     17  C   UNL     1       9.680 -18.355  18.749  1.00  0.00    -0.006 C 
ATOM     18  C   UNL     1       9.893 -19.351  17.600  1.00  0.00     0.008 C 
ATOM     19  C   UNL     1       8.217 -17.876  18.769  1.00  0.00     0.008 C 
ENDBRANCH  12  17
ENDBRANCH  11  12
ENDBRANCH   1  11
TORSDOF 1
ENDMDL
MODEL 2
REMARK VINA RESULT:    -3.623      1.944      4.142
REMARK INTER + INTRA:          -5.657
REMARK INTER:                  -5.553
REMARK INTRA:                  -0.105
REMARK UNBOUND:                -0.127
REMARK SMILES CC1=CCC[C@@H](C)C(=O)C[C@H](C(C)C)C(=O)C1
REMARK SMILES IDX 8 1 9 2 6 3 7 4 5 5 4 6 3 7 2 8 1 9 10 11 11 12 15 13 16 14
REMARK SMILES IDX 17 15 12 17 13 18 14 19
REMARK H PARENT
REMARK Flexibility Score: 70.00
ROOT
ATOM      1  C   UNL     1       8.936 -18.344  19.392  1.00  0.00     0.136 C 
ATOM      2  O   UNL     1       7.754 -18.563  19.167  1.00  0.00    -0.299 OA
ENDROOT
BRANCH   1   3
ATOM      3  C   UNL     1       9.882 -18.069  18.242  1.00  0.00     0.053 C 
ATOM      4  C   UNL     1      10.208 -19.385  17.528  1.00  0.00     0.016 C 
BRANCH   3   5
ATOM      5  C   UNL     1      11.183 -17.382  18.719  1.00  0.00     0.015 C 
BRANCH   5   6
ATOM      6  C   UNL     1      12.439 -18.237  18.494  1.00  0.00     0.028 C 
BRANCH   6   7
ATOM      7  C   UNL     1      13.444 -18.037  19.603  1.00  0.00    -0.028 C 
ATOM      8  C   UNL     1      13.549 -18.794  20.720  1.00  0.00    -0.070 CG0
ATOM      9  C   UNL     1      14.621 -18.436  21.718  1.00  0.00     0.039 C 
ATOM     10  G   UNL     1      12.622 -19.954  21.027  1.00  0.00     0.000 G0
ENDBRANCH   6   7
ENDBRANCH   5   6
ENDBRANCH   3   5
ENDBRANCH   1   3
BRANCH   1  11
ATOM     11  C   UNL     1       9.419 -18.333  20.819  1.00  0.00     0.087 C 
BRANCH  11  12
ATOM     12  C   UNL     1      10.014 -19.700  21.239  1.00  0.00     0.066 C 
BRANCH  12  13
ATOM     13  C   UNL     1      11.414 -19.536  21.810  1.00  0.00     0.140 C 
ATOM     14  O   UNL     1      11.562 -19.083  22.936  1.00  0.00    -0.299 OA
BRANCH  13  15
ATOM     15  C   UNL     1      12.631 -19.963  21.032  1.00  0.00     0.106 CG0
ATOM     16  G   UNL     1      13.528 -18.776  20.735  1.00  0.00     0.000 G0
ENDBRANCH  13  15
ENDBRANCH  12  13
BRANCH  12  17
ATOM     17  C   UNL     1       9.068 -20.471  22.210  1.00  0.00    -0.006 C 
ATOM     18  C   UNL     1       7.770 -19.692  22.467  1.00  0.00     0.008 C 
ATOM     19  C   UNL     1       8.743 -21.906  21.757  1.00  0.00     0.008 C 
ENDBRANCH  12  17
ENDBRANCH  11  12
ENDBRANCH   1  11
TORSDOF 1
ENDMDL
MODEL 3
REMARK VINA RESULT:    -3.584      1.636      2.278
REMARK INTER + INTRA:          -5.598
REMARK INTER:                  -5.656
REMARK INTRA:                   0.058
REMARK UNBOUND:                -0.127
REMARK SMILES CC1=CCC[C@@H](C)C(=O)C[C@H](C(C)C)C(=O)C1
REMARK SMILES IDX 8 1 9 2 6 3 7 4 5 5 4 6 3 7 2 8 1 9 10 11 11 12 15 13 16 14
REMARK SMILES IDX 17 15 12 17 13 18 14 19
REMARK H PARENT
REMARK Flexibility Score: 70.00
ROOT
ATOM      1  C   UNL     1      10.504 -20.785  20.768  1.00  0.00     0.136 C 
ATOM      2  O   UNL     1      10.075 -21.303  19.746  1.00  0.00    -0.299 OA
ENDROOT
BRANCH   1   3
ATOM      3  C   UNL     1       9.785 -21.007  22.083  1.00  0.00     0.053 C 
ATOM      4  C   UNL     1       9.412 -22.487  22.214  1.00  0.00     0.016 C 
BRANCH   3   5
ATOM      5  C   UNL     1       8.521 -20.123  22.202  1.00  0.00     0.015 C 
BRANCH   5   6
ATOM      6  C   UNL     1       8.775 -18.799  22.939  1.00  0.00     0.028 C 
BRANCH   6   7
ATOM      7  C   UNL     1       9.773 -18.978  24.058  1.00  0.00    -0.028 C 
ATOM      8  C   UNL     1      10.926 -18.285  24.206  1.00  0.00    -0.070 CG0
ATOM      9  C   UNL     1      11.797 -18.608  25.394  1.00  0.00     0.039 C 
ATOM     10  G   UNL     1      11.396 -17.233  23.220  1.00  0.00     0.000 G0
ENDBRANCH   6   7
ENDBRANCH   5   6
ENDBRANCH   3   5
ENDBRANCH   1   3
BRANCH   1  11
ATOM     11  C   UNL     1      11.755 -19.949  20.695  1.00  0.00     0.087 C 
BRANCH  11  12
ATOM     12  C   UNL     1      11.453 -18.439  20.856  1.00  0.00     0.066 C 
BRANCH  12  13
ATOM     13  C   UNL     1      12.168 -17.864  22.069  1.00  0.00     0.140 C 
ATOM     14  O   UNL     1      13.390 -17.882  22.120  1.00  0.00    -0.299 OA
BRANCH  13  15
ATOM     15  C   UNL     1      11.403 -17.229  23.201  1.00  0.00     0.106 CG0
ATOM     16  G   UNL     1      10.914 -18.278  24.181  1.00  0.00     0.000 G0
ENDBRANCH  13  15
ENDBRANCH  12  13
BRANCH  12  17
ATOM     17  C   UNL     1      11.768 -17.642  19.554  1.00  0.00    -0.006 C 
ATOM     18  C   UNL     1      13.158 -17.991  19.003  1.00  0.00     0.008 C 
ATOM     19  C   UNL     1      10.706 -17.802  18.452  1.00  0.00     0.008 C 
ENDBRANCH  12  17
ENDBRANCH  11  12
ENDBRANCH   1  11
TORSDOF 1
ENDMDL
MODEL 4
REMARK VINA RESULT:    -3.580      4.792      7.134
REMARK INTER + INTRA:          -5.591
REMARK INTER:                  -5.528
REMARK INTRA:                  -0.063
REMARK UNBOUND:                -0.127
REMARK SMILES CC1=CCC[C@@H](C)C(=O)C[C@H](C(C)C)C(=O)C1
REMARK SMILES IDX 8 1 9 2 6 3 7 4 5 5 4 6 3 7 2 8 1 9 10 11 11 12 15 13 16 14
REMARK SMILES IDX 17 15 12 17 13 18 14 19
REMARK H PARENT
REMARK Flexibility Score: 70.00
ROOT
ATOM      1  C   UNL     1       6.870 -25.209  23.053  1.00  0.00     0.136 C 
ATOM      2  O   UNL     1       7.666 -25.614  22.217  1.00  0.00    -0.299 OA
ENDROOT
BRANCH   1   3
ATOM      3  C   UNL     1       5.490 -25.830  23.141  1.00  0.00     0.053 C 
ATOM      4  C   UNL     1       4.816 -25.765  21.767  1.00  0.00     0.016 C 
BRANCH   3   5
ATOM      5  C   UNL     1       4.612 -25.129  24.204  1.00  0.00     0.015 C 
BRANCH   5   6
ATOM      6  C   UNL     1       3.560 -24.188  23.597  1.00  0.00     0.028 C 
BRANCH   6   7
ATOM      7  C   UNL     1       3.341 -22.976  24.471  1.00  0.00    -0.028 C 
ATOM      8  C   UNL     1       3.987 -21.793  24.357  1.00  0.00    -0.070 CG0
ATOM      9  C   UNL     1       3.628 -20.696  25.327  1.00  0.00     0.039 C 
ATOM     10  G   UNL     1       5.072 -21.535  23.329  1.00  0.00     0.000 G0
ENDBRANCH   6   7
ENDBRANCH   5   6
ENDBRANCH   3   5
ENDBRANCH   1   3
BRANCH   1  11
ATOM     11  C   UNL     1       7.291 -24.109  23.992  1.00  0.00     0.087 C 
BRANCH  11  12
ATOM     12  C   UNL     1       7.404 -22.743  23.270  1.00  0.00     0.066 C 
BRANCH  12  13
ATOM     13  C   UNL     1       6.450 -21.724  23.874  1.00  0.00     0.140 C 
ATOM     14  O   UNL     1       6.819 -21.025  24.808  1.00  0.00    -0.299 OA
BRANCH  13  15
ATOM     15  C   UNL     1       5.065 -21.522  23.318  1.00  0.00     0.106 CG0
ATOM     16  G   UNL     1       4.013 -21.771  24.382  1.00  0.00     0.000 G0
ENDBRANCH  13  15
ENDBRANCH  12  13
BRANCH  12  17
ATOM     17  C   UNL     1       8.874 -22.225  23.232  1.00  0.00    -0.006 C 
ATOM     18  C   UNL     1       9.709 -22.821  24.375  1.00  0.00     0.008 C 
ATOM     19  C   UNL     1       9.582 -22.453  21.885  1.00  0.00     0.008 C 
ENDBRANCH  12  17
ENDBRANCH  11  12
ENDBRANCH   1  11
TORSDOF 1
ENDMDL
MODEL 5
REMARK VINA RESULT:    -3.524      2.442      2.931
REMARK INTER + INTRA:          -5.505
REMARK INTER:                  -5.243
REMARK INTRA:                  -0.262
REMARK UNBOUND:                -0.127
REMARK SMILES CC1=CCC[C@@H](C)C(=O)C[C@H](C(C)C)C(=O)C1
REMARK SMILES IDX 8 1 9 2 6 3 7 4 5 5 4 6 3 7 2 8 1 9 10 11 11 12 15 13 16 14
REMARK SMILES IDX 17 15 12 17 13 18 14 19
REMARK H PARENT
REMARK Flexibility Score: 70.00
ROOT
ATOM      1  C   UNL     1      11.041 -20.869  21.627  1.00  0.00     0.136 C 
ATOM      2  O   UNL     1      11.588 -21.328  20.634  1.00  0.00    -0.299 OA
ENDROOT
BRANCH   1   3
ATOM      3  C   UNL     1      10.462 -21.806  22.668  1.00  0.00     0.053 C 
ATOM      4  C   UNL     1       9.060 -22.243  22.233  1.00  0.00     0.016 C 
BRANCH   3   5
ATOM      5  C   UNL     1      10.409 -21.148  24.066  1.00  0.00     0.015 C 
BRANCH   5   6
ATOM      6  C   UNL     1       8.978 -20.922  24.576  1.00  0.00     0.028 C 
BRANCH   6   7
ATOM      7  C   UNL     1       8.813 -19.531  25.142  1.00  0.00    -0.028 C 
ATOM      8  C   UNL     1       8.329 -18.459  24.474  1.00  0.00    -0.070 CG0
ATOM      9  C   UNL     1       8.238 -17.147  25.212  1.00  0.00     0.039 C 
ATOM     10  G   UNL     1       7.911 -18.508  23.017  1.00  0.00     0.000 G0
ENDBRANCH   6   7
ENDBRANCH   5   6
ENDBRANCH   3   5
ENDBRANCH   1   3
BRANCH   1  11
ATOM     11  C   UNL     1      10.974 -19.374  21.800  1.00  0.00     0.087 C 
BRANCH  11  12
ATOM     12  C   UNL     1       9.719 -18.768  21.126  1.00  0.00     0.066 C 
BRANCH  12  13
ATOM     13  C   UNL     1       8.937 -17.903  22.102  1.00  0.00     0.140 C 
ATOM     14  O   UNL     1       9.130 -16.695  22.133  1.00  0.00    -0.299 OA
BRANCH  13  15
ATOM     15  C   UNL     1       7.890 -18.495  23.008  1.00  0.00     0.106 CG0
ATOM     16  G   UNL     1       8.336 -18.444  24.457  1.00  0.00     0.000 G0
ENDBRANCH  13  15
ENDBRANCH  12  13
BRANCH  12  17
ATOM     17  C   UNL     1      10.076 -18.003  19.815  1.00  0.00    -0.006 C 
ATOM     18  C   UNL     1      11.584 -17.733  19.715  1.00  0.00     0.008 C 
ATOM     19  C   UNL     1       9.575 -18.694  18.534  1.00  0.00     0.008 C 
ENDBRANCH  12  17
ENDBRANCH  11  12
ENDBRANCH   1  11
TORSDOF 1
ENDMDL
MODEL 6
REMARK VINA RESULT:    -3.442      1.572      4.094
REMARK INTER + INTRA:          -5.380
REMARK INTER:                  -5.249
REMARK INTRA:                  -0.132
REMARK UNBOUND:                -0.127
REMARK SMILES CC1=CCC[C@@H](C)C(=O)C[C@H](C(C)C)C(=O)C1
REMARK SMILES IDX 8 1 9 2 6 3 7 4 5 5 4 6 3 7 2 8 1 9 10 11 11 12 15 13 16 14
REMARK SMILES IDX 17 15 12 17 13 18 14 19
REMARK H PARENT
REMARK Flexibility Score: 70.00
ROOT
ATOM      1  C   UNL     1       9.871 -19.778  20.048  1.00  0.00     0.136 C 
ATOM      2  O   UNL     1      10.200 -20.777  19.425  1.00  0.00    -0.299 OA
ENDROOT
BRANCH   1   3
ATOM      3  C   UNL     1      10.405 -18.422  19.632  1.00  0.00     0.053 C 
ATOM      4  C   UNL     1       9.964 -18.122  18.196  1.00  0.00     0.016 C 
BRANCH   3   5
ATOM      5  C   UNL     1      11.945 -18.351  19.746  1.00  0.00     0.015 C 
BRANCH   5   6
ATOM      6  C   UNL     1      12.447 -18.373  21.198  1.00  0.00     0.028 C 
BRANCH   6   7
ATOM      7  C   UNL     1      11.909 -17.199  21.981  1.00  0.00    -0.028 C 
ATOM      8  C   UNL     1      11.289 -17.268  23.181  1.00  0.00    -0.070 CG0
ATOM      9  C   UNL     1      10.820 -15.980  23.809  1.00  0.00     0.039 C 
ATOM     10  G   UNL     1      11.015 -18.574  23.901  1.00  0.00     0.000 G0
ENDBRANCH   6   7
ENDBRANCH   5   6
ENDBRANCH   3   5
ENDBRANCH   1   3
BRANCH   1  11
ATOM     11  C   UNL     1       8.923 -19.920  21.210  1.00  0.00     0.087 C 
BRANCH  11  12
ATOM     12  C   UNL     1       9.655 -20.339  22.508  1.00  0.00     0.066 C 
BRANCH  12  13
ATOM     13  C   UNL     1       9.711 -19.189  23.502  1.00  0.00     0.140 C 
ATOM     14  O   UNL     1       8.678 -18.770  24.006  1.00  0.00    -0.299 OA
BRANCH  13  15
ATOM     15  C   UNL     1      11.023 -18.575  23.916  1.00  0.00     0.106 CG0
ATOM     16  G   UNL     1      11.261 -17.264  23.191  1.00  0.00     0.000 G0
ENDBRANCH  13  15
ENDBRANCH  12  13
BRANCH  12  17
ATOM     17  C   UNL     1       9.039 -21.627  23.133  1.00  0.00    -0.006 C 
ATOM     18  C   UNL     1       9.393 -22.875  22.311  1.00  0.00     0.008 C 
ATOM     19  C   UNL     1       9.412 -21.844  24.611  1.00  0.00     0.008 C 
ENDBRANCH  12  17
ENDBRANCH  11  12
ENDBRANCH   1  11
TORSDOF 1
ENDMDL
MODEL 7
REMARK VINA RESULT:    -3.432      1.912      4.824
REMARK INTER + INTRA:          -5.366
REMARK INTER:                  -5.323
REMARK INTRA:                  -0.042
REMARK UNBOUND:                -0.127
REMARK SMILES CC1=CCC[C@@H](C)C(=O)C[C@H](C(C)C)C(=O)C1
REMARK SMILES IDX 8 1 9 2 6 3 7 4 5 5 4 6 3 7 2 8 1 9 10 11 11 12 15 13 16 14
REMARK SMILES IDX 17 15 12 17 13 18 14 19
REMARK H PARENT
REMARK Flexibility Score: 70.00
ROOT
ATOM      1  C   UNL     1      11.435 -18.458  19.769  1.00  0.00     0.136 C 
ATOM      2  O   UNL     1      12.146 -17.751  19.068  1.00  0.00    -0.299 OA
ENDROOT
BRANCH   1   3
ATOM      3  C   UNL     1      10.013 -18.755  19.340  1.00  0.00     0.053 C 
ATOM      4  C   UNL     1      10.009 -19.211  17.877  1.00  0.00     0.016 C 
BRANCH   3   5
ATOM      5  C   UNL     1       9.089 -17.528  19.521  1.00  0.00     0.015 C 
BRANCH   5   6
ATOM      6  C   UNL     1       8.133 -17.659  20.716  1.00  0.00     0.028 C 
BRANCH   6   7
ATOM      7  C   UNL     1       7.640 -19.079  20.869  1.00  0.00    -0.028 C 
ATOM      8  C   UNL     1       7.922 -19.906  21.902  1.00  0.00    -0.070 CG0
ATOM      9  C   UNL     1       7.334 -21.294  21.877  1.00  0.00     0.039 C 
ATOM     10  G   UNL     1       8.824 -19.515  23.057  1.00  0.00     0.000 G0
ENDBRANCH   6   7
ENDBRANCH   5   6
ENDBRANCH   3   5
ENDBRANCH   1   3
BRANCH   1  11
ATOM     11  C   UNL     1      12.002 -19.033  21.040  1.00  0.00     0.087 C 
BRANCH  11  12
ATOM     12  C   UNL     1      11.173 -18.624  22.282  1.00  0.00     0.066 C 
BRANCH  12  13
ATOM     13  C   UNL     1      10.263 -19.757  22.731  1.00  0.00     0.140 C 
ATOM     14  O   UNL     1      10.713 -20.888  22.851  1.00  0.00    -0.299 OA
BRANCH  13  15
ATOM     15  C   UNL     1       8.817 -19.510  23.075  1.00  0.00     0.106 CG0
ATOM     16  G   UNL     1       7.911 -19.898  21.922  1.00  0.00     0.000 G0
ENDBRANCH  13  15
ENDBRANCH  12  13
BRANCH  12  17
ATOM     17  C   UNL     1      12.079 -18.102  23.439  1.00  0.00    -0.006 C 
ATOM     18  C   UNL     1      13.566 -18.170  23.063  1.00  0.00     0.008 C 
ATOM     19  C   UNL     1      11.719 -16.686  23.923  1.00  0.00     0.008 C 
ENDBRANCH  12  17
ENDBRANCH  11  12
ENDBRANCH   1  11
TORSDOF 1
ENDMDL
MODEL 8
REMARK VINA RESULT:    -3.307      2.539      5.156
REMARK INTER + INTRA:          -5.175
REMARK INTER:                  -5.168
REMARK INTRA:                  -0.007
REMARK UNBOUND:                -0.127
REMARK SMILES CC1=CCC[C@@H](C)C(=O)C[C@H](C(C)C)C(=O)C1
REMARK SMILES IDX 8 1 9 2 6 3 7 4 5 5 4 6 3 7 2 8 1 9 10 11 11 12 15 13 16 14
REMARK SMILES IDX 17 15 12 17 13 18 14 19
REMARK H PARENT
REMARK Flexibility Score: 70.00
ROOT
ATOM      1  C   UNL     1      13.036 -18.662  21.338  1.00  0.00     0.136 C 
ATOM      2  O   UNL     1      14.206 -18.326  21.452  1.00  0.00    -0.299 OA
ENDROOT
BRANCH   1   3
ATOM      3  C   UNL     1      12.440 -18.857  19.959  1.00  0.00     0.053 C 
ATOM      4  C   UNL     1      12.366 -17.505  19.242  1.00  0.00     0.016 C 
BRANCH   3   5
ATOM      5  C   UNL     1      11.038 -19.507  20.025  1.00  0.00     0.015 C 
BRANCH   5   6
ATOM      6  C   UNL     1       9.895 -18.506  19.799  1.00  0.00     0.028 C 
BRANCH   6   7
ATOM      7  C   UNL     1       8.692 -18.849  20.646  1.00  0.00    -0.028 C 
ATOM      8  C   UNL     1       8.341 -18.240  21.803  1.00  0.00    -0.070 CG0
ATOM      9  C   UNL     1       7.100 -18.725  22.509  1.00  0.00     0.039 C 
ATOM     10  G   UNL     1       9.154 -17.125  22.434  1.00  0.00     0.000 G0
ENDBRANCH   6   7
ENDBRANCH   5   6
ENDBRANCH   3   5
ENDBRANCH   1   3
BRANCH   1  11
ATOM     11  C   UNL     1      12.217 -18.892  22.581  1.00  0.00     0.087 C 
BRANCH  11  12
ATOM     12  C   UNL     1      11.656 -17.570  23.159  1.00  0.00     0.066 C 
BRANCH  12  13
ATOM     13  C   UNL     1      10.161 -17.677  23.421  1.00  0.00     0.140 C 
ATOM     14  O   UNL     1       9.761 -18.193  24.456  1.00  0.00    -0.299 OA
BRANCH  13  15
ATOM     15  C   UNL     1       9.154 -17.119  22.450  1.00  0.00     0.106 CG0
ATOM     16  G   UNL     1       8.361 -18.233  21.793  1.00  0.00     0.000 G0
ENDBRANCH  13  15
ENDBRANCH  12  13
BRANCH  12  17
ATOM     17  C   UNL     1      12.444 -17.106  24.422  1.00  0.00    -0.006 C 
ATOM     18  C   UNL     1      13.637 -18.029  24.709  1.00  0.00     0.008 C 
ATOM     19  C   UNL     1      12.911 -15.641  24.363  1.00  0.00     0.008 C 
ENDBRANCH  12  17
ENDBRANCH  11  12
ENDBRANCH   1  11
TORSDOF 1
ENDMDL
MODEL 9
REMARK VINA RESULT:    -3.186      4.886      6.949
REMARK INTER + INTRA:          -4.990
REMARK INTER:                  -4.797
REMARK INTRA:                  -0.193
REMARK UNBOUND:                -0.127
REMARK SMILES CC1=CCC[C@@H](C)C(=O)C[C@H](C(C)C)C(=O)C1
REMARK SMILES IDX 8 1 9 2 6 3 7 4 5 5 4 6 3 7 2 8 1 9 10 11 11 12 15 13 16 14
REMARK SMILES IDX 17 15 12 17 13 18 14 19
REMARK H PARENT
REMARK Flexibility Score: 70.00
ROOT
ATOM      1  C   UNL     1       8.642 -22.519  23.746  1.00  0.00     0.136 C 
ATOM      2  O   UNL     1       9.673 -23.175  23.805  1.00  0.00    -0.299 OA
ENDROOT
BRANCH   1   3
ATOM      3  C   UNL     1       8.457 -21.324  24.659  1.00  0.00     0.053 C 
ATOM      4  C   UNL     1       9.678 -20.405  24.546  1.00  0.00     0.016 C 
BRANCH   3   5
ATOM      5  C   UNL     1       8.243 -21.752  26.129  1.00  0.00     0.015 C 
BRANCH   5   6
ATOM      6  C   UNL     1       6.764 -21.954  26.492  1.00  0.00     0.028 C 
BRANCH   6   7
ATOM      7  C   UNL     1       5.913 -20.820  25.972  1.00  0.00    -0.028 C 
ATOM      8  C   UNL     1       4.848 -20.946  25.147  1.00  0.00    -0.070 CG0
ATOM      9  C   UNL     1       4.121 -19.691  24.735  1.00  0.00     0.039 C 
ATOM     10  G   UNL     1       4.379 -22.278  24.593  1.00  0.00     0.000 G0
ENDBRANCH   6   7
ENDBRANCH   5   6
ENDBRANCH   3   5
ENDBRANCH   1   3
BRANCH   1  11
ATOM     11  C   UNL     1       7.584 -22.908  22.747  1.00  0.00     0.087 C 
BRANCH  11  12
ATOM     12  C   UNL     1       6.357 -23.562  23.427  1.00  0.00     0.066 C 
BRANCH  12  13
ATOM     13  C   UNL     1       5.138 -22.657  23.347  1.00  0.00     0.140 C 
ATOM     14  O   UNL     1       4.752 -22.252  22.259  1.00  0.00    -0.299 OA
BRANCH  13  15
ATOM     15  C   UNL     1       4.362 -22.277  24.581  1.00  0.00     0.106 CG0
ATOM     16  G   UNL     1       4.852 -20.957  25.145  1.00  0.00     0.000 G0
ENDBRANCH  13  15
ENDBRANCH  12  13
BRANCH  12  17
ATOM     17  C   UNL     1       6.071 -24.987  22.862  1.00  0.00    -0.006 C 
ATOM     18  C   UNL     1       7.371 -25.765  22.615  1.00  0.00     0.008 C 
ATOM     19  C   UNL     1       5.111 -25.821  23.730  1.00  0.00     0.008 C 
ENDBRANCH  12  17
ENDBRANCH  11  12
ENDBRANCH   1  11
TORSDOF 1
ENDMDL
