MODEL 1
REMARK VINA RESULT:    -4.386      0.000      0.000
REMARK INTER + INTRA:          -5.192
REMARK INTER:                  -5.027
REMARK INTRA:                  -0.165
REMARK UNBOUND:                -0.165
REMARK SMILES CC=Cc1ccc(O)c(OC)c1
REMARK SMILES IDX 4 1 12 2 9 3 7 4 6 5 5 6 3 7 1 8 2 9 10 10 11 11 8 12
REMARK H PARENT 8 13
REMARK Flexibility Score: inf
ROOT
ATOM      1  C   UNL     1      86.175  32.433  66.306  1.00  0.00    -0.022 A 
ATOM      2  C   UNL     1      85.266  31.950  65.343  1.00  0.00     0.058 A 
ATOM      3  C   UNL     1      83.992  31.485  65.729  1.00  0.00     0.161 A 
ATOM      4  C   UNL     1      83.629  31.515  67.083  1.00  0.00     0.157 A 
ATOM      5  C   UNL     1      84.524  32.010  68.038  1.00  0.00     0.051 A 
ATOM      6  C   UNL     1      85.784  32.470  67.652  1.00  0.00     0.012 A 
ENDROOT
BRANCH   1   7
ATOM      7  C   UNL     1      87.523  32.941  65.946  1.00  0.00     0.003 C 
ATOM      8  C   UNL     1      89.125  34.495  64.904  1.00  0.00     0.035 C 
ATOM      9  C   UNL     1      87.736  34.057  65.240  1.00  0.00    -0.030 C 
ENDBRANCH   1   7
BRANCH   3  10
ATOM     10  O   UNL     1      83.062  30.990  64.801  1.00  0.00    -0.493 OA
ATOM     11  C   UNL     1      83.175  29.736  64.134  1.00  0.00     0.278 C 
ENDBRANCH   3  10
BRANCH   4  12
ATOM     12  O   UNL     1      82.373  31.054  67.470  1.00  0.00    -0.504 OA
ATOM     13  H   UNL     1      82.266  30.235  68.058  1.00  0.00     0.293 HD
ENDBRANCH   4  12
TORSDOF 3
ENDMDL
MODEL 2
REMARK VINA RESULT:    -4.352      3.348      3.939
REMARK INTER + INTRA:          -5.153
REMARK INTER:                  -5.008
REMARK INTRA:                  -0.145
REMARK UNBOUND:                -0.165
REMARK SMILES CC=Cc1ccc(O)c(OC)c1
REMARK SMILES IDX 4 1 12 2 9 3 7 4 6 5 5 6 3 7 1 8 2 9 10 10 11 11 8 12
REMARK H PARENT 8 13
REMARK Flexibility Score: inf
ROOT
ATOM      1  C   UNL     1      87.802  30.026  65.369  1.00  0.00    -0.022 A 
ATOM      2  C   UNL     1      86.460  30.395  65.147  1.00  0.00     0.058 A 
ATOM      3  C   UNL     1      85.795  31.259  66.041  1.00  0.00     0.161 A 
ATOM      4  C   UNL     1      86.484  31.760  67.154  1.00  0.00     0.157 A 
ATOM      5  C   UNL     1      87.822  31.410  67.367  1.00  0.00     0.051 A 
ATOM      6  C   UNL     1      88.476  30.554  66.480  1.00  0.00     0.012 A 
ENDROOT
BRANCH   1   7
ATOM      7  C   UNL     1      88.546  29.127  64.452  1.00  0.00     0.003 C 
ATOM      8  C   UNL     1      89.125  26.970  63.414  1.00  0.00     0.035 C 
ATOM      9  C   UNL     1      88.322  27.812  64.352  1.00  0.00    -0.030 C 
ENDBRANCH   1   7
BRANCH   3  10
ATOM     10  O   UNL     1      84.457  31.643  65.857  1.00  0.00    -0.493 OA
ATOM     11  C   UNL     1      83.543  30.991  64.980  1.00  0.00     0.278 C 
ENDBRANCH   3  10
BRANCH   4  12
ATOM     12  O   UNL     1      85.831  32.612  68.043  1.00  0.00    -0.504 OA
ATOM     13  H   UNL     1      85.062  32.290  68.619  1.00  0.00     0.293 HD
ENDBRANCH   4  12
TORSDOF 3
ENDMDL
MODEL 3
REMARK VINA RESULT:    -4.288     14.716     16.284
REMARK INTER + INTRA:          -5.080
REMARK INTER:                  -4.892
REMARK INTRA:                  -0.188
REMARK UNBOUND:                -0.165
REMARK SMILES CC=Cc1ccc(O)c(OC)c1
REMARK SMILES IDX 4 1 12 2 9 3 7 4 6 5 5 6 3 7 1 8 2 9 10 10 11 11 8 12
REMARK H PARENT 8 13
REMARK Flexibility Score: inf
ROOT
ATOM      1  C   UNL     1      77.226  33.882  52.180  1.00  0.00    -0.022 A 
ATOM      2  C   UNL     1      78.310  34.742  51.914  1.00  0.00     0.058 A 
ATOM      3  C   UNL     1      79.635  34.262  51.957  1.00  0.00     0.161 A 
ATOM      4  C   UNL     1      79.869  32.913  52.258  1.00  0.00     0.157 A 
ATOM      5  C   UNL     1      78.793  32.053  52.506  1.00  0.00     0.051 A 
ATOM      6  C   UNL     1      77.483  32.532  52.463  1.00  0.00     0.012 A 
ENDROOT
BRANCH   1   7
ATOM      7  C   UNL     1      75.814  34.340  52.139  1.00  0.00     0.003 C 
ATOM      8  C   UNL     1      73.480  34.472  52.914  1.00  0.00     0.035 C 
ATOM      9  C   UNL     1      74.887  33.980  53.033  1.00  0.00    -0.030 C 
ENDBRANCH   1   7
BRANCH   3  10
ATOM     10  O   UNL     1      80.740  35.090  51.704  1.00  0.00    -0.493 OA
ATOM     11  C   UNL     1      81.191  36.124  52.573  1.00  0.00     0.278 C 
ENDBRANCH   3  10
BRANCH   4  12
ATOM     12  O   UNL     1      81.177  32.434  52.305  1.00  0.00    -0.504 OA
ATOM     13  H   UNL     1      81.694  32.388  53.174  1.00  0.00     0.293 HD
ENDBRANCH   4  12
TORSDOF 3
ENDMDL
MODEL 4
REMARK VINA RESULT:    -4.232      3.170      4.630
REMARK INTER + INTRA:          -5.015
REMARK INTER:                  -4.858
REMARK INTRA:                  -0.157
REMARK UNBOUND:                -0.165
REMARK SMILES CC=Cc1ccc(O)c(OC)c1
REMARK SMILES IDX 4 1 12 2 9 3 7 4 6 5 5 6 3 7 1 8 2 9 10 10 11 11 8 12
REMARK H PARENT 8 13
REMARK Flexibility Score: inf
ROOT
ATOM      1  C   UNL     1      85.874  28.797  64.806  1.00  0.00    -0.022 A 
ATOM      2  C   UNL     1      86.318  30.088  65.157  1.00  0.00     0.058 A 
ATOM      3  C   UNL     1      85.429  31.182  65.141  1.00  0.00     0.161 A 
ATOM      4  C   UNL     1      84.090  30.976  64.781  1.00  0.00     0.157 A 
ATOM      5  C   UNL     1      83.643  29.691  64.449  1.00  0.00     0.051 A 
ATOM      6  C   UNL     1      84.526  28.611  64.466  1.00  0.00     0.012 A 
ENDROOT
BRANCH   1   7
ATOM      7  C   UNL     1      86.771  27.614  64.817  1.00  0.00     0.003 C 
ATOM      8  C   UNL     1      88.893  26.411  64.476  1.00  0.00     0.035 C 
ATOM      9  C   UNL     1      88.058  27.650  64.453  1.00  0.00    -0.030 C 
ENDBRANCH   1   7
BRANCH   3  10
ATOM     10  O   UNL     1      85.835  32.483  65.478  1.00  0.00    -0.493 OA
ATOM     11  C   UNL     1      86.874  33.201  64.819  1.00  0.00     0.278 C 
ENDBRANCH   3  10
BRANCH   4  12
ATOM     12  O   UNL     1      83.207  32.054  64.760  1.00  0.00    -0.504 OA
ATOM     13  H   UNL     1      82.449  32.106  64.091  1.00  0.00     0.293 HD
ENDBRANCH   4  12
TORSDOF 3
ENDMDL
MODEL 5
REMARK VINA RESULT:    -4.178     15.473     16.935
REMARK INTER + INTRA:          -4.953
REMARK INTER:                  -4.783
REMARK INTRA:                  -0.170
REMARK UNBOUND:                -0.165
REMARK SMILES CC=Cc1ccc(O)c(OC)c1
REMARK SMILES IDX 4 1 12 2 9 3 7 4 6 5 5 6 3 7 1 8 2 9 10 10 11 11 8 12
REMARK H PARENT 8 13
REMARK Flexibility Score: inf
ROOT
ATOM      1  C   UNL     1      74.428  34.615  53.551  1.00  0.00    -0.022 A 
ATOM      2  C   UNL     1      75.225  33.527  53.143  1.00  0.00     0.058 A 
ATOM      3  C   UNL     1      76.379  33.735  52.361  1.00  0.00     0.161 A 
ATOM      4  C   UNL     1      76.737  35.041  51.997  1.00  0.00     0.157 A 
ATOM      5  C   UNL     1      75.956  36.125  52.416  1.00  0.00     0.051 A 
ATOM      6  C   UNL     1      74.815  35.914  53.190  1.00  0.00     0.012 A 
ENDROOT
BRANCH   1   7
ATOM      7  C   UNL     1      73.209  34.445  54.382  1.00  0.00     0.003 C 
ATOM      8  C   UNL     1      71.891  34.515  56.462  1.00  0.00     0.035 C 
ATOM      9  C   UNL     1      73.152  34.728  55.689  1.00  0.00    -0.030 C 
ENDBRANCH   1   7
BRANCH   3  10
ATOM     10  O   UNL     1      77.194  32.677  51.929  1.00  0.00    -0.493 OA
ATOM     11  C   UNL     1      78.232  32.088  52.707  1.00  0.00     0.278 C 
ENDBRANCH   3  10
BRANCH   4  12
ATOM     12  O   UNL     1      77.875  35.253  51.221  1.00  0.00    -0.504 OA
ATOM     13  H   UNL     1      78.141  34.612  50.483  1.00  0.00     0.293 HD
ENDBRANCH   4  12
TORSDOF 3
ENDMDL
MODEL 6
REMARK VINA RESULT:    -4.164      3.656      4.885
REMARK INTER + INTRA:          -4.938
REMARK INTER:                  -4.773
REMARK INTRA:                  -0.165
REMARK UNBOUND:                -0.165
REMARK SMILES CC=Cc1ccc(O)c(OC)c1
REMARK SMILES IDX 4 1 12 2 9 3 7 4 6 5 5 6 3 7 1 8 2 9 10 10 11 11 8 12
REMARK H PARENT 8 13
REMARK Flexibility Score: inf
ROOT
ATOM      1  C   UNL     1      88.235  29.809  64.795  1.00  0.00    -0.022 A 
ATOM      2  C   UNL     1      86.947  30.099  65.288  1.00  0.00     0.058 A 
ATOM      3  C   UNL     1      86.469  31.425  65.313  1.00  0.00     0.161 A 
ATOM      4  C   UNL     1      87.283  32.460  64.832  1.00  0.00     0.157 A 
ATOM      5  C   UNL     1      88.557  32.172  64.326  1.00  0.00     0.051 A 
ATOM      6  C   UNL     1      89.026  30.858  64.303  1.00  0.00     0.012 A 
ENDROOT
BRANCH   1   7
ATOM      7  C   UNL     1      88.777  28.428  64.741  1.00  0.00     0.003 C 
ATOM      8  C   UNL     1      88.677  25.998  64.354  1.00  0.00     0.035 C 
ATOM      9  C   UNL     1      88.063  27.360  64.367  1.00  0.00    -0.030 C 
ENDBRANCH   1   7
BRANCH   3  10
ATOM     10  O   UNL     1      85.195  31.753  65.803  1.00  0.00    -0.493 OA
ATOM     11  C   UNL     1      83.977  31.536  65.097  1.00  0.00     0.278 C 
ENDBRANCH   3  10
BRANCH   4  12
ATOM     12  O   UNL     1      86.818  33.773  64.857  1.00  0.00    -0.504 OA
ATOM     13  H   UNL     1      86.195  34.101  65.585  1.00  0.00     0.293 HD
ENDBRANCH   4  12
TORSDOF 3
ENDMDL
MODEL 7
REMARK VINA RESULT:    -4.092     14.927     17.012
REMARK INTER + INTRA:          -4.855
REMARK INTER:                  -4.707
REMARK INTRA:                  -0.148
REMARK UNBOUND:                -0.165
REMARK SMILES CC=Cc1ccc(O)c(OC)c1
REMARK SMILES IDX 4 1 12 2 9 3 7 4 6 5 5 6 3 7 1 8 2 9 10 10 11 11 8 12
REMARK H PARENT 8 13
REMARK Flexibility Score: inf
ROOT
ATOM      1  C   UNL     1      77.101  35.231  51.805  1.00  0.00    -0.022 A 
ATOM      2  C   UNL     1      78.081  34.313  52.233  1.00  0.00     0.058 A 
ATOM      3  C   UNL     1      79.347  34.273  51.614  1.00  0.00     0.161 A 
ATOM      4  C   UNL     1      79.631  35.164  50.569  1.00  0.00     0.157 A 
ATOM      5  C   UNL     1      78.665  36.088  50.154  1.00  0.00     0.051 A 
ATOM      6  C   UNL     1      77.413  36.125  50.769  1.00  0.00     0.012 A 
ENDROOT
BRANCH   1   7
ATOM      7  C   UNL     1      75.758  35.316  52.432  1.00  0.00     0.003 C 
ATOM      8  C   UNL     1      73.657  34.419  53.354  1.00  0.00     0.035 C 
ATOM      9  C   UNL     1      75.008  34.251  52.737  1.00  0.00    -0.030 C 
ENDBRANCH   1   7
BRANCH   3  10
ATOM     10  O   UNL     1      80.345  33.369  52.008  1.00  0.00    -0.493 OA
ATOM     11  C   UNL     1      80.111  32.008  52.358  1.00  0.00     0.278 C 
ENDBRANCH   3  10
BRANCH   4  12
ATOM     12  O   UNL     1      80.879  35.127  49.952  1.00  0.00    -0.504 OA
ATOM     13  H   UNL     1      81.720  34.900  50.468  1.00  0.00     0.293 HD
ENDBRANCH   4  12
TORSDOF 3
ENDMDL
MODEL 8
REMARK VINA RESULT:    -4.031      2.591      3.363
REMARK INTER + INTRA:          -4.786
REMARK INTER:                  -4.636
REMARK INTRA:                  -0.150
REMARK UNBOUND:                -0.165
REMARK SMILES CC=Cc1ccc(O)c(OC)c1
REMARK SMILES IDX 4 1 12 2 9 3 7 4 6 5 5 6 3 7 1 8 2 9 10 10 11 11 8 12
REMARK H PARENT 8 13
REMARK Flexibility Score: inf
ROOT
ATOM      1  C   UNL     1      86.700  32.411  65.024  1.00  0.00    -0.022 A 
ATOM      2  C   UNL     1      87.532  31.274  65.046  1.00  0.00     0.058 A 
ATOM      3  C   UNL     1      86.980  29.978  64.993  1.00  0.00     0.161 A 
ATOM      4  C   UNL     1      85.588  29.826  64.908  1.00  0.00     0.157 A 
ATOM      5  C   UNL     1      84.761  30.954  64.869  1.00  0.00     0.051 A 
ATOM      6  C   UNL     1      85.312  32.235  64.921  1.00  0.00     0.012 A 
ENDROOT
BRANCH   1   7
ATOM      7  C   UNL     1      87.236  33.795  65.068  1.00  0.00     0.003 C 
ATOM      8  C   UNL     1      89.003  35.508  65.174  1.00  0.00     0.035 C 
ATOM      9  C   UNL     1      88.541  34.088  65.115  1.00  0.00    -0.030 C 
ENDBRANCH   1   7
BRANCH   3  10
ATOM     10  O   UNL     1      87.775  28.822  65.019  1.00  0.00    -0.493 OA
ATOM     11  C   UNL     1      89.033  28.692  64.363  1.00  0.00     0.278 C 
ENDBRANCH   3  10
BRANCH   4  12
ATOM     12  O   UNL     1      85.036  28.548  64.859  1.00  0.00    -0.504 OA
ATOM     13  H   UNL     1      85.528  27.743  65.228  1.00  0.00     0.293 HD
ENDBRANCH   4  12
TORSDOF 3
ENDMDL
MODEL 9
REMARK VINA RESULT:    -3.912      1.991      2.914
REMARK INTER + INTRA:          -4.649
REMARK INTER:                  -4.506
REMARK INTRA:                  -0.142
REMARK UNBOUND:                -0.165
REMARK SMILES CC=Cc1ccc(O)c(OC)c1
REMARK SMILES IDX 4 1 12 2 9 3 7 4 6 5 5 6 3 7 1 8 2 9 10 10 11 11 8 12
REMARK H PARENT 8 13
REMARK Flexibility Score: inf
ROOT
ATOM      1  C   UNL     1      87.844  32.089  65.425  1.00  0.00    -0.022 A 
ATOM      2  C   UNL     1      86.437  32.075  65.336  1.00  0.00     0.058 A 
ATOM      3  C   UNL     1      85.743  30.865  65.130  1.00  0.00     0.161 A 
ATOM      4  C   UNL     1      86.464  29.668  65.022  1.00  0.00     0.157 A 
ATOM      5  C   UNL     1      87.860  29.677  65.128  1.00  0.00     0.051 A 
ATOM      6  C   UNL     1      88.543  30.877  65.332  1.00  0.00     0.012 A 
ENDROOT
BRANCH   1   7
ATOM      7  C   UNL     1      88.617  33.336  65.651  1.00  0.00     0.003 C 
ATOM      8  C   UNL     1      89.125  35.733  65.392  1.00  0.00     0.035 C 
ATOM      9  C   UNL     1      88.286  34.524  65.130  1.00  0.00    -0.030 C 
ENDBRANCH   1   7
BRANCH   3  10
ATOM     10  O   UNL     1      84.344  30.812  65.029  1.00  0.00    -0.493 OA
ATOM     11  C   UNL     1      83.482  31.942  65.132  1.00  0.00     0.278 C 
ENDBRANCH   3  10
BRANCH   4  12
ATOM     12  O   UNL     1      85.783  28.469  64.815  1.00  0.00    -0.504 OA
ATOM     13  H   UNL     1      85.824  27.983  63.928  1.00  0.00     0.293 HD
ENDBRANCH   4  12
TORSDOF 3
ENDMDL
