MODEL 1
REMARK VINA RESULT:    -4.189      0.000      0.000
REMARK INTER + INTRA:          -5.480
REMARK INTER:                  -5.168
REMARK INTRA:                  -0.312
REMARK UNBOUND:                -0.312
REMARK SMILES COc1cc(C=O)ccc1OC(C)=O
REMARK SMILES IDX 10 1 3 2 4 3 5 4 8 5 9 6 11 7 12 8 13 9 14 10 2 11 1 12 6 13
REMARK SMILES IDX 7 14
REMARK H PARENT
REMARK Flexibility Score: inf
ROOT
ATOM      1  C   UNL     1       2.306  23.490  25.164  1.00  0.00     0.172 A 
ATOM      2  C   UNL     1       2.557  23.640  23.784  1.00  0.00     0.162 A 
ATOM      3  C   UNL     1       3.847  24.008  23.354  1.00  0.00     0.062 A 
ATOM      4  C   UNL     1       4.884  24.195  24.281  1.00  0.00     0.018 A 
ATOM      5  C   UNL     1       4.628  24.007  25.647  1.00  0.00     0.015 A 
ATOM      6  C   UNL     1       3.350  23.652  26.081  1.00  0.00     0.052 A 
ENDROOT
BRANCH   1   7
ATOM      7  O   UNL     1       1.040  23.143  25.656  1.00  0.00    -0.423 OA
BRANCH   7   8
ATOM      8  C   UNL     1       0.101  24.062  26.139  1.00  0.00     0.308 C 
ATOM      9  C   UNL     1       0.227  25.500  25.769  1.00  0.00     0.139 C 
ATOM     10  O   UNL     1      -0.895  23.675  26.808  1.00  0.00    -0.252 OA
ENDBRANCH   7   8
ENDBRANCH   1   7
BRANCH   2  11
ATOM     11  O   UNL     1       1.519  23.389  22.872  1.00  0.00    -0.493 OA
ATOM     12  C   UNL     1       1.273  22.132  22.249  1.00  0.00     0.278 C 
ENDBRANCH   2  11
BRANCH   4  13
ATOM     13  C   UNL     1       6.228  24.576  23.804  1.00  0.00     0.260 C 
ATOM     14  O   UNL     1       7.087  23.701  23.512  1.00  0.00    -0.298 OA
ENDBRANCH   4  13
TORSDOF 4
ENDMDL
MODEL 2
REMARK VINA RESULT:    -4.042      1.504      4.905
REMARK INTER + INTRA:          -5.299
REMARK INTER:                  -5.023
REMARK INTRA:                  -0.276
REMARK UNBOUND:                -0.312
REMARK SMILES COc1cc(C=O)ccc1OC(C)=O
REMARK SMILES IDX 10 1 3 2 4 3 5 4 8 5 9 6 11 7 12 8 13 9 14 10 2 11 1 12 6 13
REMARK SMILES IDX 7 14
REMARK H PARENT
REMARK Flexibility Score: inf
ROOT
ATOM      1  C   UNL     1       3.497  23.873  25.262  1.00  0.00     0.172 A 
ATOM      2  C   UNL     1       2.546  24.404  24.364  1.00  0.00     0.162 A 
ATOM      3  C   UNL     1       1.225  24.618  24.806  1.00  0.00     0.062 A 
ATOM      4  C   UNL     1       0.859  24.339  26.132  1.00  0.00     0.018 A 
ATOM      5  C   UNL     1       1.825  23.847  27.022  1.00  0.00     0.015 A 
ATOM      6  C   UNL     1       3.132  23.622  26.589  1.00  0.00     0.052 A 
ENDROOT
BRANCH   1   7
ATOM      7  O   UNL     1       4.820  23.620  24.879  1.00  0.00    -0.423 OA
BRANCH   7   8
ATOM      8  C   UNL     1       5.823  24.594  24.813  1.00  0.00     0.308 C 
ATOM      9  C   UNL     1       6.347  25.192  26.074  1.00  0.00     0.139 C 
ATOM     10  O   UNL     1       6.350  24.906  23.710  1.00  0.00    -0.252 OA
ENDBRANCH   7   8
ENDBRANCH   1   7
BRANCH   2  11
ATOM     11  O   UNL     1       2.950  24.731  23.060  1.00  0.00    -0.493 OA
ATOM     12  C   UNL     1       2.647  23.963  21.900  1.00  0.00     0.278 C 
ENDBRANCH   2  11
BRANCH   4  13
ATOM     13  C   UNL     1      -0.529  24.577  26.571  1.00  0.00     0.260 C 
ATOM     14  O   UNL     1      -1.283  23.620  26.893  1.00  0.00    -0.298 OA
ENDBRANCH   4  13
TORSDOF 4
ENDMDL
MODEL 3
REMARK VINA RESULT:    -3.784      1.185      2.235
REMARK INTER + INTRA:          -4.981
REMARK INTER:                  -4.729
REMARK INTRA:                  -0.252
REMARK UNBOUND:                -0.312
REMARK SMILES COc1cc(C=O)ccc1OC(C)=O
REMARK SMILES IDX 10 1 3 2 4 3 5 4 8 5 9 6 11 7 12 8 13 9 14 10 2 11 1 12 6 13
REMARK SMILES IDX 7 14
REMARK H PARENT
REMARK Flexibility Score: inf
ROOT
ATOM      1  C   UNL     1       1.799  23.885  24.691  1.00  0.00     0.172 A 
ATOM      2  C   UNL     1       2.865  23.510  25.537  1.00  0.00     0.162 A 
ATOM      3  C   UNL     1       4.191  23.664  25.084  1.00  0.00     0.062 A 
ATOM      4  C   UNL     1       4.457  24.211  23.819  1.00  0.00     0.018 A 
ATOM      5  C   UNL     1       3.387  24.613  23.005  1.00  0.00     0.015 A 
ATOM      6  C   UNL     1       2.072  24.455  23.443  1.00  0.00     0.052 A 
ENDROOT
BRANCH   1   7
ATOM      7  O   UNL     1       0.460  23.741  25.076  1.00  0.00    -0.423 OA
BRANCH   7   8
ATOM      8  C   UNL     1      -0.175  24.533  26.039  1.00  0.00     0.308 C 
ATOM      9  C   UNL     1       0.006  26.012  26.005  1.00  0.00     0.139 C 
ATOM     10  O   UNL     1      -0.967  24.021  26.877  1.00  0.00    -0.252 OA
ENDBRANCH   7   8
ENDBRANCH   1   7
BRANCH   2  11
ATOM     11  O   UNL     1       2.576  23.021  26.821  1.00  0.00    -0.493 OA
ATOM     12  C   UNL     1       2.299  21.657  27.125  1.00  0.00     0.278 C 
ENDBRANCH   2  11
BRANCH   4  13
ATOM     13  C   UNL     1       5.854  24.366  23.371  1.00  0.00     0.260 C 
ATOM     14  O   UNL     1       6.782  23.687  23.887  1.00  0.00    -0.298 OA
ENDBRANCH   4  13
TORSDOF 4
ENDMDL
MODEL 4
REMARK VINA RESULT:    -3.738      1.865      3.509
REMARK INTER + INTRA:          -4.924
REMARK INTER:                  -4.533
REMARK INTRA:                  -0.390
REMARK UNBOUND:                -0.312
REMARK SMILES COc1cc(C=O)ccc1OC(C)=O
REMARK SMILES IDX 10 1 3 2 4 3 5 4 8 5 9 6 11 7 12 8 13 9 14 10 2 11 1 12 6 13
REMARK SMILES IDX 7 14
REMARK H PARENT
REMARK Flexibility Score: inf
ROOT
ATOM      1  C   UNL     1       3.345  24.137  24.599  1.00  0.00     0.172 A 
ATOM      2  C   UNL     1       3.118  23.663  25.909  1.00  0.00     0.162 A 
ATOM      3  C   UNL     1       4.214  23.249  26.691  1.00  0.00     0.062 A 
ATOM      4  C   UNL     1       5.523  23.332  26.191  1.00  0.00     0.018 A 
ATOM      5  C   UNL     1       5.735  23.839  24.901  1.00  0.00     0.015 A 
ATOM      6  C   UNL     1       4.654  24.242  24.116  1.00  0.00     0.052 A 
ENDROOT
BRANCH   1   7
ATOM      7  O   UNL     1       2.296  24.546  23.765  1.00  0.00    -0.423 OA
BRANCH   7   8
ATOM      8  C   UNL     1       1.973  23.941  22.546  1.00  0.00     0.308 C 
ATOM      9  C   UNL     1       1.580  22.503  22.524  1.00  0.00     0.139 C 
ATOM     10  O   UNL     1       1.924  24.616  21.482  1.00  0.00    -0.252 OA
ENDBRANCH   7   8
ENDBRANCH   1   7
BRANCH   2  11
ATOM     11  O   UNL     1       1.806  23.645  26.409  1.00  0.00    -0.493 OA
ATOM     12  C   UNL     1       0.900  22.554  26.270  1.00  0.00     0.278 C 
ENDBRANCH   2  11
BRANCH   4  13
ATOM     13  C   UNL     1       6.654  22.896  27.033  1.00  0.00     0.260 C 
ATOM     14  O   UNL     1       7.009  21.687  27.071  1.00  0.00    -0.298 OA
ENDBRANCH   4  13
TORSDOF 4
ENDMDL
MODEL 5
REMARK VINA RESULT:    -3.631      1.929      5.330
REMARK INTER + INTRA:          -4.791
REMARK INTER:                  -4.500
REMARK INTRA:                  -0.292
REMARK UNBOUND:                -0.312
REMARK SMILES COc1cc(C=O)ccc1OC(C)=O
REMARK SMILES IDX 10 1 3 2 4 3 5 4 8 5 9 6 11 7 12 8 13 9 14 10 2 11 1 12 6 13
REMARK SMILES IDX 7 14
REMARK H PARENT
REMARK Flexibility Score: inf
ROOT
ATOM      1  C   UNL     1       3.283  23.903  25.079  1.00  0.00     0.172 A 
ATOM      2  C   UNL     1       2.829  23.356  26.298  1.00  0.00     0.162 A 
ATOM      3  C   UNL     1       1.536  23.677  26.759  1.00  0.00     0.062 A 
ATOM      4  C   UNL     1       0.693  24.507  26.005  1.00  0.00     0.018 A 
ATOM      5  C   UNL     1       1.146  25.014  24.777  1.00  0.00     0.015 A 
ATOM      6  C   UNL     1       2.428  24.708  24.319  1.00  0.00     0.052 A 
ENDROOT
BRANCH   1   7
ATOM      7  O   UNL     1       4.563  23.636  24.577  1.00  0.00    -0.423 OA
BRANCH   7   8
ATOM      8  C   UNL     1       5.698  24.408  24.854  1.00  0.00     0.308 C 
ATOM      9  C   UNL     1       6.831  24.417  23.885  1.00  0.00     0.139 C 
ATOM     10  O   UNL     1       5.736  25.160  25.865  1.00  0.00    -0.252 OA
ENDBRANCH   7   8
ENDBRANCH   1   7
BRANCH   2  11
ATOM     11  O   UNL     1       3.668  22.480  27.006  1.00  0.00    -0.493 OA
ATOM     12  C   UNL     1       3.459  21.076  27.125  1.00  0.00     0.278 C 
ENDBRANCH   2  11
BRANCH   4  13
ATOM     13  C   UNL     1      -0.657  24.824  26.507  1.00  0.00     0.260 C 
ATOM     14  O   UNL     1      -1.432  23.916  26.910  1.00  0.00    -0.298 OA
ENDBRANCH   4  13
TORSDOF 4
ENDMDL
MODEL 6
REMARK VINA RESULT:    -3.482      2.054      4.395
REMARK INTER + INTRA:          -4.607
REMARK INTER:                  -4.379
REMARK INTRA:                  -0.229
REMARK UNBOUND:                -0.312
REMARK SMILES COc1cc(C=O)ccc1OC(C)=O
REMARK SMILES IDX 10 1 3 2 4 3 5 4 8 5 9 6 11 7 12 8 13 9 14 10 2 11 1 12 6 13
REMARK SMILES IDX 7 14
REMARK H PARENT
REMARK Flexibility Score: inf
ROOT
ATOM      1  C   UNL     1       3.769  23.749  25.705  1.00  0.00     0.172 A 
ATOM      2  C   UNL     1       2.366  23.686  25.563  1.00  0.00     0.162 A 
ATOM      3  C   UNL     1       1.791  23.934  24.301  1.00  0.00     0.062 A 
ATOM      4  C   UNL     1       2.598  24.211  23.187  1.00  0.00     0.018 A 
ATOM      5  C   UNL     1       3.992  24.233  23.337  1.00  0.00     0.015 A 
ATOM      6  C   UNL     1       4.570  23.998  24.585  1.00  0.00     0.052 A 
ENDROOT
BRANCH   1   7
ATOM      7  O   UNL     1       4.401  23.529  26.936  1.00  0.00    -0.423 OA
BRANCH   7   8
ATOM      8  C   UNL     1       5.598  22.822  27.095  1.00  0.00     0.308 C 
ATOM      9  C   UNL     1       5.569  21.332  27.123  1.00  0.00     0.139 C 
ATOM     10  O   UNL     1       6.706  23.424  27.125  1.00  0.00    -0.252 OA
ENDBRANCH   7   8
ENDBRANCH   1   7
BRANCH   2  11
ATOM     11  O   UNL     1       1.583  23.349  26.678  1.00  0.00    -0.493 OA
ATOM     12  C   UNL     1       0.354  22.633  26.619  1.00  0.00     0.278 C 
ENDBRANCH   2  11
BRANCH   4  13
ATOM     13  C   UNL     1       1.970  24.463  21.876  1.00  0.00     0.260 C 
ATOM     14  O   UNL     1       1.847  25.634  21.427  1.00  0.00    -0.298 OA
ENDBRANCH   4  13
TORSDOF 4
ENDMDL
MODEL 7
REMARK VINA RESULT:    -3.459     17.290     20.118
REMARK INTER + INTRA:          -4.580
REMARK INTER:                  -4.458
REMARK INTRA:                  -0.122
REMARK UNBOUND:                -0.312
REMARK SMILES COc1cc(C=O)ccc1OC(C)=O
REMARK SMILES IDX 10 1 3 2 4 3 5 4 8 5 9 6 11 7 12 8 13 9 14 10 2 11 1 12 6 13
REMARK SMILES IDX 7 14
REMARK H PARENT
REMARK Flexibility Score: inf
ROOT
ATOM      1  C   UNL     1     -11.324  23.809  10.699  1.00  0.00     0.172 A 
ATOM      2  C   UNL     1     -10.529  23.924  11.859  1.00  0.00     0.162 A 
ATOM      3  C   UNL     1     -11.060  23.525  13.101  1.00  0.00     0.062 A 
ATOM      4  C   UNL     1     -12.355  22.990  13.187  1.00  0.00     0.018 A 
ATOM      5  C   UNL     1     -13.119  22.848  12.020  1.00  0.00     0.015 A 
ATOM      6  C   UNL     1     -12.603  23.250  10.787  1.00  0.00     0.052 A 
ENDROOT
BRANCH   1   7
ATOM      7  O   UNL     1     -10.860  24.205   9.438  1.00  0.00    -0.423 OA
BRANCH   7   8
ATOM      8  C   UNL     1     -11.601  24.104   8.255  1.00  0.00     0.308 C 
ATOM      9  C   UNL     1     -12.685  25.090   7.984  1.00  0.00     0.139 C 
ATOM     10  O   UNL     1     -11.305  23.247   7.379  1.00  0.00    -0.252 OA
ENDBRANCH   7   8
ENDBRANCH   1   7
BRANCH   2  11
ATOM     11  O   UNL     1      -9.215  24.407  11.739  1.00  0.00    -0.493 OA
ATOM     12  C   UNL     1      -8.048  23.591  11.749  1.00  0.00     0.278 C 
ENDBRANCH   2  11
BRANCH   4  13
ATOM     13  C   UNL     1     -12.886  22.575  14.500  1.00  0.00     0.260 C 
ATOM     14  O   UNL     1     -13.125  21.363  14.752  1.00  0.00    -0.298 OA
ENDBRANCH   4  13
TORSDOF 4
ENDMDL
MODEL 8
REMARK VINA RESULT:    -3.455      1.966      4.693
REMARK INTER + INTRA:          -4.575
REMARK INTER:                  -4.293
REMARK INTRA:                  -0.282
REMARK UNBOUND:                -0.312
REMARK SMILES COc1cc(C=O)ccc1OC(C)=O
REMARK SMILES IDX 10 1 3 2 4 3 5 4 8 5 9 6 11 7 12 8 13 9 14 10 2 11 1 12 6 13
REMARK SMILES IDX 7 14
REMARK H PARENT
REMARK Flexibility Score: inf
ROOT
ATOM      1  C   UNL     1       3.880  24.191  25.010  1.00  0.00     0.172 A 
ATOM      2  C   UNL     1       2.773  23.376  25.329  1.00  0.00     0.162 A 
ATOM      3  C   UNL     1       1.966  22.872  24.289  1.00  0.00     0.062 A 
ATOM      4  C   UNL     1       2.272  23.148  22.947  1.00  0.00     0.018 A 
ATOM      5  C   UNL     1       3.398  23.929  22.646  1.00  0.00     0.015 A 
ATOM      6  C   UNL     1       4.195  24.440  23.670  1.00  0.00     0.052 A 
ENDROOT
BRANCH   1   7
ATOM      7  O   UNL     1       4.709  24.736  25.999  1.00  0.00    -0.423 OA
BRANCH   7   8
ATOM      8  C   UNL     1       6.106  24.650  25.995  1.00  0.00     0.308 C 
ATOM      9  C   UNL     1       6.917  25.901  25.996  1.00  0.00     0.139 C 
ATOM     10  O   UNL     1       6.685  23.533  26.079  1.00  0.00    -0.252 OA
ENDBRANCH   7   8
ENDBRANCH   1   7
BRANCH   2  11
ATOM     11  O   UNL     1       2.521  23.065  26.675  1.00  0.00    -0.493 OA
ATOM     12  C   UNL     1       1.506  22.173  27.125  1.00  0.00     0.278 C 
ENDBRANCH   2  11
BRANCH   4  13
ATOM     13  C   UNL     1       1.414  22.604  21.877  1.00  0.00     0.260 C 
ATOM     14  O   UNL     1       1.089  21.387  21.859  1.00  0.00    -0.298 OA
ENDBRANCH   4  13
TORSDOF 4
ENDMDL
MODEL 9
REMARK VINA RESULT:    -3.335      2.578      4.075
REMARK INTER + INTRA:          -4.426
REMARK INTER:                  -4.138
REMARK INTRA:                  -0.289
REMARK UNBOUND:                -0.312
REMARK SMILES COc1cc(C=O)ccc1OC(C)=O
REMARK SMILES IDX 10 1 3 2 4 3 5 4 8 5 9 6 11 7 12 8 13 9 14 10 2 11 1 12 6 13
REMARK SMILES IDX 7 14
REMARK H PARENT
REMARK Flexibility Score: inf
ROOT
ATOM      1  C   UNL     1       1.729  23.208  24.784  1.00  0.00     0.172 A 
ATOM      2  C   UNL     1       1.221  24.492  25.077  1.00  0.00     0.162 A 
ATOM      3  C   UNL     1       1.317  25.509  24.106  1.00  0.00     0.062 A 
ATOM      4  C   UNL     1       1.883  25.247  22.848  1.00  0.00     0.018 A 
ATOM      5  C   UNL     1       2.350  23.957  22.560  1.00  0.00     0.015 A 
ATOM      6  C   UNL     1       2.267  22.947  23.519  1.00  0.00     0.052 A 
ENDROOT
BRANCH   1   7
ATOM      7  O   UNL     1       1.680  22.161  25.713  1.00  0.00    -0.423 OA
BRANCH   7   8
ATOM      8  C   UNL     1       2.755  21.766  26.517  1.00  0.00     0.308 C 
ATOM      9  C   UNL     1       3.887  22.710  26.741  1.00  0.00     0.139 C 
ATOM     10  O   UNL     1       2.736  20.662  27.125  1.00  0.00    -0.252 OA
ENDBRANCH   7   8
ENDBRANCH   1   7
BRANCH   2  11
ATOM     11  O   UNL     1       0.606  24.714  26.320  1.00  0.00    -0.493 OA
ATOM     12  C   UNL     1       0.004  25.941  26.718  1.00  0.00     0.278 C 
ENDBRANCH   2  11
BRANCH   4  13
ATOM     13  C   UNL     1       1.967  26.328  21.848  1.00  0.00     0.260 C 
ATOM     14  O   UNL     1       1.301  27.390  21.979  1.00  0.00    -0.298 OA
ENDBRANCH   4  13
TORSDOF 4
ENDMDL
