MODEL 1
REMARK VINA RESULT:    15.363      0.000      0.000
REMARK INTER + INTRA:          28.096
REMARK INTER:                  24.345
REMARK INTRA:                   3.751
REMARK UNBOUND:                 3.751
REMARK SMILES C[C@@H]1O[C@H](O[C@@H]2CC[C@@]3(C)[C@H](CC[C@@]4(C)[C@@H]3C=C[C@@]35OC[C@]6(CCC(C)(C)C[C@@H]63)[C@H](O)C[C@@]45C)[C@]2(C)CO)[C@H](O)[C@H](O[C@H]2O[C@@H](CO)[C@H](O)[C@@H](O)[C@@H]2O)[C@H]1O
REMARK SMILES IDX 1 1 2 2 54 3 41 4 39 5 4 6 3 7 55 8 42 10 43 11 52 12 44 13
REMARK SMILES IDX 50 14 45 15 48 16 53 17 51 19 46 21 47 22 49 24 5 26 6 27
REMARK SMILES IDX 7 28 35 29 8 30 11 31 36 32 9 33 12 34 10 35 16 36 13 37
REMARK SMILES IDX 14 38 17 39 15 40 33 41 18 42 19 43 32 44 34 45 29 46 20 47
REMARK SMILES IDX 30 48 22 49 28 50 21 51 23 52 25 53 24 54 26 55 27 56 37 57
REMARK SMILES IDX 38 58 31 60 40 62
REMARK H PARENT 55 9 53 18 51 20 47 23 49 25 38 59 31 61 40 63
REMARK Flexibility Score: inf
ROOT
ATOM      1  C   UNL     1      21.751  25.195  27.456  1.00  0.00     0.041 C 
ATOM      2  C   UNL     1      20.798  26.390  27.454  1.00  0.00     0.150 C 
ATOM      3  C   UNL     1      21.122  27.361  28.624  1.00  0.00     0.175 C 
ATOM      4  C   UNL     1      20.665  28.813  28.307  1.00  0.00     0.186 C 
ATOM      5  C   UNL     1      19.467  28.753  27.339  1.00  0.00     0.202 C 
ATOM      6  C   UNL     1      19.871  28.021  26.026  1.00  0.00     0.282 C 
ATOM      7  O   UNL     1      20.913  27.067  26.215  1.00  0.00    -0.344 OA
ENDROOT
BRANCH   3   8
ATOM      8  O   UNL     1      20.548  26.892  29.820  1.00  0.00    -0.388 OA
ATOM      9  H   UNL     1      19.886  27.565  30.124  1.00  0.00     0.211 HD
ENDBRANCH   3   8
BRANCH   4  10
ATOM     10  O   UNL     1      21.759  29.497  27.706  1.00  0.00    -0.341 OA
BRANCH  10  11
ATOM     11  C   UNL     1      22.922  29.513  28.521  1.00  0.00     0.282 C 
ATOM     12  C   UNL     1      22.506  29.609  30.003  1.00  0.00     0.202 C 
ATOM     13  O   UNL     1      23.818  30.557  28.154  1.00  0.00    -0.341 OA
ATOM     14  C   UNL     1      21.825  30.965  30.333  1.00  0.00     0.179 C 
ATOM     15  C   UNL     1      23.439  31.872  28.563  1.00  0.00     0.178 C 
ATOM     16  C   UNL     1      22.026  32.000  29.205  1.00  0.00     0.177 C 
BRANCH  12  17
ATOM     17  O   UNL     1      23.614  29.383  30.841  1.00  0.00    -0.385 OA
ATOM     18  H   UNL     1      23.327  28.770  31.567  1.00  0.00     0.211 HD
ENDBRANCH  12  17
BRANCH  14  19
ATOM     19  O   UNL     1      20.446  30.776  30.527  1.00  0.00    -0.387 OA
ATOM     20  H   UNL     1      20.138  31.491  31.143  1.00  0.00     0.211 HD
ENDBRANCH  14  19
BRANCH  15  21
ATOM     21  C   UNL     1      23.574  32.805  27.351  1.00  0.00     0.191 C 
BRANCH  21  22
ATOM     22  O   UNL     1      23.772  34.121  27.791  1.00  0.00    -0.394 OA
ATOM     23  H   UNL     1      23.827  34.077  28.782  1.00  0.00     0.210 HD
ENDBRANCH  21  22
ENDBRANCH  15  21
BRANCH  16  24
ATOM     24  O   UNL     1      21.801  33.303  29.690  1.00  0.00    -0.387 OA
ATOM     25  H   UNL     1      21.549  33.231  30.648  1.00  0.00     0.211 HD
ENDBRANCH  16  24
ENDBRANCH  10  11
ENDBRANCH   4  10
BRANCH   6  26
ATOM     26  O   UNL     1      20.345  28.971  25.079  1.00  0.00    -0.346 OA
BRANCH  26  27
ATOM     27  C   UNL     1      21.582  29.568  25.452  1.00  0.00     0.130 C 
ATOM     28  C   UNL     1      21.516  31.101  25.247  1.00  0.00     0.033 C 
ATOM     29  C   UNL     1      22.767  28.915  24.650  1.00  0.00     0.020 C 
ATOM     30  C   UNL     1      21.477  31.496  23.758  1.00  0.00     0.010 C 
ATOM     31  C   UNL     1      22.791  29.400  23.120  1.00  0.00     0.006 C 
ATOM     32  C   UNL     1      24.117  29.257  25.351  1.00  0.00     0.017 C 
ATOM     33  C   UNL     1      22.685  30.964  22.921  1.00  0.00    -0.022 C 
ATOM     34  C   UNL     1      21.722  28.652  22.254  1.00  0.00     0.005 C 
ATOM     35  C   UNL     1      23.953  31.733  23.453  1.00  0.00     0.012 C 
ATOM     36  C   UNL     1      22.577  31.304  21.352  1.00  0.00     0.024 C 
ATOM     37  C   UNL     1      21.654  29.062  20.772  1.00  0.00     0.008 C 
ATOM     38  C   UNL     1      21.442  30.582  20.518  1.00  0.00    -0.017 C 
ATOM     39  C   UNL     1      23.931  31.033  20.669  1.00  0.00    -0.024 C 
ATOM     40  C   UNL     1      20.002  30.971  21.007  1.00  0.00     0.013 C 
ATOM     41  C   UNL     1      21.571  31.011  18.946  1.00  0.00     0.009 C 
ATOM     42  C   UNL     1      24.109  30.747  19.374  1.00  0.00     0.005 C 
ATOM     43  C   UNL     1      23.024  30.738  18.334  1.00  0.00     0.096 C 
ATOM     44  C   UNL     1      20.471  30.330  18.041  1.00  0.00     0.043 C 
ATOM     45  C   UNL     1      21.290  32.559  18.843  1.00  0.00     0.015 C 
ATOM     46  C   UNL     1      23.162  29.489  17.427  1.00  0.00     0.037 C 
ATOM     47  O   UNL     1      23.339  31.796  17.436  1.00  0.00    -0.369 OA
ATOM     48  C   UNL     1      20.850  30.034  16.553  1.00  0.00     0.124 C 
ATOM     49  C   UNL     1      22.388  29.963  16.229  1.00  0.00     0.026 C 
ATOM     50  C   UNL     1      22.823  28.035  17.813  1.00  0.00     0.014 C 
ATOM     51  C   UNL     1      23.003  31.369  16.127  1.00  0.00     0.171 C 
ATOM     52  C   UNL     1      22.653  29.068  14.973  1.00  0.00     0.013 C 
ATOM     53  C   UNL     1      23.013  27.045  16.599  1.00  0.00    -0.035 C 
ATOM     54  C   UNL     1      23.444  27.774  15.281  1.00  0.00     0.007 C 
ATOM     55  C   UNL     1      24.112  26.016  16.952  1.00  0.00     0.011 C 
ATOM     56  C   UNL     1      21.710  26.253  16.341  1.00  0.00     0.011 C 
BRANCH  29  57
ATOM     57  C   UNL     1      22.645  27.353  24.721  1.00  0.00     0.165 C 
BRANCH  57  58
ATOM     58  O   UNL     1      23.894  26.742  24.899  1.00  0.00    -0.396 OA
ATOM     59  H   UNL     1      23.711  25.788  25.105  1.00  0.00     0.210 HD
ENDBRANCH  57  58
ENDBRANCH  29  57
BRANCH  48  60
ATOM     60  O   UNL     1      20.172  30.874  15.647  1.00  0.00    -0.392 OA
ATOM     61  H   UNL     1      19.369  31.244  16.097  1.00  0.00     0.210 HD
ENDBRANCH  48  60
ENDBRANCH  26  27
ENDBRANCH   6  26
BRANCH   5  62
ATOM     62  O   UNL     1      18.958  30.030  27.066  1.00  0.00    -0.385 OA
ATOM     63  H   UNL     1      18.465  30.324  27.874  1.00  0.00     0.211 HD
ENDBRANCH   5  62
TORSDOF 14
ENDMDL
