MODEL 1
REMARK VINA RESULT:     0.000      0.000      0.000
REMARK INTER + INTRA:          -7.632
REMARK INTER:                   0.000
REMARK INTRA:                  -7.632
REMARK UNBOUND:                -7.632
REMARK SMILES CCCCCCCCCCCCCCCCCCCCCCCCCCCCCC(=O)[O-]
REMARK SMILES IDX 16 1 17 2 18 3 19 4 20 5 21 6 22 7 23 8 24 9 25 10 26 11
REMARK SMILES IDX 27 12 28 13 29 14 30 15 31 16 32 17 15 18 14 19 13 20 12 21
REMARK SMILES IDX 11 22 10 23 9 24 8 25 7 26 6 27 5 28 4 29 3 30 2 31 1 32
REMARK H PARENT
REMARK Flexibility Score: inf
ROOT
ATOM      1  C   UNL     1     186.989 194.562 192.169  1.00  0.00     0.000 C 
ENDROOT
BRANCH   1   2
ATOM      2  C   UNL     1     186.755 193.437 193.194  1.00  0.00     0.000 C 
BRANCH   2   3
ATOM      3  C   UNL     1     187.649 193.571 194.438  1.00  0.00     0.000 C 
BRANCH   3   4
ATOM      4  C   UNL     1     188.082 192.210 195.007  1.00  0.00     0.000 C 
BRANCH   4   5
ATOM      5  C   UNL     1     187.575 191.050 194.138  1.00  0.00     0.000 C 
BRANCH   5   6
ATOM      6  C   UNL     1     186.716 190.046 194.932  1.00  0.00     0.000 C 
BRANCH   6   7
ATOM      7  C   UNL     1     185.214 190.040 194.575  1.00  0.00     0.000 C 
BRANCH   7   8
ATOM      8  C   UNL     1     184.307 190.752 195.595  1.00  0.00     0.000 C 
BRANCH   8   9
ATOM      9  C   UNL     1     185.061 191.165 196.870  1.00  0.00     0.000 C 
BRANCH   9  10
ATOM     10  C   UNL     1     184.965 192.675 197.146  1.00  0.00     0.000 C 
BRANCH  10  11
ATOM     11  C   UNL     1     184.245 193.434 196.016  1.00  0.00     0.000 C 
BRANCH  11  12
ATOM     12  C   UNL     1     184.569 194.941 196.010  1.00  0.00     0.000 C 
BRANCH  12  13
ATOM     13  C   UNL     1     183.665 195.790 195.095  1.00  0.00     0.006 C 
BRANCH  13  14
ATOM     14  C   UNL     1     184.399 196.323 193.857  1.00  0.00     0.053 C 
BRANCH  14  15
ATOM     15  C   UNL     1     183.436 196.539 192.728  1.00  0.00     0.041 C 
ATOM     16  O   UNL     1     182.198 196.378 192.908  1.00  0.00    -0.550 OA
ATOM     17  O   UNL     1     183.901 196.962 191.488  1.00  0.00    -0.550 OA
ENDBRANCH  14  15
ENDBRANCH  13  14
ENDBRANCH  12  13
ENDBRANCH  11  12
ENDBRANCH  10  11
ENDBRANCH   9  10
ENDBRANCH   8   9
ENDBRANCH   7   8
ENDBRANCH   6   7
ENDBRANCH   5   6
ENDBRANCH   4   5
ENDBRANCH   3   4
ENDBRANCH   2   3
ENDBRANCH   1   2
BRANCH   1  18
ATOM     18  C   UNL     1     188.299 195.326 192.422  1.00  0.00     0.000 C 
BRANCH  18  19
ATOM     19  C   UNL     1     189.099 195.561 191.132  1.00  0.00     0.000 C 
BRANCH  19  20
ATOM     20  C   UNL     1     190.459 194.847 191.188  1.00  0.00     0.000 C 
BRANCH  20  21
ATOM     21  C   UNL     1     190.689 194.100 192.516  1.00  0.00     0.000 C 
BRANCH  21  22
ATOM     22  C   UNL     1     190.705 192.561 192.410  1.00  0.00     0.000 C 
BRANCH  22  23
ATOM     23  C   UNL     1     190.408 192.023 190.994  1.00  0.00     0.000 C 
BRANCH  23  24
ATOM     24  C   UNL     1     188.986 191.449 190.867  1.00  0.00    -0.000 C 
BRANCH  24  25
ATOM     25  C   UNL     1     188.204 192.157 189.753  1.00  0.00    -0.000 C 
BRANCH  25  26
ATOM     26  C   UNL     1     186.846 191.489 189.466  1.00  0.00    -0.000 C 
BRANCH  26  27
ATOM     27  C   UNL     1     186.275 190.669 190.641  1.00  0.00    -0.000 C 
BRANCH  27  28
ATOM     28  C   UNL     1     184.863 191.126 191.052  1.00  0.00    -0.000 C 
BRANCH  28  29
ATOM     29  C   UNL     1     184.434 192.428 190.358  1.00  0.00    -0.000 C 
BRANCH  29  30
ATOM     30  C   UNL     1     183.356 193.192 191.148  1.00  0.00    -0.000 C 
BRANCH  30  31
ATOM     31  C   UNL     1     183.245 192.709 192.605  1.00  0.00    -0.003 C 
ATOM     32  C   UNL     1     181.846 192.899 193.194  1.00  0.00     0.004 C 
ENDBRANCH  30  31
ENDBRANCH  29  30
ENDBRANCH  28  29
ENDBRANCH  27  28
ENDBRANCH  26  27
ENDBRANCH  25  26
ENDBRANCH  24  25
ENDBRANCH  23  24
ENDBRANCH  22  23
ENDBRANCH  21  22
ENDBRANCH  20  21
ENDBRANCH  19  20
ENDBRANCH  18  19
ENDBRANCH   1  18
TORSDOF 28
ENDMDL
MODEL 2
REMARK VINA RESULT:     0.035      9.297     12.906
REMARK INTER + INTRA:          -7.538
REMARK INTER:                   0.000
REMARK INTRA:                  -7.538
REMARK UNBOUND:                -7.632
REMARK SMILES CCCCCCCCCCCCCCCCCCCCCCCCCCCCCC(=O)[O-]
REMARK SMILES IDX 16 1 17 2 18 3 19 4 20 5 21 6 22 7 23 8 24 9 25 10 26 11
REMARK SMILES IDX 27 12 28 13 29 14 30 15 31 16 32 17 15 18 14 19 13 20 12 21
REMARK SMILES IDX 11 22 10 23 9 24 8 25 7 26 6 27 5 28 4 29 3 30 2 31 1 32
REMARK H PARENT
REMARK Flexibility Score: inf
ROOT
ATOM      1  C   UNL     1     174.229 192.062 188.583  1.00  0.00     0.000 C 
ENDROOT
BRANCH   1   2
ATOM      2  C   UNL     1     173.643 191.834 189.988  1.00  0.00     0.000 C 
BRANCH   2   3
ATOM      3  C   UNL     1     174.726 191.740 191.076  1.00  0.00     0.000 C 
BRANCH   3   4
ATOM      4  C   UNL     1     174.878 190.319 191.641  1.00  0.00     0.000 C 
BRANCH   4   5
ATOM      5  C   UNL     1     176.347 189.870 191.648  1.00  0.00     0.000 C 
BRANCH   5   6
ATOM      6  C   UNL     1     177.227 190.706 190.697  1.00  0.00     0.000 C 
BRANCH   6   7
ATOM      7  C   UNL     1     178.346 189.923 189.979  1.00  0.00     0.000 C 
BRANCH   7   8
ATOM      8  C   UNL     1     178.579 188.498 190.512  1.00  0.00     0.000 C 
BRANCH   8   9
ATOM      9  C   UNL     1     179.576 187.700 189.654  1.00  0.00     0.000 C 
BRANCH   9  10
ATOM     10  C   UNL     1     180.703 188.582 189.090  1.00  0.00     0.000 C 
BRANCH  10  11
ATOM     11  C   UNL     1     180.750 188.563 187.551  1.00  0.00     0.000 C 
BRANCH  11  12
ATOM     12  C   UNL     1     179.587 187.764 186.930  1.00  0.00     0.000 C 
BRANCH  12  13
ATOM     13  C   UNL     1     178.579 188.613 186.130  1.00  0.00     0.006 C 
BRANCH  13  14
ATOM     14  C   UNL     1     178.889 190.115 186.181  1.00  0.00     0.053 C 
BRANCH  14  15
ATOM     15  C   UNL     1     178.387 190.796 184.943  1.00  0.00     0.041 C 
ATOM     16  O   UNL     1     177.503 190.248 184.229  1.00  0.00    -0.550 OA
ATOM     17  O   UNL     1     178.862 192.057 184.601  1.00  0.00    -0.550 OA
ENDBRANCH  14  15
ENDBRANCH  13  14
ENDBRANCH  12  13
ENDBRANCH  11  12
ENDBRANCH  10  11
ENDBRANCH   9  10
ENDBRANCH   8   9
ENDBRANCH   7   8
ENDBRANCH   6   7
ENDBRANCH   5   6
ENDBRANCH   4   5
ENDBRANCH   3   4
ENDBRANCH   2   3
ENDBRANCH   1   2
BRANCH   1  18
ATOM     18  C   UNL     1     174.089 190.827 187.678  1.00  0.00     0.000 C 
BRANCH  18  19
ATOM     19  C   UNL     1     175.425 190.099 187.469  1.00  0.00     0.000 C 
BRANCH  19  20
ATOM     20  C   UNL     1     175.421 188.728 188.163  1.00  0.00     0.000 C 
BRANCH  20  21
ATOM     21  C   UNL     1     174.016 188.292 188.621  1.00  0.00     0.000 C 
BRANCH  21  22
ATOM     22  C   UNL     1     173.988 187.156 189.664  1.00  0.00     0.000 C 
BRANCH  22  23
ATOM     23  C   UNL     1     175.384 186.667 190.103  1.00  0.00     0.000 C 
BRANCH  23  24
ATOM     24  C   UNL     1     175.433 185.146 190.328  1.00  0.00    -0.000 C 
BRANCH  24  25
ATOM     25  C   UNL     1     176.179 184.443 189.187  1.00  0.00    -0.000 C 
BRANCH  25  26
ATOM     26  C   UNL     1     177.020 185.417 188.341  1.00  0.00    -0.000 C 
BRANCH  26  27
ATOM     27  C   UNL     1     176.667 185.431 186.839  1.00  0.00    -0.000 C 
BRANCH  27  28
ATOM     28  C   UNL     1     175.211 185.009 186.568  1.00  0.00    -0.000 C 
BRANCH  28  29
ATOM     29  C   UNL     1     174.443 186.039 185.724  1.00  0.00    -0.000 C 
BRANCH  29  30
ATOM     30  C   UNL     1     175.378 186.982 184.946  1.00  0.00    -0.000 C 
BRANCH  30  31
ATOM     31  C   UNL     1     174.634 188.196 184.363  1.00  0.00    -0.003 C 
ATOM     32  C   UNL     1     173.225 188.365 184.935  1.00  0.00     0.004 C 
ENDBRANCH  30  31
ENDBRANCH  29  30
ENDBRANCH  28  29
ENDBRANCH  27  28
ENDBRANCH  26  27
ENDBRANCH  25  26
ENDBRANCH  24  25
ENDBRANCH  23  24
ENDBRANCH  22  23
ENDBRANCH  21  22
ENDBRANCH  20  21
ENDBRANCH  19  20
ENDBRANCH  18  19
ENDBRANCH   1  18
TORSDOF 28
ENDMDL
MODEL 3
REMARK VINA RESULT:     0.041      4.531      6.975
REMARK INTER + INTRA:          -7.525
REMARK INTER:                   0.000
REMARK INTRA:                  -7.525
REMARK UNBOUND:                -7.632
REMARK SMILES CCCCCCCCCCCCCCCCCCCCCCCCCCCCCC(=O)[O-]
REMARK SMILES IDX 16 1 17 2 18 3 19 4 20 5 21 6 22 7 23 8 24 9 25 10 26 11
REMARK SMILES IDX 27 12 28 13 29 14 30 15 31 16 32 17 15 18 14 19 13 20 12 21
REMARK SMILES IDX 11 22 10 23 9 24 8 25 7 26 6 27 5 28 4 29 3 30 2 31 1 32
REMARK H PARENT
REMARK Flexibility Score: inf
ROOT
ATOM      1  C   UNL     1     186.684 191.350 197.125  1.00  0.00     0.000 C 
ENDROOT
BRANCH   1   2
ATOM      2  C   UNL     1     187.725 190.726 196.178  1.00  0.00     0.000 C 
BRANCH   2   3
ATOM      3  C   UNL     1     188.188 191.699 195.080  1.00  0.00     0.000 C 
BRANCH   3   4
ATOM      4  C   UNL     1     188.088 191.094 193.671  1.00  0.00     0.000 C 
BRANCH   4   5
ATOM      5  C   UNL     1     187.512 189.671 193.709  1.00  0.00     0.000 C 
BRANCH   5   6
ATOM      6  C   UNL     1     188.394 188.653 192.959  1.00  0.00     0.000 C 
BRANCH   6   7
ATOM      7  C   UNL     1     189.086 187.601 193.851  1.00  0.00     0.000 C 
BRANCH   7   8
ATOM      8  C   UNL     1     188.280 187.179 195.093  1.00  0.00     0.000 C 
BRANCH   8   9
ATOM      9  C   UNL     1     187.469 185.893 194.863  1.00  0.00     0.000 C 
BRANCH   9  10
ATOM     10  C   UNL     1     185.975 186.075 195.184  1.00  0.00     0.000 C 
BRANCH  10  11
ATOM     11  C   UNL     1     185.675 187.442 195.826  1.00  0.00     0.000 C 
BRANCH  11  12
ATOM     12  C   UNL     1     184.925 187.318 197.167  1.00  0.00     0.000 C 
BRANCH  12  13
ATOM     13  C   UNL     1     185.557 188.105 198.333  1.00  0.00     0.006 C 
BRANCH  13  14
ATOM     14  C   UNL     1     187.024 187.730 198.581  1.00  0.00     0.053 C 
BRANCH  14  15
ATOM     15  C   UNL     1     187.128 186.317 199.070  1.00  0.00     0.041 C 
ATOM     16  O   UNL     1     186.541 185.965 200.130  1.00  0.00    -0.550 OA
ATOM     17  O   UNL     1     187.837 185.375 198.333  1.00  0.00    -0.550 OA
ENDBRANCH  14  15
ENDBRANCH  13  14
ENDBRANCH  12  13
ENDBRANCH  11  12
ENDBRANCH  10  11
ENDBRANCH   9  10
ENDBRANCH   8   9
ENDBRANCH   7   8
ENDBRANCH   6   7
ENDBRANCH   5   6
ENDBRANCH   4   5
ENDBRANCH   3   4
ENDBRANCH   2   3
ENDBRANCH   1   2
BRANCH   1  18
ATOM     18  C   UNL     1     185.481 191.941 196.371  1.00  0.00     0.000 C 
BRANCH  18  19
ATOM     19  C   UNL     1     184.336 190.930 196.210  1.00  0.00     0.000 C 
BRANCH  19  20
ATOM     20  C   UNL     1     184.049 190.654 194.725  1.00  0.00     0.000 C 
BRANCH  20  21
ATOM     21  C   UNL     1     184.441 191.830 193.811  1.00  0.00     0.000 C 
BRANCH  21  22
ATOM     22  C   UNL     1     183.985 191.701 192.342  1.00  0.00     0.000 C 
BRANCH  22  23
ATOM     23  C   UNL     1     185.027 191.044 191.413  1.00  0.00     0.000 C 
BRANCH  23  24
ATOM     24  C   UNL     1     184.452 189.850 190.632  1.00  0.00    -0.000 C 
BRANCH  24  25
ATOM     25  C   UNL     1     185.172 188.547 191.007  1.00  0.00    -0.000 C 
BRANCH  25  26
ATOM     26  C   UNL     1     184.595 187.898 192.279  1.00  0.00    -0.000 C 
BRANCH  26  27
ATOM     27  C   UNL     1     183.849 186.569 192.038  1.00  0.00    -0.000 C 
BRANCH  27  28
ATOM     28  C   UNL     1     182.826 186.254 193.144  1.00  0.00    -0.000 C 
BRANCH  28  29
ATOM     29  C   UNL     1     182.475 187.484 193.997  1.00  0.00    -0.000 C 
BRANCH  29  30
ATOM     30  C   UNL     1     181.086 188.059 193.661  1.00  0.00    -0.000 C 
BRANCH  30  31
ATOM     31  C   UNL     1     181.170 189.316 192.779  1.00  0.00    -0.003 C 
ATOM     32  C   UNL     1     180.930 189.024 191.297  1.00  0.00     0.004 C 
ENDBRANCH  30  31
ENDBRANCH  29  30
ENDBRANCH  28  29
ENDBRANCH  27  28
ENDBRANCH  26  27
ENDBRANCH  25  26
ENDBRANCH  24  25
ENDBRANCH  23  24
ENDBRANCH  22  23
ENDBRANCH  21  22
ENDBRANCH  20  21
ENDBRANCH  19  20
ENDBRANCH  18  19
ENDBRANCH   1  18
TORSDOF 28
ENDMDL
MODEL 4
REMARK VINA RESULT:     0.041     10.371     13.880
REMARK INTER + INTRA:          -7.523
REMARK INTER:                   0.000
REMARK INTRA:                  -7.523
REMARK UNBOUND:                -7.632
REMARK SMILES CCCCCCCCCCCCCCCCCCCCCCCCCCCCCC(=O)[O-]
REMARK SMILES IDX 16 1 17 2 18 3 19 4 20 5 21 6 22 7 23 8 24 9 25 10 26 11
REMARK SMILES IDX 27 12 28 13 29 14 30 15 31 16 32 17 15 18 14 19 13 20 12 21
REMARK SMILES IDX 11 22 10 23 9 24 8 25 7 26 6 27 5 28 4 29 3 30 2 31 1 32
REMARK H PARENT
REMARK Flexibility Score: inf
ROOT
ATOM      1  C   UNL     1     178.137 182.307 193.615  1.00  0.00     0.000 C 
ENDROOT
BRANCH   1   2
ATOM      2  C   UNL     1     177.742 183.623 194.309  1.00  0.00     0.000 C 
BRANCH   2   3
ATOM      3  C   UNL     1     177.840 183.539 195.841  1.00  0.00     0.000 C 
BRANCH   3   4
ATOM      4  C   UNL     1     176.874 184.501 196.551  1.00  0.00     0.000 C 
BRANCH   4   5
ATOM      5  C   UNL     1     175.859 185.105 195.570  1.00  0.00     0.000 C 
BRANCH   5   6
ATOM      6  C   UNL     1     175.919 186.645 195.527  1.00  0.00     0.000 C 
BRANCH   6   7
ATOM      7  C   UNL     1     177.248 187.264 196.010  1.00  0.00     0.000 C 
BRANCH   7   8
ATOM      8  C   UNL     1     177.866 188.295 195.049  1.00  0.00     0.000 C 
BRANCH   8   9
ATOM      9  C   UNL     1     179.259 187.876 194.547  1.00  0.00     0.000 C 
BRANCH   9  10
ATOM     10  C   UNL     1     179.802 186.640 195.284  1.00  0.00     0.000 C 
BRANCH  10  11
ATOM     11  C   UNL     1     180.712 185.777 194.392  1.00  0.00     0.000 C 
BRANCH  11  12
ATOM     12  C   UNL     1     181.330 184.585 195.148  1.00  0.00     0.000 C 
BRANCH  12  13
ATOM     13  C   UNL     1     181.732 183.394 194.255  1.00  0.00     0.006 C 
BRANCH  13  14
ATOM     14  C   UNL     1     181.528 182.036 194.941  1.00  0.00     0.053 C 
BRANCH  14  15
ATOM     15  C   UNL     1     182.356 181.949 196.187  1.00  0.00     0.041 C 
ATOM     16  O   UNL     1     183.614 182.016 196.122  1.00  0.00    -0.550 OA
ATOM     17  O   UNL     1     181.738 181.839 197.428  1.00  0.00    -0.550 OA
ENDBRANCH  14  15
ENDBRANCH  13  14
ENDBRANCH  12  13
ENDBRANCH  11  12
ENDBRANCH  10  11
ENDBRANCH   9  10
ENDBRANCH   8   9
ENDBRANCH   7   8
ENDBRANCH   6   7
ENDBRANCH   5   6
ENDBRANCH   4   5
ENDBRANCH   3   4
ENDBRANCH   2   3
ENDBRANCH   1   2
BRANCH   1  18
ATOM     18  C   UNL     1     178.179 182.438 192.083  1.00  0.00     0.000 C 
BRANCH  18  19
ATOM     19  C   UNL     1     179.185 183.499 191.614  1.00  0.00     0.000 C 
BRANCH  19  20
ATOM     20  C   UNL     1     178.493 184.578 190.765  1.00  0.00     0.000 C 
BRANCH  20  21
ATOM     21  C   UNL     1     178.455 185.953 191.458  1.00  0.00     0.000 C 
BRANCH  21  22
ATOM     22  C   UNL     1     177.063 186.404 191.945  1.00  0.00     0.000 C 
BRANCH  22  23
ATOM     23  C   UNL     1     175.926 185.414 191.614  1.00  0.00     0.000 C 
BRANCH  23  24
ATOM     24  C   UNL     1     174.558 185.892 192.131  1.00  0.00    -0.000 C 
BRANCH  24  25
ATOM     25  C   UNL     1     173.658 184.702 192.491  1.00  0.00    -0.000 C 
BRANCH  25  26
ATOM     26  C   UNL     1     174.447 183.387 192.636  1.00  0.00    -0.000 C 
BRANCH  26  27
ATOM     27  C   UNL     1     173.732 182.299 193.464  1.00  0.00    -0.000 C 
BRANCH  27  28
ATOM     28  C   UNL     1     174.701 181.491 194.346  1.00  0.00    -0.000 C 
BRANCH  28  29
ATOM     29  C   UNL     1     174.438 181.683 195.848  1.00  0.00    -0.000 C 
BRANCH  29  30
ATOM     30  C   UNL     1     175.435 180.907 196.727  1.00  0.00    -0.000 C 
BRANCH  30  31
ATOM     31  C   UNL     1     176.349 179.984 195.902  1.00  0.00    -0.003 C 
ATOM     32  C   UNL     1     177.764 179.877 196.472  1.00  0.00     0.004 C 
ENDBRANCH  30  31
ENDBRANCH  29  30
ENDBRANCH  28  29
ENDBRANCH  27  28
ENDBRANCH  26  27
ENDBRANCH  25  26
ENDBRANCH  24  25
ENDBRANCH  23  24
ENDBRANCH  22  23
ENDBRANCH  21  22
ENDBRANCH  20  21
ENDBRANCH  19  20
ENDBRANCH  18  19
ENDBRANCH   1  18
TORSDOF 28
ENDMDL
MODEL 5
REMARK VINA RESULT:     0.044      6.465     10.547
REMARK INTER + INTRA:          -7.515
REMARK INTER:                   0.000
REMARK INTRA:                  -7.515
REMARK UNBOUND:                -7.632
REMARK SMILES CCCCCCCCCCCCCCCCCCCCCCCCCCCCCC(=O)[O-]
REMARK SMILES IDX 16 1 17 2 18 3 19 4 20 5 21 6 22 7 23 8 24 9 25 10 26 11
REMARK SMILES IDX 27 12 28 13 29 14 30 15 31 16 32 17 15 18 14 19 13 20 12 21
REMARK SMILES IDX 11 22 10 23 9 24 8 25 7 26 6 27 5 28 4 29 3 30 2 31 1 32
REMARK H PARENT
REMARK Flexibility Score: inf
ROOT
ATOM      1  C   UNL     1     180.483 191.159 193.026  1.00  0.00     0.000 C 
ENDROOT
BRANCH   1   2
ATOM      2  C   UNL     1     181.390 191.324 194.260  1.00  0.00     0.000 C 
BRANCH   2   3
ATOM      3  C   UNL     1     181.451 192.775 194.763  1.00  0.00     0.000 C 
BRANCH   3   4
ATOM      4  C   UNL     1     181.992 192.884 196.197  1.00  0.00     0.000 C 
BRANCH   4   5
ATOM      5  C   UNL     1     181.362 194.067 196.948  1.00  0.00     0.000 C 
BRANCH   5   6
ATOM      6  C   UNL     1     180.230 194.741 196.149  1.00  0.00     0.000 C 
BRANCH   6   7
ATOM      7  C   UNL     1     178.865 194.800 196.867  1.00  0.00     0.000 C 
BRANCH   7   8
ATOM      8  C   UNL     1     178.508 193.541 197.677  1.00  0.00     0.000 C 
BRANCH   8   9
ATOM      9  C   UNL     1     178.320 192.299 196.788  1.00  0.00     0.000 C 
BRANCH   9  10
ATOM     10  C   UNL     1     178.373 190.988 197.591  1.00  0.00     0.000 C 
BRANCH  10  11
ATOM     11  C   UNL     1     179.677 190.205 197.350  1.00  0.00     0.000 C 
BRANCH  11  12
ATOM     12  C   UNL     1     179.425 188.728 196.988  1.00  0.00     0.000 C 
BRANCH  12  13
ATOM     13  C   UNL     1     179.343 188.440 195.476  1.00  0.00     0.006 C 
BRANCH  13  14
ATOM     14  C   UNL     1     178.111 187.610 195.091  1.00  0.00     0.053 C 
BRANCH  14  15
ATOM     15  C   UNL     1     178.070 187.387 193.609  1.00  0.00     0.041 C 
ATOM     16  O   UNL     1     177.067 186.840 193.075  1.00  0.00    -0.550 OA
ATOM     17  O   UNL     1     179.120 187.825 192.811  1.00  0.00    -0.550 OA
ENDBRANCH  14  15
ENDBRANCH  13  14
ENDBRANCH  12  13
ENDBRANCH  11  12
ENDBRANCH  10  11
ENDBRANCH   9  10
ENDBRANCH   8   9
ENDBRANCH   7   8
ENDBRANCH   6   7
ENDBRANCH   5   6
ENDBRANCH   4   5
ENDBRANCH   3   4
ENDBRANCH   2   3
ENDBRANCH   1   2
BRANCH   1  18
ATOM     18  C   UNL     1     178.995 191.358 193.358  1.00  0.00     0.000 C 
BRANCH  18  19
ATOM     19  C   UNL     1     178.348 192.461 192.508  1.00  0.00     0.000 C 
BRANCH  19  20
ATOM     20  C   UNL     1     178.076 193.719 193.350  1.00  0.00     0.000 C 
BRANCH  20  21
ATOM     21  C   UNL     1     176.595 194.141 193.335  1.00  0.00     0.000 C 
BRANCH  21  22
ATOM     22  C   UNL     1     175.917 194.209 194.719  1.00  0.00     0.000 C 
BRANCH  22  23
ATOM     23  C   UNL     1     174.375 194.252 194.666  1.00  0.00     0.000 C 
BRANCH  23  24
ATOM     24  C   UNL     1     173.724 193.522 195.853  1.00  0.00    -0.000 C 
BRANCH  24  25
ATOM     25  C   UNL     1     174.720 193.345 197.007  1.00  0.00    -0.000 C 
BRANCH  25  26
ATOM     26  C   UNL     1     174.740 191.907 197.557  1.00  0.00    -0.000 C 
BRANCH  26  27
ATOM     27  C   UNL     1     174.093 190.857 196.631  1.00  0.00    -0.000 C 
BRANCH  27  28
ATOM     28  C   UNL     1     175.126 189.906 195.999  1.00  0.00    -0.000 C 
BRANCH  28  29
ATOM     29  C   UNL     1     175.886 190.547 194.828  1.00  0.00    -0.000 C 
BRANCH  29  30
ATOM     30  C   UNL     1     175.411 190.026 193.459  1.00  0.00    -0.000 C 
BRANCH  30  31
ATOM     31  C   UNL     1     174.652 191.096 192.655  1.00  0.00    -0.003 C 
ATOM     32  C   UNL     1     173.157 191.136 192.975  1.00  0.00     0.004 C 
ENDBRANCH  30  31
ENDBRANCH  29  30
ENDBRANCH  28  29
ENDBRANCH  27  28
ENDBRANCH  26  27
ENDBRANCH  25  26
ENDBRANCH  24  25
ENDBRANCH  23  24
ENDBRANCH  22  23
ENDBRANCH  21  22
ENDBRANCH  20  21
ENDBRANCH  19  20
ENDBRANCH  18  19
ENDBRANCH   1  18
TORSDOF 28
ENDMDL
MODEL 6
REMARK VINA RESULT:     0.053      5.345      8.780
REMARK INTER + INTRA:          -7.493
REMARK INTER:                   0.000
REMARK INTRA:                  -7.493
REMARK UNBOUND:                -7.632
REMARK SMILES CCCCCCCCCCCCCCCCCCCCCCCCCCCCCC(=O)[O-]
REMARK SMILES IDX 16 1 17 2 18 3 19 4 20 5 21 6 22 7 23 8 24 9 25 10 26 11
REMARK SMILES IDX 27 12 28 13 29 14 30 15 31 16 32 17 15 18 14 19 13 20 12 21
REMARK SMILES IDX 11 22 10 23 9 24 8 25 7 26 6 27 5 28 4 29 3 30 2 31 1 32
REMARK H PARENT
REMARK Flexibility Score: inf
ROOT
ATOM      1  C   UNL     1     185.520 183.058 191.880  1.00  0.00     0.000 C 
ENDROOT
BRANCH   1   2
ATOM      2  C   UNL     1     187.012 183.224 191.538  1.00  0.00     0.000 C 
BRANCH   2   3
ATOM      3  C   UNL     1     187.396 184.685 191.251  1.00  0.00     0.000 C 
BRANCH   3   4
ATOM      4  C   UNL     1     188.340 184.825 190.046  1.00  0.00     0.000 C 
BRANCH   4   5
ATOM      5  C   UNL     1     187.634 185.483 188.852  1.00  0.00     0.000 C 
BRANCH   5   6
ATOM      6  C   UNL     1     186.840 184.472 188.002  1.00  0.00     0.000 C 
BRANCH   6   7
ATOM      7  C   UNL     1     185.411 184.914 187.619  1.00  0.00     0.000 C 
BRANCH   7   8
ATOM      8  C   UNL     1     184.343 184.637 188.691  1.00  0.00     0.000 C 
BRANCH   8   9
ATOM      9  C   UNL     1     183.788 185.926 189.321  1.00  0.00     0.000 C 
BRANCH   9  10
ATOM     10  C   UNL     1     184.317 187.193 188.628  1.00  0.00     0.000 C 
BRANCH  10  11
ATOM     11  C   UNL     1     185.129 188.088 189.582  1.00  0.00     0.000 C 
BRANCH  11  12
ATOM     12  C   UNL     1     185.049 187.622 191.049  1.00  0.00     0.000 C 
BRANCH  12  13
ATOM     13  C   UNL     1     186.211 188.102 191.941  1.00  0.00     0.006 C 
BRANCH  13  14
ATOM     14  C   UNL     1     187.326 188.797 191.148  1.00  0.00     0.053 C 
BRANCH  14  15
ATOM     15  C   UNL     1     188.661 188.209 191.495  1.00  0.00     0.041 C 
ATOM     16  O   UNL     1     188.860 187.711 192.637  1.00  0.00    -0.550 OA
ATOM     17  O   UNL     1     189.673 188.169 190.543  1.00  0.00    -0.550 OA
ENDBRANCH  14  15
ENDBRANCH  13  14
ENDBRANCH  12  13
ENDBRANCH  11  12
ENDBRANCH  10  11
ENDBRANCH   9  10
ENDBRANCH   8   9
ENDBRANCH   7   8
ENDBRANCH   6   7
ENDBRANCH   5   6
ENDBRANCH   4   5
ENDBRANCH   3   4
ENDBRANCH   2   3
ENDBRANCH   1   2
BRANCH   1  18
ATOM     18  C   UNL     1     184.912 184.328 192.498  1.00  0.00     0.000 C 
BRANCH  18  19
ATOM     19  C   UNL     1     184.984 184.325 194.032  1.00  0.00     0.000 C 
BRANCH  19  20
ATOM     20  C   UNL     1     185.993 185.368 194.539  1.00  0.00     0.000 C 
BRANCH  20  21
ATOM     21  C   UNL     1     185.454 186.199 195.719  1.00  0.00     0.000 C 
BRANCH  21  22
ATOM     22  C   UNL     1     184.781 187.532 195.330  1.00  0.00     0.000 C 
BRANCH  22  23
ATOM     23  C   UNL     1     183.242 187.458 195.236  1.00  0.00     0.000 C 
BRANCH  23  24
ATOM     24  C   UNL     1     182.717 187.839 193.840  1.00  0.00    -0.000 C 
BRANCH  24  25
ATOM     25  C   UNL     1     182.127 186.619 193.121  1.00  0.00    -0.000 C 
BRANCH  25  26
ATOM     26  C   UNL     1     181.352 187.001 191.846  1.00  0.00    -0.000 C 
BRANCH  26  27
ATOM     27  C   UNL     1     181.129 188.516 191.661  1.00  0.00    -0.000 C 
BRANCH  27  28
ATOM     28  C   UNL     1     181.564 189.014 190.271  1.00  0.00    -0.000 C 
BRANCH  28  29
ATOM     29  C   UNL     1     182.285 190.371 190.325  1.00  0.00    -0.000 C 
BRANCH  29  30
ATOM     30  C   UNL     1     182.528 190.853 191.767  1.00  0.00    -0.000 C 
BRANCH  30  31
ATOM     31  C   UNL     1     184.019 191.097 192.061  1.00  0.00    -0.003 C 
ATOM     32  C   UNL     1     184.799 191.575 190.835  1.00  0.00     0.004 C 
ENDBRANCH  30  31
ENDBRANCH  29  30
ENDBRANCH  28  29
ENDBRANCH  27  28
ENDBRANCH  26  27
ENDBRANCH  25  26
ENDBRANCH  24  25
ENDBRANCH  23  24
ENDBRANCH  22  23
ENDBRANCH  21  22
ENDBRANCH  20  21
ENDBRANCH  19  20
ENDBRANCH  18  19
ENDBRANCH   1  18
TORSDOF 28
ENDMDL
MODEL 7
REMARK VINA RESULT:     0.055     12.414     15.673
REMARK INTER + INTRA:          -7.487
REMARK INTER:                   0.000
REMARK INTRA:                  -7.487
REMARK UNBOUND:                -7.632
REMARK SMILES CCCCCCCCCCCCCCCCCCCCCCCCCCCCCC(=O)[O-]
REMARK SMILES IDX 16 1 17 2 18 3 19 4 20 5 21 6 22 7 23 8 24 9 25 10 26 11
REMARK SMILES IDX 27 12 28 13 29 14 30 15 31 16 32 17 15 18 14 19 13 20 12 21
REMARK SMILES IDX 11 22 10 23 9 24 8 25 7 26 6 27 5 28 4 29 3 30 2 31 1 32
REMARK H PARENT
REMARK Flexibility Score: inf
ROOT
ATOM      1  C   UNL     1     177.327 179.772 184.394  1.00  0.00     0.000 C 
ENDROOT
BRANCH   1   2
ATOM      2  C   UNL     1     177.318 180.565 185.713  1.00  0.00     0.000 C 
BRANCH   2   3
ATOM      3  C   UNL     1     177.757 179.717 186.919  1.00  0.00     0.000 C 
BRANCH   3   4
ATOM      4  C   UNL     1     176.756 179.779 188.083  1.00  0.00     0.000 C 
BRANCH   4   5
ATOM      5  C   UNL     1     175.622 180.775 187.798  1.00  0.00     0.000 C 
BRANCH   5   6
ATOM      6  C   UNL     1     175.583 181.936 188.811  1.00  0.00     0.000 C 
BRANCH   6   7
ATOM      7  C   UNL     1     175.754 183.344 188.203  1.00  0.00     0.000 C 
BRANCH   7   8
ATOM      8  C   UNL     1     177.213 183.811 188.058  1.00  0.00     0.000 C 
BRANCH   8   9
ATOM      9  C   UNL     1     178.148 183.161 189.093  1.00  0.00     0.000 C 
BRANCH   9  10
ATOM     10  C   UNL     1     179.478 182.698 188.474  1.00  0.00     0.000 C 
BRANCH  10  11
ATOM     11  C   UNL     1     179.582 183.045 186.977  1.00  0.00     0.000 C 
BRANCH  11  12
ATOM     12  C   UNL     1     180.694 184.070 186.679  1.00  0.00     0.000 C 
BRANCH  12  13
ATOM     13  C   UNL     1     180.216 185.534 186.604  1.00  0.00     0.006 C 
BRANCH  13  14
ATOM     14  C   UNL     1     180.599 186.352 187.844  1.00  0.00     0.053 C 
BRANCH  14  15
ATOM     15  C   UNL     1     179.377 186.703 188.638  1.00  0.00     0.041 C 
ATOM     16  O   UNL     1     179.326 186.450 189.873  1.00  0.00    -0.550 OA
ATOM     17  O   UNL     1     178.311 187.351 188.025  1.00  0.00    -0.550 OA
ENDBRANCH  14  15
ENDBRANCH  13  14
ENDBRANCH  12  13
ENDBRANCH  11  12
ENDBRANCH  10  11
ENDBRANCH   9  10
ENDBRANCH   8   9
ENDBRANCH   7   8
ENDBRANCH   6   7
ENDBRANCH   5   6
ENDBRANCH   4   5
ENDBRANCH   3   4
ENDBRANCH   2   3
ENDBRANCH   1   2
BRANCH   1  18
ATOM     18  C   UNL     1     176.172 180.170 183.459  1.00  0.00     0.000 C 
BRANCH  18  19
ATOM     19  C   UNL     1     174.885 180.505 184.228  1.00  0.00     0.000 C 
BRANCH  19  20
ATOM     20  C   UNL     1     174.324 181.869 183.795  1.00  0.00     0.000 C 
BRANCH  20  21
ATOM     21  C   UNL     1     174.772 183.021 184.714  1.00  0.00     0.000 C 
BRANCH  21  22
ATOM     22  C   UNL     1     175.650 184.095 184.041  1.00  0.00     0.000 C 
BRANCH  22  23
ATOM     23  C   UNL     1     177.139 184.036 184.442  1.00  0.00     0.000 C 
BRANCH  23  24
ATOM     24  C   UNL     1     178.016 183.380 183.361  1.00  0.00    -0.000 C 
BRANCH  24  25
ATOM     25  C   UNL     1     179.303 184.183 183.133  1.00  0.00    -0.000 C 
BRANCH  25  26
ATOM     26  C   UNL     1     180.558 183.291 183.088  1.00  0.00    -0.000 C 
BRANCH  26  27
ATOM     27  C   UNL     1     180.309 181.816 183.464  1.00  0.00    -0.000 C 
BRANCH  27  28
ATOM     28  C   UNL     1     181.451 181.216 184.305  1.00  0.00    -0.000 C 
BRANCH  28  29
ATOM     29  C   UNL     1     180.988 180.044 185.184  1.00  0.00    -0.000 C 
BRANCH  29  30
ATOM     30  C   UNL     1     181.839 179.890 186.459  1.00  0.00    -0.000 C 
BRANCH  30  31
ATOM     31  C   UNL     1     182.861 181.029 186.622  1.00  0.00    -0.003 C 
ATOM     32  C   UNL     1     183.011 181.496 188.071  1.00  0.00     0.004 C 
ENDBRANCH  30  31
ENDBRANCH  29  30
ENDBRANCH  28  29
ENDBRANCH  27  28
ENDBRANCH  26  27
ENDBRANCH  25  26
ENDBRANCH  24  25
ENDBRANCH  23  24
ENDBRANCH  22  23
ENDBRANCH  21  22
ENDBRANCH  20  21
ENDBRANCH  19  20
ENDBRANCH  18  19
ENDBRANCH   1  18
TORSDOF 28
ENDMDL
MODEL 8
REMARK VINA RESULT:     0.059     13.268     16.098
REMARK INTER + INTRA:          -7.476
REMARK INTER:                   0.000
REMARK INTRA:                  -7.476
REMARK UNBOUND:                -7.632
REMARK SMILES CCCCCCCCCCCCCCCCCCCCCCCCCCCCCC(=O)[O-]
REMARK SMILES IDX 16 1 17 2 18 3 19 4 20 5 21 6 22 7 23 8 24 9 25 10 26 11
REMARK SMILES IDX 27 12 28 13 29 14 30 15 31 16 32 17 15 18 14 19 13 20 12 21
REMARK SMILES IDX 11 22 10 23 9 24 8 25 7 26 6 27 5 28 4 29 3 30 2 31 1 32
REMARK H PARENT
REMARK Flexibility Score: inf
ROOT
ATOM      1  C   UNL     1     178.572 182.580 186.761  1.00  0.00     0.000 C 
ENDROOT
BRANCH   1   2
ATOM      2  C   UNL     1     178.638 181.308 187.626  1.00  0.00     0.000 C 
BRANCH   2   3
ATOM      3  C   UNL     1     177.248 180.731 187.941  1.00  0.00     0.000 C 
BRANCH   3   4
ATOM      4  C   UNL     1     177.088 180.339 189.419  1.00  0.00     0.000 C 
BRANCH   4   5
ATOM      5  C   UNL     1     178.240 180.889 190.274  1.00  0.00     0.000 C 
BRANCH   5   6
ATOM      6  C   UNL     1     178.952 179.790 191.087  1.00  0.00     0.000 C 
BRANCH   6   7
ATOM      7  C   UNL     1     178.732 178.349 190.577  1.00  0.00     0.000 C 
BRANCH   7   8
ATOM      8  C   UNL     1     180.023 177.548 190.334  1.00  0.00     0.000 C 
BRANCH   8   9
ATOM      9  C   UNL     1     180.051 176.875 188.951  1.00  0.00     0.000 C 
BRANCH   9  10
ATOM     10  C   UNL     1     178.895 177.340 188.048  1.00  0.00     0.000 C 
BRANCH  10  11
ATOM     11  C   UNL     1     179.380 177.794 186.660  1.00  0.00     0.000 C 
BRANCH  11  12
ATOM     12  C   UNL     1     178.226 177.968 185.653  1.00  0.00     0.000 C 
BRANCH  12  13
ATOM     13  C   UNL     1     178.648 177.897 184.172  1.00  0.00     0.006 C 
BRANCH  13  14
ATOM     14  C   UNL     1     180.111 177.472 183.986  1.00  0.00     0.053 C 
BRANCH  14  15
ATOM     15  C   UNL     1     180.638 177.967 182.674  1.00  0.00     0.041 C 
ATOM     16  O   UNL     1     181.300 177.199 181.923  1.00  0.00    -0.550 OA
ATOM     17  O   UNL     1     180.362 179.264 182.257  1.00  0.00    -0.550 OA
ENDBRANCH  14  15
ENDBRANCH  13  14
ENDBRANCH  12  13
ENDBRANCH  11  12
ENDBRANCH  10  11
ENDBRANCH   9  10
ENDBRANCH   8   9
ENDBRANCH   7   8
ENDBRANCH   6   7
ENDBRANCH   5   6
ENDBRANCH   4   5
ENDBRANCH   3   4
ENDBRANCH   2   3
ENDBRANCH   1   2
BRANCH   1  18
ATOM     18  C   UNL     1     179.666 182.614 185.680  1.00  0.00     0.000 C 
BRANCH  18  19
ATOM     19  C   UNL     1     180.095 181.208 185.236  1.00  0.00     0.000 C 
BRANCH  19  20
ATOM     20  C   UNL     1     181.616 181.137 185.021  1.00  0.00     0.000 C 
BRANCH  20  21
ATOM     21  C   UNL     1     182.259 179.908 185.690  1.00  0.00     0.000 C 
BRANCH  21  22
ATOM     22  C   UNL     1     182.928 180.176 187.054  1.00  0.00     0.000 C 
BRANCH  22  23
ATOM     23  C   UNL     1     182.022 179.888 188.269  1.00  0.00     0.000 C 
BRANCH  23  24
ATOM     24  C   UNL     1     181.881 181.104 189.202  1.00  0.00    -0.000 C 
BRANCH  24  25
ATOM     25  C   UNL     1     182.298 182.397 188.489  1.00  0.00    -0.000 C 
BRANCH  25  26
ATOM     26  C   UNL     1     181.411 183.596 188.871  1.00  0.00    -0.000 C 
BRANCH  26  27
ATOM     27  C   UNL     1     180.836 183.538 190.301  1.00  0.00    -0.000 C 
BRANCH  27  28
ATOM     28  C   UNL     1     179.538 184.352 190.453  1.00  0.00    -0.000 C 
BRANCH  28  29
ATOM     29  C   UNL     1     179.241 185.231 189.227  1.00  0.00    -0.000 C 
BRANCH  29  30
ATOM     30  C   UNL     1     177.732 185.422 188.989  1.00  0.00    -0.000 C 
BRANCH  30  31
ATOM     31  C   UNL     1     176.890 184.313 189.644  1.00  0.00    -0.003 C 
ATOM     32  C   UNL     1     175.643 183.953 188.835  1.00  0.00     0.004 C 
ENDBRANCH  30  31
ENDBRANCH  29  30
ENDBRANCH  28  29
ENDBRANCH  27  28
ENDBRANCH  26  27
ENDBRANCH  25  26
ENDBRANCH  24  25
ENDBRANCH  23  24
ENDBRANCH  22  23
ENDBRANCH  21  22
ENDBRANCH  20  21
ENDBRANCH  19  20
ENDBRANCH  18  19
ENDBRANCH   1  18
TORSDOF 28
ENDMDL
MODEL 9
REMARK VINA RESULT:     0.068     10.274     13.175
REMARK INTER + INTRA:          -7.452
REMARK INTER:                   0.000
REMARK INTRA:                  -7.452
REMARK UNBOUND:                -7.632
REMARK SMILES CCCCCCCCCCCCCCCCCCCCCCCCCCCCCC(=O)[O-]
REMARK SMILES IDX 16 1 17 2 18 3 19 4 20 5 21 6 22 7 23 8 24 9 25 10 26 11
REMARK SMILES IDX 27 12 28 13 29 14 30 15 31 16 32 17 15 18 14 19 13 20 12 21
REMARK SMILES IDX 11 22 10 23 9 24 8 25 7 26 6 27 5 28 4 29 3 30 2 31 1 32
REMARK H PARENT
REMARK Flexibility Score: inf
ROOT
ATOM      1  C   UNL     1     181.938 183.962 184.627  1.00  0.00     0.000 C 
ENDROOT
BRANCH   1   2
ATOM      2  C   UNL     1     183.380 184.372 184.977  1.00  0.00     0.000 C 
BRANCH   2   3
ATOM      3  C   UNL     1     183.894 183.700 186.261  1.00  0.00     0.000 C 
BRANCH   3   4
ATOM      4  C   UNL     1     184.202 184.711 187.377  1.00  0.00     0.000 C 
BRANCH   4   5
ATOM      5  C   UNL     1     183.409 184.396 188.655  1.00  0.00     0.000 C 
BRANCH   5   6
ATOM      6  C   UNL     1     182.617 183.077 188.552  1.00  0.00     0.000 C 
BRANCH   6   7
ATOM      7  C   UNL     1     181.330 183.016 189.402  1.00  0.00     0.000 C 
BRANCH   7   8
ATOM      8  C   UNL     1     181.076 184.257 190.276  1.00  0.00     0.000 C 
BRANCH   8   9
ATOM      9  C   UNL     1     179.601 184.692 190.271  1.00  0.00     0.000 C 
BRANCH   9  10
ATOM     10  C   UNL     1     179.397 186.070 189.617  1.00  0.00     0.000 C 
BRANCH  10  11
ATOM     11  C   UNL     1     180.699 186.891 189.559  1.00  0.00     0.000 C 
BRANCH  11  12
ATOM     12  C   UNL     1     180.872 187.639 188.223  1.00  0.00     0.000 C 
BRANCH  12  13
ATOM     13  C   UNL     1     181.130 186.731 187.005  1.00  0.00     0.006 C 
BRANCH  13  14
ATOM     14  C   UNL     1     181.096 187.492 185.673  1.00  0.00     0.053 C 
BRANCH  14  15
ATOM     15  C   UNL     1     182.340 188.313 185.507  1.00  0.00     0.041 C 
ATOM     16  O   UNL     1     183.469 187.819 185.774  1.00  0.00    -0.550 OA
ATOM     17  O   UNL     1     182.257 189.610 185.013  1.00  0.00    -0.550 OA
ENDBRANCH  14  15
ENDBRANCH  13  14
ENDBRANCH  12  13
ENDBRANCH  11  12
ENDBRANCH  10  11
ENDBRANCH   9  10
ENDBRANCH   8   9
ENDBRANCH   7   8
ENDBRANCH   6   7
ENDBRANCH   5   6
ENDBRANCH   4   5
ENDBRANCH   3   4
ENDBRANCH   2   3
ENDBRANCH   1   2
BRANCH   1  18
ATOM     18  C   UNL     1     181.660 182.479 184.921  1.00  0.00     0.000 C 
BRANCH  18  19
ATOM     19  C   UNL     1     180.364 182.274 185.720  1.00  0.00     0.000 C 
BRANCH  19  20
ATOM     20  C   UNL     1     179.720 183.622 186.082  1.00  0.00     0.000 C 
BRANCH  20  21
ATOM     21  C   UNL     1     178.499 183.473 187.010  1.00  0.00     0.000 C 
BRANCH  21  22
ATOM     22  C   UNL     1     177.418 184.562 186.853  1.00  0.00     0.000 C 
BRANCH  22  23
ATOM     23  C   UNL     1     177.766 185.652 185.818  1.00  0.00     0.000 C 
BRANCH  23  24
ATOM     24  C   UNL     1     176.670 185.824 184.751  1.00  0.00    -0.000 C 
BRANCH  24  25
ATOM     25  C   UNL     1     177.277 186.212 183.396  1.00  0.00    -0.000 C 
BRANCH  25  26
ATOM     26  C   UNL     1     178.773 185.860 183.294  1.00  0.00    -0.000 C 
BRANCH  26  27
ATOM     27  C   UNL     1     179.082 184.611 182.443  1.00  0.00    -0.000 C 
BRANCH  27  28
ATOM     28  C   UNL     1     177.938 184.254 181.477  1.00  0.00    -0.000 C 
BRANCH  28  29
ATOM     29  C   UNL     1     177.365 182.850 181.728  1.00  0.00    -0.000 C 
BRANCH  29  30
ATOM     30  C   UNL     1     177.797 182.270 183.087  1.00  0.00    -0.000 C 
BRANCH  30  31
ATOM     31  C   UNL     1     176.622 182.150 184.073  1.00  0.00    -0.003 C 
ATOM     32  C   UNL     1     176.738 180.937 184.997  1.00  0.00     0.004 C 
ENDBRANCH  30  31
ENDBRANCH  29  30
ENDBRANCH  28  29
ENDBRANCH  27  28
ENDBRANCH  26  27
ENDBRANCH  25  26
ENDBRANCH  24  25
ENDBRANCH  23  24
ENDBRANCH  22  23
ENDBRANCH  21  22
ENDBRANCH  20  21
ENDBRANCH  19  20
ENDBRANCH  18  19
ENDBRANCH   1  18
TORSDOF 28
ENDMDL
