MODEL 1
REMARK VINA RESULT:    -4.636      0.000      0.000
REMARK INTER + INTRA:          -8.535
REMARK INTER:                  -6.398
REMARK INTRA:                  -2.137
REMARK UNBOUND:                -2.137
REMARK SMILES CC[C@H](CC[C@@H](C)[C@@H]1CC[C@@H]2[C@H]3CC=C4C[C@H](O)CC[C@]4(C)[C@@H]3CC[C@]21C)C(C)C
REMARK SMILES IDX 5 1 4 2 3 3 2 4 1 5 28 6 29 7 30 8 6 9 7 10 8 11 9 12 26 13
REMARK SMILES IDX 10 14 11 15 25 16 27 17 12 18 24 19 23 20 13 21 21 22 14 23
REMARK SMILES IDX 15 24 20 25 22 26 16 27 19 28 17 29 18 30
REMARK H PARENT 18 31
REMARK Flexibility Score: inf
ROOT
ATOM      1  C   UNL     1     114.079  13.331 137.476  1.00  0.00     0.004 C 
ENDROOT
BRANCH   1   2
ATOM      2  C   UNL     1     114.603  12.079 138.208  1.00  0.00     0.004 C 
BRANCH   2   3
ATOM      3  C   UNL     1     116.158  11.953 138.141  1.00  0.00    -0.009 C 
BRANCH   3   4
ATOM      4  C   UNL     1     116.734  11.656 139.554  1.00  0.00     0.000 C 
ATOM      5  C   UNL     1     115.703  11.121 140.554  1.00  0.00     0.004 C 
ENDBRANCH   3   4
BRANCH   3   6
ATOM      6  C   UNL     1     116.629  10.927 137.053  1.00  0.00    -0.014 C 
ATOM      7  C   UNL     1     116.822  11.594 135.679  1.00  0.00     0.007 C 
ATOM      8  C   UNL     1     117.942  10.226 137.446  1.00  0.00     0.007 C 
ENDBRANCH   3   6
ENDBRANCH   2   3
ENDBRANCH   1   2
BRANCH   1   9
ATOM      9  C   UNL     1     115.108  14.501 137.503  1.00  0.00    -0.011 C 
ATOM     10  C   UNL     1     115.323  15.068 136.090  1.00  0.00     0.008 C 
BRANCH   9  11
ATOM     11  C   UNL     1     114.865  15.641 138.557  1.00  0.00    -0.002 C 
ATOM     12  C   UNL     1     115.231  17.063 138.052  1.00  0.00     0.005 C 
ATOM     13  C   UNL     1     115.446  15.566 140.003  1.00  0.00    -0.026 C 
ATOM     14  C   UNL     1     115.634  17.880 139.290  1.00  0.00     0.005 C 
ATOM     15  C   UNL     1     115.189  17.016 140.460  1.00  0.00    -0.001 C 
ATOM     16  C   UNL     1     114.678  14.645 140.986  1.00  0.00     0.007 C 
ATOM     17  C   UNL     1     116.957  15.191 139.989  1.00  0.00     0.012 C 
ATOM     18  C   UNL     1     115.733  17.326 141.873  1.00  0.00     0.000 C 
ATOM     19  C   UNL     1     115.132  14.875 142.446  1.00  0.00     0.005 C 
ATOM     20  C   UNL     1     115.048  16.370 142.891  1.00  0.00     0.003 C 
ATOM     21  C   UNL     1     115.393  18.763 142.289  1.00  0.00     0.031 C 
ATOM     22  C   UNL     1     115.475  16.652 144.403  1.00  0.00    -0.008 C 
ATOM     23  C   UNL     1     115.955  19.030 143.648  1.00  0.00    -0.027 C 
ATOM     24  C   UNL     1     116.044  18.076 144.600  1.00  0.00    -0.065 C 
ATOM     25  C   UNL     1     116.577  15.665 144.884  1.00  0.00     0.014 C 
ATOM     26  C   UNL     1     114.200  16.480 145.270  1.00  0.00     0.016 C 
ATOM     27  C   UNL     1     116.937  18.402 145.782  1.00  0.00     0.063 C 
ATOM     28  C   UNL     1     117.102  15.896 146.321  1.00  0.00     0.033 C 
ATOM     29  C   UNL     1     116.950  17.327 146.877  1.00  0.00     0.118 C 
BRANCH  29  30
ATOM     30  O   UNL     1     118.003  17.578 147.775  1.00  0.00    -0.393 OA
ATOM     31  H   UNL     1     118.838  17.249 147.346  1.00  0.00     0.210 HD
ENDBRANCH  29  30
ENDBRANCH   9  11
ENDBRANCH   1   9
TORSDOF 7
ENDMDL
MODEL 2
REMARK VINA RESULT:    -4.624     11.477     15.709
REMARK INTER + INTRA:          -8.517
REMARK INTER:                  -6.243
REMARK INTRA:                  -2.275
REMARK UNBOUND:                -2.137
REMARK SMILES CC[C@H](CC[C@@H](C)[C@@H]1CC[C@@H]2[C@H]3CC=C4C[C@H](O)CC[C@]4(C)[C@@H]3CC[C@]21C)C(C)C
REMARK SMILES IDX 5 1 4 2 3 3 2 4 1 5 28 6 29 7 30 8 6 9 7 10 8 11 9 12 26 13
REMARK SMILES IDX 10 14 11 15 25 16 27 17 12 18 24 19 23 20 13 21 21 22 14 23
REMARK SMILES IDX 15 24 20 25 22 26 16 27 19 28 17 29 18 30
REMARK H PARENT 18 31
REMARK Flexibility Score: inf
ROOT
ATOM      1  C   UNL     1     124.915   7.678 135.035  1.00  0.00     0.004 C 
ENDROOT
BRANCH   1   2
ATOM      2  C   UNL     1     125.468   8.956 134.372  1.00  0.00     0.004 C 
BRANCH   2   3
ATOM      3  C   UNL     1     126.014   9.982 135.413  1.00  0.00    -0.009 C 
BRANCH   3   4
ATOM      4  C   UNL     1     127.522  10.259 135.154  1.00  0.00     0.000 C 
ATOM      5  C   UNL     1     128.153  11.261 136.127  1.00  0.00     0.004 C 
ENDBRANCH   3   4
BRANCH   3   6
ATOM      6  C   UNL     1     125.148  11.288 135.478  1.00  0.00    -0.014 C 
ATOM      7  C   UNL     1     124.003  11.269 134.450  1.00  0.00     0.007 C 
ATOM      8  C   UNL     1     124.547  11.517 136.877  1.00  0.00     0.007 C 
ENDBRANCH   3   6
ENDBRANCH   2   3
ENDBRANCH   1   2
BRANCH   1   9
ATOM      9  C   UNL     1     124.683   7.864 136.565  1.00  0.00    -0.011 C 
ATOM     10  C   UNL     1     123.180   7.889 136.888  1.00  0.00     0.008 C 
BRANCH   9  11
ATOM     11  C   UNL     1     125.469   6.903 137.529  1.00  0.00    -0.002 C 
ATOM     12  C   UNL     1     124.683   6.498 138.805  1.00  0.00     0.005 C 
ATOM     13  C   UNL     1     126.909   7.236 138.032  1.00  0.00    -0.026 C 
ATOM     14  C   UNL     1     125.729   6.225 139.898  1.00  0.00     0.005 C 
ATOM     15  C   UNL     1     127.046   6.173 139.140  1.00  0.00    -0.001 C 
ATOM     16  C   UNL     1     128.050   6.973 137.016  1.00  0.00     0.007 C 
ATOM     17  C   UNL     1     126.999   8.694 138.571  1.00  0.00     0.012 C 
ATOM     18  C   UNL     1     128.371   6.270 139.930  1.00  0.00     0.000 C 
ATOM     19  C   UNL     1     129.437   7.032 137.699  1.00  0.00     0.005 C 
ATOM     20  C   UNL     1     129.556   6.090 138.938  1.00  0.00     0.003 C 
ATOM     21  C   UNL     1     128.470   5.151 140.975  1.00  0.00     0.031 C 
ATOM     22  C   UNL     1     130.982   6.092 139.656  1.00  0.00    -0.008 C 
ATOM     23  C   UNL     1     129.752   5.292 141.731  1.00  0.00    -0.027 C 
ATOM     24  C   UNL     1     130.884   5.761 141.164  1.00  0.00    -0.065 C 
ATOM     25  C   UNL     1     131.678   7.478 139.551  1.00  0.00     0.014 C 
ATOM     26  C   UNL     1     131.845   5.015 138.946  1.00  0.00     0.016 C 
ATOM     27  C   UNL     1     131.986   6.168 142.123  1.00  0.00     0.063 C 
ATOM     28  C   UNL     1     133.042   7.599 140.271  1.00  0.00     0.033 C 
ATOM     29  C   UNL     1     133.283   6.621 141.439  1.00  0.00     0.118 C 
BRANCH  29  30
ATOM     30  O   UNL     1     134.125   7.239 142.380  1.00  0.00    -0.393 OA
ATOM     31  H   UNL     1     133.540   7.729 143.019  1.00  0.00     0.210 HD
ENDBRANCH  29  30
ENDBRANCH   9  11
ENDBRANCH   1   9
TORSDOF 7
ENDMDL
MODEL 3
REMARK VINA RESULT:    -4.409     12.754     17.416
REMARK INTER + INTRA:          -8.221
REMARK INTER:                  -6.720
REMARK INTRA:                  -1.500
REMARK UNBOUND:                -2.137
REMARK SMILES CC[C@H](CC[C@@H](C)[C@@H]1CC[C@@H]2[C@H]3CC=C4C[C@H](O)CC[C@]4(C)[C@@H]3CC[C@]21C)C(C)C
REMARK SMILES IDX 5 1 4 2 3 3 2 4 1 5 28 6 29 7 30 8 6 9 7 10 8 11 9 12 26 13
REMARK SMILES IDX 10 14 11 15 25 16 27 17 12 18 24 19 23 20 13 21 21 22 14 23
REMARK SMILES IDX 15 24 20 25 22 26 16 27 19 28 17 29 18 30
REMARK H PARENT 18 31
REMARK Flexibility Score: inf
ROOT
ATOM      1  C   UNL     1     132.812   4.670 140.354  1.00  0.00     0.004 C 
ENDROOT
BRANCH   1   2
ATOM      2  C   UNL     1     132.764   5.272 141.773  1.00  0.00     0.004 C 
BRANCH   2   3
ATOM      3  C   UNL     1     133.137   6.787 141.793  1.00  0.00    -0.009 C 
BRANCH   3   4
ATOM      4  C   UNL     1     132.234   7.576 140.804  1.00  0.00     0.000 C 
ATOM      5  C   UNL     1     133.001   8.297 139.690  1.00  0.00     0.004 C 
ENDBRANCH   3   4
BRANCH   3   6
ATOM      6  C   UNL     1     133.136   7.385 143.242  1.00  0.00    -0.014 C 
ATOM      7  C   UNL     1     133.921   6.502 144.229  1.00  0.00     0.007 C 
ATOM      8  C   UNL     1     133.724   8.808 143.284  1.00  0.00     0.007 C 
ENDBRANCH   3   6
ENDBRANCH   2   3
ENDBRANCH   1   2
BRANCH   1   9
ATOM      9  C   UNL     1     131.486   3.941 139.980  1.00  0.00    -0.011 C 
ATOM     10  C   UNL     1     131.432   2.547 140.627  1.00  0.00     0.008 C 
BRANCH   9  11
ATOM     11  C   UNL     1     130.148   4.736 140.198  1.00  0.00    -0.002 C 
ATOM     12  C   UNL     1     129.130   4.024 141.130  1.00  0.00     0.005 C 
ATOM     13  C   UNL     1     129.297   5.263 139.001  1.00  0.00    -0.026 C 
ATOM     14  C   UNL     1     127.731   4.482 140.684  1.00  0.00     0.005 C 
ATOM     15  C   UNL     1     128.008   5.651 139.752  1.00  0.00    -0.001 C 
ATOM     16  C   UNL     1     129.825   6.554 138.322  1.00  0.00     0.007 C 
ATOM     17  C   UNL     1     129.070   4.153 137.933  1.00  0.00     0.012 C 
ATOM     18  C   UNL     1     126.879   6.155 138.825  1.00  0.00     0.000 C 
ATOM     19  C   UNL     1     128.768   7.163 137.371  1.00  0.00     0.005 C 
ATOM     20  C   UNL     1     127.388   7.410 138.058  1.00  0.00     0.003 C 
ATOM     21  C   UNL     1     125.649   6.579 139.638  1.00  0.00     0.031 C 
ATOM     22  C   UNL     1     126.274   8.070 137.124  1.00  0.00    -0.008 C 
ATOM     23  C   UNL     1     124.574   7.038 138.706  1.00  0.00    -0.027 C 
ATOM     24  C   UNL     1     124.840   7.671 137.542  1.00  0.00    -0.065 C 
ATOM     25  C   UNL     1     126.438   7.638 135.639  1.00  0.00     0.014 C 
ATOM     26  C   UNL     1     126.439   9.608 137.245  1.00  0.00     0.016 C 
ATOM     27  C   UNL     1     123.689   7.762 136.560  1.00  0.00     0.063 C 
ATOM     28  C   UNL     1     125.367   8.178 134.662  1.00  0.00     0.033 C 
ATOM     29  C   UNL     1     124.008   8.555 135.285  1.00  0.00     0.118 C 
BRANCH  29  30
ATOM     30  O   UNL     1     122.998   8.343 134.330  1.00  0.00    -0.393 OA
ATOM     31  H   UNL     1     123.026   7.380 134.082  1.00  0.00     0.210 HD
ENDBRANCH  29  30
ENDBRANCH   9  11
ENDBRANCH   1   9
TORSDOF 7
ENDMDL
MODEL 4
REMARK VINA RESULT:    -4.360      2.921      5.198
REMARK INTER + INTRA:          -8.153
REMARK INTER:                  -6.962
REMARK INTRA:                  -1.192
REMARK UNBOUND:                -2.137
REMARK SMILES CC[C@H](CC[C@@H](C)[C@@H]1CC[C@@H]2[C@H]3CC=C4C[C@H](O)CC[C@]4(C)[C@@H]3CC[C@]21C)C(C)C
REMARK SMILES IDX 5 1 4 2 3 3 2 4 1 5 28 6 29 7 30 8 6 9 7 10 8 11 9 12 26 13
REMARK SMILES IDX 10 14 11 15 25 16 27 17 12 18 24 19 23 20 13 21 21 22 14 23
REMARK SMILES IDX 15 24 20 25 22 26 16 27 19 28 17 29 18 30
REMARK H PARENT 18 31
REMARK Flexibility Score: inf
ROOT
ATOM      1  C   UNL     1     115.807  19.352 138.773  1.00  0.00     0.004 C 
ENDROOT
BRANCH   1   2
ATOM      2  C   UNL     1     115.428  19.014 137.317  1.00  0.00     0.004 C 
BRANCH   2   3
ATOM      3  C   UNL     1     116.678  18.772 136.414  1.00  0.00    -0.009 C 
BRANCH   3   4
ATOM      4  C   UNL     1     117.737  19.884 136.654  1.00  0.00     0.000 C 
ATOM      5  C   UNL     1     118.231  20.569 135.375  1.00  0.00     0.004 C 
ENDBRANCH   3   4
BRANCH   3   6
ATOM      6  C   UNL     1     117.257  17.323 136.569  1.00  0.00    -0.014 C 
ATOM      7  C   UNL     1     117.980  17.133 137.914  1.00  0.00     0.007 C 
ATOM      8  C   UNL     1     116.164  16.245 136.443  1.00  0.00     0.007 C 
ENDBRANCH   3   6
ENDBRANCH   2   3
ENDBRANCH   1   2
BRANCH   1   9
ATOM      9  C   UNL     1     114.993  18.512 139.803  1.00  0.00    -0.011 C 
ATOM     10  C   UNL     1     114.076  17.510 139.081  1.00  0.00     0.008 C 
BRANCH   9  11
ATOM     11  C   UNL     1     115.799  17.830 140.966  1.00  0.00    -0.002 C 
ATOM     12  C   UNL     1     116.005  16.301 140.786  1.00  0.00     0.005 C 
ATOM     13  C   UNL     1     115.398  18.009 142.463  1.00  0.00    -0.026 C 
ATOM     14  C   UNL     1     116.113  15.703 142.199  1.00  0.00     0.005 C 
ATOM     15  C   UNL     1     116.281  16.917 143.099  1.00  0.00    -0.001 C 
ATOM     16  C   UNL     1     115.814  19.354 143.111  1.00  0.00     0.007 C 
ATOM     17  C   UNL     1     113.875  17.761 142.677  1.00  0.00     0.012 C 
ATOM     18  C   UNL     1     116.070  16.757 144.621  1.00  0.00     0.000 C 
ATOM     19  C   UNL     1     115.656  19.312 144.650  1.00  0.00     0.005 C 
ATOM     20  C   UNL     1     116.401  18.111 145.314  1.00  0.00     0.003 C 
ATOM     21  C   UNL     1     117.019  15.700 145.200  1.00  0.00     0.031 C 
ATOM     22  C   UNL     1     116.294  18.044 146.905  1.00  0.00    -0.008 C 
ATOM     23  C   UNL     1     116.768  15.559 146.667  1.00  0.00    -0.027 C 
ATOM     24  C   UNL     1     116.393  16.598 147.444  1.00  0.00    -0.065 C 
ATOM     25  C   UNL     1     114.941  18.615 147.417  1.00  0.00     0.014 C 
ATOM     26  C   UNL     1     117.467  18.888 147.471  1.00  0.00     0.016 C 
ATOM     27  C   UNL     1     115.848  16.238 148.813  1.00  0.00     0.063 C 
ATOM     28  C   UNL     1     114.716  18.539 148.946  1.00  0.00     0.033 C 
ATOM     29  C   UNL     1     115.507  17.447 149.694  1.00  0.00     0.118 C 
BRANCH  29  30
ATOM     30  O   UNL     1     114.756  17.026 150.806  1.00  0.00    -0.393 OA
ATOM     31  H   UNL     1     113.915  17.557 150.809  1.00  0.00     0.210 HD
ENDBRANCH  29  30
ENDBRANCH   9  11
ENDBRANCH   1   9
TORSDOF 7
ENDMDL
MODEL 5
REMARK VINA RESULT:    -4.249     11.743     16.546
REMARK INTER + INTRA:          -8.001
REMARK INTER:                  -6.105
REMARK INTRA:                  -1.896
REMARK UNBOUND:                -2.137
REMARK SMILES CC[C@H](CC[C@@H](C)[C@@H]1CC[C@@H]2[C@H]3CC=C4C[C@H](O)CC[C@]4(C)[C@@H]3CC[C@]21C)C(C)C
REMARK SMILES IDX 5 1 4 2 3 3 2 4 1 5 28 6 29 7 30 8 6 9 7 10 8 11 9 12 26 13
REMARK SMILES IDX 10 14 11 15 25 16 27 17 12 18 24 19 23 20 13 21 21 22 14 23
REMARK SMILES IDX 15 24 20 25 22 26 16 27 19 28 17 29 18 30
REMARK H PARENT 18 31
REMARK Flexibility Score: inf
ROOT
ATOM      1  C   UNL     1     131.067   3.725 139.562  1.00  0.00     0.004 C 
ENDROOT
BRANCH   1   2
ATOM      2  C   UNL     1     131.108   4.269 141.005  1.00  0.00     0.004 C 
BRANCH   2   3
ATOM      3  C   UNL     1     130.574   5.732 141.108  1.00  0.00    -0.009 C 
BRANCH   3   4
ATOM      4  C   UNL     1     129.261   5.766 141.938  1.00  0.00     0.000 C 
ATOM      5  C   UNL     1     128.515   4.428 141.992  1.00  0.00     0.004 C 
ENDBRANCH   3   4
BRANCH   3   6
ATOM      6  C   UNL     1     131.663   6.731 141.631  1.00  0.00    -0.014 C 
ATOM      7  C   UNL     1     132.814   6.004 142.349  1.00  0.00     0.007 C 
ATOM      8  C   UNL     1     132.256   7.589 140.498  1.00  0.00     0.007 C 
ENDBRANCH   3   6
ENDBRANCH   2   3
ENDBRANCH   1   2
BRANCH   1   9
ATOM      9  C   UNL     1     130.999   4.867 138.505  1.00  0.00    -0.011 C 
ATOM     10  C   UNL     1     132.274   4.887 137.644  1.00  0.00     0.008 C 
BRANCH   9  11
ATOM     11  C   UNL     1     129.701   4.950 137.624  1.00  0.00    -0.002 C 
ATOM     12  C   UNL     1     129.863   4.364 136.195  1.00  0.00     0.005 C 
ATOM     13  C   UNL     1     128.923   6.287 137.425  1.00  0.00    -0.026 C 
ATOM     14  C   UNL     1     128.876   5.124 135.293  1.00  0.00     0.005 C 
ATOM     15  C   UNL     1     127.985   5.871 136.274  1.00  0.00    -0.001 C 
ATOM     16  C   UNL     1     128.016   6.716 138.607  1.00  0.00     0.007 C 
ATOM     17  C   UNL     1     129.883   7.451 137.038  1.00  0.00     0.012 C 
ATOM     18  C   UNL     1     127.096   7.022 135.752  1.00  0.00     0.000 C 
ATOM     19  C   UNL     1     127.063   7.865 138.198  1.00  0.00     0.005 C 
ATOM     20  C   UNL     1     126.218   7.543 136.926  1.00  0.00     0.003 C 
ATOM     21  C   UNL     1     126.148   6.528 134.651  1.00  0.00     0.031 C 
ATOM     22  C   UNL     1     125.195   8.687 136.485  1.00  0.00    -0.008 C 
ATOM     23  C   UNL     1     125.323   7.673 134.159  1.00  0.00    -0.027 C 
ATOM     24  C   UNL     1     124.924   8.682 134.963  1.00  0.00    -0.065 C 
ATOM     25  C   UNL     1     125.730  10.105 136.835  1.00  0.00     0.014 C 
ATOM     26  C   UNL     1     123.869   8.423 137.247  1.00  0.00     0.016 C 
ATOM     27  C   UNL     1     124.400   9.921 134.261  1.00  0.00     0.063 C 
ATOM     28  C   UNL     1     124.835  11.287 136.392  1.00  0.00     0.033 C 
ATOM     29  C   UNL     1     123.884  11.012 135.209  1.00  0.00     0.118 C 
BRANCH  29  30
ATOM     30  O   UNL     1     123.694  12.209 134.495  1.00  0.00    -0.393 OA
ATOM     31  H   UNL     1     122.712  12.334 134.390  1.00  0.00     0.210 HD
ENDBRANCH  29  30
ENDBRANCH   9  11
ENDBRANCH   1   9
TORSDOF 7
ENDMDL
MODEL 6
REMARK VINA RESULT:    -4.214     11.608     15.316
REMARK INTER + INTRA:          -7.952
REMARK INTER:                  -6.332
REMARK INTRA:                  -1.620
REMARK UNBOUND:                -2.137
REMARK SMILES CC[C@H](CC[C@@H](C)[C@@H]1CC[C@@H]2[C@H]3CC=C4C[C@H](O)CC[C@]4(C)[C@@H]3CC[C@]21C)C(C)C
REMARK SMILES IDX 5 1 4 2 3 3 2 4 1 5 28 6 29 7 30 8 6 9 7 10 8 11 9 12 26 13
REMARK SMILES IDX 10 14 11 15 25 16 27 17 12 18 24 19 23 20 13 21 21 22 14 23
REMARK SMILES IDX 15 24 20 25 22 26 16 27 19 28 17 29 18 30
REMARK H PARENT 18 31
REMARK Flexibility Score: inf
ROOT
ATOM      1  C   UNL     1     120.989   4.377 138.134  1.00  0.00     0.004 C 
ENDROOT
BRANCH   1   2
ATOM      2  C   UNL     1     121.236   3.478 139.362  1.00  0.00     0.004 C 
BRANCH   2   3
ATOM      3  C   UNL     1     120.954   4.215 140.709  1.00  0.00    -0.009 C 
BRANCH   3   4
ATOM      4  C   UNL     1     119.463   4.042 141.113  1.00  0.00     0.000 C 
ATOM      5  C   UNL     1     118.604   5.293 140.897  1.00  0.00     0.004 C 
ENDBRANCH   3   4
BRANCH   3   6
ATOM      6  C   UNL     1     121.953   3.795 141.842  1.00  0.00    -0.014 C 
ATOM      7  C   UNL     1     121.409   4.130 143.242  1.00  0.00     0.007 C 
ATOM      8  C   UNL     1     122.289   2.293 141.793  1.00  0.00     0.007 C 
ENDBRANCH   3   6
ENDBRANCH   2   3
ENDBRANCH   1   2
BRANCH   1   9
ATOM      9  C   UNL     1     122.314   4.749 137.402  1.00  0.00    -0.011 C 
ATOM     10  C   UNL     1     122.020   5.493 136.089  1.00  0.00     0.008 C 
BRANCH   9  11
ATOM     11  C   UNL     1     123.418   5.478 138.250  1.00  0.00    -0.002 C 
ATOM     12  C   UNL     1     123.694   6.942 137.811  1.00  0.00     0.005 C 
ATOM     13  C   UNL     1     124.830   4.854 138.478  1.00  0.00    -0.026 C 
ATOM     14  C   UNL     1     125.159   7.240 138.168  1.00  0.00     0.005 C 
ATOM     15  C   UNL     1     125.562   6.078 139.064  1.00  0.00    -0.001 C 
ATOM     16  C   UNL     1     124.902   3.736 139.550  1.00  0.00     0.007 C 
ATOM     17  C   UNL     1     125.453   4.354 137.142  1.00  0.00     0.012 C 
ATOM     18  C   UNL     1     127.061   5.830 139.342  1.00  0.00     0.000 C 
ATOM     19  C   UNL     1     126.367   3.405 139.922  1.00  0.00     0.005 C 
ATOM     20  C   UNL     1     127.191   4.658 140.357  1.00  0.00     0.003 C 
ATOM     21  C   UNL     1     127.714   7.064 139.977  1.00  0.00     0.031 C 
ATOM     22  C   UNL     1     128.700   4.361 140.784  1.00  0.00    -0.008 C 
ATOM     23  C   UNL     1     129.166   6.792 140.209  1.00  0.00    -0.027 C 
ATOM     24  C   UNL     1     129.635   5.566 140.527  1.00  0.00    -0.065 C 
ATOM     25  C   UNL     1     129.297   3.162 139.993  1.00  0.00     0.014 C 
ATOM     26  C   UNL     1     128.683   4.034 142.301  1.00  0.00     0.016 C 
ATOM     27  C   UNL     1     131.133   5.374 140.392  1.00  0.00     0.063 C 
ATOM     28  C   UNL     1     130.779   2.833 140.293  1.00  0.00     0.033 C 
ATOM     29  C   UNL     1     131.636   3.995 140.837  1.00  0.00     0.118 C 
BRANCH  29  30
ATOM     30  O   UNL     1     132.964   3.815 140.412  1.00  0.00    -0.393 OA
ATOM     31  H   UNL     1     133.279   2.951 140.793  1.00  0.00     0.210 HD
ENDBRANCH  29  30
ENDBRANCH   9  11
ENDBRANCH   1   9
TORSDOF 7
ENDMDL
MODEL 7
REMARK VINA RESULT:    -4.145      3.107      8.114
REMARK INTER + INTRA:          -7.857
REMARK INTER:                  -6.413
REMARK INTRA:                  -1.444
REMARK UNBOUND:                -2.137
REMARK SMILES CC[C@H](CC[C@@H](C)[C@@H]1CC[C@@H]2[C@H]3CC=C4C[C@H](O)CC[C@]4(C)[C@@H]3CC[C@]21C)C(C)C
REMARK SMILES IDX 5 1 4 2 3 3 2 4 1 5 28 6 29 7 30 8 6 9 7 10 8 11 9 12 26 13
REMARK SMILES IDX 10 14 11 15 25 16 27 17 12 18 24 19 23 20 13 21 21 22 14 23
REMARK SMILES IDX 15 24 20 25 22 26 16 27 19 28 17 29 18 30
REMARK H PARENT 18 31
REMARK Flexibility Score: inf
ROOT
ATOM      1  C   UNL     1     116.509  17.911 143.654  1.00  0.00     0.004 C 
ENDROOT
BRANCH   1   2
ATOM      2  C   UNL     1     116.911  16.495 144.116  1.00  0.00     0.004 C 
BRANCH   2   3
ATOM      3  C   UNL     1     116.663  16.270 145.641  1.00  0.00    -0.009 C 
BRANCH   3   4
ATOM      4  C   UNL     1     116.646  17.632 146.389  1.00  0.00     0.000 C 
ATOM      5  C   UNL     1     117.324  17.603 147.763  1.00  0.00     0.004 C 
ENDBRANCH   3   4
BRANCH   3   6
ATOM      6  C   UNL     1     115.391  15.396 145.917  1.00  0.00    -0.014 C 
ATOM      7  C   UNL     1     114.788  14.830 144.619  1.00  0.00     0.007 C 
ATOM      8  C   UNL     1     115.688  14.223 146.871  1.00  0.00     0.007 C 
ENDBRANCH   3   6
ENDBRANCH   2   3
ENDBRANCH   1   2
BRANCH   1   9
ATOM      9  C   UNL     1     115.539  17.877 142.435  1.00  0.00    -0.011 C 
ATOM     10  C   UNL     1     114.904  19.259 142.208  1.00  0.00     0.008 C 
BRANCH   9  11
ATOM     11  C   UNL     1     116.093  17.265 141.098  1.00  0.00    -0.002 C 
ATOM     12  C   UNL     1     116.064  18.241 139.891  1.00  0.00     0.005 C 
ATOM     13  C   UNL     1     115.568  15.909 140.532  1.00  0.00    -0.026 C 
ATOM     14  C   UNL     1     115.920  17.376 138.628  1.00  0.00     0.005 C 
ATOM     15  C   UNL     1     116.188  15.962 139.121  1.00  0.00    -0.001 C 
ATOM     16  C   UNL     1     116.128  14.636 141.217  1.00  0.00     0.007 C 
ATOM     17  C   UNL     1     114.012  15.866 140.512  1.00  0.00     0.012 C 
ATOM     18  C   UNL     1     115.791  14.767 138.224  1.00  0.00     0.000 C 
ATOM     19  C   UNL     1     115.801  13.365 140.399  1.00  0.00     0.005 C 
ATOM     20  C   UNL     1     116.263  13.453 138.910  1.00  0.00     0.003 C 
ATOM     21  C   UNL     1     116.486  14.850 136.859  1.00  0.00     0.031 C 
ATOM     22  C   UNL     1     115.976  12.150 138.034  1.00  0.00    -0.008 C 
ATOM     23  C   UNL     1     116.059  13.692 136.016  1.00  0.00    -0.027 C 
ATOM     24  C   UNL     1     115.778  12.478 136.536  1.00  0.00    -0.065 C 
ATOM     25  C   UNL     1     114.688  11.413 138.499  1.00  0.00     0.014 C 
ATOM     26  C   UNL     1     117.205  11.216 138.201  1.00  0.00     0.016 C 
ATOM     27  C   UNL     1     115.039  11.521 135.620  1.00  0.00     0.063 C 
ATOM     28  C   UNL     1     114.291  10.168 137.671  1.00  0.00     0.033 C 
ATOM     29  C   UNL     1     114.808  10.127 136.218  1.00  0.00     0.118 C 
BRANCH  29  30
ATOM     30  O   UNL     1     113.884   9.419 135.430  1.00  0.00    -0.393 OA
ATOM     31  H   UNL     1     113.253  10.087 135.048  1.00  0.00     0.210 HD
ENDBRANCH  29  30
ENDBRANCH   9  11
ENDBRANCH   1   9
TORSDOF 7
ENDMDL
MODEL 8
REMARK VINA RESULT:    -4.141     12.075     16.375
REMARK INTER + INTRA:          -7.851
REMARK INTER:                  -5.954
REMARK INTRA:                  -1.898
REMARK UNBOUND:                -2.137
REMARK SMILES CC[C@H](CC[C@@H](C)[C@@H]1CC[C@@H]2[C@H]3CC=C4C[C@H](O)CC[C@]4(C)[C@@H]3CC[C@]21C)C(C)C
REMARK SMILES IDX 5 1 4 2 3 3 2 4 1 5 28 6 29 7 30 8 6 9 7 10 8 11 9 12 26 13
REMARK SMILES IDX 10 14 11 15 25 16 27 17 12 18 24 19 23 20 13 21 21 22 14 23
REMARK SMILES IDX 15 24 20 25 22 26 16 27 19 28 17 29 18 30
REMARK H PARENT 18 31
REMARK Flexibility Score: inf
ROOT
ATOM      1  C   UNL     1     123.904   7.478 137.905  1.00  0.00     0.004 C 
ENDROOT
BRANCH   1   2
ATOM      2  C   UNL     1     124.084   8.194 136.551  1.00  0.00     0.004 C 
BRANCH   2   3
ATOM      3  C   UNL     1     125.377   9.067 136.503  1.00  0.00    -0.009 C 
BRANCH   3   4
ATOM      4  C   UNL     1     126.153   8.803 135.183  1.00  0.00     0.000 C 
ATOM      5  C   UNL     1     127.491   8.079 135.373  1.00  0.00     0.004 C 
ENDBRANCH   3   4
BRANCH   3   6
ATOM      6  C   UNL     1     125.084  10.586 136.755  1.00  0.00    -0.014 C 
ATOM      7  C   UNL     1     126.349  11.354 137.177  1.00  0.00     0.007 C 
ATOM      8  C   UNL     1     124.484  11.275 135.515  1.00  0.00     0.007 C 
ENDBRANCH   3   6
ENDBRANCH   2   3
ENDBRANCH   1   2
BRANCH   1   9
ATOM      9  C   UNL     1     124.313   5.976 137.834  1.00  0.00    -0.011 C 
ATOM     10  C   UNL     1     123.391   5.207 136.873  1.00  0.00     0.008 C 
BRANCH   9  11
ATOM     11  C   UNL     1     125.828   5.660 137.563  1.00  0.00    -0.002 C 
ATOM     12  C   UNL     1     126.082   4.279 136.901  1.00  0.00     0.005 C 
ATOM     13  C   UNL     1     126.907   5.773 138.684  1.00  0.00    -0.026 C 
ATOM     14  C   UNL     1     127.479   3.823 137.354  1.00  0.00     0.005 C 
ATOM     15  C   UNL     1     128.085   5.070 137.981  1.00  0.00    -0.001 C 
ATOM     16  C   UNL     1     127.380   7.212 139.016  1.00  0.00     0.007 C 
ATOM     17  C   UNL     1     126.454   5.047 139.985  1.00  0.00     0.012 C 
ATOM     18  C   UNL     1     129.342   4.928 138.868  1.00  0.00     0.000 C 
ATOM     19  C   UNL     1     128.651   7.199 139.898  1.00  0.00     0.005 C 
ATOM     20  C   UNL     1     129.812   6.349 139.294  1.00  0.00     0.003 C 
ATOM     21  C   UNL     1     130.492   4.276 138.091  1.00  0.00     0.031 C 
ATOM     22  C   UNL     1     131.158   6.333 140.154  1.00  0.00    -0.008 C 
ATOM     23  C   UNL     1     131.680   4.136 138.989  1.00  0.00    -0.027 C 
ATOM     24  C   UNL     1     131.968   5.031 139.958  1.00  0.00    -0.065 C 
ATOM     25  C   UNL     1     130.869   6.450 141.678  1.00  0.00     0.014 C 
ATOM     26  C   UNL     1     132.005   7.546 139.685  1.00  0.00     0.016 C 
ATOM     27  C   UNL     1     132.983   4.583 140.992  1.00  0.00     0.063 C 
ATOM     28  C   UNL     1     132.109   6.382 142.602  1.00  0.00     0.033 C 
ATOM     29  C   UNL     1     133.343   5.654 142.030  1.00  0.00     0.118 C 
BRANCH  29  30
ATOM     30  O   UNL     1     134.053   5.067 143.092  1.00  0.00    -0.393 OA
ATOM     31  H   UNL     1     133.490   5.157 143.907  1.00  0.00     0.210 HD
ENDBRANCH  29  30
ENDBRANCH   9  11
ENDBRANCH   1   9
TORSDOF 7
ENDMDL
MODEL 9
REMARK VINA RESULT:    -4.136     11.491     16.131
REMARK INTER + INTRA:          -7.844
REMARK INTER:                  -5.473
REMARK INTRA:                  -2.372
REMARK UNBOUND:                -2.137
REMARK SMILES CC[C@H](CC[C@@H](C)[C@@H]1CC[C@@H]2[C@H]3CC=C4C[C@H](O)CC[C@]4(C)[C@@H]3CC[C@]21C)C(C)C
REMARK SMILES IDX 5 1 4 2 3 3 2 4 1 5 28 6 29 7 30 8 6 9 7 10 8 11 9 12 26 13
REMARK SMILES IDX 10 14 11 15 25 16 27 17 12 18 24 19 23 20 13 21 21 22 14 23
REMARK SMILES IDX 15 24 20 25 22 26 16 27 19 28 17 29 18 30
REMARK H PARENT 18 31
REMARK Flexibility Score: inf
ROOT
ATOM      1  C   UNL     1     129.137   2.726 140.073  1.00  0.00     0.004 C 
ENDROOT
BRANCH   1   2
ATOM      2  C   UNL     1     129.840   3.127 138.760  1.00  0.00     0.004 C 
BRANCH   2   3
ATOM      3  C   UNL     1     131.303   3.618 138.990  1.00  0.00    -0.009 C 
BRANCH   3   4
ATOM      4  C   UNL     1     131.484   5.053 138.423  1.00  0.00     0.000 C 
ATOM      5  C   UNL     1     130.644   5.347 137.175  1.00  0.00     0.004 C 
ENDBRANCH   3   4
BRANCH   3   6
ATOM      6  C   UNL     1     131.751   3.483 140.487  1.00  0.00    -0.014 C 
ATOM      7  C   UNL     1     132.998   2.595 140.637  1.00  0.00     0.007 C 
ATOM      8  C   UNL     1     132.044   4.852 141.130  1.00  0.00     0.007 C 
ENDBRANCH   3   6
ENDBRANCH   2   3
ENDBRANCH   1   2
BRANCH   1   9
ATOM      9  C   UNL     1     128.218   3.861 140.617  1.00  0.00    -0.011 C 
ATOM     10  C   UNL     1     128.471   4.092 142.117  1.00  0.00     0.008 C 
BRANCH   9  11
ATOM     11  C   UNL     1     128.200   5.212 139.816  1.00  0.00    -0.002 C 
ATOM     12  C   UNL     1     128.591   6.457 140.657  1.00  0.00     0.005 C 
ATOM     13  C   UNL     1     126.958   5.662 138.985  1.00  0.00    -0.026 C 
ATOM     14  C   UNL     1     127.863   7.658 140.031  1.00  0.00     0.005 C 
ATOM     15  C   UNL     1     127.353   7.124 138.701  1.00  0.00    -0.001 C 
ATOM     16  C   UNL     1     126.787   4.970 137.608  1.00  0.00     0.007 C 
ATOM     17  C   UNL     1     125.645   5.536 139.813  1.00  0.00     0.012 C 
ATOM     18  C   UNL     1     126.272   7.922 137.937  1.00  0.00     0.000 C 
ATOM     19  C   UNL     1     125.729   5.693 136.741  1.00  0.00     0.005 C 
ATOM     20  C   UNL     1     126.006   7.220 136.575  1.00  0.00     0.003 C 
ATOM     21  C   UNL     1     126.752   9.347 137.636  1.00  0.00     0.031 C 
ATOM     22  C   UNL     1     124.958   8.003 135.659  1.00  0.00    -0.008 C 
ATOM     23  C   UNL     1     125.672  10.091 136.918  1.00  0.00    -0.027 C 
ATOM     24  C   UNL     1     124.821   9.490 136.058  1.00  0.00    -0.065 C 
ATOM     25  C   UNL     1     123.534   7.385 135.756  1.00  0.00     0.014 C 
ATOM     26  C   UNL     1     125.475   7.904 134.199  1.00  0.00     0.016 C 
ATOM     27  C   UNL     1     123.586  10.287 135.682  1.00  0.00     0.063 C 
ATOM     28  C   UNL     1     122.432   8.113 134.950  1.00  0.00     0.033 C 
ATOM     29  C   UNL     1     122.686   9.603 134.644  1.00  0.00     0.118 C 
BRANCH  29  30
ATOM     30  O   UNL     1     121.450  10.269 134.578  1.00  0.00    -0.393 OA
ATOM     31  H   UNL     1     120.833   9.805 135.206  1.00  0.00     0.210 HD
ENDBRANCH  29  30
ENDBRANCH   9  11
ENDBRANCH   1   9
TORSDOF 7
ENDMDL
