MODEL 1
REMARK VINA RESULT:    -5.367      0.000      0.000
REMARK INTER + INTRA:          -5.681
REMARK INTER:                  -5.681
REMARK INTRA:                   0.000
REMARK UNBOUND:                 0.000
REMARK SMILES Cc1cc(O)c(C)c(C)c1O
REMARK SMILES IDX 1 1 2 2 3 3 4 4 6 5 8 6 10 7 9 8 7 9 11 10 5 12
REMARK H PARENT 11 11 5 13
REMARK Flexibility Score: inf
ROOT
ATOM      1  C   UNL     1      10.268   4.453  79.570  1.00  0.00     0.048 C 
ATOM      2  C   UNL     1       9.464   5.725  79.609  1.00  0.00    -0.005 A 
ATOM      3  C   UNL     1      10.084   6.935  79.276  1.00  0.00     0.053 A 
ATOM      4  C   UNL     1       9.382   8.138  79.309  1.00  0.00     0.119 A 
ATOM      5  C   UNL     1       8.025   8.159  79.707  1.00  0.00    -0.003 A 
ATOM      6  C   UNL     1       7.365   6.929  79.985  1.00  0.00    -0.002 A 
ATOM      7  C   UNL     1       8.098   5.719  79.961  1.00  0.00     0.121 A 
ATOM      8  C   UNL     1       5.894   6.900  80.335  1.00  0.00     0.049 C 
ATOM      9  C   UNL     1       7.300   9.483  79.795  1.00  0.00     0.049 C 
ENDROOT
BRANCH   7  10
ATOM     10  O   UNL     1       7.450   4.523  80.290  1.00  0.00    -0.507 OA
ATOM     11  H   UNL     1       6.917   4.390  81.140  1.00  0.00     0.293 HD
ENDBRANCH   7  10
BRANCH   4  12
ATOM     12  O   UNL     1      10.067   9.297  78.933  1.00  0.00    -0.508 OA
ATOM     13  H   UNL     1      10.991   9.535  79.268  1.00  0.00     0.293 HD
ENDBRANCH   4  12
TORSDOF 2
ENDMDL
MODEL 2
REMARK VINA RESULT:    -5.346      0.492      4.378
REMARK INTER + INTRA:          -5.658
REMARK INTER:                  -5.658
REMARK INTRA:                   0.000
REMARK UNBOUND:                 0.000
REMARK SMILES Cc1cc(O)c(C)c(C)c1O
REMARK SMILES IDX 1 1 2 2 3 3 4 4 6 5 8 6 10 7 9 8 7 9 11 10 5 12
REMARK H PARENT 11 11 5 13
REMARK Flexibility Score: inf
ROOT
ATOM      1  C   UNL     1       6.944   9.434  79.721  1.00  0.00     0.048 C 
ATOM      2  C   UNL     1       7.749   8.161  79.702  1.00  0.00    -0.005 A 
ATOM      3  C   UNL     1       7.104   6.942  79.932  1.00  0.00     0.053 A 
ATOM      4  C   UNL     1       7.811   5.741  79.934  1.00  0.00     0.119 A 
ATOM      5  C   UNL     1       9.210   5.739  79.725  1.00  0.00    -0.003 A 
ATOM      6  C   UNL     1       9.868   6.965  79.426  1.00  0.00    -0.002 A 
ATOM      7  C   UNL     1       9.136   8.175  79.443  1.00  0.00     0.121 A 
ATOM      8  C   UNL     1      11.348   6.995  79.116  1.00  0.00     0.049 C 
ATOM      9  C   UNL     1       9.967   4.431  79.794  1.00  0.00     0.049 C 
ENDROOT
BRANCH   7  10
ATOM     10  O   UNL     1       9.806   9.380  79.200  1.00  0.00    -0.507 OA
ATOM     11  H   UNL     1      10.753   9.433  78.848  1.00  0.00     0.293 HD
ENDBRANCH   7  10
BRANCH   4  12
ATOM     12  O   UNL     1       7.087   4.563  80.143  1.00  0.00    -0.508 OA
ATOM     13  H   UNL     1       6.480   4.413  80.938  1.00  0.00     0.293 HD
ENDBRANCH   4  12
TORSDOF 2
ENDMDL
MODEL 3
REMARK VINA RESULT:    -5.167      1.833      3.496
REMARK INTER + INTRA:          -5.469
REMARK INTER:                  -5.469
REMARK INTRA:                   0.000
REMARK UNBOUND:                 0.000
REMARK SMILES Cc1cc(O)c(C)c(C)c1O
REMARK SMILES IDX 1 1 2 2 3 3 4 4 6 5 8 6 10 7 9 8 7 9 11 10 5 12
REMARK H PARENT 11 11 5 13
REMARK Flexibility Score: inf
ROOT
ATOM      1  C   UNL     1       9.780  10.774  79.626  1.00  0.00     0.048 C 
ATOM      2  C   UNL     1       9.204   9.387  79.737  1.00  0.00    -0.005 A 
ATOM      3  C   UNL     1       9.999   8.288  79.396  1.00  0.00     0.053 A 
ATOM      4  C   UNL     1       9.504   6.988  79.473  1.00  0.00     0.119 A 
ATOM      5  C   UNL     1       8.168   6.758  79.877  1.00  0.00    -0.003 A 
ATOM      6  C   UNL     1       7.369   7.862  80.287  1.00  0.00    -0.002 A 
ATOM      7  C   UNL     1       7.884   9.176  80.189  1.00  0.00     0.121 A 
ATOM      8  C   UNL     1       5.963   7.652  80.802  1.00  0.00     0.049 C 
ATOM      9  C   UNL     1       7.632   5.344  79.893  1.00  0.00     0.049 C 
ENDROOT
BRANCH   7  10
ATOM     10  O   UNL     1       7.069  10.256  80.544  1.00  0.00    -0.507 OA
ATOM     11  H   UNL     1       6.759  10.963  79.889  1.00  0.00     0.293 HD
ENDBRANCH   7  10
BRANCH   4  12
ATOM     12  O   UNL     1      10.373   5.944  79.144  1.00  0.00    -0.508 OA
ATOM     13  H   UNL     1      10.526   5.618  78.199  1.00  0.00     0.293 HD
ENDBRANCH   4  12
TORSDOF 2
ENDMDL
MODEL 4
REMARK VINA RESULT:    -5.051      1.443      3.038
REMARK INTER + INTRA:          -5.346
REMARK INTER:                  -5.346
REMARK INTRA:                   0.000
REMARK UNBOUND:                 0.000
REMARK SMILES Cc1cc(O)c(C)c(C)c1O
REMARK SMILES IDX 1 1 2 2 3 3 4 4 6 5 8 6 10 7 9 8 7 9 11 10 5 12
REMARK H PARENT 11 11 5 13
REMARK Flexibility Score: inf
ROOT
ATOM      1  C   UNL     1       9.595   4.818  79.274  1.00  0.00     0.048 C 
ATOM      2  C   UNL     1       8.929   6.130  79.592  1.00  0.00    -0.005 A 
ATOM      3  C   UNL     1       7.607   6.132  80.050  1.00  0.00     0.053 A 
ATOM      4  C   UNL     1       6.948   7.324  80.346  1.00  0.00     0.119 A 
ATOM      5  C   UNL     1       7.604   8.564  80.163  1.00  0.00    -0.003 A 
ATOM      6  C   UNL     1       8.969   8.573  79.760  1.00  0.00    -0.002 A 
ATOM      7  C   UNL     1       9.616   7.355  79.450  1.00  0.00     0.121 A 
ATOM      8  C   UNL     1       9.730   9.873  79.631  1.00  0.00     0.049 C 
ATOM      9  C   UNL     1       6.849   9.846  80.431  1.00  0.00     0.049 C 
ENDROOT
BRANCH   7  10
ATOM     10  O   UNL     1      10.942   7.381  79.002  1.00  0.00    -0.507 OA
ATOM     11  H   UNL     1      11.248   7.903  78.190  1.00  0.00     0.293 HD
ENDBRANCH   7  10
BRANCH   4  12
ATOM     12  O   UNL     1       5.639   7.236  80.828  1.00  0.00    -0.508 OA
ATOM     13  H   UNL     1       4.876   6.827  80.305  1.00  0.00     0.293 HD
ENDBRANCH   4  12
TORSDOF 2
ENDMDL
MODEL 5
REMARK VINA RESULT:    -4.851      1.548      3.902
REMARK INTER + INTRA:          -5.134
REMARK INTER:                  -5.134
REMARK INTRA:                   0.000
REMARK UNBOUND:                 0.000
REMARK SMILES Cc1cc(O)c(C)c(C)c1O
REMARK SMILES IDX 1 1 2 2 3 3 4 4 6 5 8 6 10 7 9 8 7 9 11 10 5 12
REMARK H PARENT 11 11 5 13
REMARK Flexibility Score: inf
ROOT
ATOM      1  C   UNL     1       5.533   7.491  80.843  1.00  0.00     0.048 C 
ATOM      2  C   UNL     1       6.964   7.419  80.381  1.00  0.00    -0.005 A 
ATOM      3  C   UNL     1       7.479   6.194  79.942  1.00  0.00     0.053 A 
ATOM      4  C   UNL     1       8.801   6.078  79.515  1.00  0.00     0.119 A 
ATOM      5  C   UNL     1       9.658   7.204  79.542  1.00  0.00    -0.003 A 
ATOM      6  C   UNL     1       9.129   8.468  79.924  1.00  0.00    -0.002 A 
ATOM      7  C   UNL     1       7.790   8.563  80.368  1.00  0.00     0.121 A 
ATOM      8  C   UNL     1       9.990   9.711  79.889  1.00  0.00     0.049 C 
ATOM      9  C   UNL     1      11.105   7.041  79.133  1.00  0.00     0.049 C 
ENDROOT
BRANCH   7  10
ATOM     10  O   UNL     1       7.298   9.803  80.793  1.00  0.00    -0.507 OA
ATOM     11  H   UNL     1       7.610  10.688  80.414  1.00  0.00     0.293 HD
ENDBRANCH   7  10
BRANCH   4  12
ATOM     12  O   UNL     1       9.228   4.826  79.065  1.00  0.00    -0.508 OA
ATOM     13  H   UNL     1       9.595   4.660  78.137  1.00  0.00     0.293 HD
ENDBRANCH   4  12
TORSDOF 2
ENDMDL
MODEL 6
REMARK VINA RESULT:    -4.815      9.072     11.000
REMARK INTER + INTRA:          -5.097
REMARK INTER:                  -5.097
REMARK INTRA:                   0.000
REMARK UNBOUND:                 0.000
REMARK SMILES Cc1cc(O)c(C)c(C)c1O
REMARK SMILES IDX 1 1 2 2 3 3 4 4 6 5 8 6 10 7 9 8 7 9 11 10 5 12
REMARK H PARENT 11 11 5 13
REMARK Flexibility Score: inf
ROOT
ATOM      1  C   UNL     1       1.209   6.736  85.637  1.00  0.00     0.048 C 
ATOM      2  C   UNL     1       1.542   5.458  86.360  1.00  0.00    -0.005 A 
ATOM      3  C   UNL     1       2.598   4.666  85.895  1.00  0.00     0.053 A 
ATOM      4  C   UNL     1       2.934   3.470  86.526  1.00  0.00     0.119 A 
ATOM      5  C   UNL     1       2.190   3.021  87.642  1.00  0.00    -0.003 A 
ATOM      6  C   UNL     1       1.156   3.848  88.164  1.00  0.00    -0.002 A 
ATOM      7  C   UNL     1       0.819   5.051  87.501  1.00  0.00     0.121 A 
ATOM      8  C   UNL     1       0.391   3.443  89.404  1.00  0.00     0.049 C 
ATOM      9  C   UNL     1       2.533   1.689  88.273  1.00  0.00     0.049 C 
ENDROOT
BRANCH   7  10
ATOM     10  O   UNL     1      -0.236   5.828  87.993  1.00  0.00    -0.507 OA
ATOM     11  H   UNL     1      -0.117   6.561  88.682  1.00  0.00     0.293 HD
ENDBRANCH   7  10
BRANCH   4  12
ATOM     12  O   UNL     1       4.021   2.753  86.017  1.00  0.00    -0.508 OA
ATOM     13  H   UNL     1       4.970   2.864  86.349  1.00  0.00     0.293 HD
ENDBRANCH   4  12
TORSDOF 2
ENDMDL
MODEL 7
REMARK VINA RESULT:    -4.771      9.332     11.192
REMARK INTER + INTRA:          -5.050
REMARK INTER:                  -5.050
REMARK INTRA:                   0.000
REMARK UNBOUND:                 0.000
REMARK SMILES Cc1cc(O)c(C)c(C)c1O
REMARK SMILES IDX 1 1 2 2 3 3 4 4 6 5 8 6 10 7 9 8 7 9 11 10 5 12
REMARK H PARENT 11 11 5 13
REMARK Flexibility Score: inf
ROOT
ATOM      1  C   UNL     1       1.301   1.476  89.795  1.00  0.00     0.048 C 
ATOM      2  C   UNL     1       1.600   2.475  88.709  1.00  0.00    -0.005 A 
ATOM      3  C   UNL     1       2.621   2.202  87.792  1.00  0.00     0.053 A 
ATOM      4  C   UNL     1       2.939   3.103  86.778  1.00  0.00     0.119 A 
ATOM      5  C   UNL     1       2.245   4.331  86.674  1.00  0.00    -0.003 A 
ATOM      6  C   UNL     1       1.163   4.592  87.560  1.00  0.00    -0.002 A 
ATOM      7  C   UNL     1       0.864   3.673  88.592  1.00  0.00     0.121 A 
ATOM      8  C   UNL     1       0.343   5.857  87.431  1.00  0.00     0.049 C 
ATOM      9  C   UNL     1       2.649   5.321  85.604  1.00  0.00     0.049 C 
ENDROOT
BRANCH   7  10
ATOM     10  O   UNL     1      -0.169   3.967  89.491  1.00  0.00    -0.507 OA
ATOM     11  H   UNL     1      -0.059   3.943  90.496  1.00  0.00     0.293 HD
ENDBRANCH   7  10
BRANCH   4  12
ATOM     12  O   UNL     1       3.952   2.741  85.885  1.00  0.00    -0.508 OA
ATOM     13  H   UNL     1       4.013   3.088  84.937  1.00  0.00     0.293 HD
ENDBRANCH   4  12
TORSDOF 2
ENDMDL
MODEL 8
REMARK VINA RESULT:    -4.732      9.092     11.215
REMARK INTER + INTRA:          -5.009
REMARK INTER:                  -5.009
REMARK INTRA:                   0.000
REMARK UNBOUND:                 0.000
REMARK SMILES Cc1cc(O)c(C)c(C)c1O
REMARK SMILES IDX 1 1 2 2 3 3 4 4 6 5 8 6 10 7 9 8 7 9 11 10 5 12
REMARK H PARENT 11 11 5 13
REMARK Flexibility Score: inf
ROOT
ATOM      1  C   UNL     1       2.917   5.858  85.247  1.00  0.00     0.048 C 
ATOM      2  C   UNL     1       2.188   5.074  86.305  1.00  0.00    -0.005 A 
ATOM      3  C   UNL     1       1.007   5.593  86.848  1.00  0.00     0.053 A 
ATOM      4  C   UNL     1       0.305   4.907  87.836  1.00  0.00     0.119 A 
ATOM      5  C   UNL     1       0.792   3.674  88.329  1.00  0.00    -0.003 A 
ATOM      6  C   UNL     1       1.956   3.104  87.741  1.00  0.00    -0.002 A 
ATOM      7  C   UNL     1       2.664   3.822  86.749  1.00  0.00     0.121 A 
ATOM      8  C   UNL     1       2.464   1.750  88.183  1.00  0.00     0.049 C 
ATOM      9  C   UNL     1       0.048   2.977  89.446  1.00  0.00     0.049 C 
ENDROOT
BRANCH   7  10
ATOM     10  O   UNL     1       3.837   3.274  86.217  1.00  0.00    -0.507 OA
ATOM     11  H   UNL     1       4.696   3.797  86.101  1.00  0.00     0.293 HD
ENDBRANCH   7  10
BRANCH   4  12
ATOM     12  O   UNL     1      -0.881   5.481  88.304  1.00  0.00    -0.508 OA
ATOM     13  H   UNL     1      -1.075   5.649  89.282  1.00  0.00     0.293 HD
ENDBRANCH   4  12
TORSDOF 2
ENDMDL
MODEL 9
REMARK VINA RESULT:    -4.615      8.489     10.033
REMARK INTER + INTRA:          -4.885
REMARK INTER:                  -4.885
REMARK INTRA:                   0.000
REMARK UNBOUND:                 0.000
REMARK SMILES Cc1cc(O)c(C)c(C)c1O
REMARK SMILES IDX 1 1 2 2 3 3 4 4 6 5 8 6 10 7 9 8 7 9 11 10 5 12
REMARK H PARENT 11 11 5 13
REMARK Flexibility Score: inf
ROOT
ATOM      1  C   UNL     1       2.781   2.308  87.597  1.00  0.00     0.048 C 
ATOM      2  C   UNL     1       2.301   3.645  87.099  1.00  0.00    -0.005 A 
ATOM      3  C   UNL     1       3.010   4.288  86.078  1.00  0.00     0.053 A 
ATOM      4  C   UNL     1       2.609   5.532  85.594  1.00  0.00     0.119 A 
ATOM      5  C   UNL     1       1.483   6.182  86.151  1.00  0.00    -0.003 A 
ATOM      6  C   UNL     1       0.717   5.511  87.145  1.00  0.00    -0.002 A 
ATOM      7  C   UNL     1       1.147   4.256  87.634  1.00  0.00     0.121 A 
ATOM      8  C   UNL     1      -0.540   6.137  87.708  1.00  0.00     0.049 C 
ATOM      9  C   UNL     1       1.103   7.559  85.654  1.00  0.00     0.049 C 
ENDROOT
BRANCH   7  10
ATOM     10  O   UNL     1       0.414   3.632  88.650  1.00  0.00    -0.507 OA
ATOM     11  H   UNL     1      -0.326   4.089  89.168  1.00  0.00     0.293 HD
ENDBRANCH   7  10
BRANCH   4  12
ATOM     12  O   UNL     1       3.353   6.091  84.552  1.00  0.00    -0.508 OA
ATOM     13  H   UNL     1       2.987   6.247  83.623  1.00  0.00     0.293 HD
ENDBRANCH   4  12
TORSDOF 2
ENDMDL
