MODEL 1
REMARK VINA RESULT:    -4.904      0.000      0.000
REMARK INTER + INTRA:         -11.684
REMARK INTER:                  -9.492
REMARK INTRA:                  -2.192
REMARK UNBOUND:                -2.192
REMARK SMILES CCCCCC=CCC=CCCCCCCCCOC(C)=O
REMARK SMILES IDX 12 1 11 2 10 3 9 4 8 5 7 6 6 7 5 8 4 9 3 10 2 11 1 12 13 13
REMARK SMILES IDX 14 14 15 15 16 16 17 17 18 18 19 19 20 20 22 21 21 22
REMARK H PARENT
REMARK Flexibility Score: inf
ROOT
ATOM      1  C   UNL     1      10.554 -28.974  28.933  1.00  0.00     0.004 C 
ENDROOT
BRANCH   1   2
ATOM      2  C   UNL     1      10.735 -29.282  30.426  1.00  0.00     0.027 C 
BRANCH   2   3
ATOM      3  C   UNL     1       9.397 -29.316  31.120  1.00  0.00    -0.031 C 
ATOM      4  C   UNL     1       8.878 -28.301  31.837  1.00  0.00    -0.027 C 
BRANCH   4   5
ATOM      5  C   UNL     1       9.585 -26.997  32.119  1.00  0.00     0.054 C 
BRANCH   5   6
ATOM      6  C   UNL     1       9.151 -25.913  31.171  1.00  0.00    -0.027 C 
ATOM      7  C   UNL     1       9.952 -24.880  30.872  1.00  0.00    -0.031 C 
BRANCH   7   8
ATOM      8  C   UNL     1       9.511 -23.785  29.938  1.00  0.00     0.027 C 
BRANCH   8   9
ATOM      9  C   UNL     1      10.190 -22.442  30.248  1.00  0.00     0.004 C 
BRANCH   9  10
ATOM     10  C   UNL     1      11.127 -22.535  31.464  1.00  0.00     0.000 C 
BRANCH  10  11
ATOM     11  C   UNL     1      10.614 -21.731  32.668  1.00  0.00    -0.003 C 
ATOM     12  C   UNL     1      10.186 -22.622  33.835  1.00  0.00     0.004 C 
ENDBRANCH  10  11
ENDBRANCH   9  10
ENDBRANCH   8   9
ENDBRANCH   7   8
ENDBRANCH   5   6
ENDBRANCH   4   5
ENDBRANCH   2   3
ENDBRANCH   1   2
BRANCH   1  13
ATOM     13  C   UNL     1       9.202 -29.455  28.388  1.00  0.00     0.000 C 
BRANCH  13  14
ATOM     14  C   UNL     1       8.456 -28.360  27.606  1.00  0.00     0.000 C 
BRANCH  14  15
ATOM     15  C   UNL     1       8.885 -26.942  28.038  1.00  0.00     0.000 C 
BRANCH  15  16
ATOM     16  C   UNL     1       9.187 -26.006  26.856  1.00  0.00     0.003 C 
BRANCH  16  17
ATOM     17  C   UNL     1      10.411 -26.449  26.041  1.00  0.00     0.042 C 
BRANCH  17  18
ATOM     18  C   UNL     1      10.410 -25.870  24.622  1.00  0.00     0.233 C 
BRANCH  18  19
ATOM     19  O   UNL     1       9.383 -24.889  24.470  1.00  0.00    -0.466 OA
BRANCH  19  20
ATOM     20  C   UNL     1       9.598 -23.616  23.928  1.00  0.00     0.302 C 
ATOM     21  O   UNL     1      10.629 -23.367  23.246  1.00  0.00    -0.253 OA
ATOM     22  C   UNL     1       8.568 -22.556  24.123  1.00  0.00     0.139 C 
ENDBRANCH  19  20
ENDBRANCH  18  19
ENDBRANCH  17  18
ENDBRANCH  16  17
ENDBRANCH  15  16
ENDBRANCH  14  15
ENDBRANCH  13  14
ENDBRANCH   1  13
TORSDOF 16
ENDMDL
MODEL 2
REMARK VINA RESULT:    -4.831      3.697      7.167
REMARK INTER + INTRA:         -11.541
REMARK INTER:                  -9.341
REMARK INTRA:                  -2.200
REMARK UNBOUND:                -2.192
REMARK SMILES CCCCCC=CCC=CCCCCCCCCOC(C)=O
REMARK SMILES IDX 12 1 11 2 10 3 9 4 8 5 7 6 6 7 5 8 4 9 3 10 2 11 1 12 13 13
REMARK SMILES IDX 14 14 15 15 16 16 17 17 18 18 19 19 20 20 22 21 21 22
REMARK H PARENT
REMARK Flexibility Score: inf
ROOT
ATOM      1  C   UNL     1       9.603 -27.498  30.403  1.00  0.00     0.004 C 
ENDROOT
BRANCH   1   2
ATOM      2  C   UNL     1       9.226 -27.734  31.872  1.00  0.00     0.027 C 
BRANCH   2   3
ATOM      3  C   UNL     1       9.549 -29.151  32.276  1.00  0.00    -0.031 C 
ATOM      4  C   UNL     1       8.674 -30.174  32.253  1.00  0.00    -0.027 C 
BRANCH   4   5
ATOM      5  C   UNL     1       7.214 -30.049  31.888  1.00  0.00     0.054 C 
BRANCH   5   6
ATOM      6  C   UNL     1       6.902 -30.750  30.595  1.00  0.00    -0.027 C 
ATOM      7  C   UNL     1       7.534 -30.434  29.454  1.00  0.00    -0.031 C 
BRANCH   7   8
ATOM      8  C   UNL     1       7.209 -31.122  28.156  1.00  0.00     0.027 C 
BRANCH   8   9
ATOM      9  C   UNL     1       8.028 -30.569  26.979  1.00  0.00     0.004 C 
BRANCH   9  10
ATOM     10  C   UNL     1       9.226 -29.729  27.453  1.00  0.00     0.000 C 
BRANCH  10  11
ATOM     11  C   UNL     1       9.355 -28.402  26.689  1.00  0.00    -0.003 C 
ATOM     12  C   UNL     1       8.165 -27.469  26.919  1.00  0.00     0.004 C 
ENDBRANCH  10  11
ENDBRANCH   9  10
ENDBRANCH   8   9
ENDBRANCH   7   8
ENDBRANCH   5   6
ENDBRANCH   4   5
ENDBRANCH   2   3
ENDBRANCH   1   2
BRANCH   1  13
ATOM     13  C   UNL     1       9.614 -26.010  30.026  1.00  0.00     0.000 C 
BRANCH  13  14
ATOM     14  C   UNL     1       8.395 -25.250  30.576  1.00  0.00     0.000 C 
BRANCH  14  15
ATOM     15  C   UNL     1       8.679 -23.743  30.750  1.00  0.00     0.000 C 
BRANCH  15  16
ATOM     16  C   UNL     1      10.127 -23.349  30.415  1.00  0.00     0.003 C 
BRANCH  16  17
ATOM     17  C   UNL     1      10.708 -22.318  31.395  1.00  0.00     0.042 C 
BRANCH  17  18
ATOM     18  C   UNL     1       9.862 -22.177  32.665  1.00  0.00     0.233 C 
BRANCH  18  19
ATOM     19  O   UNL     1      10.594 -22.593  33.818  1.00  0.00    -0.466 OA
BRANCH  19  20
ATOM     20  C   UNL     1      10.458 -23.853  34.412  1.00  0.00     0.302 C 
ATOM     21  O   UNL     1      10.117 -24.858  33.732  1.00  0.00    -0.253 OA
ATOM     22  C   UNL     1      10.766 -24.014  35.862  1.00  0.00     0.139 C 
ENDBRANCH  19  20
ENDBRANCH  18  19
ENDBRANCH  17  18
ENDBRANCH  16  17
ENDBRANCH  15  16
ENDBRANCH  14  15
ENDBRANCH  13  14
ENDBRANCH   1  13
TORSDOF 16
ENDMDL
MODEL 3
REMARK VINA RESULT:    -4.706      1.518      1.826
REMARK INTER + INTRA:         -11.299
REMARK INTER:                  -9.361
REMARK INTRA:                  -1.939
REMARK UNBOUND:                -2.192
REMARK SMILES CCCCCC=CCC=CCCCCCCCCOC(C)=O
REMARK SMILES IDX 12 1 11 2 10 3 9 4 8 5 7 6 6 7 5 8 4 9 3 10 2 11 1 12 13 13
REMARK SMILES IDX 14 14 15 15 16 16 17 17 18 18 19 19 20 20 22 21 21 22
REMARK H PARENT
REMARK Flexibility Score: inf
ROOT
ATOM      1  C   UNL     1      10.764 -28.778  29.359  1.00  0.00     0.004 C 
ENDROOT
BRANCH   1   2
ATOM      2  C   UNL     1      10.640 -29.428  30.744  1.00  0.00     0.027 C 
BRANCH   2   3
ATOM      3  C   UNL     1       9.225 -29.314  31.253  1.00  0.00    -0.031 C 
ATOM      4  C   UNL     1       8.709 -28.221  31.847  1.00  0.00    -0.027 C 
BRANCH   4   5
ATOM      5  C   UNL     1       9.486 -26.965  32.162  1.00  0.00     0.054 C 
BRANCH   5   6
ATOM      6  C   UNL     1       9.010 -25.797  31.344  1.00  0.00    -0.027 C 
ATOM      7  C   UNL     1       9.871 -24.947  30.765  1.00  0.00    -0.031 C 
BRANCH   7   8
ATOM      8  C   UNL     1       9.396 -23.767  29.962  1.00  0.00     0.027 C 
BRANCH   8   9
ATOM      9  C   UNL     1      10.214 -22.497  30.244  1.00  0.00     0.004 C 
BRANCH   9  10
ATOM     10  C   UNL     1      10.755 -22.467  31.684  1.00  0.00     0.000 C 
BRANCH  10  11
ATOM     11  C   UNL     1       9.758 -21.848  32.676  1.00  0.00    -0.003 C 
ATOM     12  C   UNL     1      10.434 -20.939  33.704  1.00  0.00     0.004 C 
ENDBRANCH  10  11
ENDBRANCH   9  10
ENDBRANCH   8   9
ENDBRANCH   7   8
ENDBRANCH   5   6
ENDBRANCH   4   5
ENDBRANCH   2   3
ENDBRANCH   1   2
BRANCH   1  13
ATOM     13  C   UNL     1       9.764 -29.350  28.344  1.00  0.00     0.000 C 
BRANCH  13  14
ATOM     14  C   UNL     1       8.708 -28.319  27.908  1.00  0.00     0.000 C 
BRANCH  14  15
ATOM     15  C   UNL     1       9.312 -26.911  27.726  1.00  0.00     0.000 C 
BRANCH  15  16
ATOM     16  C   UNL     1       9.562 -26.536  26.256  1.00  0.00     0.003 C 
BRANCH  16  17
ATOM     17  C   UNL     1      10.985 -26.878  25.786  1.00  0.00     0.042 C 
BRANCH  17  18
ATOM     18  C   UNL     1      11.232 -26.474  24.329  1.00  0.00     0.233 C 
BRANCH  18  19
ATOM     19  O   UNL     1      11.783 -25.159  24.248  1.00  0.00    -0.466 OA
BRANCH  19  20
ATOM     20  C   UNL     1      12.973 -24.854  23.577  1.00  0.00     0.302 C 
ATOM     21  O   UNL     1      12.964 -24.165  22.521  1.00  0.00    -0.253 OA
ATOM     22  C   UNL     1      14.271 -25.313  24.147  1.00  0.00     0.139 C 
ENDBRANCH  19  20
ENDBRANCH  18  19
ENDBRANCH  17  18
ENDBRANCH  16  17
ENDBRANCH  15  16
ENDBRANCH  14  15
ENDBRANCH  13  14
ENDBRANCH   1  13
TORSDOF 16
ENDMDL
MODEL 4
REMARK VINA RESULT:    -4.694      1.269      2.608
REMARK INTER + INTRA:         -11.277
REMARK INTER:                  -9.145
REMARK INTRA:                  -2.131
REMARK UNBOUND:                -2.192
REMARK SMILES CCCCCC=CCC=CCCCCCCCCOC(C)=O
REMARK SMILES IDX 12 1 11 2 10 3 9 4 8 5 7 6 6 7 5 8 4 9 3 10 2 11 1 12 13 13
REMARK SMILES IDX 14 14 15 15 16 16 17 17 18 18 19 19 20 20 22 21 21 22
REMARK H PARENT
REMARK Flexibility Score: inf
ROOT
ATOM      1  C   UNL     1       8.532 -28.423  27.353  1.00  0.00     0.004 C 
ENDROOT
BRANCH   1   2
ATOM      2  C   UNL     1       9.076 -29.543  28.251  1.00  0.00     0.027 C 
BRANCH   2   3
ATOM      3  C   UNL     1      10.429 -29.166  28.799  1.00  0.00    -0.031 C 
ATOM      4  C   UNL     1      10.768 -29.206  30.102  1.00  0.00    -0.027 C 
BRANCH   4   5
ATOM      5  C   UNL     1       9.826 -29.565  31.225  1.00  0.00     0.054 C 
BRANCH   5   6
ATOM      6  C   UNL     1       9.104 -28.357  31.754  1.00  0.00    -0.027 C 
ATOM      7  C   UNL     1       9.512 -27.112  31.465  1.00  0.00    -0.031 C 
BRANCH   7   8
ATOM      8  C   UNL     1       8.801 -25.903  32.009  1.00  0.00     0.027 C 
BRANCH   8   9
ATOM      9  C   UNL     1       8.327 -24.953  30.898  1.00  0.00     0.004 C 
BRANCH   9  10
ATOM     10  C   UNL     1       9.503 -24.266  30.184  1.00  0.00     0.000 C 
BRANCH  10  11
ATOM     11  C   UNL     1       9.668 -22.795  30.598  1.00  0.00    -0.003 C 
ATOM     12  C   UNL     1       8.336 -22.122  30.932  1.00  0.00     0.004 C 
ENDBRANCH  10  11
ENDBRANCH   9  10
ENDBRANCH   8   9
ENDBRANCH   7   8
ENDBRANCH   5   6
ENDBRANCH   4   5
ENDBRANCH   2   3
ENDBRANCH   1   2
BRANCH   1  13
ATOM     13  C   UNL     1       8.786 -27.024  27.932  1.00  0.00     0.000 C 
BRANCH  13  14
ATOM     14  C   UNL     1       9.170 -25.997  26.852  1.00  0.00     0.000 C 
BRANCH  14  15
ATOM     15  C   UNL     1      10.350 -26.481  25.984  1.00  0.00     0.000 C 
BRANCH  15  16
ATOM     16  C   UNL     1      10.017 -26.559  24.485  1.00  0.00     0.003 C 
BRANCH  16  17
ATOM     17  C   UNL     1       8.672 -25.903  24.137  1.00  0.00     0.042 C 
BRANCH  17  18
ATOM     18  C   UNL     1       8.668 -25.284  22.735  1.00  0.00     0.233 C 
BRANCH  18  19
ATOM     19  O   UNL     1       8.484 -23.869  22.800  1.00  0.00    -0.466 OA
BRANCH  19  20
ATOM     20  C   UNL     1       9.097 -23.048  23.753  1.00  0.00     0.302 C 
ATOM     21  O   UNL     1       8.471 -22.662  24.777  1.00  0.00    -0.253 OA
ATOM     22  C   UNL     1      10.527 -22.664  23.574  1.00  0.00     0.139 C 
ENDBRANCH  19  20
ENDBRANCH  18  19
ENDBRANCH  17  18
ENDBRANCH  16  17
ENDBRANCH  15  16
ENDBRANCH  14  15
ENDBRANCH  13  14
ENDBRANCH   1  13
TORSDOF 16
ENDMDL
MODEL 5
REMARK VINA RESULT:    -4.683      3.318      6.904
REMARK INTER + INTRA:         -11.256
REMARK INTER:                  -9.082
REMARK INTRA:                  -2.173
REMARK UNBOUND:                -2.192
REMARK SMILES CCCCCC=CCC=CCCCCCCCCOC(C)=O
REMARK SMILES IDX 12 1 11 2 10 3 9 4 8 5 7 6 6 7 5 8 4 9 3 10 2 11 1 12 13 13
REMARK SMILES IDX 14 14 15 15 16 16 17 17 18 18 19 19 20 20 22 21 21 22
REMARK H PARENT
REMARK Flexibility Score: inf
ROOT
ATOM      1  C   UNL     1       9.733 -27.457  32.272  1.00  0.00     0.004 C 
ENDROOT
BRANCH   1   2
ATOM      2  C   UNL     1       9.569 -28.883  31.729  1.00  0.00     0.027 C 
BRANCH   2   3
ATOM      3  C   UNL     1      10.574 -29.147  30.636  1.00  0.00    -0.031 C 
ATOM      4  C   UNL     1      10.277 -29.239  29.326  1.00  0.00    -0.027 C 
BRANCH   4   5
ATOM      5  C   UNL     1       8.883 -29.162  28.753  1.00  0.00     0.054 C 
BRANCH   5   6
ATOM      6  C   UNL     1       8.709 -27.957  27.870  1.00  0.00    -0.027 C 
ATOM      7  C   UNL     1       9.666 -27.023  27.760  1.00  0.00    -0.031 C 
BRANCH   7   8
ATOM      8  C   UNL     1       9.486 -25.808  26.892  1.00  0.00     0.027 C 
BRANCH   8   9
ATOM      9  C   UNL     1       9.955 -26.044  25.448  1.00  0.00     0.004 C 
BRANCH   9  10
ATOM     10  C   UNL     1      11.300 -26.789  25.392  1.00  0.00     0.000 C 
BRANCH  10  11
ATOM     11  C   UNL     1      11.295 -27.940  24.375  1.00  0.00    -0.003 C 
ATOM     12  C   UNL     1      10.102 -28.879  24.550  1.00  0.00     0.004 C 
ENDBRANCH  10  11
ENDBRANCH   9  10
ENDBRANCH   8   9
ENDBRANCH   7   8
ENDBRANCH   5   6
ENDBRANCH   4   5
ENDBRANCH   2   3
ENDBRANCH   1   2
BRANCH   1  13
ATOM     13  C   UNL     1       8.969 -26.416  31.441  1.00  0.00     0.000 C 
BRANCH  13  14
ATOM     14  C   UNL     1       9.825 -25.181  31.107  1.00  0.00     0.000 C 
BRANCH  14  15
ATOM     15  C   UNL     1       9.093 -24.206  30.161  1.00  0.00     0.000 C 
BRANCH  15  16
ATOM     16  C   UNL     1       9.448 -22.730  30.405  1.00  0.00     0.003 C 
BRANCH  16  17
ATOM     17  C   UNL     1      10.828 -22.549  31.056  1.00  0.00     0.042 C 
BRANCH  17  18
ATOM     18  C   UNL     1      10.732 -22.099  32.517  1.00  0.00     0.233 C 
BRANCH  18  19
ATOM     19  O   UNL     1       9.442 -21.554  32.802  1.00  0.00    -0.466 OA
BRANCH  19  20
ATOM     20  C   UNL     1       9.089 -20.995  34.035  1.00  0.00     0.302 C 
ATOM     21  O   UNL     1       9.771 -21.223  35.070  1.00  0.00    -0.253 OA
ATOM     22  C   UNL     1       7.916 -20.078  34.113  1.00  0.00     0.139 C 
ENDBRANCH  19  20
ENDBRANCH  18  19
ENDBRANCH  17  18
ENDBRANCH  16  17
ENDBRANCH  15  16
ENDBRANCH  14  15
ENDBRANCH  13  14
ENDBRANCH   1  13
TORSDOF 16
ENDMDL
MODEL 6
REMARK VINA RESULT:    -4.682      4.362      8.267
REMARK INTER + INTRA:         -11.254
REMARK INTER:                  -9.434
REMARK INTRA:                  -1.819
REMARK UNBOUND:                -2.192
REMARK SMILES CCCCCC=CCC=CCCCCCCCCOC(C)=O
REMARK SMILES IDX 12 1 11 2 10 3 9 4 8 5 7 6 6 7 5 8 4 9 3 10 2 11 1 12 13 13
REMARK SMILES IDX 14 14 15 15 16 16 17 17 18 18 19 19 20 20 22 21 21 22
REMARK H PARENT
REMARK Flexibility Score: inf
ROOT
ATOM      1  C   UNL     1      10.626 -22.031  32.856  1.00  0.00     0.004 C 
ENDROOT
BRANCH   1   2
ATOM      2  C   UNL     1      11.194 -22.677  31.585  1.00  0.00     0.027 C 
BRANCH   2   3
ATOM      3  C   UNL     1      10.244 -22.488  30.430  1.00  0.00    -0.031 C 
ATOM      4  C   UNL     1       9.234 -23.324  30.123  1.00  0.00    -0.027 C 
BRANCH   4   5
ATOM      5  C   UNL     1       8.939 -24.618  30.842  1.00  0.00     0.054 C 
BRANCH   5   6
ATOM      6  C   UNL     1       9.842 -25.729  30.381  1.00  0.00    -0.027 C 
ATOM      7  C   UNL     1       9.367 -26.782  29.699  1.00  0.00    -0.031 C 
BRANCH   7   8
ATOM      8  C   UNL     1      10.266 -27.903  29.253  1.00  0.00     0.027 C 
BRANCH   8   9
ATOM      9  C   UNL     1       9.870 -29.253  29.870  1.00  0.00     0.004 C 
BRANCH   9  10
ATOM     10  C   UNL     1      10.515 -29.470  31.249  1.00  0.00     0.000 C 
BRANCH  10  11
ATOM     11  C   UNL     1       9.501 -29.922  32.311  1.00  0.00    -0.003 C 
ATOM     12  C   UNL     1       8.071 -29.487  31.987  1.00  0.00     0.004 C 
ENDBRANCH  10  11
ENDBRANCH   9  10
ENDBRANCH   8   9
ENDBRANCH   7   8
ENDBRANCH   5   6
ENDBRANCH   4   5
ENDBRANCH   2   3
ENDBRANCH   1   2
BRANCH   1  13
ATOM     13  C   UNL     1      10.377 -23.049  33.978  1.00  0.00     0.000 C 
BRANCH  13  14
ATOM     14  C   UNL     1      11.180 -24.348  33.788  1.00  0.00     0.000 C 
BRANCH  14  15
ATOM     15  C   UNL     1      11.828 -24.828  35.103  1.00  0.00     0.000 C 
BRANCH  15  16
ATOM     16  C   UNL     1      13.329 -25.137  34.971  1.00  0.00     0.003 C 
BRANCH  16  17
ATOM     17  C   UNL     1      14.215 -23.903  35.194  1.00  0.00     0.042 C 
BRANCH  17  18
ATOM     18  C   UNL     1      15.044 -23.546  33.956  1.00  0.00     0.233 C 
BRANCH  18  19
ATOM     19  O   UNL     1      15.545 -24.722  33.318  1.00  0.00    -0.466 OA
BRANCH  19  20
ATOM     20  C   UNL     1      16.897 -24.927  33.017  1.00  0.00     0.302 C 
ATOM     21  O   UNL     1      17.281 -25.081  31.827  1.00  0.00    -0.253 OA
ATOM     22  C   UNL     1      17.900 -24.918  34.121  1.00  0.00     0.139 C 
ENDBRANCH  19  20
ENDBRANCH  18  19
ENDBRANCH  17  18
ENDBRANCH  16  17
ENDBRANCH  15  16
ENDBRANCH  14  15
ENDBRANCH  13  14
ENDBRANCH   1  13
TORSDOF 16
ENDMDL
MODEL 7
REMARK VINA RESULT:    -4.681      2.050      5.939
REMARK INTER + INTRA:         -11.252
REMARK INTER:                  -9.329
REMARK INTRA:                  -1.923
REMARK UNBOUND:                -2.192
REMARK SMILES CCCCCC=CCC=CCCCCCCCCOC(C)=O
REMARK SMILES IDX 12 1 11 2 10 3 9 4 8 5 7 6 6 7 5 8 4 9 3 10 2 11 1 12 13 13
REMARK SMILES IDX 14 14 15 15 16 16 17 17 18 18 19 19 20 20 22 21 21 22
REMARK H PARENT
REMARK Flexibility Score: inf
ROOT
ATOM      1  C   UNL     1      10.363 -29.150  28.817  1.00  0.00     0.004 C 
ENDROOT
BRANCH   1   2
ATOM      2  C   UNL     1       8.865 -29.484  28.779  1.00  0.00     0.027 C 
BRANCH   2   3
ATOM      3  C   UNL     1       8.356 -29.448  27.360  1.00  0.00    -0.031 C 
ATOM      4  C   UNL     1       8.073 -28.324  26.674  1.00  0.00    -0.027 C 
BRANCH   4   5
ATOM      5  C   UNL     1       8.154 -26.927  27.240  1.00  0.00     0.054 C 
BRANCH   5   6
ATOM      6  C   UNL     1       9.233 -26.119  26.575  1.00  0.00    -0.027 C 
ATOM      7  C   UNL     1       9.703 -26.439  25.359  1.00  0.00    -0.031 C 
BRANCH   7   8
ATOM      8  C   UNL     1      10.795 -25.641  24.701  1.00  0.00     0.027 C 
BRANCH   8   9
ATOM      9  C   UNL     1      10.306 -24.903  23.445  1.00  0.00     0.004 C 
BRANCH   9  10
ATOM     10  C   UNL     1      10.800 -23.447  23.401  1.00  0.00     0.000 C 
BRANCH  10  11
ATOM     11  C   UNL     1       9.746 -22.451  23.908  1.00  0.00    -0.003 C 
ATOM     12  C   UNL     1       8.318 -22.980  23.768  1.00  0.00     0.004 C 
ENDBRANCH  10  11
ENDBRANCH   9  10
ENDBRANCH   8   9
ENDBRANCH   7   8
ENDBRANCH   5   6
ENDBRANCH   4   5
ENDBRANCH   2   3
ENDBRANCH   1   2
BRANCH   1  13
ATOM     13  C   UNL     1      10.959 -29.261  30.228  1.00  0.00     0.000 C 
BRANCH  13  14
ATOM     14  C   UNL     1       9.886 -29.479  31.309  1.00  0.00     0.000 C 
BRANCH  14  15
ATOM     15  C   UNL     1       9.712 -28.240  32.213  1.00  0.00     0.000 C 
BRANCH  15  16
ATOM     16  C   UNL     1       8.743 -27.193  31.641  1.00  0.00     0.003 C 
BRANCH  16  17
ATOM     17  C   UNL     1       9.464 -25.994  31.007  1.00  0.00     0.042 C 
BRANCH  17  18
ATOM     18  C   UNL     1       8.490 -24.913  30.527  1.00  0.00     0.233 C 
BRANCH  18  19
ATOM     19  O   UNL     1       8.866 -23.627  31.022  1.00  0.00    -0.466 OA
BRANCH  19  20
ATOM     20  C   UNL     1       9.782 -22.785  30.381  1.00  0.00     0.302 C 
ATOM     21  O   UNL     1       9.501 -22.237  29.281  1.00  0.00    -0.253 OA
ATOM     22  C   UNL     1      11.091 -22.497  31.035  1.00  0.00     0.139 C 
ENDBRANCH  19  20
ENDBRANCH  18  19
ENDBRANCH  17  18
ENDBRANCH  16  17
ENDBRANCH  15  16
ENDBRANCH  14  15
ENDBRANCH  13  14
ENDBRANCH   1  13
TORSDOF 16
ENDMDL
MODEL 8
REMARK VINA RESULT:    -4.673      3.012      6.876
REMARK INTER + INTRA:         -11.237
REMARK INTER:                  -9.342
REMARK INTRA:                  -1.895
REMARK UNBOUND:                -2.192
REMARK SMILES CCCCCC=CCC=CCCCCCCCCOC(C)=O
REMARK SMILES IDX 12 1 11 2 10 3 9 4 8 5 7 6 6 7 5 8 4 9 3 10 2 11 1 12 13 13
REMARK SMILES IDX 14 14 15 15 16 16 17 17 18 18 19 19 20 20 22 21 21 22
REMARK H PARENT
REMARK Flexibility Score: inf
ROOT
ATOM      1  C   UNL     1      10.505 -29.481  31.120  1.00  0.00     0.004 C 
ENDROOT
BRANCH   1   2
ATOM      2  C   UNL     1      10.638 -28.937  29.692  1.00  0.00     0.027 C 
BRANCH   2   3
ATOM      3  C   UNL     1       9.349 -29.129  28.934  1.00  0.00    -0.031 C 
ATOM      4  C   UNL     1       8.872 -28.281  28.002  1.00  0.00    -0.027 C 
BRANCH   4   5
ATOM      5  C   UNL     1       9.517 -26.970  27.622  1.00  0.00     0.054 C 
BRANCH   5   6
ATOM      6  C   UNL     1       8.976 -26.440  26.323  1.00  0.00    -0.027 C 
ATOM      7  C   UNL     1       9.577 -25.433  25.670  1.00  0.00    -0.031 C 
BRANCH   7   8
ATOM      8  C   UNL     1       9.025 -24.890  24.380  1.00  0.00     0.027 C 
BRANCH   8   9
ATOM      9  C   UNL     1       9.064 -23.355  24.327  1.00  0.00     0.004 C 
BRANCH   9  10
ATOM     10  C   UNL     1      10.278 -22.835  23.539  1.00  0.00     0.000 C 
BRANCH  10  11
ATOM     11  C   UNL     1      10.048 -22.853  22.020  1.00  0.00    -0.003 C 
ATOM     12  C   UNL     1      11.353 -22.893  21.224  1.00  0.00     0.004 C 
ENDBRANCH  10  11
ENDBRANCH   9  10
ENDBRANCH   8   9
ENDBRANCH   7   8
ENDBRANCH   5   6
ENDBRANCH   4   5
ENDBRANCH   2   3
ENDBRANCH   1   2
BRANCH   1  13
ATOM     13  C   UNL     1       9.434 -28.745  31.938  1.00  0.00     0.000 C 
BRANCH  13  14
ATOM     14  C   UNL     1       9.705 -27.235  32.045  1.00  0.00     0.000 C 
BRANCH  14  15
ATOM     15  C   UNL     1       8.411 -26.402  31.926  1.00  0.00     0.000 C 
BRANCH  15  16
ATOM     16  C   UNL     1       8.453 -25.361  30.796  1.00  0.00     0.003 C 
BRANCH  16  17
ATOM     17  C   UNL     1       9.846 -24.744  30.603  1.00  0.00     0.042 C 
BRANCH  17  18
ATOM     18  C   UNL     1       9.938 -23.321  31.165  1.00  0.00     0.233 C 
BRANCH  18  19
ATOM     19  O   UNL     1      10.830 -23.266  32.279  1.00  0.00    -0.466 OA
BRANCH  19  20
ATOM     20  C   UNL     1      10.405 -23.193  33.611  1.00  0.00     0.302 C 
ATOM     21  O   UNL     1      10.001 -22.106  34.105  1.00  0.00    -0.253 OA
ATOM     22  C   UNL     1      10.389 -24.432  34.442  1.00  0.00     0.139 C 
ENDBRANCH  19  20
ENDBRANCH  18  19
ENDBRANCH  17  18
ENDBRANCH  16  17
ENDBRANCH  15  16
ENDBRANCH  14  15
ENDBRANCH  13  14
ENDBRANCH   1  13
TORSDOF 16
ENDMDL
MODEL 9
REMARK VINA RESULT:    -4.642      2.347      6.641
REMARK INTER + INTRA:         -11.176
REMARK INTER:                  -9.392
REMARK INTRA:                  -1.784
REMARK UNBOUND:                -2.192
REMARK SMILES CCCCCC=CCC=CCCCCCCCCOC(C)=O
REMARK SMILES IDX 12 1 11 2 10 3 9 4 8 5 7 6 6 7 5 8 4 9 3 10 2 11 1 12 13 13
REMARK SMILES IDX 14 14 15 15 16 16 17 17 18 18 19 19 20 20 22 21 21 22
REMARK H PARENT
REMARK Flexibility Score: inf
ROOT
ATOM      1  C   UNL     1       9.256 -29.460  28.564  1.00  0.00     0.004 C 
ENDROOT
BRANCH   1   2
ATOM      2  C   UNL     1       8.653 -28.202  27.924  1.00  0.00     0.027 C 
BRANCH   2   3
ATOM      3  C   UNL     1       9.682 -27.101  27.861  1.00  0.00    -0.031 C 
ATOM      4  C   UNL     1       9.802 -26.220  26.849  1.00  0.00    -0.027 C 
BRANCH   4   5
ATOM      5  C   UNL     1       8.973 -26.240  25.588  1.00  0.00     0.054 C 
BRANCH   5   6
ATOM      6  C   UNL     1       9.121 -24.966  24.804  1.00  0.00    -0.027 C 
ATOM      7  C   UNL     1       8.411 -24.741  23.688  1.00  0.00    -0.031 C 
BRANCH   7   8
ATOM      8  C   UNL     1       8.572 -23.474  22.893  1.00  0.00     0.027 C 
BRANCH   8   9
ATOM      9  C   UNL     1       9.895 -22.754  23.199  1.00  0.00     0.004 C 
BRANCH   9  10
ATOM     10  C   UNL     1      10.865 -22.795  22.005  1.00  0.00     0.000 C 
BRANCH  10  11
ATOM     11  C   UNL     1      11.814 -24.002  22.057  1.00  0.00    -0.003 C 
ATOM     12  C   UNL     1      12.428 -24.213  23.441  1.00  0.00     0.004 C 
ENDBRANCH  10  11
ENDBRANCH   9  10
ENDBRANCH   8   9
ENDBRANCH   7   8
ENDBRANCH   5   6
ENDBRANCH   4   5
ENDBRANCH   2   3
ENDBRANCH   1   2
BRANCH   1  13
ATOM     13  C   UNL     1      10.655 -29.216  29.147  1.00  0.00     0.000 C 
BRANCH  13  14
ATOM     14  C   UNL     1      10.686 -29.332  30.681  1.00  0.00     0.000 C 
BRANCH  14  15
ATOM     15  C   UNL     1       9.281 -29.570  31.274  1.00  0.00     0.000 C 
BRANCH  15  16
ATOM     16  C   UNL     1       8.658 -28.312  31.900  1.00  0.00     0.003 C 
BRANCH  16  17
ATOM     17  C   UNL     1       9.543 -27.066  31.744  1.00  0.00     0.042 C 
BRANCH  17  18
ATOM     18  C   UNL     1       8.759 -25.851  31.239  1.00  0.00     0.233 C 
BRANCH  18  19
ATOM     19  O   UNL     1       9.634 -24.876  30.670  1.00  0.00    -0.466 OA
BRANCH  19  20
ATOM     20  C   UNL     1       9.452 -23.494  30.804  1.00  0.00     0.302 C 
ATOM     21  O   UNL     1       8.309 -22.976  30.683  1.00  0.00    -0.253 OA
ATOM     22  C   UNL     1      10.621 -22.633  31.140  1.00  0.00     0.139 C 
ENDBRANCH  19  20
ENDBRANCH  18  19
ENDBRANCH  17  18
ENDBRANCH  16  17
ENDBRANCH  15  16
ENDBRANCH  14  15
ENDBRANCH  13  14
ENDBRANCH   1  13
TORSDOF 16
ENDMDL
