MODEL 1
REMARK VINA RESULT:    -2.557      0.000      0.000
REMARK INTER + INTRA:          -3.267
REMARK INTER:                  -3.080
REMARK INTRA:                  -0.187
REMARK UNBOUND:                -0.187
REMARK SMILES OCC(O)CO
REMARK SMILES IDX 3 1 5 2 6 3 2 5 1 6 4 8
REMARK H PARENT 6 4 1 7 4 9
REMARK Flexibility Score: inf
ROOT
ATOM      1  C   UNL     1       8.612   3.067  24.453  1.00  0.00     0.165 C 
ENDROOT
BRANCH   1   2
ATOM      2  C   UNL     1       8.545   3.113  25.987  1.00  0.00     0.190 C 
BRANCH   2   3
ATOM      3  O   UNL     1       9.776   3.499  26.538  1.00  0.00    -0.394 OA
ATOM      4  H   UNL     1       9.637   3.583  27.518  1.00  0.00     0.210 HD
ENDBRANCH   2   3
ENDBRANCH   1   2
BRANCH   1   5
ATOM      5  C   UNL     1       9.098   1.694  23.959  1.00  0.00     0.190 C 
BRANCH   5   6
ATOM      6  O   UNL     1      10.477   1.555  24.169  1.00  0.00    -0.394 OA
ATOM      7  H   UNL     1      10.743   2.281  24.793  1.00  0.00     0.210 HD
ENDBRANCH   5   6
ENDBRANCH   1   5
BRANCH   1   8
ATOM      8  O   UNL     1       9.469   4.080  23.994  1.00  0.00    -0.388 OA
ATOM      9  H   UNL     1       9.096   4.407  23.135  1.00  0.00     0.211 HD
ENDBRANCH   1   8
TORSDOF 5
ENDMDL
MODEL 2
REMARK VINA RESULT:    -2.528     13.419     14.048
REMARK INTER + INTRA:          -3.233
REMARK INTER:                  -3.038
REMARK INTRA:                  -0.195
REMARK UNBOUND:                -0.187
REMARK SMILES OCC(O)CO
REMARK SMILES IDX 3 1 5 2 6 3 2 5 1 6 4 8
REMARK H PARENT 6 4 1 7 4 9
REMARK Flexibility Score: inf
ROOT
ATOM      1  C   UNL     1      19.114  10.758  32.413  1.00  0.00     0.165 C 
ENDROOT
BRANCH   1   2
ATOM      2  C   UNL     1      18.576   9.666  33.349  1.00  0.00     0.190 C 
BRANCH   2   3
ATOM      3  O   UNL     1      18.253   8.500  32.637  1.00  0.00    -0.394 OA
ATOM      4  H   UNL     1      17.960   8.789  31.734  1.00  0.00     0.210 HD
ENDBRANCH   2   3
ENDBRANCH   1   2
BRANCH   1   5
ATOM      5  C   UNL     1      18.024  11.244  31.441  1.00  0.00     0.190 C 
BRANCH   5   6
ATOM      6  O   UNL     1      16.795  10.638  31.737  1.00  0.00    -0.394 OA
ATOM      7  H   UNL     1      17.003   9.728  32.080  1.00  0.00     0.210 HD
ENDBRANCH   5   6
ENDBRANCH   1   5
BRANCH   1   8
ATOM      8  O   UNL     1      20.214  10.259  31.698  1.00  0.00    -0.388 OA
ATOM      9  H   UNL     1      20.706   9.653  32.311  1.00  0.00     0.211 HD
ENDBRANCH   1   8
TORSDOF 5
ENDMDL
MODEL 3
REMARK VINA RESULT:    -2.500      1.462      2.066
REMARK INTER + INTRA:          -3.199
REMARK INTER:                  -2.976
REMARK INTRA:                  -0.223
REMARK UNBOUND:                -0.187
REMARK SMILES OCC(O)CO
REMARK SMILES IDX 3 1 5 2 6 3 2 5 1 6 4 8
REMARK H PARENT 6 4 1 7 4 9
REMARK Flexibility Score: inf
ROOT
ATOM      1  C   UNL     1       8.615   3.005  25.915  1.00  0.00     0.165 C 
ENDROOT
BRANCH   1   2
ATOM      2  C   UNL     1       8.102   1.733  26.608  1.00  0.00     0.190 C 
BRANCH   2   3
ATOM      3  O   UNL     1       7.875   0.705  25.681  1.00  0.00    -0.394 OA
ATOM      4  H   UNL     1       8.573   0.794  24.980  1.00  0.00     0.210 HD
ENDBRANCH   2   3
ENDBRANCH   1   2
BRANCH   1   5
ATOM      5  C   UNL     1       8.933   2.740  24.434  1.00  0.00     0.190 C 
BRANCH   5   6
ATOM      6  O   UNL     1      10.098   1.970  24.311  1.00  0.00    -0.394 OA
ATOM      7  H   UNL     1      10.035   1.250  24.992  1.00  0.00     0.210 HD
ENDBRANCH   5   6
ENDBRANCH   1   5
BRANCH   1   8
ATOM      8  O   UNL     1       9.759   3.470  26.582  1.00  0.00    -0.388 OA
ATOM      9  H   UNL     1       9.478   4.245  27.134  1.00  0.00     0.211 HD
ENDBRANCH   1   8
TORSDOF 5
ENDMDL
MODEL 4
REMARK VINA RESULT:    -2.479     13.226     14.111
REMARK INTER + INTRA:          -3.173
REMARK INTER:                  -2.949
REMARK INTRA:                  -0.224
REMARK UNBOUND:                -0.187
REMARK SMILES OCC(O)CO
REMARK SMILES IDX 3 1 5 2 6 3 2 5 1 6 4 8
REMARK H PARENT 6 4 1 7 4 9
REMARK Flexibility Score: inf
ROOT
ATOM      1  C   UNL     1      18.219   9.872  32.918  1.00  0.00     0.165 C 
ENDROOT
BRANCH   1   2
ATOM      2  C   UNL     1      17.316  10.552  31.878  1.00  0.00     0.190 C 
BRANCH   2   3
ATOM      3  O   UNL     1      18.038  11.471  31.102  1.00  0.00    -0.394 OA
ATOM      4  H   UNL     1      18.963  11.118  31.026  1.00  0.00     0.210 HD
ENDBRANCH   2   3
ENDBRANCH   1   2
BRANCH   1   5
ATOM      5  C   UNL     1      19.647  10.443  32.873  1.00  0.00     0.190 C 
BRANCH   5   6
ATOM      6  O   UNL     1      20.379   9.856  31.832  1.00  0.00    -0.394 OA
ATOM      7  H   UNL     1      20.388  10.512  31.086  1.00  0.00     0.210 HD
ENDBRANCH   5   6
ENDBRANCH   1   5
BRANCH   1   8
ATOM      8  O   UNL     1      18.242   8.489  32.681  1.00  0.00    -0.388 OA
ATOM      9  H   UNL     1      17.420   8.112  33.089  1.00  0.00     0.211 HD
ENDBRANCH   1   8
TORSDOF 5
ENDMDL
MODEL 5
REMARK VINA RESULT:    -2.474      0.800      2.569
REMARK INTER + INTRA:          -3.167
REMARK INTER:                  -2.946
REMARK INTRA:                  -0.222
REMARK UNBOUND:                -0.187
REMARK SMILES OCC(O)CO
REMARK SMILES IDX 3 1 5 2 6 3 2 5 1 6 4 8
REMARK H PARENT 6 4 1 7 4 9
REMARK Flexibility Score: inf
ROOT
ATOM      1  C   UNL     1       8.982   2.298  24.288  1.00  0.00     0.165 C 
ENDROOT
BRANCH   1   2
ATOM      2  C   UNL     1       9.047   3.377  23.197  1.00  0.00     0.190 C 
BRANCH   2   3
ATOM      3  O   UNL     1       8.616   4.620  23.685  1.00  0.00    -0.394 OA
ATOM      4  H   UNL     1       9.025   5.313  23.105  1.00  0.00     0.210 HD
ENDBRANCH   2   3
ENDBRANCH   1   2
BRANCH   1   5
ATOM      5  C   UNL     1       8.585   2.903  25.646  1.00  0.00     0.190 C 
BRANCH   5   6
ATOM      6  O   UNL     1       9.687   3.524  26.249  1.00  0.00    -0.394 OA
ATOM      7  H   UNL     1       9.324   4.140  26.938  1.00  0.00     0.210 HD
ENDBRANCH   5   6
ENDBRANCH   1   5
BRANCH   1   8
ATOM      8  O   UNL     1      10.229   1.660  24.387  1.00  0.00    -0.388 OA
ATOM      9  H   UNL     1      10.883   2.348  24.677  1.00  0.00     0.211 HD
ENDBRANCH   1   8
TORSDOF 5
ENDMDL
MODEL 6
REMARK VINA RESULT:    -2.472      1.790      3.233
REMARK INTER + INTRA:          -3.164
REMARK INTER:                  -2.941
REMARK INTRA:                  -0.224
REMARK UNBOUND:                -0.187
REMARK SMILES OCC(O)CO
REMARK SMILES IDX 3 1 5 2 6 3 2 5 1 6 4 8
REMARK H PARENT 6 4 1 7 4 9
REMARK Flexibility Score: inf
ROOT
ATOM      1  C   UNL     1       8.235   1.564  26.838  1.00  0.00     0.165 C 
ENDROOT
BRANCH   1   2
ATOM      2  C   UNL     1       7.883   0.857  25.521  1.00  0.00     0.190 C 
BRANCH   2   3
ATOM      3  O   UNL     1       8.623   1.379  24.449  1.00  0.00    -0.394 OA
ATOM      4  H   UNL     1       8.422   0.813  23.660  1.00  0.00     0.210 HD
ENDBRANCH   2   3
ENDBRANCH   1   2
BRANCH   1   5
ATOM      5  C   UNL     1       8.351   3.085  26.638  1.00  0.00     0.190 C 
BRANCH   5   6
ATOM      6  O   UNL     1       9.661   3.436  26.279  1.00  0.00    -0.394 OA
ATOM      7  H   UNL     1       9.870   2.935  25.447  1.00  0.00     0.210 HD
ENDBRANCH   5   6
ENDBRANCH   1   5
BRANCH   1   8
ATOM      8  O   UNL     1       9.442   1.047  27.336  1.00  0.00    -0.388 OA
ATOM      9  H   UNL     1       9.297   0.853  28.299  1.00  0.00     0.211 HD
ENDBRANCH   1   8
TORSDOF 5
ENDMDL
MODEL 7
REMARK VINA RESULT:    -2.386     13.746     14.581
REMARK INTER + INTRA:          -3.062
REMARK INTER:                  -3.059
REMARK INTRA:                  -0.003
REMARK UNBOUND:                -0.187
REMARK SMILES OCC(O)CO
REMARK SMILES IDX 3 1 5 2 6 3 2 5 1 6 4 8
REMARK H PARENT 6 4 1 7 4 9
REMARK Flexibility Score: inf
ROOT
ATOM      1  C   UNL     1      18.432   9.792  33.207  1.00  0.00     0.165 C 
ENDROOT
BRANCH   1   2
ATOM      2  C   UNL     1      18.694  10.836  32.111  1.00  0.00     0.190 C 
BRANCH   2   3
ATOM      3  O   UNL     1      17.508  11.192  31.453  1.00  0.00    -0.394 OA
ATOM      4  H   UNL     1      17.772  11.667  30.623  1.00  0.00     0.210 HD
ENDBRANCH   2   3
ENDBRANCH   1   2
BRANCH   1   5
ATOM      5  C   UNL     1      19.622   9.693  34.177  1.00  0.00     0.190 C 
BRANCH   5   6
ATOM      6  O   UNL     1      19.178   9.386  35.471  1.00  0.00    -0.394 OA
ATOM      7  H   UNL     1      18.784   8.475  35.427  1.00  0.00     0.210 HD
ENDBRANCH   5   6
ENDBRANCH   1   5
BRANCH   1   8
ATOM      8  O   UNL     1      18.185   8.544  32.613  1.00  0.00    -0.388 OA
ATOM      9  H   UNL     1      18.758   8.491  31.804  1.00  0.00     0.211 HD
ENDBRANCH   1   8
TORSDOF 5
ENDMDL
MODEL 8
REMARK VINA RESULT:    -2.355     13.435     14.347
REMARK INTER + INTRA:          -3.024
REMARK INTER:                  -3.006
REMARK INTRA:                  -0.018
REMARK UNBOUND:                -0.187
REMARK SMILES OCC(O)CO
REMARK SMILES IDX 3 1 5 2 6 3 2 5 1 6 4 8
REMARK H PARENT 6 4 1 7 4 9
REMARK Flexibility Score: inf
ROOT
ATOM      1  C   UNL     1      19.094   9.347  32.796  1.00  0.00     0.165 C 
ENDROOT
BRANCH   1   2
ATOM      2  C   UNL     1      19.777   9.803  34.094  1.00  0.00     0.190 C 
BRANCH   2   3
ATOM      3  O   UNL     1      19.069   9.364  35.222  1.00  0.00    -0.394 OA
ATOM      4  H   UNL     1      18.105   9.461  35.010  1.00  0.00     0.210 HD
ENDBRANCH   2   3
ENDBRANCH   1   2
BRANCH   1   5
ATOM      5  C   UNL     1      18.230  10.472  32.198  1.00  0.00     0.190 C 
BRANCH   5   6
ATOM      6  O   UNL     1      16.882  10.088  32.158  1.00  0.00    -0.394 OA
ATOM      7  H   UNL     1      16.689   9.831  31.219  1.00  0.00     0.210 HD
ENDBRANCH   5   6
ENDBRANCH   1   5
BRANCH   1   8
ATOM      8  O   UNL     1      18.304   8.216  33.057  1.00  0.00    -0.388 OA
ATOM      9  H   UNL     1      18.711   7.459  32.561  1.00  0.00     0.211 HD
ENDBRANCH   1   8
TORSDOF 5
ENDMDL
MODEL 9
REMARK VINA RESULT:    -2.341     16.359     17.407
REMARK INTER + INTRA:          -3.007
REMARK INTER:                  -2.785
REMARK INTRA:                  -0.222
REMARK UNBOUND:                -0.187
REMARK SMILES OCC(O)CO
REMARK SMILES IDX 3 1 5 2 6 3 2 5 1 6 4 8
REMARK H PARENT 6 4 1 7 4 9
REMARK Flexibility Score: inf
ROOT
ATOM      1  C   UNL     1      20.144   8.505  37.439  1.00  0.00     0.165 C 
ENDROOT
BRANCH   1   2
ATOM      2  C   UNL     1      20.667   9.908  37.782  1.00  0.00     0.190 C 
BRANCH   2   3
ATOM      3  O   UNL     1      19.611  10.815  37.958  1.00  0.00    -0.394 OA
ATOM      4  H   UNL     1      19.943  11.701  37.659  1.00  0.00     0.210 HD
ENDBRANCH   2   3
ENDBRANCH   1   2
BRANCH   1   5
ATOM      5  C   UNL     1      19.990   8.326  35.919  1.00  0.00     0.190 C 
BRANCH   5   6
ATOM      6  O   UNL     1      19.216   9.362  35.377  1.00  0.00    -0.394 OA
ATOM      7  H   UNL     1      19.824  10.139  35.260  1.00  0.00     0.210 HD
ENDBRANCH   5   6
ENDBRANCH   1   5
BRANCH   1   8
ATOM      8  O   UNL     1      18.912   8.298  38.079  1.00  0.00    -0.388 OA
ATOM      9  H   UNL     1      19.071   8.405  39.053  1.00  0.00     0.211 HD
ENDBRANCH   1   8
TORSDOF 5
ENDMDL
