MODEL 1
REMARK VINA RESULT:    -5.264      0.000      0.000
REMARK INTER + INTRA:          -5.264
REMARK INTER:                  -5.264
REMARK INTRA:                   0.000
REMARK UNBOUND:                 0.000
REMARK SMILES O=c1ccc2ccccc2o1
REMARK SMILES IDX 7 1 8 2 9 3 10 4 5 5 6 6 4 7 3 8 2 9 1 10 11 11
REMARK H PARENT
REMARK Flexibility Score: inf
ROOT
ATOM      1  C   UNL     1       7.436 -32.239 -20.086  1.00  0.00     0.001 A 
ATOM      2  C   UNL     1       8.245 -31.246 -20.648  1.00  0.00     0.004 A 
ATOM      3  C   UNL     1       9.638 -31.366 -20.606  1.00  0.00     0.048 A 
ATOM      4  C   UNL     1      10.227 -32.482 -20.002  1.00  0.00     0.138 A 
ATOM      5  C   UNL     1       9.410 -33.487 -19.435  1.00  0.00     0.018 A 
ATOM      6  C   UNL     1       8.015 -33.360 -19.480  1.00  0.00     0.012 A 
ATOM      7  C   UNL     1      10.028 -34.590 -18.839  1.00  0.00     0.019 A 
ATOM      8  C   UNL     1      11.420 -34.668 -18.820  1.00  0.00     0.094 A 
ATOM      9  C   UNL     1      12.165 -33.636 -19.400  1.00  0.00     0.336 A 
ATOM     10  O   UNL     1      13.423 -33.688 -19.394  1.00  0.00    -0.246 OA
ATOM     11  O   UNL     1      11.553 -32.596 -19.962  1.00  0.00    -0.423 OA
ENDROOT
TORSDOF 0
ENDMDL
MODEL 2
REMARK VINA RESULT:    -5.160      3.547      5.242
REMARK INTER + INTRA:          -5.160
REMARK INTER:                  -5.160
REMARK INTRA:                   0.000
REMARK UNBOUND:                 0.000
REMARK SMILES O=c1ccc2ccccc2o1
REMARK SMILES IDX 7 1 8 2 9 3 10 4 5 5 6 6 4 7 3 8 2 9 1 10 11 11
REMARK H PARENT
REMARK Flexibility Score: inf
ROOT
ATOM      1  C   UNL     1       7.754 -32.440 -20.608  1.00  0.00     0.001 A 
ATOM      2  C   UNL     1       7.799 -32.806 -19.259  1.00  0.00     0.004 A 
ATOM      3  C   UNL     1       7.842 -31.824 -18.264  1.00  0.00     0.048 A 
ATOM      4  C   UNL     1       7.841 -30.470 -18.615  1.00  0.00     0.138 A 
ATOM      5  C   UNL     1       7.795 -30.099 -19.978  1.00  0.00     0.018 A 
ATOM      6  C   UNL     1       7.752 -31.088 -20.971  1.00  0.00     0.012 A 
ATOM      7  C   UNL     1       7.795 -28.738 -20.298  1.00  0.00     0.019 A 
ATOM      8  C   UNL     1       7.840 -27.794 -19.274  1.00  0.00     0.094 A 
ATOM      9  C   UNL     1       7.884 -28.235 -17.946  1.00  0.00     0.336 A 
ATOM     10  O   UNL     1       7.924 -27.397 -17.007  1.00  0.00    -0.246 OA
ATOM     11  O   UNL     1       7.883 -29.536 -17.668  1.00  0.00    -0.423 OA
ENDROOT
TORSDOF 0
ENDMDL
MODEL 3
REMARK VINA RESULT:    -5.099      2.474      3.710
REMARK INTER + INTRA:          -5.099
REMARK INTER:                  -5.099
REMARK INTRA:                   0.000
REMARK UNBOUND:                 0.000
REMARK SMILES O=c1ccc2ccccc2o1
REMARK SMILES IDX 7 1 8 2 9 3 10 4 5 5 6 6 4 7 3 8 2 9 1 10 11 11
REMARK H PARENT
REMARK Flexibility Score: inf
ROOT
ATOM      1  C   UNL     1       7.045 -28.255 -20.426  1.00  0.00     0.001 A 
ATOM      2  C   UNL     1       7.597 -27.950 -19.177  1.00  0.00     0.004 A 
ATOM      3  C   UNL     1       8.221 -28.947 -18.421  1.00  0.00     0.048 A 
ATOM      4  C   UNL     1       8.296 -30.255 -18.912  1.00  0.00     0.138 A 
ATOM      5  C   UNL     1       7.740 -30.564 -20.173  1.00  0.00     0.018 A 
ATOM      6  C   UNL     1       7.115 -29.560 -20.926  1.00  0.00     0.012 A 
ATOM      7  C   UNL     1       7.830 -31.880 -20.637  1.00  0.00     0.019 A 
ATOM      8  C   UNL     1       8.462 -32.841 -19.849  1.00  0.00     0.094 A 
ATOM      9  C   UNL     1       8.989 -32.463 -18.610  1.00  0.00     0.336 A 
ATOM     10  O   UNL     1       9.564 -33.317 -17.884  1.00  0.00    -0.246 OA
ATOM     11  O   UNL     1       8.890 -31.204 -18.191  1.00  0.00    -0.423 OA
ENDROOT
TORSDOF 0
ENDMDL
MODEL 4
REMARK VINA RESULT:    -5.066      1.373      3.741
REMARK INTER + INTRA:          -5.066
REMARK INTER:                  -5.066
REMARK INTRA:                   0.000
REMARK UNBOUND:                 0.000
REMARK SMILES O=c1ccc2ccccc2o1
REMARK SMILES IDX 7 1 8 2 9 3 10 4 5 5 6 6 4 7 3 8 2 9 1 10 11 11
REMARK H PARENT
REMARK Flexibility Score: inf
ROOT
ATOM      1  C   UNL     1      11.379 -35.156 -18.626  1.00  0.00     0.001 A 
ATOM      2  C   UNL     1      12.367 -34.240 -19.006  1.00  0.00     0.004 A 
ATOM      3  C   UNL     1      12.008 -33.005 -19.555  1.00  0.00     0.048 A 
ATOM      4  C   UNL     1      10.658 -32.680 -19.726  1.00  0.00     0.138 A 
ATOM      5  C   UNL     1       9.659 -33.604 -19.343  1.00  0.00     0.018 A 
ATOM      6  C   UNL     1      10.026 -34.841 -18.794  1.00  0.00     0.012 A 
ATOM      7  C   UNL     1       8.319 -33.251 -19.527  1.00  0.00     0.019 A 
ATOM      8  C   UNL     1       8.008 -32.010 -20.078  1.00  0.00     0.094 A 
ATOM      9  C   UNL     1       9.049 -31.145 -20.435  1.00  0.00     0.336 A 
ATOM     10  O   UNL     1       8.788 -30.019 -20.934  1.00  0.00    -0.246 OA
ATOM     11  O   UNL     1      10.317 -31.505 -20.250  1.00  0.00    -0.423 OA
ENDROOT
TORSDOF 0
ENDMDL
MODEL 5
REMARK VINA RESULT:    -5.022      3.714      4.956
REMARK INTER + INTRA:          -5.022
REMARK INTER:                  -5.022
REMARK INTRA:                   0.000
REMARK UNBOUND:                 0.000
REMARK SMILES O=c1ccc2ccccc2o1
REMARK SMILES IDX 7 1 8 2 9 3 10 4 5 5 6 6 4 7 3 8 2 9 1 10 11 11
REMARK H PARENT
REMARK Flexibility Score: inf
ROOT
ATOM      1  C   UNL     1       7.501 -32.636 -19.485  1.00  0.00     0.001 A 
ATOM      2  C   UNL     1       7.704 -31.933 -20.677  1.00  0.00     0.004 A 
ATOM      3  C   UNL     1       7.939 -30.554 -20.650  1.00  0.00     0.048 A 
ATOM      4  C   UNL     1       7.972 -29.873 -19.428  1.00  0.00     0.138 A 
ATOM      5  C   UNL     1       7.766 -30.582 -18.224  1.00  0.00     0.018 A 
ATOM      6  C   UNL     1       7.531 -31.964 -18.258  1.00  0.00     0.012 A 
ATOM      7  C   UNL     1       7.804 -29.874 -17.019  1.00  0.00     0.019 A 
ATOM      8  C   UNL     1       8.041 -28.500 -17.040  1.00  0.00     0.094 A 
ATOM      9  C   UNL     1       8.235 -27.864 -18.271  1.00  0.00     0.336 A 
ATOM     10  O   UNL     1       8.451 -26.624 -18.310  1.00  0.00    -0.246 OA
ATOM     11  O   UNL     1       8.194 -28.561 -19.403  1.00  0.00    -0.423 OA
ENDROOT
TORSDOF 0
ENDMDL
MODEL 6
REMARK VINA RESULT:    -5.005      2.562      4.593
REMARK INTER + INTRA:          -5.005
REMARK INTER:                  -5.005
REMARK INTRA:                   0.000
REMARK UNBOUND:                 0.000
REMARK SMILES O=c1ccc2ccccc2o1
REMARK SMILES IDX 7 1 8 2 9 3 10 4 5 5 6 6 4 7 3 8 2 9 1 10 11 11
REMARK H PARENT
REMARK Flexibility Score: inf
ROOT
ATOM      1  C   UNL     1       8.167 -33.051 -19.661  1.00  0.00     0.001 A 
ATOM      2  C   UNL     1       9.509 -33.001 -20.055  1.00  0.00     0.004 A 
ATOM      3  C   UNL     1      10.052 -31.811 -20.552  1.00  0.00     0.048 A 
ATOM      4  C   UNL     1       9.254 -30.667 -20.657  1.00  0.00     0.138 A 
ATOM      5  C   UNL     1       7.899 -30.717 -20.259  1.00  0.00     0.018 A 
ATOM      6  C   UNL     1       7.361 -31.912 -19.762  1.00  0.00     0.012 A 
ATOM      7  C   UNL     1       7.127 -29.557 -20.376  1.00  0.00     0.019 A 
ATOM      8  C   UNL     1       7.710 -28.395 -20.877  1.00  0.00     0.094 A 
ATOM      9  C   UNL     1       9.058 -28.419 -21.252  1.00  0.00     0.336 A 
ATOM     10  O   UNL     1       9.602 -27.378 -21.706  1.00  0.00    -0.246 OA
ATOM     11  O   UNL     1       9.771 -29.536 -21.131  1.00  0.00    -0.423 OA
ENDROOT
TORSDOF 0
ENDMDL
MODEL 7
REMARK VINA RESULT:    -5.001      1.250      2.148
REMARK INTER + INTRA:          -5.001
REMARK INTER:                  -5.001
REMARK INTRA:                   0.000
REMARK UNBOUND:                 0.000
REMARK SMILES O=c1ccc2ccccc2o1
REMARK SMILES IDX 7 1 8 2 9 3 10 4 5 5 6 6 4 7 3 8 2 9 1 10 11 11
REMARK H PARENT
REMARK Flexibility Score: inf
ROOT
ATOM      1  C   UNL     1       8.193 -31.232 -20.624  1.00  0.00     0.001 A 
ATOM      2  C   UNL     1       7.406 -32.241 -20.058  1.00  0.00     0.004 A 
ATOM      3  C   UNL     1       8.010 -33.348 -19.453  1.00  0.00     0.048 A 
ATOM      4  C   UNL     1       9.405 -33.451 -19.414  1.00  0.00     0.138 A 
ATOM      5  C   UNL     1      10.200 -32.432 -19.985  1.00  0.00     0.018 A 
ATOM      6  C   UNL     1       9.589 -31.325 -20.590  1.00  0.00     0.012 A 
ATOM      7  C   UNL     1      11.591 -32.564 -19.930  1.00  0.00     0.019 A 
ATOM      8  C   UNL     1      12.149 -33.685 -19.318  1.00  0.00     0.094 A 
ATOM      9  C   UNL     1      11.299 -34.654 -18.774  1.00  0.00     0.336 A 
ATOM     10  O   UNL     1      11.785 -35.673 -18.216  1.00  0.00    -0.246 OA
ATOM     11  O   UNL     1       9.979 -34.506 -18.839  1.00  0.00    -0.423 OA
ENDROOT
TORSDOF 0
ENDMDL
MODEL 8
REMARK VINA RESULT:    -4.949     12.855     14.120
REMARK INTER + INTRA:          -4.949
REMARK INTER:                  -4.949
REMARK INTRA:                   0.000
REMARK UNBOUND:                 0.000
REMARK SMILES O=c1ccc2ccccc2o1
REMARK SMILES IDX 7 1 8 2 9 3 10 4 5 5 6 6 4 7 3 8 2 9 1 10 11 11
REMARK H PARENT
REMARK Flexibility Score: inf
ROOT
ATOM      1  C   UNL     1      14.618 -35.351  -4.931  1.00  0.00     0.001 A 
ATOM      2  C   UNL     1      14.583 -34.586  -6.102  1.00  0.00     0.004 A 
ATOM      3  C   UNL     1      14.368 -35.203  -7.339  1.00  0.00     0.048 A 
ATOM      4  C   UNL     1      14.187 -36.589  -7.408  1.00  0.00     0.138 A 
ATOM      5  C   UNL     1      14.222 -37.362  -6.226  1.00  0.00     0.018 A 
ATOM      6  C   UNL     1      14.438 -36.737  -4.989  1.00  0.00     0.012 A 
ATOM      7  C   UNL     1      14.039 -38.744  -6.328  1.00  0.00     0.019 A 
ATOM      8  C   UNL     1      13.827 -39.316  -7.581  1.00  0.00     0.094 A 
ATOM      9  C   UNL     1      13.805 -38.488  -8.709  1.00  0.00     0.336 A 
ATOM     10  O   UNL     1      13.615 -38.986  -9.850  1.00  0.00    -0.246 OA
ATOM     11  O   UNL     1      13.983 -37.175  -8.586  1.00  0.00    -0.423 OA
ENDROOT
TORSDOF 0
ENDMDL
MODEL 9
REMARK VINA RESULT:    -4.915      1.676      1.818
REMARK INTER + INTRA:          -4.915
REMARK INTER:                  -4.915
REMARK INTRA:                   0.000
REMARK UNBOUND:                 0.000
REMARK SMILES O=c1ccc2ccccc2o1
REMARK SMILES IDX 7 1 8 2 9 3 10 4 5 5 6 6 4 7 3 8 2 9 1 10 11 11
REMARK H PARENT
REMARK Flexibility Score: inf
ROOT
ATOM      1  C   UNL     1       7.465 -31.009 -19.352  1.00  0.00     0.001 A 
ATOM      2  C   UNL     1       7.775 -31.553 -20.604  1.00  0.00     0.004 A 
ATOM      3  C   UNL     1       8.705 -32.592 -20.709  1.00  0.00     0.048 A 
ATOM      4  C   UNL     1       9.330 -33.093 -19.561  1.00  0.00     0.138 A 
ATOM      5  C   UNL     1       9.017 -32.544 -18.297  1.00  0.00     0.018 A 
ATOM      6  C   UNL     1       8.085 -31.503 -18.198  1.00  0.00     0.012 A 
ATOM      7  C   UNL     1       9.658 -33.065 -17.169  1.00  0.00     0.019 A 
ATOM      8  C   UNL     1      10.578 -34.101 -17.321  1.00  0.00     0.094 A 
ATOM      9  C   UNL     1      10.839 -34.594 -18.605  1.00  0.00     0.336 A 
ATOM     10  O   UNL     1      11.666 -35.529 -18.763  1.00  0.00    -0.246 OA
ATOM     11  O   UNL     1      10.216 -34.081 -19.663  1.00  0.00    -0.423 OA
ENDROOT
TORSDOF 0
ENDMDL
