MODEL 1
REMARK VINA RESULT:    -2.710      0.000      0.000
REMARK INTER + INTRA:          -3.369
REMARK INTER:                  -3.185
REMARK INTRA:                  -0.184
REMARK UNBOUND:                -0.184
REMARK SMILES O=c1c(O)c(-c2ccc(O)cc2)oc2cc(O)cc(O)c12
REMARK SMILES IDX 5 1 3 2 2 3 1 4 21 5 19 6 18 7 16 8 15 9 14 10 13 11 6 12
REMARK SMILES IDX 7 13 8 14 9 15 12 16 11 17 10 18 4 20 20 22 17 24
REMARK H PARENT 10 19 4 21 20 23 17 25
REMARK Flexibility Score: inf
ROOT
ATOM      1  C   UNL     1      29.699  38.048  27.148  1.00  0.00     0.180 A 
ATOM      2  C   UNL     1      28.363  38.294  26.785  1.00  0.00     0.208 A 
ATOM      3  C   UNL     1      27.598  37.244  26.251  1.00  0.00     0.238 A 
ATOM      4  O   UNL     1      26.388  37.456  25.979  1.00  0.00    -0.285 OA
ATOM      5  C   UNL     1      28.183  35.967  26.072  1.00  0.00     0.111 A 
ATOM      6  C   UNL     1      27.513  34.842  25.503  1.00  0.00     0.134 A 
ATOM      7  C   UNL     1      28.146  33.594  25.493  1.00  0.00     0.093 A 
ATOM      8  C   UNL     1      29.450  33.444  25.974  1.00  0.00     0.123 A 
ATOM      9  C   UNL     1      30.133  34.548  26.477  1.00  0.00     0.094 A 
ATOM     10  C   UNL     1      29.514  35.799  26.532  1.00  0.00     0.146 A 
ATOM     11  O   UNL     1      30.197  36.824  27.028  1.00  0.00    -0.452 OA
ENDROOT
BRANCH   1  12
ATOM     12  C   UNL     1      30.575  39.109  27.694  1.00  0.00     0.021 A 
ATOM     13  C   UNL     1      30.369  39.640  28.981  1.00  0.00     0.016 A 
ATOM     14  C   UNL     1      31.195  40.659  29.466  1.00  0.00     0.047 A 
ATOM     15  C   UNL     1      32.226  41.169  28.667  1.00  0.00     0.115 A 
ATOM     16  C   UNL     1      31.599  39.642  26.892  1.00  0.00     0.016 A 
ATOM     17  C   UNL     1      32.424  40.660  27.381  1.00  0.00     0.047 A 
BRANCH  15  18
ATOM     18  O   UNL     1      33.056  42.184  29.141  1.00  0.00    -0.508 OA
ATOM     19  H   UNL     1      32.693  42.946  29.702  1.00  0.00     0.293 HD
ENDBRANCH  15  18
ENDBRANCH   1  12
BRANCH   2  20
ATOM     20  O   UNL     1      27.799  39.556  26.991  1.00  0.00    -0.502 OA
ATOM     21  H   UNL     1      26.825  39.683  27.237  1.00  0.00     0.293 HD
ENDBRANCH   2  20
BRANCH   6  22
ATOM     22  O   UNL     1      26.247  34.904  24.912  1.00  0.00    -0.507 OA
ATOM     23  H   UNL     1      25.756  35.757  24.693  1.00  0.00     0.293 HD
ENDBRANCH   6  22
BRANCH   8  24
ATOM     24  O   UNL     1      30.079  32.200  25.947  1.00  0.00    -0.508 OA
ATOM     25  H   UNL     1      30.768  31.941  26.642  1.00  0.00     0.293 HD
ENDBRANCH   8  24
TORSDOF 5
ENDMDL
MODEL 2
REMARK VINA RESULT:    -1.445      3.095      5.255
REMARK INTER + INTRA:          -1.882
REMARK INTER:                  -1.692
REMARK INTRA:                  -0.190
REMARK UNBOUND:                -0.184
REMARK SMILES O=c1c(O)c(-c2ccc(O)cc2)oc2cc(O)cc(O)c12
REMARK SMILES IDX 5 1 3 2 2 3 1 4 21 5 19 6 18 7 16 8 15 9 14 10 13 11 6 12
REMARK SMILES IDX 7 13 8 14 9 15 12 16 11 17 10 18 4 20 20 22 17 24
REMARK H PARENT 10 19 4 21 20 23 17 25
REMARK Flexibility Score: inf
ROOT
ATOM      1  C   UNL     1      29.702  37.215  27.129  1.00  0.00     0.180 A 
ATOM      2  C   UNL     1      28.389  37.459  27.568  1.00  0.00     0.208 A 
ATOM      3  C   UNL     1      27.629  38.449  26.925  1.00  0.00     0.238 A 
ATOM      4  O   UNL     1      26.436  38.625  27.287  1.00  0.00    -0.285 OA
ATOM      5  C   UNL     1      28.196  39.195  25.864  1.00  0.00     0.111 A 
ATOM      6  C   UNL     1      27.532  40.249  25.168  1.00  0.00     0.134 A 
ATOM      7  C   UNL     1      28.140  40.830  24.049  1.00  0.00     0.093 A 
ATOM      8  C   UNL     1      29.418  40.438  23.641  1.00  0.00     0.123 A 
ATOM      9  C   UNL     1      30.099  39.452  24.349  1.00  0.00     0.094 A 
ATOM     10  C   UNL     1      29.502  38.829  25.448  1.00  0.00     0.146 A 
ATOM     11  O   UNL     1      30.182  37.886  26.089  1.00  0.00    -0.452 OA
ENDROOT
BRANCH   1  12
ATOM     12  C   UNL     1      30.573  36.206  27.772  1.00  0.00     0.021 A 
ATOM     13  C   UNL     1      31.691  36.583  28.540  1.00  0.00     0.016 A 
ATOM     14  C   UNL     1      32.513  35.611  29.117  1.00  0.00     0.047 A 
ATOM     15  C   UNL     1      32.238  34.251  28.925  1.00  0.00     0.115 A 
ATOM     16  C   UNL     1      30.317  34.839  27.568  1.00  0.00     0.016 A 
ATOM     17  C   UNL     1      31.140  33.869  28.147  1.00  0.00     0.047 A 
BRANCH  15  18
ATOM     18  O   UNL     1      33.049  33.274  29.496  1.00  0.00    -0.508 OA
ATOM     19  H   UNL     1      33.998  33.478  29.787  1.00  0.00     0.293 HD
ENDBRANCH  15  18
ENDBRANCH   1  12
BRANCH   2  20
ATOM     20  O   UNL     1      27.840  36.696  28.602  1.00  0.00    -0.502 OA
ATOM     21  H   UNL     1      27.500  35.753  28.462  1.00  0.00     0.293 HD
ENDBRANCH   2  20
BRANCH   6  22
ATOM     22  O   UNL     1      26.294  40.778  25.550  1.00  0.00    -0.507 OA
ATOM     23  H   UNL     1      25.400  40.425  25.245  1.00  0.00     0.293 HD
ENDBRANCH   6  22
BRANCH   8  24
ATOM     24  O   UNL     1      30.024  41.032  22.535  1.00  0.00    -0.508 OA
ATOM     25  H   UNL     1      29.982  40.608  21.617  1.00  0.00     0.293 HD
ENDBRANCH   8  24
TORSDOF 5
ENDMDL
MODEL 3
REMARK VINA RESULT:    -1.291      3.065      5.332
REMARK INTER + INTRA:          -1.700
REMARK INTER:                  -1.508
REMARK INTRA:                  -0.193
REMARK UNBOUND:                -0.184
REMARK SMILES O=c1c(O)c(-c2ccc(O)cc2)oc2cc(O)cc(O)c12
REMARK SMILES IDX 5 1 3 2 2 3 1 4 21 5 19 6 18 7 16 8 15 9 14 10 13 11 6 12
REMARK SMILES IDX 7 13 8 14 9 15 12 16 11 17 10 18 4 20 20 22 17 24
REMARK H PARENT 10 19 4 21 20 23 17 25
REMARK Flexibility Score: inf
ROOT
ATOM      1  C   UNL     1      29.744  37.602  26.355  1.00  0.00     0.180 A 
ATOM      2  C   UNL     1      28.405  37.179  26.418  1.00  0.00     0.208 A 
ATOM      3  C   UNL     1      27.711  37.293  27.633  1.00  0.00     0.238 A 
ATOM      4  O   UNL     1      26.497  36.963  27.668  1.00  0.00    -0.285 OA
ATOM      5  C   UNL     1      28.368  37.814  28.774  1.00  0.00     0.111 A 
ATOM      6  C   UNL     1      27.774  37.937  30.065  1.00  0.00     0.134 A 
ATOM      7  C   UNL     1      28.474  38.586  31.089  1.00  0.00     0.093 A 
ATOM      8  C   UNL     1      29.773  39.058  30.885  1.00  0.00     0.123 A 
ATOM      9  C   UNL     1      30.383  38.890  29.645  1.00  0.00     0.094 A 
ATOM     10  C   UNL     1      29.696  38.278  28.594  1.00  0.00     0.146 A 
ATOM     11  O   UNL     1      30.312  38.147  27.425  1.00  0.00    -0.452 OA
ENDROOT
BRANCH   1  12
ATOM     12  C   UNL     1      30.549  37.491  25.118  1.00  0.00     0.021 A 
ATOM     13  C   UNL     1      31.607  36.569  25.012  1.00  0.00     0.016 A 
ATOM     14  C   UNL     1      32.368  36.499  23.841  1.00  0.00     0.047 A 
ATOM     15  C   UNL     1      32.093  37.357  22.769  1.00  0.00     0.115 A 
ATOM     16  C   UNL     1      30.293  38.362  24.045  1.00  0.00     0.016 A 
ATOM     17  C   UNL     1      31.056  38.289  22.875  1.00  0.00     0.047 A 
BRANCH  15  18
ATOM     18  O   UNL     1      32.845  37.295  21.598  1.00  0.00    -0.508 OA
ATOM     19  H   UNL     1      33.180  36.412  21.230  1.00  0.00     0.293 HD
ENDBRANCH  15  18
ENDBRANCH   1  12
BRANCH   2  20
ATOM     20  O   UNL     1      27.768  36.690  25.274  1.00  0.00    -0.502 OA
ATOM     21  H   UNL     1      27.387  35.753  25.222  1.00  0.00     0.293 HD
ENDBRANCH   2  20
BRANCH   6  22
ATOM     22  O   UNL     1      26.519  37.417  30.400  1.00  0.00    -0.507 OA
ATOM     23  H   UNL     1      25.726  37.383  29.777  1.00  0.00     0.293 HD
ENDBRANCH   6  22
BRANCH   8  24
ATOM     24  O   UNL     1      30.469  39.690  31.914  1.00  0.00    -0.508 OA
ATOM     25  H   UNL     1      30.785  40.648  31.830  1.00  0.00     0.293 HD
ENDBRANCH   8  24
TORSDOF 5
ENDMDL
