MODEL 1
REMARK VINA RESULT:    -5.128      0.000      0.000
REMARK INTER + INTRA:         -10.618
REMARK INTER:                  -9.325
REMARK INTRA:                  -1.292
REMARK UNBOUND:                -1.292
REMARK SMILES CCCCCCCCCCCCCC[C@@H](C)C(=O)[O-]
REMARK SMILES IDX 9 1 10 2 11 3 12 4 13 5 14 6 15 7 16 8 17 9 18 10 19 11 8 12
REMARK SMILES IDX 7 13 6 14 5 15 4 16 3 17 2 18 1 19
REMARK H PARENT
REMARK Flexibility Score: inf
ROOT
ATOM      1  C   UNL     1    -129.366 110.769  42.667  1.00  0.00     0.000 C 
ENDROOT
BRANCH   1   2
ATOM      2  C   UNL     1    -129.359 111.586  43.967  1.00  0.00     0.000 C 
BRANCH   2   3
ATOM      3  C   UNL     1    -128.984 113.048  43.696  1.00  0.00     0.000 C 
BRANCH   3   4
ATOM      4  C   UNL     1    -130.060 113.746  42.856  1.00  0.00     0.000 C 
BRANCH   4   5
ATOM      5  C   UNL     1    -129.546 115.084  42.303  1.00  0.00     0.001 C 
BRANCH   5   6
ATOM      6  C   UNL     1    -130.151 116.305  43.020  1.00  0.00     0.009 C 
BRANCH   6   7
ATOM      7  C   UNL     1    -129.292 116.879  44.172  1.00  0.00     0.032 C 
ATOM      8  C   UNL     1    -128.998 118.375  43.995  1.00  0.00     0.014 C 
BRANCH   7   9
ATOM      9  C   UNL     1    -129.998 116.656  45.481  1.00  0.00     0.044 C 
ATOM     10  O   UNL     1    -130.162 115.487  45.920  1.00  0.00    -0.550 OA
ATOM     11  O   UNL     1    -130.487 117.735  46.209  1.00  0.00    -0.550 OA
ENDBRANCH   7   9
ENDBRANCH   6   7
ENDBRANCH   5   6
ENDBRANCH   4   5
ENDBRANCH   3   4
ENDBRANCH   2   3
ENDBRANCH   1   2
BRANCH   1  12
ATOM     12  C   UNL     1    -129.300 109.253  42.917  1.00  0.00     0.000 C 
BRANCH  12  13
ATOM     13  C   UNL     1    -127.904 108.670  42.643  1.00  0.00    -0.000 C 
BRANCH  13  14
ATOM     14  C   UNL     1    -127.957 107.259  42.033  1.00  0.00    -0.000 C 
BRANCH  14  15
ATOM     15  C   UNL     1    -129.338 106.886  41.452  1.00  0.00    -0.000 C 
BRANCH  15  16
ATOM     16  C   UNL     1    -129.242 106.377  40.003  1.00  0.00    -0.000 C 
BRANCH  16  17
ATOM     17  C   UNL     1    -130.078 107.231  39.025  1.00  0.00    -0.000 C 
BRANCH  17  18
ATOM     18  C   UNL     1    -129.953 108.744  39.266  1.00  0.00    -0.003 C 
ATOM     19  C   UNL     1    -131.303 109.435  39.446  1.00  0.00     0.004 C 
ENDBRANCH  17  18
ENDBRANCH  16  17
ENDBRANCH  15  16
ENDBRANCH  14  15
ENDBRANCH  13  14
ENDBRANCH  12  13
ENDBRANCH   1  12
TORSDOF 14
ENDMDL
MODEL 2
REMARK VINA RESULT:    -5.094      3.421      9.003
REMARK INTER + INTRA:         -10.555
REMARK INTER:                  -9.595
REMARK INTRA:                  -0.960
REMARK UNBOUND:                -1.292
REMARK SMILES CCCCCCCCCCCCCC[C@@H](C)C(=O)[O-]
REMARK SMILES IDX 9 1 10 2 11 3 12 4 13 5 14 6 15 7 16 8 17 9 18 10 19 11 8 12
REMARK SMILES IDX 7 13 6 14 5 15 4 16 3 17 2 18 1 19
REMARK H PARENT
REMARK Flexibility Score: inf
ROOT
ATOM      1  C   UNL     1    -129.282 110.832  42.846  1.00  0.00     0.000 C 
ENDROOT
BRANCH   1   2
ATOM      2  C   UNL     1    -129.750 109.668  43.732  1.00  0.00     0.000 C 
BRANCH   2   3
ATOM      3  C   UNL     1    -129.546 108.323  43.024  1.00  0.00     0.000 C 
BRANCH   3   4
ATOM      4  C   UNL     1    -128.083 108.137  42.605  1.00  0.00     0.000 C 
BRANCH   4   5
ATOM      5  C   UNL     1    -127.930 106.938  41.656  1.00  0.00     0.001 C 
BRANCH   5   6
ATOM      6  C   UNL     1    -129.259 106.511  41.006  1.00  0.00     0.009 C 
BRANCH   6   7
ATOM      7  C   UNL     1    -129.320 106.681  39.469  1.00  0.00     0.032 C 
ATOM      8  C   UNL     1    -130.005 105.497  38.774  1.00  0.00     0.014 C 
BRANCH   7   9
ATOM      9  C   UNL     1    -130.051 107.953  39.136  1.00  0.00     0.044 C 
ATOM     10  O   UNL     1    -131.247 107.911  38.745  1.00  0.00    -0.550 OA
ATOM     11  O   UNL     1    -129.410 109.182  39.242  1.00  0.00    -0.550 OA
ENDBRANCH   7   9
ENDBRANCH   6   7
ENDBRANCH   5   6
ENDBRANCH   4   5
ENDBRANCH   3   4
ENDBRANCH   2   3
ENDBRANCH   1   2
BRANCH   1  12
ATOM     12  C   UNL     1    -129.248 112.173  43.597  1.00  0.00     0.000 C 
BRANCH  12  13
ATOM     13  C   UNL     1    -129.792 113.336  42.753  1.00  0.00    -0.000 C 
BRANCH  13  14
ATOM     14  C   UNL     1    -129.564 114.708  43.410  1.00  0.00    -0.000 C 
BRANCH  14  15
ATOM     15  C   UNL     1    -129.609 114.671  44.953  1.00  0.00    -0.000 C 
BRANCH  15  16
ATOM     16  C   UNL     1    -129.861 116.062  45.561  1.00  0.00    -0.000 C 
BRANCH  16  17
ATOM     17  C   UNL     1    -130.128 117.134  44.482  1.00  0.00    -0.000 C 
BRANCH  17  18
ATOM     18  C   UNL     1    -129.017 118.191  44.376  1.00  0.00    -0.003 C 
ATOM     19  C   UNL     1    -128.636 118.518  42.934  1.00  0.00     0.004 C 
ENDBRANCH  17  18
ENDBRANCH  16  17
ENDBRANCH  15  16
ENDBRANCH  14  15
ENDBRANCH  13  14
ENDBRANCH  12  13
ENDBRANCH   1  12
TORSDOF 14
ENDMDL
MODEL 3
REMARK VINA RESULT:    -5.035      3.151      8.891
REMARK INTER + INTRA:         -10.448
REMARK INTER:                  -9.424
REMARK INTRA:                  -1.024
REMARK UNBOUND:                -1.292
REMARK SMILES CCCCCCCCCCCCCC[C@@H](C)C(=O)[O-]
REMARK SMILES IDX 9 1 10 2 11 3 12 4 13 5 14 6 15 7 16 8 17 9 18 10 19 11 8 12
REMARK SMILES IDX 7 13 6 14 5 15 4 16 3 17 2 18 1 19
REMARK H PARENT
REMARK Flexibility Score: inf
ROOT
ATOM      1  C   UNL     1    -129.014 113.210  43.823  1.00  0.00     0.000 C 
ENDROOT
BRANCH   1   2
ATOM      2  C   UNL     1    -129.352 111.742  44.126  1.00  0.00     0.000 C 
BRANCH   2   3
ATOM      3  C   UNL     1    -129.362 110.904  42.841  1.00  0.00     0.000 C 
BRANCH   3   4
ATOM      4  C   UNL     1    -129.441 109.407  43.160  1.00  0.00     0.000 C 
BRANCH   4   5
ATOM      5  C   UNL     1    -128.610 108.586  42.162  1.00  0.00     0.001 C 
BRANCH   5   6
ATOM      6  C   UNL     1    -129.463 107.620  41.318  1.00  0.00     0.009 C 
BRANCH   6   7
ATOM      7  C   UNL     1    -129.463 107.905  39.798  1.00  0.00     0.032 C 
ATOM      8  C   UNL     1    -130.191 106.817  38.997  1.00  0.00     0.014 C 
BRANCH   7   9
ATOM      9  C   UNL     1    -130.110 109.238  39.539  1.00  0.00     0.044 C 
ATOM     10  O   UNL     1    -131.359 109.366  39.639  1.00  0.00    -0.550 OA
ATOM     11  O   UNL     1    -129.339 110.335  39.174  1.00  0.00    -0.550 OA
ENDBRANCH   7   9
ENDBRANCH   6   7
ENDBRANCH   5   6
ENDBRANCH   4   5
ENDBRANCH   3   4
ENDBRANCH   2   3
ENDBRANCH   1   2
BRANCH   1  12
ATOM     12  C   UNL     1    -130.060 113.884  42.919  1.00  0.00     0.000 C 
BRANCH  12  13
ATOM     13  C   UNL     1    -129.521 115.153  42.238  1.00  0.00    -0.000 C 
BRANCH  13  14
ATOM     14  C   UNL     1    -130.221 116.433  42.722  1.00  0.00    -0.000 C 
BRANCH  14  15
ATOM     15  C   UNL     1    -129.250 117.501  43.273  1.00  0.00    -0.000 C 
BRANCH  15  16
ATOM     16  C   UNL     1    -129.426 117.720  44.786  1.00  0.00    -0.000 C 
BRANCH  16  17
ATOM     17  C   UNL     1    -130.117 116.524  45.477  1.00  0.00    -0.000 C 
BRANCH  17  18
ATOM     18  C   UNL     1    -130.810 116.893  46.799  1.00  0.00    -0.003 C 
ATOM     19  C   UNL     1    -130.917 118.400  47.020  1.00  0.00     0.004 C 
ENDBRANCH  17  18
ENDBRANCH  16  17
ENDBRANCH  15  16
ENDBRANCH  14  15
ENDBRANCH  13  14
ENDBRANCH  12  13
ENDBRANCH   1  12
TORSDOF 14
ENDMDL
MODEL 4
REMARK VINA RESULT:    -4.941      4.384      9.431
REMARK INTER + INTRA:         -10.278
REMARK INTER:                  -9.318
REMARK INTRA:                  -0.960
REMARK UNBOUND:                -1.292
REMARK SMILES CCCCCCCCCCCCCC[C@@H](C)C(=O)[O-]
REMARK SMILES IDX 9 1 10 2 11 3 12 4 13 5 14 6 15 7 16 8 17 9 18 10 19 11 8 12
REMARK SMILES IDX 7 13 6 14 5 15 4 16 3 17 2 18 1 19
REMARK H PARENT
REMARK Flexibility Score: inf
ROOT
ATOM      1  C   UNL     1    -129.104 113.125  43.696  1.00  0.00     0.000 C 
ENDROOT
BRANCH   1   2
ATOM      2  C   UNL     1    -129.338 111.641  44.013  1.00  0.00     0.000 C 
BRANCH   2   3
ATOM      3  C   UNL     1    -129.390 110.806  42.728  1.00  0.00     0.000 C 
BRANCH   3   4
ATOM      4  C   UNL     1    -129.241 109.311  43.036  1.00  0.00     0.000 C 
BRANCH   4   5
ATOM      5  C   UNL     1    -128.523 108.582  41.890  1.00  0.00     0.001 C 
BRANCH   5   6
ATOM      6  C   UNL     1    -129.155 107.217  41.555  1.00  0.00     0.009 C 
BRANCH   6   7
ATOM      7  C   UNL     1    -129.834 107.134  40.168  1.00  0.00     0.032 C 
ATOM      8  C   UNL     1    -129.660 108.421  39.351  1.00  0.00     0.014 C 
BRANCH   7   9
ATOM      9  C   UNL     1    -129.267 105.970  39.403  1.00  0.00     0.044 C 
ATOM     10  O   UNL     1    -129.243 105.991  38.144  1.00  0.00    -0.550 OA
ATOM     11  O   UNL     1    -128.778 104.856  40.076  1.00  0.00    -0.550 OA
ENDBRANCH   7   9
ENDBRANCH   6   7
ENDBRANCH   5   6
ENDBRANCH   4   5
ENDBRANCH   3   4
ENDBRANCH   2   3
ENDBRANCH   1   2
BRANCH   1  12
ATOM     12  C   UNL     1    -129.863 113.591  42.443  1.00  0.00     0.000 C 
BRANCH  12  13
ATOM     13  C   UNL     1    -129.446 115.000  41.989  1.00  0.00    -0.000 C 
BRANCH  13  14
ATOM     14  C   UNL     1    -130.209 116.114  42.726  1.00  0.00    -0.000 C 
BRANCH  14  15
ATOM     15  C   UNL     1    -129.299 117.248  43.248  1.00  0.00    -0.000 C 
BRANCH  15  16
ATOM     16  C   UNL     1    -129.612 117.619  44.708  1.00  0.00    -0.000 C 
BRANCH  16  17
ATOM     17  C   UNL     1    -129.878 116.376  45.586  1.00  0.00    -0.000 C 
BRANCH  17  18
ATOM     18  C   UNL     1    -130.757 116.665  46.813  1.00  0.00    -0.003 C 
ATOM     19  C   UNL     1    -131.062 118.151  46.995  1.00  0.00     0.004 C 
ENDBRANCH  17  18
ENDBRANCH  16  17
ENDBRANCH  15  16
ENDBRANCH  14  15
ENDBRANCH  13  14
ENDBRANCH  12  13
ENDBRANCH   1  12
TORSDOF 14
ENDMDL
MODEL 5
REMARK VINA RESULT:    -4.871      0.912      2.003
REMARK INTER + INTRA:         -10.149
REMARK INTER:                  -9.258
REMARK INTRA:                  -0.891
REMARK UNBOUND:                -1.292
REMARK SMILES CCCCCCCCCCCCCC[C@@H](C)C(=O)[O-]
REMARK SMILES IDX 9 1 10 2 11 3 12 4 13 5 14 6 15 7 16 8 17 9 18 10 19 11 8 12
REMARK SMILES IDX 7 13 6 14 5 15 4 16 3 17 2 18 1 19
REMARK H PARENT
REMARK Flexibility Score: inf
ROOT
ATOM      1  C   UNL     1    -129.340 111.015  42.776  1.00  0.00     0.000 C 
ENDROOT
BRANCH   1   2
ATOM      2  C   UNL     1    -129.370 111.875  44.048  1.00  0.00     0.000 C 
BRANCH   2   3
ATOM      3  C   UNL     1    -128.999 113.330  43.736  1.00  0.00     0.000 C 
BRANCH   3   4
ATOM      4  C   UNL     1    -129.984 113.949  42.738  1.00  0.00     0.000 C 
BRANCH   4   5
ATOM      5  C   UNL     1    -129.508 115.337  42.282  1.00  0.00     0.001 C 
BRANCH   5   6
ATOM      6  C   UNL     1    -130.158 116.486  43.075  1.00  0.00     0.009 C 
BRANCH   6   7
ATOM      7  C   UNL     1    -129.297 117.056  44.227  1.00  0.00     0.032 C 
ATOM      8  C   UNL     1    -128.997 118.551  44.052  1.00  0.00     0.014 C 
BRANCH   7   9
ATOM      9  C   UNL     1    -130.004 116.833  45.536  1.00  0.00     0.044 C 
ATOM     10  O   UNL     1    -130.108 115.671  46.009  1.00  0.00    -0.550 OA
ATOM     11  O   UNL     1    -130.559 117.905  46.226  1.00  0.00    -0.550 OA
ENDBRANCH   7   9
ENDBRANCH   6   7
ENDBRANCH   5   6
ENDBRANCH   4   5
ENDBRANCH   3   4
ENDBRANCH   2   3
ENDBRANCH   1   2
BRANCH   1  12
ATOM     12  C   UNL     1    -129.377 109.508  43.077  1.00  0.00     0.000 C 
BRANCH  12  13
ATOM     13  C   UNL     1    -129.674 108.663  41.828  1.00  0.00    -0.000 C 
BRANCH  13  14
ATOM     14  C   UNL     1    -129.913 109.519  40.572  1.00  0.00    -0.000 C 
BRANCH  14  15
ATOM     15  C   UNL     1    -130.436 108.713  39.363  1.00  0.00    -0.000 C 
BRANCH  15  16
ATOM     16  C   UNL     1    -129.558 107.487  39.057  1.00  0.00    -0.000 C 
BRANCH  16  17
ATOM     17  C   UNL     1    -130.356 106.166  39.109  1.00  0.00    -0.000 C 
BRANCH  17  18
ATOM     18  C   UNL     1    -129.808 105.156  40.130  1.00  0.00    -0.003 C 
ATOM     19  C   UNL     1    -129.092 103.974  39.479  1.00  0.00     0.004 C 
ENDBRANCH  17  18
ENDBRANCH  16  17
ENDBRANCH  15  16
ENDBRANCH  14  15
ENDBRANCH  13  14
ENDBRANCH  12  13
ENDBRANCH   1  12
TORSDOF 14
ENDMDL
MODEL 6
REMARK VINA RESULT:    -4.858      1.293      1.562
REMARK INTER + INTRA:         -10.126
REMARK INTER:                  -9.154
REMARK INTRA:                  -0.972
REMARK UNBOUND:                -1.292
REMARK SMILES CCCCCCCCCCCCCC[C@@H](C)C(=O)[O-]
REMARK SMILES IDX 9 1 10 2 11 3 12 4 13 5 14 6 15 7 16 8 17 9 18 10 19 11 8 12
REMARK SMILES IDX 7 13 6 14 5 15 4 16 3 17 2 18 1 19
REMARK H PARENT
REMARK Flexibility Score: inf
ROOT
ATOM      1  C   UNL     1    -129.437 110.694  42.730  1.00  0.00     0.000 C 
ENDROOT
BRANCH   1   2
ATOM      2  C   UNL     1    -129.269 111.507  44.023  1.00  0.00     0.000 C 
BRANCH   2   3
ATOM      3  C   UNL     1    -129.010 112.986  43.712  1.00  0.00     0.000 C 
BRANCH   3   4
ATOM      4  C   UNL     1    -129.991 113.507  42.654  1.00  0.00     0.000 C 
BRANCH   4   5
ATOM      5  C   UNL     1    -129.928 115.039  42.552  1.00  0.00     0.001 C 
BRANCH   5   6
ATOM      6  C   UNL     1    -129.418 115.708  43.842  1.00  0.00     0.009 C 
BRANCH   6   7
ATOM      7  C   UNL     1    -129.954 117.137  44.094  1.00  0.00     0.032 C 
ATOM      8  C   UNL     1    -130.259 117.397  45.576  1.00  0.00     0.014 C 
BRANCH   7   9
ATOM      9  C   UNL     1    -128.949 118.142  43.602  1.00  0.00     0.044 C 
ATOM     10  O   UNL     1    -128.556 118.111  42.406  1.00  0.00    -0.550 OA
ATOM     11  O   UNL     1    -128.436 119.103  44.465  1.00  0.00    -0.550 OA
ENDBRANCH   7   9
ENDBRANCH   6   7
ENDBRANCH   5   6
ENDBRANCH   4   5
ENDBRANCH   3   4
ENDBRANCH   2   3
ENDBRANCH   1   2
BRANCH   1  12
ATOM     12  C   UNL     1    -129.366 109.177  42.970  1.00  0.00     0.000 C 
BRANCH  12  13
ATOM     13  C   UNL     1    -127.955 108.609  42.744  1.00  0.00    -0.000 C 
BRANCH  13  14
ATOM     14  C   UNL     1    -127.965 107.272  41.985  1.00  0.00    -0.000 C 
BRANCH  14  15
ATOM     15  C   UNL     1    -129.359 106.870  41.454  1.00  0.00    -0.000 C 
BRANCH  15  16
ATOM     16  C   UNL     1    -129.272 106.059  40.149  1.00  0.00    -0.000 C 
BRANCH  16  17
ATOM     17  C   UNL     1    -129.653 106.897  38.910  1.00  0.00    -0.000 C 
BRANCH  17  18
ATOM     18  C   UNL     1    -129.891 108.384  39.221  1.00  0.00    -0.003 C 
ATOM     19  C   UNL     1    -131.358 108.793  39.112  1.00  0.00     0.004 C 
ENDBRANCH  17  18
ENDBRANCH  16  17
ENDBRANCH  15  16
ENDBRANCH  14  15
ENDBRANCH  13  14
ENDBRANCH  12  13
ENDBRANCH   1  12
TORSDOF 14
ENDMDL
MODEL 7
REMARK VINA RESULT:    -4.827      4.079      9.522
REMARK INTER + INTRA:         -10.071
REMARK INTER:                  -9.290
REMARK INTRA:                  -0.781
REMARK UNBOUND:                -1.292
REMARK SMILES CCCCCCCCCCCCCC[C@@H](C)C(=O)[O-]
REMARK SMILES IDX 9 1 10 2 11 3 12 4 13 5 14 6 15 7 16 8 17 9 18 10 19 11 8 12
REMARK SMILES IDX 7 13 6 14 5 15 4 16 3 17 2 18 1 19
REMARK H PARENT
REMARK Flexibility Score: inf
ROOT
ATOM      1  C   UNL     1    -129.321 110.927  42.707  1.00  0.00     0.000 C 
ENDROOT
BRANCH   1   2
ATOM      2  C   UNL     1    -129.298 109.397  42.843  1.00  0.00     0.000 C 
BRANCH   2   3
ATOM      3  C   UNL     1    -130.142 108.735  41.747  1.00  0.00     0.000 C 
BRANCH   3   4
ATOM      4  C   UNL     1    -129.747 109.253  40.359  1.00  0.00     0.000 C 
BRANCH   4   5
ATOM      5  C   UNL     1    -130.366 108.387  39.251  1.00  0.00     0.001 C 
BRANCH   5   6
ATOM      6  C   UNL     1    -129.445 107.236  38.802  1.00  0.00     0.009 C 
BRANCH   6   7
ATOM      7  C   UNL     1    -129.996 105.816  39.072  1.00  0.00     0.032 C 
ATOM      8  C   UNL     1    -129.990 104.935  37.815  1.00  0.00     0.014 C 
BRANCH   7   9
ATOM      9  C   UNL     1    -129.178 105.159  40.150  1.00  0.00     0.044 C 
ATOM     10  O   UNL     1    -128.533 105.863  40.973  1.00  0.00    -0.550 OA
ATOM     11  O   UNL     1    -129.114 103.774  40.239  1.00  0.00    -0.550 OA
ENDBRANCH   7   9
ENDBRANCH   6   7
ENDBRANCH   5   6
ENDBRANCH   4   5
ENDBRANCH   3   4
ENDBRANCH   2   3
ENDBRANCH   1   2
BRANCH   1  12
ATOM     12  C   UNL     1    -129.366 111.643  44.066  1.00  0.00     0.000 C 
BRANCH  12  13
ATOM     13  C   UNL     1    -128.992 113.130  43.962  1.00  0.00    -0.000 C 
BRANCH  13  14
ATOM     14  C   UNL     1    -129.725 113.851  42.818  1.00  0.00    -0.000 C 
BRANCH  14  15
ATOM     15  C   UNL     1    -129.926 115.362  43.066  1.00  0.00    -0.000 C 
BRANCH  15  16
ATOM     16  C   UNL     1    -129.765 115.735  44.550  1.00  0.00    -0.000 C 
BRANCH  16  17
ATOM     17  C   UNL     1    -129.779 117.263  44.777  1.00  0.00    -0.000 C 
BRANCH  17  18
ATOM     18  C   UNL     1    -130.627 117.699  45.982  1.00  0.00    -0.003 C 
ATOM     19  C   UNL     1    -130.822 116.589  47.012  1.00  0.00     0.004 C 
ENDBRANCH  17  18
ENDBRANCH  16  17
ENDBRANCH  15  16
ENDBRANCH  14  15
ENDBRANCH  13  14
ENDBRANCH  12  13
ENDBRANCH   1  12
TORSDOF 14
ENDMDL
MODEL 8
REMARK VINA RESULT:    -4.773      6.564      9.720
REMARK INTER + INTRA:          -9.972
REMARK INTER:                  -9.434
REMARK INTRA:                  -0.538
REMARK UNBOUND:                -1.292
REMARK SMILES CCCCCCCCCCCCCC[C@@H](C)C(=O)[O-]
REMARK SMILES IDX 9 1 10 2 11 3 12 4 13 5 14 6 15 7 16 8 17 9 18 10 19 11 8 12
REMARK SMILES IDX 7 13 6 14 5 15 4 16 3 17 2 18 1 19
REMARK H PARENT
REMARK Flexibility Score: inf
ROOT
ATOM      1  C   UNL     1    -128.225 113.103  37.523  1.00  0.00     0.000 C 
ENDROOT
BRANCH   1   2
ATOM      2  C   UNL     1    -128.069 111.652  38.002  1.00  0.00     0.000 C 
BRANCH   2   3
ATOM      3  C   UNL     1    -129.227 111.251  38.923  1.00  0.00     0.000 C 
BRANCH   3   4
ATOM      4  C   UNL     1    -129.028 109.834  39.474  1.00  0.00     0.000 C 
BRANCH   4   5
ATOM      5  C   UNL     1    -130.375 109.120  39.661  1.00  0.00     0.001 C 
BRANCH   5   6
ATOM      6  C   UNL     1    -130.370 107.675  39.128  1.00  0.00     0.009 C 
BRANCH   6   7
ATOM      7  C   UNL     1    -129.297 106.752  39.751  1.00  0.00     0.032 C 
ATOM      8  C   UNL     1    -129.340 106.755  41.286  1.00  0.00     0.014 C 
BRANCH   7   9
ATOM      9  C   UNL     1    -129.490 105.349  39.245  1.00  0.00     0.044 C 
ATOM     10  O   UNL     1    -129.743 105.144  38.029  1.00  0.00    -0.550 OA
ATOM     11  O   UNL     1    -129.405 104.269  40.117  1.00  0.00    -0.550 OA
ENDBRANCH   7   9
ENDBRANCH   6   7
ENDBRANCH   5   6
ENDBRANCH   4   5
ENDBRANCH   3   4
ENDBRANCH   2   3
ENDBRANCH   1   2
BRANCH   1  12
ATOM     12  C   UNL     1    -128.547 113.202  36.023  1.00  0.00     0.000 C 
BRANCH  12  13
ATOM     13  C   UNL     1    -129.781 114.074  35.740  1.00  0.00    -0.000 C 
BRANCH  13  14
ATOM     14  C   UNL     1    -129.944 114.410  34.249  1.00  0.00    -0.000 C 
BRANCH  14  15
ATOM     15  C   UNL     1    -130.947 113.495  33.513  1.00  0.00    -0.000 C 
BRANCH  15  16
ATOM     16  C   UNL     1    -132.332 113.494  34.182  1.00  0.00    -0.000 C 
BRANCH  16  17
ATOM     17  C   UNL     1    -133.398 112.775  33.326  1.00  0.00    -0.000 C 
BRANCH  17  18
ATOM     18  C   UNL     1    -134.577 113.676  32.925  1.00  0.00    -0.003 C 
ATOM     19  C   UNL     1    -134.998 113.499  31.468  1.00  0.00     0.004 C 
ENDBRANCH  17  18
ENDBRANCH  16  17
ENDBRANCH  15  16
ENDBRANCH  14  15
ENDBRANCH  13  14
ENDBRANCH  12  13
ENDBRANCH   1  12
TORSDOF 14
ENDMDL
MODEL 9
REMARK VINA RESULT:    -4.717      0.940      2.493
REMARK INTER + INTRA:          -9.870
REMARK INTER:                  -8.607
REMARK INTRA:                  -1.263
REMARK UNBOUND:                -1.292
REMARK SMILES CCCCCCCCCCCCCC[C@@H](C)C(=O)[O-]
REMARK SMILES IDX 9 1 10 2 11 3 12 4 13 5 14 6 15 7 16 8 17 9 18 10 19 11 8 12
REMARK SMILES IDX 7 13 6 14 5 15 4 16 3 17 2 18 1 19
REMARK H PARENT
REMARK Flexibility Score: inf
ROOT
ATOM      1  C   UNL     1    -129.598 111.456  40.057  1.00  0.00     0.000 C 
ENDROOT
BRANCH   1   2
ATOM      2  C   UNL     1    -129.745 111.876  41.527  1.00  0.00     0.000 C 
BRANCH   2   3
ATOM      3  C   UNL     1    -130.372 113.270  41.639  1.00  0.00     0.000 C 
BRANCH   3   4
ATOM      4  C   UNL     1    -129.837 114.018  42.867  1.00  0.00     0.000 C 
BRANCH   4   5
ATOM      5  C   UNL     1    -129.335 115.418  42.483  1.00  0.00     0.001 C 
BRANCH   5   6
ATOM      6  C   UNL     1    -130.074 116.548  43.225  1.00  0.00     0.009 C 
BRANCH   6   7
ATOM      7  C   UNL     1    -129.312 117.147  44.430  1.00  0.00     0.032 C 
ATOM      8  C   UNL     1    -128.943 118.621  44.218  1.00  0.00     0.014 C 
BRANCH   7   9
ATOM      9  C   UNL     1    -130.152 117.011  45.671  1.00  0.00     0.044 C 
ATOM     10  O   UNL     1    -130.640 118.034  46.219  1.00  0.00    -0.550 OA
ATOM     11  O   UNL     1    -130.384 115.760  46.230  1.00  0.00    -0.550 OA
ENDBRANCH   7   9
ENDBRANCH   6   7
ENDBRANCH   5   6
ENDBRANCH   4   5
ENDBRANCH   3   4
ENDBRANCH   2   3
ENDBRANCH   1   2
BRANCH   1  12
ATOM     12  C   UNL     1    -130.453 110.229  39.701  1.00  0.00     0.000 C 
BRANCH  12  13
ATOM     13  C   UNL     1    -129.616 109.068  39.140  1.00  0.00    -0.000 C 
BRANCH  13  14
ATOM     14  C   UNL     1    -130.310 107.704  39.295  1.00  0.00    -0.000 C 
BRANCH  14  15
ATOM     15  C   UNL     1    -129.347 106.559  39.677  1.00  0.00    -0.000 C 
BRANCH  15  16
ATOM     16  C   UNL     1    -129.226 106.385  41.202  1.00  0.00    -0.000 C 
BRANCH  16  17
ATOM     17  C   UNL     1    -128.000 107.124  41.781  1.00  0.00    -0.000 C 
BRANCH  17  18
ATOM     18  C   UNL     1    -128.363 108.378  42.593  1.00  0.00    -0.003 C 
ATOM     19  C   UNL     1    -129.850 108.466  42.928  1.00  0.00     0.004 C 
ENDBRANCH  17  18
ENDBRANCH  16  17
ENDBRANCH  15  16
ENDBRANCH  14  15
ENDBRANCH  13  14
ENDBRANCH  12  13
ENDBRANCH   1  12
TORSDOF 14
ENDMDL
