MODEL 1
REMARK VINA RESULT:    -4.656      0.000      0.000
REMARK INTER + INTRA:          -5.391
REMARK INTER:                  -5.337
REMARK INTRA:                  -0.054
REMARK UNBOUND:                -0.054
REMARK SMILES CC(C)[C@H]([NH3+])C(=O)[O-]
REMARK SMILES IDX 4 1 5 2 6 6 7 7 8 8 2 9 1 10 3 11
REMARK H PARENT 5 3 5 4 5 5
REMARK Flexibility Score: inf
ROOT
ATOM      1  C   UNL     1     -19.889  69.163  -0.853  1.00  0.00     0.230 C 
ENDROOT
BRANCH   1   2
ATOM      2  N   UNL     1     -18.511  69.678  -0.845  1.00  0.00    -0.350 N 
ATOM      3  H   UNL     1     -18.103  69.660  -1.808  1.00  0.00     0.345 HD
ATOM      4  H   UNL     1     -17.913  69.096  -0.211  1.00  0.00     0.345 HD
ATOM      5  H   UNL     1     -18.493  70.654  -0.473  1.00  0.00     0.345 HD
ENDBRANCH   1   2
BRANCH   1   6
ATOM      6  C   UNL     1     -20.699  69.878   0.200  1.00  0.00     0.099 C 
ATOM      7  O   UNL     1     -20.819  71.132   0.170  1.00  0.00    -0.544 OA
ATOM      8  O   UNL     1     -21.314  69.155   1.214  1.00  0.00    -0.544 OA
ENDBRANCH   1   6
BRANCH   1   9
ATOM      9  C   UNL     1     -19.934  67.620  -0.634  1.00  0.00     0.047 C 
ATOM     10  C   UNL     1     -18.655  67.099   0.043  1.00  0.00     0.014 C 
ATOM     11  C   UNL     1     -20.137  66.873  -1.965  1.00  0.00     0.014 C 
ENDBRANCH   1   9
TORSDOF 3
ENDMDL
MODEL 2
REMARK VINA RESULT:    -4.633      2.519      3.442
REMARK INTER + INTRA:          -5.365
REMARK INTER:                  -5.302
REMARK INTRA:                  -0.063
REMARK UNBOUND:                -0.054
REMARK SMILES CC(C)[C@H]([NH3+])C(=O)[O-]
REMARK SMILES IDX 4 1 5 2 6 6 7 7 8 8 2 9 1 10 3 11
REMARK H PARENT 5 3 5 4 5 5
REMARK Flexibility Score: inf
ROOT
ATOM      1  C   UNL     1     -20.198  68.188  -1.007  1.00  0.00     0.230 C 
ENDROOT
BRANCH   1   2
ATOM      2  N   UNL     1     -20.503  67.009  -1.834  1.00  0.00    -0.350 N 
ATOM      3  H   UNL     1     -19.672  66.374  -1.895  1.00  0.00     0.345 HD
ATOM      4  H   UNL     1     -20.775  67.307  -2.800  1.00  0.00     0.345 HD
ATOM      5  H   UNL     1     -21.314  66.487  -1.433  1.00  0.00     0.345 HD
ENDBRANCH   1   2
BRANCH   1   6
ATOM      6  C   UNL     1     -18.852  68.006  -0.350  1.00  0.00     0.099 C 
ATOM      7  O   UNL     1     -18.607  66.973   0.328  1.00  0.00    -0.544 OA
ATOM      8  O   UNL     1     -17.875  68.984  -0.485  1.00  0.00    -0.544 OA
ENDBRANCH   1   6
BRANCH   1   9
ATOM      9  C   UNL     1     -21.305  68.451   0.059  1.00  0.00     0.047 C 
ATOM     10  C   UNL     1     -22.704  68.081  -0.464  1.00  0.00     0.014 C 
ATOM     11  C   UNL     1     -21.309  69.924   0.506  1.00  0.00     0.014 C 
ENDBRANCH   1   9
TORSDOF 3
ENDMDL
MODEL 3
REMARK VINA RESULT:    -4.618      1.798      2.129
REMARK INTER + INTRA:          -5.347
REMARK INTER:                  -5.311
REMARK INTRA:                  -0.036
REMARK UNBOUND:                -0.054
REMARK SMILES CC(C)[C@H]([NH3+])C(=O)[O-]
REMARK SMILES IDX 4 1 5 2 6 6 7 7 8 8 2 9 1 10 3 11
REMARK H PARENT 5 3 5 4 5 5
REMARK Flexibility Score: inf
ROOT
ATOM      1  C   UNL     1     -21.129  68.888  -0.782  1.00  0.00     0.230 C 
ENDROOT
BRANCH   1   2
ATOM      2  N   UNL     1     -20.660  70.116  -0.120  1.00  0.00    -0.350 N 
ATOM      3  H   UNL     1     -20.908  70.961  -0.687  1.00  0.00     0.345 HD
ATOM      4  H   UNL     1     -19.621  70.083   0.006  1.00  0.00     0.345 HD
ATOM      5  H   UNL     1     -21.083  70.197   0.833  1.00  0.00     0.345 HD
ENDBRANCH   1   2
BRANCH   1   6
ATOM      6  C   UNL     1     -22.307  68.328  -0.024  1.00  0.00     0.099 C 
ATOM      7  O   UNL     1     -22.352  68.402   1.233  1.00  0.00    -0.544 OA
ATOM      8  O   UNL     1     -23.351  67.720  -0.711  1.00  0.00    -0.544 OA
ENDBRANCH   1   6
BRANCH   1   9
ATOM      9  C   UNL     1     -19.994  67.826  -0.906  1.00  0.00     0.047 C 
ATOM     10  C   UNL     1     -18.619  68.479  -1.126  1.00  0.00     0.014 C 
ATOM     11  C   UNL     1     -20.274  66.844  -2.058  1.00  0.00     0.014 C 
ENDBRANCH   1   9
TORSDOF 3
ENDMDL
MODEL 4
REMARK VINA RESULT:    -4.606      2.712      3.626
REMARK INTER + INTRA:          -5.334
REMARK INTER:                  -5.284
REMARK INTRA:                  -0.049
REMARK UNBOUND:                -0.054
REMARK SMILES CC(C)[C@H]([NH3+])C(=O)[O-]
REMARK SMILES IDX 4 1 5 2 6 6 7 7 8 8 2 9 1 10 3 11
REMARK H PARENT 5 3 5 4 5 5
REMARK Flexibility Score: inf
ROOT
ATOM      1  C   UNL     1     -21.210  68.488  -0.862  1.00  0.00     0.230 C 
ENDROOT
BRANCH   1   2
ATOM      2  N   UNL     1     -22.517  67.867  -0.595  1.00  0.00    -0.350 N 
ATOM      3  H   UNL     1     -22.440  66.823  -0.601  1.00  0.00     0.345 HD
ATOM      4  H   UNL     1     -23.210  68.161  -1.322  1.00  0.00     0.345 HD
ATOM      5  H   UNL     1     -22.887  68.186   0.329  1.00  0.00     0.345 HD
ENDBRANCH   1   2
BRANCH   1   6
ATOM      6  C   UNL     1     -20.233  67.428  -1.309  1.00  0.00     0.099 C 
ATOM      7  O   UNL     1     -20.469  66.734  -2.334  1.00  0.00    -0.544 OA
ATOM      8  O   UNL     1     -19.066  67.208  -0.587  1.00  0.00    -0.544 OA
ENDBRANCH   1   6
BRANCH   1   9
ATOM      9  C   UNL     1     -20.666  69.253   0.383  1.00  0.00     0.047 C 
ATOM     10  C   UNL     1     -21.282  68.731   1.692  1.00  0.00     0.014 C 
ATOM     11  C   UNL     1     -20.935  70.764   0.269  1.00  0.00     0.014 C 
ENDBRANCH   1   9
TORSDOF 3
ENDMDL
MODEL 5
REMARK VINA RESULT:    -4.588      2.056      2.660
REMARK INTER + INTRA:          -5.313
REMARK INTER:                  -5.472
REMARK INTRA:                   0.159
REMARK UNBOUND:                -0.054
REMARK SMILES CC(C)[C@H]([NH3+])C(=O)[O-]
REMARK SMILES IDX 4 1 5 2 6 6 7 7 8 8 2 9 1 10 3 11
REMARK H PARENT 5 3 5 4 5 5
REMARK Flexibility Score: inf
ROOT
ATOM      1  C   UNL     1     -21.705  68.076  -0.088  1.00  0.00     0.230 C 
ENDROOT
BRANCH   1   2
ATOM      2  N   UNL     1     -23.084  68.297  -0.549  1.00  0.00    -0.350 N 
ATOM      3  H   UNL     1     -23.746  67.645  -0.067  1.00  0.00     0.345 HD
ATOM      4  H   UNL     1     -23.147  68.143  -1.583  1.00  0.00     0.345 HD
ATOM      5  H   UNL     1     -23.371  69.286  -0.368  1.00  0.00     0.345 HD
ENDBRANCH   1   2
BRANCH   1   6
ATOM      6  C   UNL     1     -21.402  69.011   1.057  1.00  0.00     0.099 C 
ATOM      7  O   UNL     1     -20.953  68.563   2.145  1.00  0.00    -0.544 OA
ATOM      8  O   UNL     1     -21.624  70.376   0.917  1.00  0.00    -0.544 OA
ENDBRANCH   1   6
BRANCH   1   9
ATOM      9  C   UNL     1     -20.670  68.257  -1.240  1.00  0.00     0.047 C 
ATOM     10  C   UNL     1     -20.399  66.936  -1.979  1.00  0.00     0.014 C 
ATOM     11  C   UNL     1     -19.339  68.819  -0.711  1.00  0.00     0.014 C 
ENDBRANCH   1   9
TORSDOF 3
ENDMDL
MODEL 6
REMARK VINA RESULT:    -4.531      2.211      3.318
REMARK INTER + INTRA:          -5.247
REMARK INTER:                  -5.185
REMARK INTRA:                  -0.063
REMARK UNBOUND:                -0.054
REMARK SMILES CC(C)[C@H]([NH3+])C(=O)[O-]
REMARK SMILES IDX 4 1 5 2 6 6 7 7 8 8 2 9 1 10 3 11
REMARK H PARENT 5 3 5 4 5 5
REMARK Flexibility Score: inf
ROOT
ATOM      1  C   UNL     1     -19.560  68.808  -0.182  1.00  0.00     0.230 C 
ENDROOT
BRANCH   1   2
ATOM      2  N   UNL     1     -18.586  69.693  -0.840  1.00  0.00    -0.350 N 
ATOM      3  H   UNL     1     -18.058  69.178  -1.582  1.00  0.00     0.345 HD
ATOM      4  H   UNL     1     -17.907  70.068  -0.136  1.00  0.00     0.345 HD
ATOM      5  H   UNL     1     -19.074  70.515  -1.263  1.00  0.00     0.345 HD
ENDBRANCH   1   2
BRANCH   1   6
ATOM      6  C   UNL     1     -19.594  67.480  -0.897  1.00  0.00     0.099 C 
ATOM      7  O   UNL     1     -18.882  66.520  -0.497  1.00  0.00    -0.544 OA
ATOM      8  O   UNL     1     -20.409  67.310  -2.010  1.00  0.00    -0.544 OA
ENDBRANCH   1   6
BRANCH   1   9
ATOM      9  C   UNL     1     -20.981  69.445  -0.127  1.00  0.00     0.047 C 
ATOM     10  C   UNL     1     -20.927  70.936   0.245  1.00  0.00     0.014 C 
ATOM     11  C   UNL     1     -21.884  68.709   0.879  1.00  0.00     0.014 C 
ENDBRANCH   1   9
TORSDOF 3
ENDMDL
MODEL 7
REMARK VINA RESULT:    -4.246      2.300      2.631
REMARK INTER + INTRA:          -4.921
REMARK INTER:                  -5.053
REMARK INTRA:                   0.132
REMARK UNBOUND:                -0.054
REMARK SMILES CC(C)[C@H]([NH3+])C(=O)[O-]
REMARK SMILES IDX 4 1 5 2 6 6 7 7 8 8 2 9 1 10 3 11
REMARK H PARENT 5 3 5 4 5 5
REMARK Flexibility Score: inf
ROOT
ATOM      1  C   UNL     1     -20.078  69.079  -0.124  1.00  0.00     0.230 C 
ENDROOT
BRANCH   1   2
ATOM      2  N   UNL     1     -20.428  70.489   0.107  1.00  0.00    -0.350 N 
ATOM      3  H   UNL     1     -19.986  71.104  -0.616  1.00  0.00     0.345 HD
ATOM      4  H   UNL     1     -20.102  70.791   1.055  1.00  0.00     0.345 HD
ATOM      5  H   UNL     1     -21.466  70.612   0.085  1.00  0.00     0.345 HD
ENDBRANCH   1   2
BRANCH   1   6
ATOM      6  C   UNL     1     -18.643  68.987  -0.583  1.00  0.00     0.099 C 
ATOM      7  O   UNL     1     -18.168  69.850  -1.368  1.00  0.00    -0.544 OA
ATOM      8  O   UNL     1     -17.839  67.941  -0.146  1.00  0.00    -0.544 OA
ENDBRANCH   1   6
BRANCH   1   9
ATOM      9  C   UNL     1     -21.034  68.403  -1.153  1.00  0.00     0.047 C 
ATOM     10  C   UNL     1     -22.395  68.053  -0.527  1.00  0.00     0.014 C 
ATOM     11  C   UNL     1     -20.409  67.126  -1.741  1.00  0.00     0.014 C 
ENDBRANCH   1   9
TORSDOF 3
ENDMDL
MODEL 8
REMARK VINA RESULT:    -4.209      1.831      2.517
REMARK INTER + INTRA:          -4.879
REMARK INTER:                  -4.845
REMARK INTRA:                  -0.034
REMARK UNBOUND:                -0.054
REMARK SMILES CC(C)[C@H]([NH3+])C(=O)[O-]
REMARK SMILES IDX 4 1 5 2 6 6 7 7 8 8 2 9 1 10 3 11
REMARK H PARENT 5 3 5 4 5 5
REMARK Flexibility Score: inf
ROOT
ATOM      1  C   UNL     1     -20.470  67.528  -0.599  1.00  0.00     0.230 C 
ENDROOT
BRANCH   1   2
ATOM      2  N   UNL     1     -20.511  67.173  -2.026  1.00  0.00    -0.350 N 
ATOM      3  H   UNL     1     -21.346  67.601  -2.491  1.00  0.00     0.345 HD
ATOM      4  H   UNL     1     -20.555  66.133  -2.138  1.00  0.00     0.345 HD
ATOM      5  H   UNL     1     -19.640  67.497  -2.504  1.00  0.00     0.345 HD
ENDBRANCH   1   2
BRANCH   1   6
ATOM      6  C   UNL     1     -21.685  68.352  -0.251  1.00  0.00     0.099 C 
ATOM      7  O   UNL     1     -22.840  67.940  -0.541  1.00  0.00    -0.544 OA
ATOM      8  O   UNL     1     -21.534  69.577   0.388  1.00  0.00    -0.544 OA
ENDBRANCH   1   6
BRANCH   1   9
ATOM      9  C   UNL     1     -19.160  68.287  -0.226  1.00  0.00     0.047 C 
ATOM     10  C   UNL     1     -18.618  69.109  -1.408  1.00  0.00     0.014 C 
ATOM     11  C   UNL     1     -18.067  67.313   0.250  1.00  0.00     0.014 C 
ENDBRANCH   1   9
TORSDOF 3
ENDMDL
MODEL 9
REMARK VINA RESULT:    -4.196      1.822      2.413
REMARK INTER + INTRA:          -4.864
REMARK INTER:                  -4.831
REMARK INTRA:                  -0.033
REMARK UNBOUND:                -0.054
REMARK SMILES CC(C)[C@H]([NH3+])C(=O)[O-]
REMARK SMILES IDX 4 1 5 2 6 6 7 7 8 8 2 9 1 10 3 11
REMARK H PARENT 5 3 5 4 5 5
REMARK Flexibility Score: inf
ROOT
ATOM      1  C   UNL     1     -20.547  69.098   0.311  1.00  0.00     0.230 C 
ENDROOT
BRANCH   1   2
ATOM      2  N   UNL     1     -20.572  68.180   1.460  1.00  0.00    -0.350 N 
ATOM      3  H   UNL     1     -19.610  68.047   1.850  1.00  0.00     0.345 HD
ATOM      4  H   UNL     1     -20.953  67.249   1.169  1.00  0.00     0.345 HD
ATOM      5  H   UNL     1     -21.204  68.551   2.205  1.00  0.00     0.345 HD
ENDBRANCH   1   2
BRANCH   1   6
ATOM      6  C   UNL     1     -21.136  70.427   0.716  1.00  0.00     0.099 C 
ATOM      7  O   UNL     1     -21.936  70.501   1.687  1.00  0.00    -0.544 OA
ATOM      8  O   UNL     1     -20.801  71.579   0.015  1.00  0.00    -0.544 OA
ENDBRANCH   1   6
BRANCH   1   9
ATOM      9  C   UNL     1     -21.303  68.509  -0.920  1.00  0.00     0.047 C 
ATOM     10  C   UNL     1     -22.693  67.975  -0.536  1.00  0.00     0.014 C 
ATOM     11  C   UNL     1     -20.495  67.378  -1.581  1.00  0.00     0.014 C 
ENDBRANCH   1   9
TORSDOF 3
ENDMDL
