MODEL 1
REMARK VINA RESULT:    -4.334      0.000      0.000
REMARK INTER + INTRA:          -6.866
REMARK INTER:                  -6.108
REMARK INTRA:                  -0.758
REMARK UNBOUND:                -0.758
REMARK SMILES CCCCCCCCC(=O)[O-]
REMARK SMILES IDX 6 1 7 2 8 3 9 4 10 5 11 6 5 7 4 8 3 9 2 10 1 11
REMARK H PARENT
REMARK Flexibility Score: inf
ROOT
ATOM      1  C   UNL     1      -9.996   4.696  -7.512  1.00  0.00     0.000 C 
ENDROOT
BRANCH   1   2
ATOM      2  C   UNL     1      -8.831   3.696  -7.543  1.00  0.00     0.006 C 
BRANCH   2   3
ATOM      3  C   UNL     1      -9.060   2.568  -8.559  1.00  0.00     0.053 C 
BRANCH   3   4
ATOM      4  C   UNL     1      -8.041   2.593  -9.657  1.00  0.00     0.041 C 
ATOM      5  O   UNL     1      -6.988   1.907  -9.560  1.00  0.00    -0.550 OA
ATOM      6  O   UNL     1      -8.269   3.343 -10.803  1.00  0.00    -0.550 OA
ENDBRANCH   3   4
ENDBRANCH   2   3
ENDBRANCH   1   2
BRANCH   1   7
ATOM      7  C   UNL     1     -10.958   4.454  -8.684  1.00  0.00     0.000 C 
BRANCH   7   8
ATOM      8  C   UNL     1     -10.868   5.549  -9.759  1.00  0.00    -0.000 C 
BRANCH   8   9
ATOM      9  C   UNL     1      -9.938   6.704  -9.351  1.00  0.00    -0.000 C 
BRANCH   9  10
ATOM     10  C   UNL     1      -8.626   6.714 -10.150  1.00  0.00    -0.003 C 
ATOM     11  C   UNL     1      -7.388   6.746  -9.254  1.00  0.00     0.004 C 
ENDBRANCH   9  10
ENDBRANCH   8   9
ENDBRANCH   7   8
ENDBRANCH   1   7
TORSDOF 7
ENDMDL
MODEL 2
REMARK VINA RESULT:    -4.034      1.236      1.559
REMARK INTER + INTRA:          -6.443
REMARK INTER:                  -5.693
REMARK INTRA:                  -0.750
REMARK UNBOUND:                -0.758
REMARK SMILES CCCCCCCCC(=O)[O-]
REMARK SMILES IDX 6 1 7 2 8 3 9 4 10 5 11 6 5 7 4 8 3 9 2 10 1 11
REMARK H PARENT
REMARK Flexibility Score: inf
ROOT
ATOM      1  C   UNL     1      -9.983   4.525  -7.589  1.00  0.00     0.000 C 
ENDROOT
BRANCH   1   2
ATOM      2  C   UNL     1      -8.843   3.497  -7.647  1.00  0.00     0.006 C 
BRANCH   2   3
ATOM      3  C   UNL     1      -8.810   2.740  -8.982  1.00  0.00     0.053 C 
BRANCH   3   4
ATOM      4  C   UNL     1      -8.877   1.257  -8.782  1.00  0.00     0.041 C 
ATOM      5  O   UNL     1      -9.933   0.722  -8.350  1.00  0.00    -0.550 OA
ATOM      6  O   UNL     1      -7.786   0.460  -9.107  1.00  0.00    -0.550 OA
ENDBRANCH   3   4
ENDBRANCH   2   3
ENDBRANCH   1   2
BRANCH   1   7
ATOM      7  C   UNL     1     -10.889   4.408  -8.824  1.00  0.00     0.000 C 
BRANCH   7   8
ATOM      8  C   UNL     1     -10.978   5.721  -9.619  1.00  0.00    -0.000 C 
BRANCH   8   9
ATOM      9  C   UNL     1      -9.894   6.733  -9.211  1.00  0.00    -0.000 C 
BRANCH   9  10
ATOM     10  C   UNL     1      -8.670   6.691 -10.138  1.00  0.00    -0.003 C 
ATOM     11  C   UNL     1      -7.354   6.554  -9.372  1.00  0.00     0.004 C 
ENDBRANCH   9  10
ENDBRANCH   8   9
ENDBRANCH   7   8
ENDBRANCH   1   7
TORSDOF 7
ENDMDL
MODEL 3
REMARK VINA RESULT:    -3.735      1.319      2.170
REMARK INTER + INTRA:          -6.022
REMARK INTER:                  -5.431
REMARK INTRA:                  -0.590
REMARK UNBOUND:                -0.758
REMARK SMILES CCCCCCCCC(=O)[O-]
REMARK SMILES IDX 6 1 7 2 8 3 9 4 10 5 11 6 5 7 4 8 3 9 2 10 1 11
REMARK H PARENT
REMARK Flexibility Score: inf
ROOT
ATOM      1  C   UNL     1     -10.193   3.918  -8.289  1.00  0.00     0.000 C 
ENDROOT
BRANCH   1   2
ATOM      2  C   UNL     1     -10.070   2.817  -9.353  1.00  0.00     0.006 C 
BRANCH   2   3
ATOM      3  C   UNL     1      -9.267   1.609  -8.851  1.00  0.00     0.053 C 
BRANCH   3   4
ATOM      4  C   UNL     1      -8.060   1.351  -9.700  1.00  0.00     0.041 C 
ATOM      5  O   UNL     1      -7.758   2.145 -10.631  1.00  0.00    -0.550 OA
ATOM      6  O   UNL     1      -7.249   0.253  -9.442  1.00  0.00    -0.550 OA
ENDBRANCH   3   4
ENDBRANCH   2   3
ENDBRANCH   1   2
BRANCH   1   7
ATOM      7  C   UNL     1      -8.877   4.079  -7.514  1.00  0.00     0.000 C 
BRANCH   7   8
ATOM      8  C   UNL     1      -7.795   4.805  -8.329  1.00  0.00    -0.000 C 
BRANCH   8   9
ATOM      9  C   UNL     1      -8.213   6.231  -8.727  1.00  0.00    -0.000 C 
BRANCH   9  10
ATOM     10  C   UNL     1      -7.707   6.624 -10.124  1.00  0.00    -0.003 C 
ATOM     11  C   UNL     1      -8.389   5.835 -11.242  1.00  0.00     0.004 C 
ENDBRANCH   9  10
ENDBRANCH   8   9
ENDBRANCH   7   8
ENDBRANCH   1   7
TORSDOF 7
ENDMDL
MODEL 4
REMARK VINA RESULT:    -3.710      1.864      4.074
REMARK INTER + INTRA:          -5.985
REMARK INTER:                  -5.639
REMARK INTRA:                  -0.346
REMARK UNBOUND:                -0.758
REMARK SMILES CCCCCCCCC(=O)[O-]
REMARK SMILES IDX 6 1 7 2 8 3 9 4 10 5 11 6 5 7 4 8 3 9 2 10 1 11
REMARK H PARENT
REMARK Flexibility Score: inf
ROOT
ATOM      1  C   UNL     1     -10.654   4.891  -8.765  1.00  0.00     0.000 C 
ENDROOT
BRANCH   1   2
ATOM      2  C   UNL     1     -10.126   5.714  -9.949  1.00  0.00     0.006 C 
BRANCH   2   3
ATOM      3  C   UNL     1      -9.328   6.944  -9.493  1.00  0.00     0.053 C 
BRANCH   3   4
ATOM      4  C   UNL     1      -7.864   6.793  -9.772  1.00  0.00     0.041 C 
ATOM      5  O   UNL     1      -7.023   6.953  -8.849  1.00  0.00    -0.550 OA
ATOM      6  O   UNL     1      -7.431   6.442 -11.045  1.00  0.00    -0.550 OA
ENDBRANCH   3   4
ENDBRANCH   2   3
ENDBRANCH   1   2
BRANCH   1   7
ATOM      7  C   UNL     1      -9.605   4.805  -7.646  1.00  0.00     0.000 C 
BRANCH   7   8
ATOM      8  C   UNL     1      -8.856   3.463  -7.639  1.00  0.00    -0.000 C 
BRANCH   8   9
ATOM      9  C   UNL     1      -8.193   3.150  -8.992  1.00  0.00    -0.000 C 
BRANCH   9  10
ATOM     10  C   UNL     1      -8.635   1.793  -9.563  1.00  0.00    -0.003 C 
ATOM     11  C   UNL     1      -9.131   0.832  -8.484  1.00  0.00     0.004 C 
ENDBRANCH   9  10
ENDBRANCH   8   9
ENDBRANCH   7   8
ENDBRANCH   1   7
TORSDOF 7
ENDMDL
MODEL 5
REMARK VINA RESULT:    -3.700      1.905      3.977
REMARK INTER + INTRA:          -5.972
REMARK INTER:                  -5.392
REMARK INTRA:                  -0.580
REMARK UNBOUND:                -0.758
REMARK SMILES CCCCCCCCC(=O)[O-]
REMARK SMILES IDX 6 1 7 2 8 3 9 4 10 5 11 6 5 7 4 8 3 9 2 10 1 11
REMARK H PARENT
REMARK Flexibility Score: inf
ROOT
ATOM      1  C   UNL     1      -7.823   4.814  -8.678  1.00  0.00     0.000 C 
ENDROOT
BRANCH   1   2
ATOM      2  C   UNL     1      -7.961   6.331  -8.874  1.00  0.00     0.006 C 
BRANCH   2   3
ATOM      3  C   UNL     1      -8.847   6.684 -10.077  1.00  0.00     0.053 C 
BRANCH   3   4
ATOM      4  C   UNL     1      -8.456   5.913 -11.301  1.00  0.00     0.041 C 
ATOM      5  O   UNL     1      -9.234   5.044 -11.777  1.00  0.00    -0.550 OA
ATOM      6  O   UNL     1      -7.250   6.179 -11.936  1.00  0.00    -0.550 OA
ENDBRANCH   3   4
ENDBRANCH   2   3
ENDBRANCH   1   2
BRANCH   1   7
ATOM      7  C   UNL     1      -8.817   4.306  -7.623  1.00  0.00     0.000 C 
BRANCH   7   8
ATOM      8  C   UNL     1     -10.134   3.809  -8.241  1.00  0.00    -0.000 C 
BRANCH   8   9
ATOM      9  C   UNL     1      -9.925   2.631  -9.208  1.00  0.00    -0.000 C 
BRANCH   9  10
ATOM     10  C   UNL     1      -9.259   1.424  -8.530  1.00  0.00    -0.003 C 
ATOM     11  C   UNL     1      -8.151   0.805  -9.382  1.00  0.00     0.004 C 
ENDBRANCH   9  10
ENDBRANCH   8   9
ENDBRANCH   7   8
ENDBRANCH   1   7
TORSDOF 7
ENDMDL
MODEL 6
REMARK VINA RESULT:    -3.663      1.452      2.151
REMARK INTER + INTRA:          -5.919
REMARK INTER:                  -5.253
REMARK INTRA:                  -0.666
REMARK UNBOUND:                -0.758
REMARK SMILES CCCCCCCCC(=O)[O-]
REMARK SMILES IDX 6 1 7 2 8 3 9 4 10 5 11 6 5 7 4 8 3 9 2 10 1 11
REMARK H PARENT
REMARK Flexibility Score: inf
ROOT
ATOM      1  C   UNL     1     -10.951   4.647 -10.626  1.00  0.00     0.000 C 
ENDROOT
BRANCH   1   2
ATOM      2  C   UNL     1     -10.427   3.278 -10.168  1.00  0.00     0.006 C 
BRANCH   2   3
ATOM      3  C   UNL     1     -10.209   3.217  -8.649  1.00  0.00     0.053 C 
BRANCH   3   4
ATOM      4  C   UNL     1      -8.754   3.221  -8.295  1.00  0.00     0.041 C 
ATOM      5  O   UNL     1      -7.897   2.831  -9.132  1.00  0.00    -0.550 OA
ATOM      6  O   UNL     1      -8.341   3.689  -7.054  1.00  0.00    -0.550 OA
ENDBRANCH   3   4
ENDBRANCH   2   3
ENDBRANCH   1   2
BRANCH   1   7
ATOM      7  C   UNL     1     -10.882   5.670  -9.483  1.00  0.00     0.000 C 
BRANCH   7   8
ATOM      8  C   UNL     1      -9.834   6.767  -9.733  1.00  0.00    -0.000 C 
BRANCH   8   9
ATOM      9  C   UNL     1      -8.811   6.372 -10.812  1.00  0.00    -0.000 C 
BRANCH   9  10
ATOM     10  C   UNL     1      -7.364   6.420 -10.296  1.00  0.00    -0.003 C 
ATOM     11  C   UNL     1      -7.282   6.695  -8.795  1.00  0.00     0.004 C 
ENDBRANCH   9  10
ENDBRANCH   8   9
ENDBRANCH   7   8
ENDBRANCH   1   7
TORSDOF 7
ENDMDL
MODEL 7
REMARK VINA RESULT:    -3.442     15.159     17.347
REMARK INTER + INTRA:          -5.608
REMARK INTER:                  -5.018
REMARK INTRA:                  -0.590
REMARK UNBOUND:                -0.758
REMARK SMILES CCCCCCCCC(=O)[O-]
REMARK SMILES IDX 6 1 7 2 8 3 9 4 10 5 11 6 5 7 4 8 3 9 2 10 1 11
REMARK H PARENT
REMARK Flexibility Score: inf
ROOT
ATOM      1  C   UNL     1      -1.629 -10.956  -9.263  1.00  0.00     0.000 C 
ENDROOT
BRANCH   1   2
ATOM      2  C   UNL     1      -1.616 -12.492  -9.301  1.00  0.00     0.006 C 
BRANCH   2   3
ATOM      3  C   UNL     1      -0.194 -13.064  -9.227  1.00  0.00     0.053 C 
BRANCH   3   4
ATOM      4  C   UNL     1       0.645 -12.623 -10.387  1.00  0.00     0.041 C 
ATOM      5  O   UNL     1       0.298 -12.908 -11.564  1.00  0.00    -0.550 OA
ATOM      6  O   UNL     1       1.791 -11.868 -10.171  1.00  0.00    -0.550 OA
ENDBRANCH   3   4
ENDBRANCH   2   3
ENDBRANCH   1   2
BRANCH   1   7
ATOM      7  C   UNL     1      -2.528 -10.388 -10.370  1.00  0.00     0.000 C 
BRANCH   7   8
ATOM      8  C   UNL     1      -1.889  -9.192 -11.096  1.00  0.00    -0.000 C 
BRANCH   8   9
ATOM      9  C   UNL     1      -0.392  -9.038 -10.776  1.00  0.00    -0.000 C 
BRANCH   9  10
ATOM     10  C   UNL     1      -0.053  -7.655 -10.198  1.00  0.00    -0.003 C 
ATOM     11  C   UNL     1      -1.075  -6.587 -10.586  1.00  0.00     0.004 C 
ENDBRANCH   9  10
ENDBRANCH   8   9
ENDBRANCH   7   8
ENDBRANCH   1   7
TORSDOF 7
ENDMDL
MODEL 8
REMARK VINA RESULT:    -3.439      1.941      3.206
REMARK INTER + INTRA:          -5.604
REMARK INTER:                  -4.932
REMARK INTRA:                  -0.672
REMARK UNBOUND:                -0.758
REMARK SMILES CCCCCCCCC(=O)[O-]
REMARK SMILES IDX 6 1 7 2 8 3 9 4 10 5 11 6 5 7 4 8 3 9 2 10 1 11
REMARK H PARENT
REMARK Flexibility Score: inf
ROOT
ATOM      1  C   UNL     1      -7.807   5.874  -8.918  1.00  0.00     0.000 C 
ENDROOT
BRANCH   1   2
ATOM      2  C   UNL     1      -9.008   5.304  -8.149  1.00  0.00     0.006 C 
BRANCH   2   3
ATOM      3  C   UNL     1      -8.688   3.954  -7.491  1.00  0.00     0.053 C 
BRANCH   3   4
ATOM      4  C   UNL     1      -9.235   2.805  -8.283  1.00  0.00     0.041 C 
ATOM      5  O   UNL     1     -10.449   2.788  -8.618  1.00  0.00    -0.550 OA
ATOM      6  O   UNL     1      -8.396   1.772  -8.680  1.00  0.00    -0.550 OA
ENDBRANCH   3   4
ENDBRANCH   2   3
ENDBRANCH   1   2
BRANCH   1   7
ATOM      7  C   UNL     1      -8.261   6.558 -10.216  1.00  0.00     0.000 C 
BRANCH   7   8
ATOM      8  C   UNL     1      -9.339   5.754 -10.962  1.00  0.00    -0.000 C 
BRANCH   8   9
ATOM      9  C   UNL     1      -8.741   4.712 -11.922  1.00  0.00    -0.000 C 
BRANCH   9  10
ATOM     10  C   UNL     1      -9.572   3.421 -11.982  1.00  0.00    -0.003 C 
ATOM     11  C   UNL     1     -11.073   3.680 -11.863  1.00  0.00     0.004 C 
ENDBRANCH   9  10
ENDBRANCH   8   9
ENDBRANCH   7   8
ENDBRANCH   1   7
TORSDOF 7
ENDMDL
MODEL 9
REMARK VINA RESULT:    -3.288      2.124      4.084
REMARK INTER + INTRA:          -5.391
REMARK INTER:                  -4.675
REMARK INTRA:                  -0.715
REMARK UNBOUND:                -0.758
REMARK SMILES CCCCCCCCC(=O)[O-]
REMARK SMILES IDX 6 1 7 2 8 3 9 4 10 5 11 6 5 7 4 8 3 9 2 10 1 11
REMARK H PARENT
REMARK Flexibility Score: inf
ROOT
ATOM      1  C   UNL     1      -8.028   6.132 -10.940  1.00  0.00     0.000 C 
ENDROOT
BRANCH   1   2
ATOM      2  C   UNL     1      -9.171   6.459  -9.967  1.00  0.00     0.006 C 
BRANCH   2   3
ATOM      3  C   UNL     1      -8.740   6.332  -8.499  1.00  0.00     0.053 C 
BRANCH   3   4
ATOM      4  C   UNL     1      -8.853   4.922  -8.006  1.00  0.00     0.041 C 
ATOM      5  O   UNL     1      -9.968   4.469  -7.633  1.00  0.00    -0.550 OA
ATOM      6  O   UNL     1      -7.735   4.097  -7.991  1.00  0.00    -0.550 OA
ENDBRANCH   3   4
ENDBRANCH   2   3
ENDBRANCH   1   2
BRANCH   1   7
ATOM      7  C   UNL     1      -8.522   5.236 -12.085  1.00  0.00     0.000 C 
BRANCH   7   8
ATOM      8  C   UNL     1      -9.538   4.182 -11.616  1.00  0.00    -0.000 C 
BRANCH   8   9
ATOM      9  C   UNL     1      -8.863   2.901 -11.097  1.00  0.00    -0.000 C 
BRANCH   9  10
ATOM     10  C   UNL     1      -9.803   2.053 -10.225  1.00  0.00    -0.003 C 
ATOM     11  C   UNL     1      -9.048   1.135  -9.264  1.00  0.00     0.004 C 
ENDBRANCH   9  10
ENDBRANCH   8   9
ENDBRANCH   7   8
ENDBRANCH   1   7
TORSDOF 7
ENDMDL
