MODEL 1
REMARK VINA RESULT:    -4.116      0.000      0.000
REMARK INTER + INTRA:          -7.119
REMARK INTER:                  -6.522
REMARK INTRA:                  -0.598
REMARK UNBOUND:                -0.598
REMARK SMILES CCCCCCCCCCCC(=O)[O-]
REMARK SMILES IDX 7 1 8 2 9 3 10 4 11 5 12 6 13 7 14 8 6 9 5 10 4 11 3 12 2 13
REMARK SMILES IDX 1 14
REMARK H PARENT
REMARK Flexibility Score: inf
ROOT
ATOM      1  C   UNL     1      29.935  34.093  23.110  1.00  0.00     0.000 C 
ENDROOT
BRANCH   1   2
ATOM      2  C   UNL     1      31.471  34.163  23.102  1.00  0.00     0.000 C 
BRANCH   2   3
ATOM      3  C   UNL     1      32.127  32.810  22.780  1.00  0.00     0.000 C 
BRANCH   3   4
ATOM      4  C   UNL     1      33.425  32.931  21.953  1.00  0.00     0.006 C 
BRANCH   4   5
ATOM      5  C   UNL     1      33.142  33.138  20.459  1.00  0.00     0.053 C 
BRANCH   5   6
ATOM      6  C   UNL     1      33.868  32.118  19.642  1.00  0.00     0.041 C 
ATOM      7  O   UNL     1      33.307  31.588  18.647  1.00  0.00    -0.550 OA
ATOM      8  O   UNL     1      35.183  31.788  19.948  1.00  0.00    -0.550 OA
ENDBRANCH   5   6
ENDBRANCH   4   5
ENDBRANCH   3   4
ENDBRANCH   2   3
ENDBRANCH   1   2
BRANCH   1   9
ATOM      9  C   UNL     1      29.392  32.742  22.609  1.00  0.00     0.000 C 
BRANCH   9  10
ATOM     10  C   UNL     1      28.716  32.773  21.225  1.00  0.00    -0.000 C 
BRANCH  10  11
ATOM     11  C   UNL     1      27.340  33.460  21.245  1.00  0.00    -0.000 C 
BRANCH  11  12
ATOM     12  C   UNL     1      26.986  34.110  19.896  1.00  0.00    -0.000 C 
BRANCH  12  13
ATOM     13  C   UNL     1      25.860  33.369  19.160  1.00  0.00    -0.003 C 
ATOM     14  C   UNL     1      24.896  32.716  20.147  1.00  0.00     0.004 C 
ENDBRANCH  12  13
ENDBRANCH  11  12
ENDBRANCH  10  11
ENDBRANCH   9  10
ENDBRANCH   1   9
TORSDOF 10
ENDMDL
MODEL 2
REMARK VINA RESULT:    -4.105      1.735      2.508
REMARK INTER + INTRA:          -7.102
REMARK INTER:                  -6.109
REMARK INTRA:                  -0.993
REMARK UNBOUND:                -0.598
REMARK SMILES CCCCCCCCCCCC(=O)[O-]
REMARK SMILES IDX 7 1 8 2 9 3 10 4 11 5 12 6 13 7 14 8 6 9 5 10 4 11 3 12 2 13
REMARK SMILES IDX 1 14
REMARK H PARENT
REMARK Flexibility Score: inf
ROOT
ATOM      1  C   UNL     1      28.606  34.633  23.691  1.00  0.00     0.000 C 
ENDROOT
BRANCH   1   2
ATOM      2  C   UNL     1      28.252  33.196  23.276  1.00  0.00     0.000 C 
BRANCH   2   3
ATOM      3  C   UNL     1      29.489  32.361  22.905  1.00  0.00     0.000 C 
BRANCH   3   4
ATOM      4  C   UNL     1      30.810  33.158  22.950  1.00  0.00     0.006 C 
BRANCH   4   5
ATOM      5  C   UNL     1      31.319  33.516  21.547  1.00  0.00     0.053 C 
BRANCH   5   6
ATOM      6  C   UNL     1      32.799  33.325  21.461  1.00  0.00     0.041 C 
ATOM      7  O   UNL     1      33.455  32.990  22.483  1.00  0.00    -0.550 OA
ATOM      8  O   UNL     1      33.449  33.468  20.241  1.00  0.00    -0.550 OA
ENDBRANCH   5   6
ENDBRANCH   4   5
ENDBRANCH   3   4
ENDBRANCH   2   3
ENDBRANCH   1   2
BRANCH   1   9
ATOM      9  C   UNL     1      27.962  35.698  22.783  1.00  0.00     0.000 C 
BRANCH   9  10
ATOM     10  C   UNL     1      28.320  35.596  21.289  1.00  0.00    -0.000 C 
BRANCH  10  11
ATOM     11  C   UNL     1      27.082  35.488  20.381  1.00  0.00    -0.000 C 
BRANCH  11  12
ATOM     12  C   UNL     1      26.804  34.043  19.935  1.00  0.00    -0.000 C 
BRANCH  12  13
ATOM     13  C   UNL     1      25.401  33.561  20.333  1.00  0.00    -0.003 C 
ATOM     14  C   UNL     1      24.976  32.357  19.496  1.00  0.00     0.004 C 
ENDBRANCH  12  13
ENDBRANCH  11  12
ENDBRANCH  10  11
ENDBRANCH   9  10
ENDBRANCH   1   9
TORSDOF 10
ENDMDL
MODEL 3
REMARK VINA RESULT:    -3.950      1.665      3.664
REMARK INTER + INTRA:          -6.857
REMARK INTER:                  -5.474
REMARK INTRA:                  -1.383
REMARK UNBOUND:                -0.598
REMARK SMILES CCCCCCCCCCCC(=O)[O-]
REMARK SMILES IDX 7 1 8 2 9 3 10 4 11 5 12 6 13 7 14 8 6 9 5 10 4 11 3 12 2 13
REMARK SMILES IDX 1 14
REMARK H PARENT
REMARK Flexibility Score: inf
ROOT
ATOM      1  C   UNL     1      29.368  35.078  20.438  1.00  0.00     0.000 C 
ENDROOT
BRANCH   1   2
ATOM      2  C   UNL     1      30.731  34.902  19.750  1.00  0.00     0.000 C 
BRANCH   2   3
ATOM      3  C   UNL     1      30.985  33.456  19.293  1.00  0.00     0.000 C 
BRANCH   3   4
ATOM      4  C   UNL     1      32.409  33.220  18.746  1.00  0.00     0.006 C 
BRANCH   4   5
ATOM      5  C   UNL     1      33.339  32.602  19.798  1.00  0.00     0.053 C 
BRANCH   5   6
ATOM      6  C   UNL     1      34.419  31.805  19.141  1.00  0.00     0.041 C 
ATOM      7  O   UNL     1      34.210  31.249  18.029  1.00  0.00    -0.550 OA
ATOM      8  O   UNL     1      35.674  31.713  19.730  1.00  0.00    -0.550 OA
ENDBRANCH   5   6
ENDBRANCH   4   5
ENDBRANCH   3   4
ENDBRANCH   2   3
ENDBRANCH   1   2
BRANCH   1   9
ATOM      9  C   UNL     1      28.598  33.754  20.596  1.00  0.00     0.000 C 
BRANCH   9  10
ATOM     10  C   UNL     1      27.953  33.524  21.975  1.00  0.00    -0.000 C 
BRANCH  10  11
ATOM     11  C   UNL     1      28.971  33.571  23.128  1.00  0.00    -0.000 C 
BRANCH  11  12
ATOM     12  C   UNL     1      30.036  32.467  23.019  1.00  0.00    -0.000 C 
BRANCH  12  13
ATOM     13  C   UNL     1      31.466  33.027  22.976  1.00  0.00    -0.003 C 
ATOM     14  C   UNL     1      31.497  34.487  23.421  1.00  0.00     0.004 C 
ENDBRANCH  12  13
ENDBRANCH  11  12
ENDBRANCH  10  11
ENDBRANCH   9  10
ENDBRANCH   1   9
TORSDOF 10
ENDMDL
MODEL 4
REMARK VINA RESULT:    -3.939      1.077      1.633
REMARK INTER + INTRA:          -6.839
REMARK INTER:                  -6.446
REMARK INTRA:                  -0.392
REMARK UNBOUND:                -0.598
REMARK SMILES CCCCCCCCCCCC(=O)[O-]
REMARK SMILES IDX 7 1 8 2 9 3 10 4 11 5 12 6 13 7 14 8 6 9 5 10 4 11 3 12 2 13
REMARK SMILES IDX 1 14
REMARK H PARENT
REMARK Flexibility Score: inf
ROOT
ATOM      1  C   UNL     1      30.890  33.682  22.934  1.00  0.00     0.000 C 
ENDROOT
BRANCH   1   2
ATOM      2  C   UNL     1      32.262  33.046  22.661  1.00  0.00     0.000 C 
BRANCH   2   3
ATOM      3  C   UNL     1      32.815  33.396  21.269  1.00  0.00     0.000 C 
BRANCH   3   4
ATOM      4  C   UNL     1      33.912  32.428  20.776  1.00  0.00     0.006 C 
BRANCH   4   5
ATOM      5  C   UNL     1      33.638  31.920  19.354  1.00  0.00     0.053 C 
BRANCH   5   6
ATOM      6  C   UNL     1      34.800  32.212  18.460  1.00  0.00     0.041 C 
ATOM      7  O   UNL     1      35.910  32.548  18.953  1.00  0.00    -0.550 OA
ATOM      8  O   UNL     1      34.674  32.067  17.084  1.00  0.00    -0.550 OA
ENDBRANCH   5   6
ENDBRANCH   4   5
ENDBRANCH   3   4
ENDBRANCH   2   3
ENDBRANCH   1   2
BRANCH   1   9
ATOM      9  C   UNL     1      29.762  32.643  23.076  1.00  0.00     0.000 C 
BRANCH   9  10
ATOM     10  C   UNL     1      28.331  33.202  22.972  1.00  0.00    -0.000 C 
BRANCH  10  11
ATOM     11  C   UNL     1      28.114  34.063  21.715  1.00  0.00    -0.000 C 
BRANCH  11  12
ATOM     12  C   UNL     1      27.431  33.284  20.578  1.00  0.00    -0.000 C 
BRANCH  12  13
ATOM     13  C   UNL     1      26.090  33.904  20.159  1.00  0.00    -0.003 C 
ATOM     14  C   UNL     1      24.976  32.861  20.168  1.00  0.00     0.004 C 
ENDBRANCH  12  13
ENDBRANCH  11  12
ENDBRANCH  10  11
ENDBRANCH   9  10
ENDBRANCH   1   9
TORSDOF 10
ENDMDL
MODEL 5
REMARK VINA RESULT:    -3.938      2.024      2.359
REMARK INTER + INTRA:          -6.838
REMARK INTER:                  -5.824
REMARK INTRA:                  -1.013
REMARK UNBOUND:                -0.598
REMARK SMILES CCCCCCCCCCCC(=O)[O-]
REMARK SMILES IDX 7 1 8 2 9 3 10 4 11 5 12 6 13 7 14 8 6 9 5 10 4 11 3 12 2 13
REMARK SMILES IDX 1 14
REMARK H PARENT
REMARK Flexibility Score: inf
ROOT
ATOM      1  C   UNL     1      30.532  34.247  23.365  1.00  0.00     0.000 C 
ENDROOT
BRANCH   1   2
ATOM      2  C   UNL     1      32.031  34.302  23.033  1.00  0.00     0.000 C 
BRANCH   2   3
ATOM      3  C   UNL     1      32.504  33.089  22.213  1.00  0.00     0.000 C 
BRANCH   3   4
ATOM      4  C   UNL     1      32.893  33.437  20.761  1.00  0.00     0.006 C 
BRANCH   4   5
ATOM      5  C   UNL     1      31.674  33.483  19.830  1.00  0.00     0.053 C 
BRANCH   5   6
ATOM      6  C   UNL     1      31.380  34.890  19.421  1.00  0.00     0.041 C 
ATOM      7  O   UNL     1      31.933  35.382  18.401  1.00  0.00    -0.550 OA
ATOM      8  O   UNL     1      30.457  35.645  20.135  1.00  0.00    -0.550 OA
ENDBRANCH   5   6
ENDBRANCH   4   5
ENDBRANCH   3   4
ENDBRANCH   2   3
ENDBRANCH   1   2
BRANCH   1   9
ATOM      9  C   UNL     1      29.893  32.883  23.044  1.00  0.00     0.000 C 
BRANCH   9  10
ATOM     10  C   UNL     1      28.418  32.930  22.605  1.00  0.00    -0.000 C 
BRANCH  10  11
ATOM     11  C   UNL     1      28.250  33.048  21.080  1.00  0.00    -0.000 C 
BRANCH  11  12
ATOM     12  C   UNL     1      27.099  33.990  20.687  1.00  0.00    -0.000 C 
BRANCH  12  13
ATOM     13  C   UNL     1      26.232  33.423  19.553  1.00  0.00    -0.003 C 
ATOM     14  C   UNL     1      24.928  32.845  20.097  1.00  0.00     0.004 C 
ENDBRANCH  12  13
ENDBRANCH  11  12
ENDBRANCH  10  11
ENDBRANCH   9  10
ENDBRANCH   1   9
TORSDOF 10
ENDMDL
MODEL 6
REMARK VINA RESULT:    -3.845      2.022      3.298
REMARK INTER + INTRA:          -6.691
REMARK INTER:                  -5.189
REMARK INTRA:                  -1.502
REMARK UNBOUND:                -0.598
REMARK SMILES CCCCCCCCCCCC(=O)[O-]
REMARK SMILES IDX 7 1 8 2 9 3 10 4 11 5 12 6 13 7 14 8 6 9 5 10 4 11 3 12 2 13
REMARK SMILES IDX 1 14
REMARK H PARENT
REMARK Flexibility Score: inf
ROOT
ATOM      1  C   UNL     1      30.946  34.431  19.549  1.00  0.00     0.000 C 
ENDROOT
BRANCH   1   2
ATOM      2  C   UNL     1      30.942  35.413  20.731  1.00  0.00     0.000 C 
BRANCH   2   3
ATOM      3  C   UNL     1      32.286  35.450  21.479  1.00  0.00     0.000 C 
BRANCH   3   4
ATOM      4  C   UNL     1      32.259  34.720  22.839  1.00  0.00     0.006 C 
BRANCH   4   5
ATOM      5  C   UNL     1      32.460  33.207  22.688  1.00  0.00     0.053 C 
BRANCH   5   6
ATOM      6  C   UNL     1      33.736  32.916  21.965  1.00  0.00     0.041 C 
ATOM      7  O   UNL     1      33.715  32.310  20.861  1.00  0.00    -0.550 OA
ATOM      8  O   UNL     1      34.946  33.357  22.485  1.00  0.00    -0.550 OA
ENDBRANCH   5   6
ENDBRANCH   4   5
ENDBRANCH   3   4
ENDBRANCH   2   3
ENDBRANCH   1   2
BRANCH   1   9
ATOM      9  C   UNL     1      30.048  33.203  19.784  1.00  0.00     0.000 C 
BRANCH   9  10
ATOM     10  C   UNL     1      28.864  33.423  20.744  1.00  0.00    -0.000 C 
BRANCH  10  11
ATOM     11  C   UNL     1      29.002  32.633  22.057  1.00  0.00    -0.000 C 
BRANCH  11  12
ATOM     12  C   UNL     1      28.199  33.262  23.209  1.00  0.00    -0.000 C 
BRANCH  12  13
ATOM     13  C   UNL     1      28.923  34.453  23.853  1.00  0.00    -0.003 C 
ATOM     14  C   UNL     1      28.197  35.762  23.555  1.00  0.00     0.004 C 
ENDBRANCH  12  13
ENDBRANCH  11  12
ENDBRANCH  10  11
ENDBRANCH   9  10
ENDBRANCH   1   9
TORSDOF 10
ENDMDL
MODEL 7
REMARK VINA RESULT:    -3.810      1.970      2.704
REMARK INTER + INTRA:          -6.635
REMARK INTER:                  -5.862
REMARK INTRA:                  -0.773
REMARK UNBOUND:                -0.598
REMARK SMILES CCCCCCCCCCCC(=O)[O-]
REMARK SMILES IDX 7 1 8 2 9 3 10 4 11 5 12 6 13 7 14 8 6 9 5 10 4 11 3 12 2 13
REMARK SMILES IDX 1 14
REMARK H PARENT
REMARK Flexibility Score: inf
ROOT
ATOM      1  C   UNL     1      30.902  34.453  19.636  1.00  0.00     0.000 C 
ENDROOT
BRANCH   1   2
ATOM      2  C   UNL     1      31.068  33.124  18.882  1.00  0.00     0.000 C 
BRANCH   2   3
ATOM      3  C   UNL     1      32.535  32.811  18.543  1.00  0.00     0.000 C 
BRANCH   3   4
ATOM      4  C   UNL     1      33.549  33.499  19.482  1.00  0.00     0.006 C 
BRANCH   4   5
ATOM      5  C   UNL     1      34.006  32.574  20.617  1.00  0.00     0.053 C 
BRANCH   5   6
ATOM      6  C   UNL     1      33.611  33.137  21.944  1.00  0.00     0.041 C 
ATOM      7  O   UNL     1      32.485  32.862  22.440  1.00  0.00    -0.550 OA
ATOM      8  O   UNL     1      34.503  33.927  22.660  1.00  0.00    -0.550 OA
ENDBRANCH   5   6
ENDBRANCH   4   5
ENDBRANCH   3   4
ENDBRANCH   2   3
ENDBRANCH   1   2
BRANCH   1   9
ATOM      9  C   UNL     1      29.582  34.536  20.426  1.00  0.00     0.000 C 
BRANCH   9  10
ATOM     10  C   UNL     1      28.857  33.196  20.646  1.00  0.00    -0.000 C 
BRANCH  10  11
ATOM     11  C   UNL     1      27.346  33.362  20.881  1.00  0.00    -0.000 C 
BRANCH  11  12
ATOM     12  C   UNL     1      26.686  34.282  19.839  1.00  0.00    -0.000 C 
BRANCH  12  13
ATOM     13  C   UNL     1      25.495  33.617  19.133  1.00  0.00    -0.003 C 
ATOM     14  C   UNL     1      24.875  32.531  20.007  1.00  0.00     0.004 C 
ENDBRANCH  12  13
ENDBRANCH  11  12
ENDBRANCH  10  11
ENDBRANCH   9  10
ENDBRANCH   1   9
TORSDOF 10
ENDMDL
MODEL 8
REMARK VINA RESULT:    -3.797      3.214      5.598
REMARK INTER + INTRA:          -6.614
REMARK INTER:                  -5.379
REMARK INTRA:                  -1.235
REMARK UNBOUND:                -0.598
REMARK SMILES CCCCCCCCCCCC(=O)[O-]
REMARK SMILES IDX 7 1 8 2 9 3 10 4 11 5 12 6 13 7 14 8 6 9 5 10 4 11 3 12 2 13
REMARK SMILES IDX 1 14
REMARK H PARENT
REMARK Flexibility Score: inf
ROOT
ATOM      1  C   UNL     1      31.647  34.334  23.032  1.00  0.00     0.000 C 
ENDROOT
BRANCH   1   2
ATOM      2  C   UNL     1      30.142  34.198  23.311  1.00  0.00     0.000 C 
BRANCH   2   3
ATOM      3  C   UNL     1      29.590  32.810  22.940  1.00  0.00     0.000 C 
BRANCH   3   4
ATOM      4  C   UNL     1      28.797  32.792  21.616  1.00  0.00     0.006 C 
BRANCH   4   5
ATOM      5  C   UNL     1      28.381  34.201  21.171  1.00  0.00     0.053 C 
BRANCH   5   6
ATOM      6  C   UNL     1      27.142  34.143  20.338  1.00  0.00     0.041 C 
ATOM      7  O   UNL     1      26.449  33.091  20.304  1.00  0.00    -0.550 OA
ATOM      8  O   UNL     1      26.721  35.266  19.636  1.00  0.00    -0.550 OA
ENDBRANCH   5   6
ENDBRANCH   4   5
ENDBRANCH   3   4
ENDBRANCH   2   3
ENDBRANCH   1   2
BRANCH   1   9
ATOM      9  C   UNL     1      32.326  32.986  22.724  1.00  0.00     0.000 C 
BRANCH   9  10
ATOM     10  C   UNL     1      33.684  33.080  22.004  1.00  0.00    -0.000 C 
BRANCH  10  11
ATOM     11  C   UNL     1      33.588  32.773  20.500  1.00  0.00    -0.000 C 
BRANCH  11  12
ATOM     12  C   UNL     1      33.442  34.045  19.647  1.00  0.00    -0.000 C 
BRANCH  12  13
ATOM     13  C   UNL     1      31.978  34.367  19.313  1.00  0.00    -0.003 C 
ATOM     14  C   UNL     1      31.219  33.108  18.901  1.00  0.00     0.004 C 
ENDBRANCH  12  13
ENDBRANCH  11  12
ENDBRANCH  10  11
ENDBRANCH   9  10
ENDBRANCH   1   9
TORSDOF 10
ENDMDL
MODEL 9
REMARK VINA RESULT:    -3.729      1.557      2.995
REMARK INTER + INTRA:          -6.507
REMARK INTER:                  -5.110
REMARK INTRA:                  -1.397
REMARK UNBOUND:                -0.598
REMARK SMILES CCCCCCCCCCCC(=O)[O-]
REMARK SMILES IDX 7 1 8 2 9 3 10 4 11 5 12 6 13 7 14 8 6 9 5 10 4 11 3 12 2 13
REMARK SMILES IDX 1 14
REMARK H PARENT
REMARK Flexibility Score: inf
ROOT
ATOM      1  C   UNL     1      31.713  34.910  21.266  1.00  0.00     0.000 C 
ENDROOT
BRANCH   1   2
ATOM      2  C   UNL     1      31.315  34.850  19.783  1.00  0.00     0.000 C 
BRANCH   2   3
ATOM      3  C   UNL     1      31.364  33.423  19.210  1.00  0.00     0.000 C 
BRANCH   3   4
ATOM      4  C   UNL     1      32.558  33.177  18.262  1.00  0.00     0.006 C 
BRANCH   4   5
ATOM      5  C   UNL     1      33.408  31.977  18.702  1.00  0.00     0.053 C 
BRANCH   5   6
ATOM      6  C   UNL     1      34.639  32.439  19.412  1.00  0.00     0.041 C 
ATOM      7  O   UNL     1      35.497  31.603  19.803  1.00  0.00    -0.550 OA
ATOM      8  O   UNL     1      34.868  33.797  19.600  1.00  0.00    -0.550 OA
ENDBRANCH   5   6
ENDBRANCH   4   5
ENDBRANCH   3   4
ENDBRANCH   2   3
ENDBRANCH   1   2
BRANCH   1   9
ATOM      9  C   UNL     1      32.075  33.531  21.848  1.00  0.00     0.000 C 
BRANCH   9  10
ATOM     10  C   UNL     1      31.150  33.022  22.969  1.00  0.00    -0.000 C 
BRANCH  10  11
ATOM     11  C   UNL     1      29.922  33.923  23.188  1.00  0.00    -0.000 C 
BRANCH  11  12
ATOM     12  C   UNL     1      28.598  33.197  22.893  1.00  0.00    -0.000 C 
BRANCH  12  13
ATOM     13  C   UNL     1      28.507  32.698  21.444  1.00  0.00    -0.003 C 
ATOM     14  C   UNL     1      27.842  33.737  20.546  1.00  0.00     0.004 C 
ENDBRANCH  12  13
ENDBRANCH  11  12
ENDBRANCH  10  11
ENDBRANCH   9  10
ENDBRANCH   1   9
TORSDOF 10
ENDMDL
