MODEL 1
REMARK VINA RESULT:    -3.107      0.000      0.000
REMARK INTER + INTRA:          -8.246
REMARK INTER:                  -5.649
REMARK INTRA:                  -2.597
REMARK UNBOUND:                -2.597
REMARK SMILES CCCCCCCCCCCCCC[C@H](C)C(=O)[O-]
REMARK SMILES IDX 9 1 10 2 11 3 12 4 13 5 14 6 15 7 16 8 17 9 18 10 19 11 8 12
REMARK SMILES IDX 7 13 6 14 5 15 4 16 3 17 2 18 1 19
REMARK H PARENT
REMARK Flexibility Score: inf
ROOT
ATOM      1  C   UNL     1      67.500  15.366  76.941  1.00  0.00     0.000 C 
ENDROOT
BRANCH   1   2
ATOM      2  C   UNL     1      66.756  16.220  75.908  1.00  0.00     0.000 C 
BRANCH   2   3
ATOM      3  C   UNL     1      66.938  17.716  76.198  1.00  0.00     0.000 C 
BRANCH   3   4
ATOM      4  C   UNL     1      66.842  17.999  77.705  1.00  0.00     0.000 C 
BRANCH   4   5
ATOM      5  C   UNL     1      67.993  18.882  78.215  1.00  0.00     0.001 C 
BRANCH   5   6
ATOM      6  C   UNL     1      69.244  18.800  77.317  1.00  0.00     0.009 C 
BRANCH   6   7
ATOM      7  C   UNL     1      70.419  19.686  77.786  1.00  0.00     0.032 C 
ATOM      8  C   UNL     1      70.457  19.862  79.311  1.00  0.00     0.014 C 
BRANCH   7   9
ATOM      9  C   UNL     1      70.442  21.010  77.064  1.00  0.00     0.044 C 
ATOM     10  O   UNL     1      70.036  21.106  75.875  1.00  0.00    -0.550 OA
ATOM     11  O   UNL     1      70.964  22.129  77.699  1.00  0.00    -0.550 OA
ENDBRANCH   7   9
ENDBRANCH   6   7
ENDBRANCH   5   6
ENDBRANCH   4   5
ENDBRANCH   3   4
ENDBRANCH   2   3
ENDBRANCH   1   2
BRANCH   1  12
ATOM     12  C   UNL     1      68.668  14.609  76.290  1.00  0.00     0.000 C 
BRANCH  12  13
ATOM     13  C   UNL     1      69.997  15.375  76.393  1.00  0.00    -0.000 C 
BRANCH  13  14
ATOM     14  C   UNL     1      70.885  14.864  77.540  1.00  0.00    -0.000 C 
BRANCH  14  15
ATOM     15  C   UNL     1      71.218  15.960  78.569  1.00  0.00    -0.000 C 
BRANCH  15  16
ATOM     16  C   UNL     1      70.686  15.698  79.993  1.00  0.00    -0.000 C 
BRANCH  16  17
ATOM     17  C   UNL     1      69.351  16.385  80.328  1.00  0.00    -0.000 C 
BRANCH  17  18
ATOM     18  C   UNL     1      68.340  15.436  80.988  1.00  0.00    -0.003 C 
ATOM     19  C   UNL     1      66.906  15.872  80.702  1.00  0.00     0.004 C 
ENDBRANCH  17  18
ENDBRANCH  16  17
ENDBRANCH  15  16
ENDBRANCH  14  15
ENDBRANCH  13  14
ENDBRANCH  12  13
ENDBRANCH   1  12
TORSDOF 14
ENDMDL
MODEL 2
REMARK VINA RESULT:    -3.092      3.819      5.890
REMARK INTER + INTRA:          -8.220
REMARK INTER:                  -5.523
REMARK INTRA:                  -2.697
REMARK UNBOUND:                -2.597
REMARK SMILES CCCCCCCCCCCCCC[C@H](C)C(=O)[O-]
REMARK SMILES IDX 9 1 10 2 11 3 12 4 13 5 14 6 15 7 16 8 17 9 18 10 19 11 8 12
REMARK SMILES IDX 7 13 6 14 5 15 4 16 3 17 2 18 1 19
REMARK H PARENT
REMARK Flexibility Score: inf
ROOT
ATOM      1  C   UNL     1      69.013  17.421  80.470  1.00  0.00     0.000 C 
ENDROOT
BRANCH   1   2
ATOM      2  C   UNL     1      68.467  16.041  80.856  1.00  0.00     0.000 C 
BRANCH   2   3
ATOM      3  C   UNL     1      67.084  15.804  80.238  1.00  0.00     0.000 C 
BRANCH   3   4
ATOM      4  C   UNL     1      66.521  17.101  79.635  1.00  0.00     0.000 C 
BRANCH   4   5
ATOM      5  C   UNL     1      65.302  16.854  78.732  1.00  0.00     0.001 C 
BRANCH   5   6
ATOM      6  C   UNL     1      65.186  15.383  78.285  1.00  0.00     0.009 C 
BRANCH   6   7
ATOM      7  C   UNL     1      64.939  15.198  76.771  1.00  0.00     0.032 C 
ATOM      8  C   UNL     1      64.746  16.533  76.036  1.00  0.00     0.014 C 
BRANCH   7   9
ATOM      9  C   UNL     1      63.809  14.237  76.504  1.00  0.00     0.044 C 
ATOM     10  O   UNL     1      62.623  14.647  76.388  1.00  0.00    -0.550 OA
ATOM     11  O   UNL     1      64.069  12.875  76.434  1.00  0.00    -0.550 OA
ENDBRANCH   7   9
ENDBRANCH   6   7
ENDBRANCH   5   6
ENDBRANCH   4   5
ENDBRANCH   3   4
ENDBRANCH   2   3
ENDBRANCH   1   2
BRANCH   1  12
ATOM     12  C   UNL     1      70.549  17.439  80.521  1.00  0.00     0.000 C 
BRANCH  12  13
ATOM     13  C   UNL     1      71.159  16.035  80.387  1.00  0.00    -0.000 C 
BRANCH  13  14
ATOM     14  C   UNL     1      71.836  15.813  79.024  1.00  0.00    -0.000 C 
BRANCH  14  15
ATOM     15  C   UNL     1      71.228  14.635  78.243  1.00  0.00    -0.000 C 
BRANCH  15  16
ATOM     16  C   UNL     1      70.469  15.028  76.959  1.00  0.00    -0.000 C 
BRANCH  16  17
ATOM     17  C   UNL     1      68.947  15.185  77.122  1.00  0.00    -0.000 C 
BRANCH  17  18
ATOM     18  C   UNL     1      68.435  16.554  76.652  1.00  0.00    -0.003 C 
ATOM     19  C   UNL     1      69.519  17.621  76.780  1.00  0.00     0.004 C 
ENDBRANCH  17  18
ENDBRANCH  16  17
ENDBRANCH  15  16
ENDBRANCH  14  15
ENDBRANCH  13  14
ENDBRANCH  12  13
ENDBRANCH   1  12
TORSDOF 14
ENDMDL
MODEL 3
REMARK VINA RESULT:    -3.081      3.074      4.814
REMARK INTER + INTRA:          -8.198
REMARK INTER:                  -5.720
REMARK INTRA:                  -2.478
REMARK UNBOUND:                -2.597
REMARK SMILES CCCCCCCCCCCCCC[C@H](C)C(=O)[O-]
REMARK SMILES IDX 9 1 10 2 11 3 12 4 13 5 14 6 15 7 16 8 17 9 18 10 19 11 8 12
REMARK SMILES IDX 7 13 6 14 5 15 4 16 3 17 2 18 1 19
REMARK H PARENT
REMARK Flexibility Score: inf
ROOT
ATOM      1  C   UNL     1      68.845  14.357  76.124  1.00  0.00     0.000 C 
ENDROOT
BRANCH   1   2
ATOM      2  C   UNL     1      67.698  15.346  75.882  1.00  0.00     0.000 C 
BRANCH   2   3
ATOM      3  C   UNL     1      66.776  15.429  77.105  1.00  0.00     0.000 C 
BRANCH   3   4
ATOM      4  C   UNL     1      66.086  16.800  77.181  1.00  0.00     0.000 C 
BRANCH   4   5
ATOM      5  C   UNL     1      65.852  17.266  78.627  1.00  0.00     0.001 C 
BRANCH   5   6
ATOM      6  C   UNL     1      66.857  16.643  79.619  1.00  0.00     0.009 C 
BRANCH   6   7
ATOM      7  C   UNL     1      66.204  15.791  80.730  1.00  0.00     0.032 C 
ATOM      8  C   UNL     1      64.692  15.618  80.532  1.00  0.00     0.014 C 
BRANCH   7   9
ATOM      9  C   UNL     1      66.539  16.315  82.103  1.00  0.00     0.044 C 
ATOM     10  O   UNL     1      67.706  16.216  82.568  1.00  0.00    -0.550 OA
ATOM     11  O   UNL     1      65.537  16.870  82.888  1.00  0.00    -0.550 OA
ENDBRANCH   7   9
ENDBRANCH   6   7
ENDBRANCH   5   6
ENDBRANCH   4   5
ENDBRANCH   3   4
ENDBRANCH   2   3
ENDBRANCH   1   2
BRANCH   1  12
ATOM     12  C   UNL     1      70.191  15.091  76.221  1.00  0.00     0.000 C 
BRANCH  12  13
ATOM     13  C   UNL     1      70.889  14.866  77.572  1.00  0.00    -0.000 C 
BRANCH  13  14
ATOM     14  C   UNL     1      69.998  15.249  78.766  1.00  0.00    -0.000 C 
BRANCH  14  15
ATOM     15  C   UNL     1      70.563  16.431  79.574  1.00  0.00    -0.000 C 
BRANCH  15  16
ATOM     16  C   UNL     1      70.811  17.718  78.760  1.00  0.00    -0.000 C 
BRANCH  16  17
ATOM     17  C   UNL     1      69.546  18.391  78.202  1.00  0.00    -0.000 C 
BRANCH  17  18
ATOM     18  C   UNL     1      69.566  18.526  76.673  1.00  0.00    -0.003 C 
ATOM     19  C   UNL     1      68.466  19.465  76.188  1.00  0.00     0.004 C 
ENDBRANCH  17  18
ENDBRANCH  16  17
ENDBRANCH  15  16
ENDBRANCH  14  15
ENDBRANCH  13  14
ENDBRANCH  12  13
ENDBRANCH   1  12
TORSDOF 14
ENDMDL
MODEL 4
REMARK VINA RESULT:    -3.068      2.579      5.000
REMARK INTER + INTRA:          -8.175
REMARK INTER:                  -5.545
REMARK INTRA:                  -2.630
REMARK UNBOUND:                -2.597
REMARK SMILES CCCCCCCCCCCCCC[C@H](C)C(=O)[O-]
REMARK SMILES IDX 9 1 10 2 11 3 12 4 13 5 14 6 15 7 16 8 17 9 18 10 19 11 8 12
REMARK SMILES IDX 7 13 6 14 5 15 4 16 3 17 2 18 1 19
REMARK H PARENT
REMARK Flexibility Score: inf
ROOT
ATOM      1  C   UNL     1      70.725  14.812  77.906  1.00  0.00     0.000 C 
ENDROOT
BRANCH   1   2
ATOM      2  C   UNL     1      71.282  16.097  78.531  1.00  0.00     0.000 C 
BRANCH   2   3
ATOM      3  C   UNL     1      70.348  16.625  79.627  1.00  0.00     0.000 C 
BRANCH   3   4
ATOM      4  C   UNL     1      69.689  15.468  80.393  1.00  0.00     0.000 C 
BRANCH   4   5
ATOM      5  C   UNL     1      68.200  15.720  80.681  1.00  0.00     0.001 C 
BRANCH   5   6
ATOM      6  C   UNL     1      67.940  16.111  82.150  1.00  0.00     0.009 C 
BRANCH   6   7
ATOM      7  C   UNL     1      67.982  17.632  82.418  1.00  0.00     0.032 C 
ATOM      8  C   UNL     1      67.523  18.459  81.207  1.00  0.00     0.014 C 
BRANCH   7   9
ATOM      9  C   UNL     1      69.332  18.072  82.925  1.00  0.00     0.044 C 
ATOM     10  O   UNL     1      69.859  17.520  83.927  1.00  0.00    -0.550 OA
ATOM     11  O   UNL     1      69.983  19.133  82.310  1.00  0.00    -0.550 OA
ENDBRANCH   7   9
ENDBRANCH   6   7
ENDBRANCH   5   6
ENDBRANCH   4   5
ENDBRANCH   3   4
ENDBRANCH   2   3
ENDBRANCH   1   2
BRANCH   1  12
ATOM     12  C   UNL     1      70.174  15.080  76.497  1.00  0.00     0.000 C 
BRANCH  12  13
ATOM     13  C   UNL     1      68.805  14.421  76.265  1.00  0.00    -0.000 C 
BRANCH  13  14
ATOM     14  C   UNL     1      67.696  15.449  75.983  1.00  0.00    -0.000 C 
BRANCH  14  15
ATOM     15  C   UNL     1      67.109  16.059  77.269  1.00  0.00    -0.000 C 
BRANCH  15  16
ATOM     16  C   UNL     1      67.541  17.511  77.557  1.00  0.00    -0.000 C 
BRANCH  16  17
ATOM     17  C   UNL     1      68.019  18.306  76.329  1.00  0.00    -0.000 C 
BRANCH  17  18
ATOM     18  C   UNL     1      69.512  18.660  76.391  1.00  0.00    -0.003 C 
ATOM     19  C   UNL     1      69.802  19.622  77.540  1.00  0.00     0.004 C 
ENDBRANCH  17  18
ENDBRANCH  16  17
ENDBRANCH  15  16
ENDBRANCH  14  15
ENDBRANCH  13  14
ENDBRANCH  12  13
ENDBRANCH   1  12
TORSDOF 14
ENDMDL
MODEL 5
REMARK VINA RESULT:    -3.021      3.469      5.715
REMARK INTER + INTRA:          -8.090
REMARK INTER:                  -5.389
REMARK INTRA:                  -2.701
REMARK UNBOUND:                -2.597
REMARK SMILES CCCCCCCCCCCCCC[C@H](C)C(=O)[O-]
REMARK SMILES IDX 9 1 10 2 11 3 12 4 13 5 14 6 15 7 16 8 17 9 18 10 19 11 8 12
REMARK SMILES IDX 7 13 6 14 5 15 4 16 3 17 2 18 1 19
REMARK H PARENT
REMARK Flexibility Score: inf
ROOT
ATOM      1  C   UNL     1      70.706  14.751  78.106  1.00  0.00     0.000 C 
ENDROOT
BRANCH   1   2
ATOM      2  C   UNL     1      71.502  15.865  78.798  1.00  0.00     0.000 C 
BRANCH   2   3
ATOM      3  C   UNL     1      70.714  16.457  79.972  1.00  0.00     0.000 C 
BRANCH   3   4
ATOM      4  C   UNL     1      69.521  15.561  80.341  1.00  0.00     0.000 C 
BRANCH   4   5
ATOM      5  C   UNL     1      68.522  16.261  81.277  1.00  0.00     0.001 C 
BRANCH   5   6
ATOM      6  C   UNL     1      67.071  15.788  81.053  1.00  0.00     0.009 C 
BRANCH   6   7
ATOM      7  C   UNL     1      65.998  16.747  81.616  1.00  0.00     0.032 C 
ATOM      8  C   UNL     1      66.378  18.225  81.446  1.00  0.00     0.014 C 
BRANCH   7   9
ATOM      9  C   UNL     1      65.647  16.414  83.043  1.00  0.00     0.044 C 
ATOM     10  O   UNL     1      66.293  16.912  84.003  1.00  0.00    -0.550 OA
ATOM     11  O   UNL     1      64.629  15.507  83.305  1.00  0.00    -0.550 OA
ENDBRANCH   7   9
ENDBRANCH   6   7
ENDBRANCH   5   6
ENDBRANCH   4   5
ENDBRANCH   3   4
ENDBRANCH   2   3
ENDBRANCH   1   2
BRANCH   1  12
ATOM     12  C   UNL     1      70.808  14.869  76.578  1.00  0.00     0.000 C 
BRANCH  12  13
ATOM     13  C   UNL     1      69.442  14.746  75.885  1.00  0.00    -0.000 C 
BRANCH  13  14
ATOM     14  C   UNL     1      68.279  14.654  76.886  1.00  0.00    -0.000 C 
BRANCH  14  15
ATOM     15  C   UNL     1      67.046  15.463  76.442  1.00  0.00    -0.000 C 
BRANCH  15  16
ATOM     16  C   UNL     1      67.226  16.995  76.478  1.00  0.00    -0.000 C 
BRANCH  16  17
ATOM     17  C   UNL     1      67.612  17.575  77.850  1.00  0.00    -0.000 C 
BRANCH  17  18
ATOM     18  C   UNL     1      68.669  18.684  77.752  1.00  0.00    -0.003 C 
ATOM     19  C   UNL     1      69.666  18.399  76.633  1.00  0.00     0.004 C 
ENDBRANCH  17  18
ENDBRANCH  16  17
ENDBRANCH  15  16
ENDBRANCH  14  15
ENDBRANCH  13  14
ENDBRANCH  12  13
ENDBRANCH   1  12
TORSDOF 14
ENDMDL
MODEL 6
REMARK VINA RESULT:    -3.007      2.434      5.477
REMARK INTER + INTRA:          -8.065
REMARK INTER:                  -6.038
REMARK INTRA:                  -2.027
REMARK UNBOUND:                -2.597
REMARK SMILES CCCCCCCCCCCCCC[C@H](C)C(=O)[O-]
REMARK SMILES IDX 9 1 10 2 11 3 12 4 13 5 14 6 15 7 16 8 17 9 18 10 19 11 8 12
REMARK SMILES IDX 7 13 6 14 5 15 4 16 3 17 2 18 1 19
REMARK H PARENT
REMARK Flexibility Score: inf
ROOT
ATOM      1  C   UNL     1      69.738  17.239  80.352  1.00  0.00     0.000 C 
ENDROOT
BRANCH   1   2
ATOM      2  C   UNL     1      70.932  16.366  80.757  1.00  0.00     0.000 C 
BRANCH   2   3
ATOM      3  C   UNL     1      71.714  15.896  79.524  1.00  0.00     0.000 C 
BRANCH   3   4
ATOM      4  C   UNL     1      70.953  14.785  78.782  1.00  0.00     0.000 C 
BRANCH   4   5
ATOM      5  C   UNL     1      71.501  14.537  77.367  1.00  0.00     0.001 C 
BRANCH   5   6
ATOM      6  C   UNL     1      70.494  14.928  76.266  1.00  0.00     0.009 C 
BRANCH   6   7
ATOM      7  C   UNL     1      69.085  15.279  76.792  1.00  0.00     0.032 C 
ATOM      8  C   UNL     1      67.986  14.406  76.170  1.00  0.00     0.014 C 
BRANCH   7   9
ATOM      9  C   UNL     1      68.788  16.750  76.649  1.00  0.00     0.044 C 
ATOM     10  O   UNL     1      67.643  17.150  76.307  1.00  0.00    -0.550 OA
ATOM     11  O   UNL     1      69.802  17.678  76.849  1.00  0.00    -0.550 OA
ENDBRANCH   7   9
ENDBRANCH   6   7
ENDBRANCH   5   6
ENDBRANCH   4   5
ENDBRANCH   3   4
ENDBRANCH   2   3
ENDBRANCH   1   2
BRANCH   1  12
ATOM     12  C   UNL     1      68.464  16.807  81.092  1.00  0.00     0.000 C 
BRANCH  12  13
ATOM     13  C   UNL     1      67.609  15.827  80.271  1.00  0.00    -0.000 C 
BRANCH  13  14
ATOM     14  C   UNL     1      66.459  16.527  79.528  1.00  0.00    -0.000 C 
BRANCH  14  15
ATOM     15  C   UNL     1      65.577  15.545  78.736  1.00  0.00    -0.000 C 
BRANCH  15  16
ATOM     16  C   UNL     1      64.558  16.207  77.785  1.00  0.00    -0.000 C 
BRANCH  16  17
ATOM     17  C   UNL     1      64.389  15.512  76.423  1.00  0.00    -0.000 C 
BRANCH  17  18
ATOM     18  C   UNL     1      64.376  13.981  76.532  1.00  0.00    -0.003 C 
ATOM     19  C   UNL     1      63.068  13.483  77.142  1.00  0.00     0.004 C 
ENDBRANCH  17  18
ENDBRANCH  16  17
ENDBRANCH  15  16
ENDBRANCH  14  15
ENDBRANCH  13  14
ENDBRANCH  12  13
ENDBRANCH   1  12
TORSDOF 14
ENDMDL
MODEL 7
REMARK VINA RESULT:    -2.998      2.750      5.340
REMARK INTER + INTRA:          -8.049
REMARK INTER:                  -5.446
REMARK INTRA:                  -2.603
REMARK UNBOUND:                -2.597
REMARK SMILES CCCCCCCCCCCCCC[C@H](C)C(=O)[O-]
REMARK SMILES IDX 9 1 10 2 11 3 12 4 13 5 14 6 15 7 16 8 17 9 18 10 19 11 8 12
REMARK SMILES IDX 7 13 6 14 5 15 4 16 3 17 2 18 1 19
REMARK H PARENT
REMARK Flexibility Score: inf
ROOT
ATOM      1  C   UNL     1      70.709  16.210  80.415  1.00  0.00     0.000 C 
ENDROOT
BRANCH   1   2
ATOM      2  C   UNL     1      69.263  15.700  80.429  1.00  0.00     0.000 C 
BRANCH   2   3
ATOM      3  C   UNL     1      68.304  16.778  80.951  1.00  0.00     0.000 C 
BRANCH   3   4
ATOM      4  C   UNL     1      66.885  16.214  81.124  1.00  0.00     0.000 C 
BRANCH   4   5
ATOM      5  C   UNL     1      66.232  15.835  79.785  1.00  0.00     0.001 C 
BRANCH   5   6
ATOM      6  C   UNL     1      64.982  16.685  79.475  1.00  0.00     0.009 C 
BRANCH   6   7
ATOM      7  C   UNL     1      64.147  16.170  78.282  1.00  0.00     0.032 C 
ATOM      8  C   UNL     1      64.506  14.731  77.884  1.00  0.00     0.014 C 
BRANCH   7   9
ATOM      9  C   UNL     1      64.210  17.114  77.109  1.00  0.00     0.044 C 
ATOM     10  O   UNL     1      64.720  18.260  77.226  1.00  0.00    -0.550 OA
ATOM     11  O   UNL     1      63.656  16.735  75.893  1.00  0.00    -0.550 OA
ENDBRANCH   7   9
ENDBRANCH   6   7
ENDBRANCH   5   6
ENDBRANCH   4   5
ENDBRANCH   3   4
ENDBRANCH   2   3
ENDBRANCH   1   2
BRANCH   1  12
ATOM     12  C   UNL     1      71.374  15.941  79.056  1.00  0.00     0.000 C 
BRANCH  12  13
ATOM     13  C   UNL     1      70.767  14.728  78.334  1.00  0.00    -0.000 C 
BRANCH  13  14
ATOM     14  C   UNL     1      70.658  14.940  76.814  1.00  0.00    -0.000 C 
BRANCH  14  15
ATOM     15  C   UNL     1      69.302  14.486  76.245  1.00  0.00    -0.000 C 
BRANCH  15  16
ATOM     16  C   UNL     1      68.070  15.167  76.877  1.00  0.00    -0.000 C 
BRANCH  16  17
ATOM     17  C   UNL     1      67.781  16.591  76.372  1.00  0.00    -0.000 C 
BRANCH  17  18
ATOM     18  C   UNL     1      68.288  17.678  77.330  1.00  0.00    -0.003 C 
ATOM     19  C   UNL     1      69.467  18.437  76.728  1.00  0.00     0.004 C 
ENDBRANCH  17  18
ENDBRANCH  16  17
ENDBRANCH  15  16
ENDBRANCH  14  15
ENDBRANCH  13  14
ENDBRANCH  12  13
ENDBRANCH   1  12
TORSDOF 14
ENDMDL
MODEL 8
REMARK VINA RESULT:    -2.998      3.262      5.281
REMARK INTER + INTRA:          -8.048
REMARK INTER:                  -5.532
REMARK INTRA:                  -2.516
REMARK UNBOUND:                -2.597
REMARK SMILES CCCCCCCCCCCCCC[C@H](C)C(=O)[O-]
REMARK SMILES IDX 9 1 10 2 11 3 12 4 13 5 14 6 15 7 16 8 17 9 18 10 19 11 8 12
REMARK SMILES IDX 7 13 6 14 5 15 4 16 3 17 2 18 1 19
REMARK H PARENT
REMARK Flexibility Score: inf
ROOT
ATOM      1  C   UNL     1      69.150  14.716  76.955  1.00  0.00     0.000 C 
ENDROOT
BRANCH   1   2
ATOM      2  C   UNL     1      70.639  15.071  77.043  1.00  0.00     0.000 C 
BRANCH   2   3
ATOM      3  C   UNL     1      71.173  14.856  78.465  1.00  0.00     0.000 C 
BRANCH   3   4
ATOM      4  C   UNL     1      71.426  16.199  79.167  1.00  0.00     0.000 C 
BRANCH   4   5
ATOM      5  C   UNL     1      70.622  16.347  80.469  1.00  0.00     0.001 C 
BRANCH   5   6
ATOM      6  C   UNL     1      69.310  15.537  80.449  1.00  0.00     0.009 C 
BRANCH   6   7
ATOM      7  C   UNL     1      68.031  16.404  80.418  1.00  0.00     0.032 C 
ATOM      8  C   UNL     1      68.322  17.877  80.097  1.00  0.00     0.014 C 
BRANCH   7   9
ATOM      9  C   UNL     1      67.223  16.249  81.681  1.00  0.00     0.044 C 
ATOM     10  O   UNL     1      65.975  16.083  81.636  1.00  0.00    -0.550 OA
ATOM     11  O   UNL     1      67.854  16.340  82.915  1.00  0.00    -0.550 OA
ENDBRANCH   7   9
ENDBRANCH   6   7
ENDBRANCH   5   6
ENDBRANCH   4   5
ENDBRANCH   3   4
ENDBRANCH   2   3
ENDBRANCH   1   2
BRANCH   1  12
ATOM     12  C   UNL     1      68.382  15.763  76.135  1.00  0.00     0.000 C 
BRANCH  12  13
ATOM     13  C   UNL     1      68.608  17.194  76.647  1.00  0.00    -0.000 C 
BRANCH  13  14
ATOM     14  C   UNL     1      67.343  18.063  76.548  1.00  0.00    -0.000 C 
BRANCH  14  15
ATOM     15  C   UNL     1      66.056  17.228  76.422  1.00  0.00    -0.000 C 
BRANCH  15  16
ATOM     16  C   UNL     1      65.388  16.856  77.762  1.00  0.00    -0.000 C 
BRANCH  16  17
ATOM     17  C   UNL     1      65.276  15.347  78.039  1.00  0.00    -0.000 C 
BRANCH  17  18
ATOM     18  C   UNL     1      64.444  14.606  76.983  1.00  0.00    -0.003 C 
ATOM     19  C   UNL     1      65.292  13.585  76.230  1.00  0.00     0.004 C 
ENDBRANCH  17  18
ENDBRANCH  16  17
ENDBRANCH  15  16
ENDBRANCH  14  15
ENDBRANCH  13  14
ENDBRANCH  12  13
ENDBRANCH   1  12
TORSDOF 14
ENDMDL
MODEL 9
REMARK VINA RESULT:    -2.335      1.622      2.399
REMARK INTER + INTRA:          -6.843
REMARK INTER:                  -4.742
REMARK INTRA:                  -2.101
REMARK UNBOUND:                -2.597
REMARK SMILES CCCCCCCCCCCCCC[C@H](C)C(=O)[O-]
REMARK SMILES IDX 9 1 10 2 11 3 12 4 13 5 14 6 15 7 16 8 17 9 18 10 19 11 8 12
REMARK SMILES IDX 7 13 6 14 5 15 4 16 3 17 2 18 1 19
REMARK H PARENT
REMARK Flexibility Score: inf
ROOT
ATOM      1  C   UNL     1      68.859  14.781  77.112  1.00  0.00     0.000 C 
ENDROOT
BRANCH   1   2
ATOM      2  C   UNL     1      68.044  14.384  75.875  1.00  0.00     0.000 C 
BRANCH   2   3
ATOM      3  C   UNL     1      66.548  14.637  76.097  1.00  0.00     0.000 C 
BRANCH   3   4
ATOM      4  C   UNL     1      66.316  15.501  77.347  1.00  0.00     0.000 C 
BRANCH   4   5
ATOM      5  C   UNL     1      65.625  16.836  77.024  1.00  0.00     0.001 C 
BRANCH   5   6
ATOM      6  C   UNL     1      66.561  17.826  76.300  1.00  0.00     0.009 C 
BRANCH   6   7
ATOM      7  C   UNL     1      67.824  18.207  77.104  1.00  0.00     0.032 C 
ATOM      8  C   UNL     1      67.504  18.624  78.547  1.00  0.00     0.014 C 
BRANCH   7   9
ATOM      9  C   UNL     1      68.650  19.243  76.386  1.00  0.00     0.044 C 
ATOM     10  O   UNL     1      68.210  20.409  76.202  1.00  0.00    -0.550 OA
ATOM     11  O   UNL     1      69.894  18.895  75.876  1.00  0.00    -0.550 OA
ENDBRANCH   7   9
ENDBRANCH   6   7
ENDBRANCH   5   6
ENDBRANCH   4   5
ENDBRANCH   3   4
ENDBRANCH   2   3
ENDBRANCH   1   2
BRANCH   1  12
ATOM     12  C   UNL     1      70.279  15.215  76.719  1.00  0.00     0.000 C 
BRANCH  12  13
ATOM     13  C   UNL     1      71.340  14.741  77.725  1.00  0.00    -0.000 C 
BRANCH  13  14
ATOM     14  C   UNL     1      71.650  15.799  78.798  1.00  0.00    -0.000 C 
BRANCH  14  15
ATOM     15  C   UNL     1      70.906  15.540  80.121  1.00  0.00    -0.000 C 
BRANCH  15  16
ATOM     16  C   UNL     1      69.599  16.341  80.300  1.00  0.00    -0.000 C 
BRANCH  16  17
ATOM     17  C   UNL     1      68.371  15.505  80.698  1.00  0.00    -0.000 C 
BRANCH  17  18
ATOM     18  C   UNL     1      67.494  16.196  81.752  1.00  0.00    -0.003 C 
ATOM     19  C   UNL     1      66.060  16.358  81.255  1.00  0.00     0.004 C 
ENDBRANCH  17  18
ENDBRANCH  16  17
ENDBRANCH  15  16
ENDBRANCH  14  15
ENDBRANCH  13  14
ENDBRANCH  12  13
ENDBRANCH   1  12
TORSDOF 14
ENDMDL
