MODEL 1
REMARK VINA RESULT:    -3.358      0.000      0.000
REMARK INTER + INTRA:          -4.773
REMARK INTER:                  -4.535
REMARK INTRA:                  -0.237
REMARK UNBOUND:                -0.237
REMARK SMILES CCCCCCCC(=O)[O-]
REMARK SMILES IDX 5 1 6 2 7 3 8 4 9 5 10 6 4 7 3 8 2 9 1 10
REMARK H PARENT
REMARK Flexibility Score: inf
ROOT
ATOM      1  C   UNL     1      43.471  31.239  88.531  1.00  0.00     0.000 C 
ENDROOT
BRANCH   1   2
ATOM      2  C   UNL     1      43.866  30.509  89.829  1.00  0.00     0.006 C 
BRANCH   2   3
ATOM      3  C   UNL     1      44.884  31.275  90.688  1.00  0.00     0.053 C 
BRANCH   3   4
ATOM      4  C   UNL     1      44.493  31.291  92.135  1.00  0.00     0.041 C 
ATOM      5  O   UNL     1      44.258  30.211  92.738  1.00  0.00    -0.550 OA
ATOM      6  O   UNL     1      44.406  32.495  92.823  1.00  0.00    -0.550 OA
ENDBRANCH   3   4
ENDBRANCH   2   3
ENDBRANCH   1   2
BRANCH   1   7
ATOM      7  C   UNL     1      42.370  30.510  87.728  1.00  0.00     0.000 C 
BRANCH   7   8
ATOM      8  C   UNL     1      41.058  31.312  87.682  1.00  0.00    -0.000 C 
BRANCH   8   9
ATOM      9  C   UNL     1      39.888  30.571  88.348  1.00  0.00    -0.003 C 
ATOM     10  C   UNL     1      40.339  29.643  89.475  1.00  0.00     0.004 C 
ENDBRANCH   8   9
ENDBRANCH   7   8
ENDBRANCH   1   7
TORSDOF 6
ENDMDL
MODEL 2
REMARK VINA RESULT:    -3.281      1.272      1.581
REMARK INTER + INTRA:          -4.669
REMARK INTER:                  -4.372
REMARK INTRA:                  -0.297
REMARK UNBOUND:                -0.237
REMARK SMILES CCCCCCCC(=O)[O-]
REMARK SMILES IDX 5 1 6 2 7 3 8 4 9 5 10 6 4 7 3 8 2 9 1 10
REMARK H PARENT
REMARK Flexibility Score: inf
ROOT
ATOM      1  C   UNL     1      42.797  30.516  87.899  1.00  0.00     0.000 C 
ENDROOT
BRANCH   1   2
ATOM      2  C   UNL     1      43.734  31.243  88.884  1.00  0.00     0.006 C 
BRANCH   2   3
ATOM      3  C   UNL     1      43.840  30.565  90.258  1.00  0.00     0.053 C 
BRANCH   3   4
ATOM      4  C   UNL     1      44.808  31.273  91.156  1.00  0.00     0.041 C 
ATOM      5  O   UNL     1      44.487  31.547  92.342  1.00  0.00    -0.550 OA
ATOM      6  O   UNL     1      46.072  31.614  90.691  1.00  0.00    -0.550 OA
ENDBRANCH   3   4
ENDBRANCH   2   3
ENDBRANCH   1   2
BRANCH   1   7
ATOM      7  C   UNL     1      41.572  31.358  87.482  1.00  0.00     0.000 C 
BRANCH   7   8
ATOM      8  C   UNL     1      40.288  30.915  88.206  1.00  0.00    -0.000 C 
BRANCH   8   9
ATOM      9  C   UNL     1      40.239  29.399  88.448  1.00  0.00    -0.003 C 
ATOM     10  C   UNL     1      39.012  28.738  87.821  1.00  0.00     0.004 C 
ENDBRANCH   8   9
ENDBRANCH   7   8
ENDBRANCH   1   7
TORSDOF 6
ENDMDL
MODEL 3
REMARK VINA RESULT:    -3.242      1.584      1.762
REMARK INTER + INTRA:          -4.616
REMARK INTER:                  -4.222
REMARK INTRA:                  -0.394
REMARK UNBOUND:                -0.237
REMARK SMILES CCCCCCCC(=O)[O-]
REMARK SMILES IDX 5 1 6 2 7 3 8 4 9 5 10 6 4 7 3 8 2 9 1 10
REMARK H PARENT
REMARK Flexibility Score: inf
ROOT
ATOM      1  C   UNL     1      44.154  31.441  89.115  1.00  0.00     0.000 C 
ENDROOT
BRANCH   1   2
ATOM      2  C   UNL     1      44.549  31.234  90.591  1.00  0.00     0.006 C 
BRANCH   2   3
ATOM      3  C   UNL     1      43.729  30.151  91.308  1.00  0.00     0.053 C 
BRANCH   3   4
ATOM      4  C   UNL     1      44.605  29.201  92.067  1.00  0.00     0.041 C 
ATOM      5  O   UNL     1      44.123  28.503  92.998  1.00  0.00    -0.550 OA
ATOM      6  O   UNL     1      45.948  29.071  91.736  1.00  0.00    -0.550 OA
ENDBRANCH   3   4
ENDBRANCH   2   3
ENDBRANCH   1   2
BRANCH   1   7
ATOM      7  C   UNL     1      43.032  30.492  88.641  1.00  0.00     0.000 C 
BRANCH   7   8
ATOM      8  C   UNL     1      42.006  31.208  87.746  1.00  0.00    -0.000 C 
BRANCH   8   9
ATOM      9  C   UNL     1      40.555  30.847  88.102  1.00  0.00    -0.003 C 
ATOM     10  C   UNL     1      40.440  30.098  89.429  1.00  0.00     0.004 C 
ENDBRANCH   8   9
ENDBRANCH   7   8
ENDBRANCH   1   7
TORSDOF 6
ENDMDL
MODEL 4
REMARK VINA RESULT:    -3.237      1.834      2.195
REMARK INTER + INTRA:          -4.609
REMARK INTER:                  -4.187
REMARK INTRA:                  -0.422
REMARK UNBOUND:                -0.237
REMARK SMILES CCCCCCCC(=O)[O-]
REMARK SMILES IDX 5 1 6 2 7 3 8 4 9 5 10 6 4 7 3 8 2 9 1 10
REMARK H PARENT
REMARK Flexibility Score: inf
ROOT
ATOM      1  C   UNL     1      43.781  30.168  88.001  1.00  0.00     0.000 C 
ENDROOT
BRANCH   1   2
ATOM      2  C   UNL     1      43.849  31.434  88.876  1.00  0.00     0.006 C 
BRANCH   2   3
ATOM      3  C   UNL     1      44.586  31.231  90.209  1.00  0.00     0.053 C 
BRANCH   3   4
ATOM      4  C   UNL     1      46.071  31.167  90.021  1.00  0.00     0.041 C 
ATOM      5  O   UNL     1      46.652  32.002  89.278  1.00  0.00    -0.550 OA
ATOM      6  O   UNL     1      46.818  30.198  90.679  1.00  0.00    -0.550 OA
ENDBRANCH   3   4
ENDBRANCH   2   3
ENDBRANCH   1   2
BRANCH   1   7
ATOM      7  C   UNL     1      42.381  29.909  87.402  1.00  0.00     0.000 C 
BRANCH   7   8
ATOM      8  C   UNL     1      41.468  31.143  87.507  1.00  0.00    -0.000 C 
BRANCH   8   9
ATOM      9  C   UNL     1      40.185  30.865  88.306  1.00  0.00    -0.003 C 
ATOM     10  C   UNL     1      40.425  29.961  89.514  1.00  0.00     0.004 C 
ENDBRANCH   8   9
ENDBRANCH   7   8
ENDBRANCH   1   7
TORSDOF 6
ENDMDL
MODEL 5
REMARK VINA RESULT:    -3.144      2.236      2.763
REMARK INTER + INTRA:          -4.484
REMARK INTER:                  -4.040
REMARK INTRA:                  -0.445
REMARK UNBOUND:                -0.237
REMARK SMILES CCCCCCCC(=O)[O-]
REMARK SMILES IDX 5 1 6 2 7 3 8 4 9 5 10 6 4 7 3 8 2 9 1 10
REMARK H PARENT
REMARK Flexibility Score: inf
ROOT
ATOM      1  C   UNL     1      42.579  29.539  90.859  1.00  0.00     0.000 C 
ENDROOT
BRANCH   1   2
ATOM      2  C   UNL     1      43.953  30.227  90.977  1.00  0.00     0.006 C 
BRANCH   2   3
ATOM      3  C   UNL     1      44.152  31.393  89.998  1.00  0.00     0.053 C 
BRANCH   3   4
ATOM      4  C   UNL     1      45.443  31.277  89.247  1.00  0.00     0.041 C 
ATOM      5  O   UNL     1      45.457  30.797  88.083  1.00  0.00    -0.550 OA
ATOM      6  O   UNL     1      46.629  31.716  89.822  1.00  0.00    -0.550 OA
ENDBRANCH   3   4
ENDBRANCH   2   3
ENDBRANCH   1   2
BRANCH   1   7
ATOM      7  C   UNL     1      42.032  29.504  89.415  1.00  0.00     0.000 C 
BRANCH   7   8
ATOM      8  C   UNL     1      40.555  29.930  89.343  1.00  0.00    -0.000 C 
BRANCH   8   9
ATOM      9  C   UNL     1      40.287  30.955  88.231  1.00  0.00    -0.003 C 
ATOM     10  C   UNL     1      41.532  31.268  87.402  1.00  0.00     0.004 C 
ENDBRANCH   8   9
ENDBRANCH   7   8
ENDBRANCH   1   7
TORSDOF 6
ENDMDL
MODEL 6
REMARK VINA RESULT:    -3.132      3.044      4.791
REMARK INTER + INTRA:          -4.468
REMARK INTER:                  -4.055
REMARK INTRA:                  -0.413
REMARK UNBOUND:                -0.237
REMARK SMILES CCCCCCCC(=O)[O-]
REMARK SMILES IDX 5 1 6 2 7 3 8 4 9 5 10 6 4 7 3 8 2 9 1 10
REMARK H PARENT
REMARK Flexibility Score: inf
ROOT
ATOM      1  C   UNL     1      45.110  30.664  89.116  1.00  0.00     0.000 C 
ENDROOT
BRANCH   1   2
ATOM      2  C   UNL     1      43.763  31.387  88.920  1.00  0.00     0.006 C 
BRANCH   2   3
ATOM      3  C   UNL     1      42.562  30.439  88.788  1.00  0.00     0.053 C 
BRANCH   3   4
ATOM      4  C   UNL     1      41.481  31.025  87.931  1.00  0.00     0.041 C 
ATOM      5  O   UNL     1      41.776  31.788  86.974  1.00  0.00    -0.550 OA
ATOM      6  O   UNL     1      40.149  30.714  88.175  1.00  0.00    -0.550 OA
ENDBRANCH   3   4
ENDBRANCH   2   3
ENDBRANCH   1   2
BRANCH   1   7
ATOM      7  C   UNL     1      45.727  30.885  90.515  1.00  0.00     0.000 C 
BRANCH   7   8
ATOM      8  C   UNL     1      44.744  31.564  91.483  1.00  0.00    -0.000 C 
BRANCH   8   9
ATOM      9  C   UNL     1      44.331  30.649  92.647  1.00  0.00    -0.003 C 
ATOM     10  C   UNL     1      43.556  29.416  92.184  1.00  0.00     0.004 C 
ENDBRANCH   8   9
ENDBRANCH   7   8
ENDBRANCH   1   7
TORSDOF 6
ENDMDL
MODEL 7
REMARK VINA RESULT:    -3.089      0.944      1.883
REMARK INTER + INTRA:          -4.409
REMARK INTER:                  -4.094
REMARK INTRA:                  -0.316
REMARK UNBOUND:                -0.237
REMARK SMILES CCCCCCCC(=O)[O-]
REMARK SMILES IDX 5 1 6 2 7 3 8 4 9 5 10 6 4 7 3 8 2 9 1 10
REMARK H PARENT
REMARK Flexibility Score: inf
ROOT
ATOM      1  C   UNL     1      43.626  29.819  89.393  1.00  0.00     0.000 C 
ENDROOT
BRANCH   1   2
ATOM      2  C   UNL     1      44.169  31.209  89.777  1.00  0.00     0.006 C 
BRANCH   2   3
ATOM      3  C   UNL     1      45.206  31.181  90.909  1.00  0.00     0.053 C 
BRANCH   3   4
ATOM      4  C   UNL     1      44.565  30.978  92.248  1.00  0.00     0.041 C 
ATOM      5  O   UNL     1      44.180  31.969  92.922  1.00  0.00    -0.550 OA
ATOM      6  O   UNL     1      44.375  29.695  92.746  1.00  0.00    -0.550 OA
ENDBRANCH   3   4
ENDBRANCH   2   3
ENDBRANCH   1   2
BRANCH   1   7
ATOM      7  C   UNL     1      42.136  29.620  89.751  1.00  0.00     0.000 C 
BRANCH   7   8
ATOM      8  C   UNL     1      41.242  29.557  88.501  1.00  0.00    -0.000 C 
BRANCH   8   9
ATOM      9  C   UNL     1      40.687  30.932  88.099  1.00  0.00    -0.003 C 
ATOM     10  C   UNL     1      41.585  31.665  87.103  1.00  0.00     0.004 C 
ENDBRANCH   8   9
ENDBRANCH   7   8
ENDBRANCH   1   7
TORSDOF 6
ENDMDL
MODEL 8
REMARK VINA RESULT:    -3.074     14.381     15.417
REMARK INTER + INTRA:          -4.390
REMARK INTER:                  -3.904
REMARK INTRA:                  -0.486
REMARK UNBOUND:                -0.237
REMARK SMILES CCCCCCCC(=O)[O-]
REMARK SMILES IDX 5 1 6 2 7 3 8 4 9 5 10 6 4 7 3 8 2 9 1 10
REMARK H PARENT
REMARK Flexibility Score: inf
ROOT
ATOM      1  C   UNL     1      39.730  21.839  78.661  1.00  0.00     0.000 C 
ENDROOT
BRANCH   1   2
ATOM      2  C   UNL     1      40.737  20.893  77.979  1.00  0.00     0.006 C 
BRANCH   2   3
ATOM      3  C   UNL     1      41.616  20.105  78.963  1.00  0.00     0.053 C 
BRANCH   3   4
ATOM      4  C   UNL     1      43.034  20.586  78.953  1.00  0.00     0.041 C 
ATOM      5  O   UNL     1      43.373  21.574  79.657  1.00  0.00    -0.550 OA
ATOM      6  O   UNL     1      43.988  19.934  78.181  1.00  0.00    -0.550 OA
ENDBRANCH   3   4
ENDBRANCH   2   3
ENDBRANCH   1   2
BRANCH   1   7
ATOM      7  C   UNL     1      39.277  21.353  80.056  1.00  0.00     0.000 C 
BRANCH   7   8
ATOM      8  C   UNL     1      37.870  20.730  80.024  1.00  0.00    -0.000 C 
BRANCH   8   9
ATOM      9  C   UNL     1      37.822  19.342  80.683  1.00  0.00    -0.003 C 
ATOM     10  C   UNL     1      38.221  18.219  79.727  1.00  0.00     0.004 C 
ENDBRANCH   8   9
ENDBRANCH   7   8
ENDBRANCH   1   7
TORSDOF 6
ENDMDL
MODEL 9
REMARK VINA RESULT:    -3.037      2.837      5.012
REMARK INTER + INTRA:          -4.340
REMARK INTER:                  -4.004
REMARK INTRA:                  -0.336
REMARK UNBOUND:                -0.237
REMARK SMILES CCCCCCCC(=O)[O-]
REMARK SMILES IDX 5 1 6 2 7 3 8 4 9 5 10 6 4 7 3 8 2 9 1 10
REMARK H PARENT
REMARK Flexibility Score: inf
ROOT
ATOM      1  C   UNL     1      43.466  30.108  88.066  1.00  0.00     0.000 C 
ENDROOT
BRANCH   1   2
ATOM      2  C   UNL     1      42.286  30.410  87.122  1.00  0.00     0.006 C 
BRANCH   2   3
ATOM      3  C   UNL     1      41.140  31.187  87.787  1.00  0.00     0.053 C 
BRANCH   3   4
ATOM      4  C   UNL     1      40.232  30.283  88.564  1.00  0.00     0.041 C 
ATOM      5  O   UNL     1      40.425  30.098  89.794  1.00  0.00    -0.550 OA
ATOM      6  O   UNL     1      39.160  29.660  87.936  1.00  0.00    -0.550 OA
ENDBRANCH   3   4
ENDBRANCH   2   3
ENDBRANCH   1   2
BRANCH   1   7
ATOM      7  C   UNL     1      43.837  31.294  88.984  1.00  0.00     0.000 C 
BRANCH   7   8
ATOM      8  C   UNL     1      44.181  30.837  90.412  1.00  0.00    -0.000 C 
BRANCH   8   9
ATOM      9  C   UNL     1      45.695  30.754  90.659  1.00  0.00    -0.003 C 
ATOM     10  C   UNL     1      46.504  31.585  89.664  1.00  0.00     0.004 C 
ENDBRANCH   8   9
ENDBRANCH   7   8
ENDBRANCH   1   7
TORSDOF 6
ENDMDL
