MODEL 1
REMARK VINA RESULT:    -4.131      0.000      0.000
REMARK INTER + INTRA:          -4.493
REMARK INTER:                  -4.493
REMARK INTRA:                   0.000
REMARK UNBOUND:                 0.000
REMARK SMILES Oc1cccc(O)c1O
REMARK SMILES IDX 4 1 5 2 6 3 8 4 2 5 3 6 7 7 1 9 9 11
REMARK H PARENT 7 8 1 10 9 12
REMARK Flexibility Score: inf
ROOT
ATOM      1  C   UNL     1      31.070  27.023  12.284  1.00  0.00     0.008 A 
ATOM      2  C   UNL     1      29.889  26.289  12.168  1.00  0.00     0.050 A 
ATOM      3  C   UNL     1      28.731  26.889  11.660  1.00  0.00     0.161 A 
ATOM      4  C   UNL     1      28.758  28.239  11.263  1.00  0.00     0.200 A 
ATOM      5  C   UNL     1      29.950  28.976  11.380  1.00  0.00     0.161 A 
ATOM      6  C   UNL     1      31.103  28.363  11.892  1.00  0.00     0.050 A 
ENDROOT
BRANCH   3   7
ATOM      7  O   UNL     1      27.565  26.130  11.557  1.00  0.00    -0.504 OA
ATOM      8  H   UNL     1      27.444  25.425  10.840  1.00  0.00     0.293 HD
ENDBRANCH   3   7
BRANCH   5   9
ATOM      9  O   UNL     1      29.986  30.315  10.990  1.00  0.00    -0.504 OA
ATOM     10  H   UNL     1      29.259  30.967  11.261  1.00  0.00     0.293 HD
ENDBRANCH   5   9
BRANCH   4  11
ATOM     11  O   UNL     1      27.601  28.832  10.757  1.00  0.00    -0.502 OA
ATOM     12  H   UNL     1      27.627  29.514  10.009  1.00  0.00     0.293 HD
ENDBRANCH   4  11
TORSDOF 3
ENDMDL
MODEL 2
REMARK VINA RESULT:    -4.122      0.062      2.808
REMARK INTER + INTRA:          -4.483
REMARK INTER:                  -4.483
REMARK INTRA:                   0.000
REMARK UNBOUND:                 0.000
REMARK SMILES Oc1cccc(O)c1O
REMARK SMILES IDX 4 1 5 2 6 3 8 4 2 5 3 6 7 7 1 9 9 11
REMARK H PARENT 7 8 1 10 9 12
REMARK Flexibility Score: inf
ROOT
ATOM      1  C   UNL     1      31.087  26.971  12.236  1.00  0.00     0.008 A 
ATOM      2  C   UNL     1      31.113  28.314  11.858  1.00  0.00     0.050 A 
ATOM      3  C   UNL     1      29.959  28.929  11.358  1.00  0.00     0.161 A 
ATOM      4  C   UNL     1      28.767  28.191  11.236  1.00  0.00     0.200 A 
ATOM      5  C   UNL     1      28.744  26.837  11.618  1.00  0.00     0.161 A 
ATOM      6  C   UNL     1      29.908  26.232  12.117  1.00  0.00     0.050 A 
ENDROOT
BRANCH   3   7
ATOM      7  O   UNL     1      30.016  30.273  10.988  1.00  0.00    -0.504 OA
ATOM      8  H   UNL     1      30.364  30.569  10.085  1.00  0.00     0.293 HD
ENDBRANCH   3   7
BRANCH   5   9
ATOM      9  O   UNL     1      27.568  26.096  11.500  1.00  0.00    -0.504 OA
ATOM     10  H   UNL     1      26.950  25.953  12.289  1.00  0.00     0.293 HD
ENDBRANCH   5   9
BRANCH   4  11
ATOM     11  O   UNL     1      27.621  28.809  10.737  1.00  0.00    -0.502 OA
ATOM     12  H   UNL     1      26.935  28.309  10.184  1.00  0.00     0.293 HD
ENDBRANCH   4  11
TORSDOF 3
ENDMDL
MODEL 3
REMARK VINA RESULT:    -4.031      2.913      4.343
REMARK INTER + INTRA:          -4.384
REMARK INTER:                  -4.384
REMARK INTRA:                   0.000
REMARK UNBOUND:                 0.000
REMARK SMILES Oc1cccc(O)c1O
REMARK SMILES IDX 4 1 5 2 6 3 8 4 2 5 3 6 7 7 1 9 9 11
REMARK H PARENT 7 8 1 10 9 12
REMARK Flexibility Score: inf
ROOT
ATOM      1  C   UNL     1      30.451  23.209  12.564  1.00  0.00     0.008 A 
ATOM      2  C   UNL     1      30.698  24.223  11.637  1.00  0.00     0.050 A 
ATOM      3  C   UNL     1      29.697  25.148  11.318  1.00  0.00     0.161 A 
ATOM      4  C   UNL     1      28.436  25.057  11.935  1.00  0.00     0.200 A 
ATOM      5  C   UNL     1      28.190  24.035  12.871  1.00  0.00     0.161 A 
ATOM      6  C   UNL     1      29.201  23.114  13.181  1.00  0.00     0.050 A 
ENDROOT
BRANCH   3   7
ATOM      7  O   UNL     1      29.974  26.149  10.387  1.00  0.00    -0.504 OA
ATOM      8  H   UNL     1      29.940  25.980   9.389  1.00  0.00     0.293 HD
ENDBRANCH   3   7
BRANCH   5   9
ATOM      9  O   UNL     1      26.942  23.936  13.487  1.00  0.00    -0.504 OA
ATOM     10  H   UNL     1      26.716  23.168  14.109  1.00  0.00     0.293 HD
ENDBRANCH   5   9
BRANCH   4  11
ATOM     11  O   UNL     1      27.442  25.982  11.614  1.00  0.00    -0.502 OA
ATOM     12  H   UNL     1      27.644  26.964  11.474  1.00  0.00     0.293 HD
ENDBRANCH   4  11
TORSDOF 3
ENDMDL
MODEL 4
REMARK VINA RESULT:    -4.023      3.010      3.638
REMARK INTER + INTRA:          -4.376
REMARK INTER:                  -4.376
REMARK INTRA:                   0.000
REMARK UNBOUND:                 0.000
REMARK SMILES Oc1cccc(O)c1O
REMARK SMILES IDX 4 1 5 2 6 3 8 4 2 5 3 6 7 7 1 9 9 11
REMARK H PARENT 7 8 1 10 9 12
REMARK Flexibility Score: inf
ROOT
ATOM      1  C   UNL     1      30.495  23.317  12.741  1.00  0.00     0.008 A 
ATOM      2  C   UNL     1      29.258  23.181  13.373  1.00  0.00     0.050 A 
ATOM      3  C   UNL     1      28.182  23.995  13.000  1.00  0.00     0.161 A 
ATOM      4  C   UNL     1      28.346  24.953  11.983  1.00  0.00     0.200 A 
ATOM      5  C   UNL     1      29.594  25.087  11.347  1.00  0.00     0.161 A 
ATOM      6  C   UNL     1      30.664  24.266  11.730  1.00  0.00     0.050 A 
ENDROOT
BRANCH   3   7
ATOM      7  O   UNL     1      26.958  23.836  13.651  1.00  0.00    -0.504 OA
ATOM      8  H   UNL     1      26.245  23.203  13.310  1.00  0.00     0.293 HD
ENDBRANCH   3   7
BRANCH   5   9
ATOM      9  O   UNL     1      29.766  26.034  10.338  1.00  0.00    -0.504 OA
ATOM     10  H   UNL     1      29.331  26.948  10.388  1.00  0.00     0.293 HD
ENDBRANCH   5   9
BRANCH   4  11
ATOM     11  O   UNL     1      27.269  25.760  11.616  1.00  0.00    -0.502 OA
ATOM     12  H   UNL     1      26.390  25.374  11.294  1.00  0.00     0.293 HD
ENDBRANCH   4  11
TORSDOF 3
ENDMDL
MODEL 5
REMARK VINA RESULT:    -3.995      2.947      4.009
REMARK INTER + INTRA:          -4.345
REMARK INTER:                  -4.345
REMARK INTRA:                   0.000
REMARK UNBOUND:                 0.000
REMARK SMILES Oc1cccc(O)c1O
REMARK SMILES IDX 4 1 5 2 6 3 8 4 2 5 3 6 7 7 1 9 9 11
REMARK H PARENT 7 8 1 10 9 12
REMARK Flexibility Score: inf
ROOT
ATOM      1  C   UNL     1      28.901  23.274  13.367  1.00  0.00     0.008 A 
ATOM      2  C   UNL     1      27.924  24.213  13.032  1.00  0.00     0.050 A 
ATOM      3  C   UNL     1      28.167  25.156  12.026  1.00  0.00     0.161 A 
ATOM      4  C   UNL     1      29.401  25.158  11.350  1.00  0.00     0.200 A 
ATOM      5  C   UNL     1      30.384  24.210  11.690  1.00  0.00     0.161 A 
ATOM      6  C   UNL     1      30.127  23.271  12.700  1.00  0.00     0.050 A 
ENDROOT
BRANCH   3   7
ATOM      7  O   UNL     1      27.171  26.082  11.713  1.00  0.00    -0.504 OA
ATOM      8  H   UNL     1      26.565  25.970  10.910  1.00  0.00     0.293 HD
ENDBRANCH   3   7
BRANCH   5   9
ATOM      9  O   UNL     1      31.610  24.205  11.026  1.00  0.00    -0.504 OA
ATOM     10  H   UNL     1      32.191  23.376  10.991  1.00  0.00     0.293 HD
ENDBRANCH   5   9
BRANCH   4  11
ATOM     11  O   UNL     1      29.637  26.101  10.349  1.00  0.00    -0.502 OA
ATOM     12  H   UNL     1      29.639  27.096  10.534  1.00  0.00     0.293 HD
ENDBRANCH   4  11
TORSDOF 3
ENDMDL
MODEL 6
REMARK VINA RESULT:    -3.984      2.942      4.157
REMARK INTER + INTRA:          -4.333
REMARK INTER:                  -4.333
REMARK INTRA:                   0.000
REMARK UNBOUND:                 0.000
REMARK SMILES Oc1cccc(O)c1O
REMARK SMILES IDX 4 1 5 2 6 3 8 4 2 5 3 6 7 7 1 9 9 11
REMARK H PARENT 7 8 1 10 9 12
REMARK Flexibility Score: inf
ROOT
ATOM      1  C   UNL     1      28.961  23.243  13.361  1.00  0.00     0.008 A 
ATOM      2  C   UNL     1      30.194  23.300  12.710  1.00  0.00     0.050 A 
ATOM      3  C   UNL     1      30.425  24.259  11.716  1.00  0.00     0.161 A 
ATOM      4  C   UNL     1      29.409  25.171  11.373  1.00  0.00     0.200 A 
ATOM      5  C   UNL     1      28.168  25.111  12.031  1.00  0.00     0.161 A 
ATOM      6  C   UNL     1      27.950  24.145  13.025  1.00  0.00     0.050 A 
ENDROOT
BRANCH   3   7
ATOM      7  O   UNL     1      31.668  24.291  11.083  1.00  0.00    -0.504 OA
ATOM      8  H   UNL     1      31.769  24.126  10.089  1.00  0.00     0.293 HD
ENDBRANCH   3   7
BRANCH   5   9
ATOM      9  O   UNL     1      27.155  26.010  11.697  1.00  0.00    -0.504 OA
ATOM     10  H   UNL     1      26.336  25.718  11.176  1.00  0.00     0.293 HD
ENDBRANCH   5   9
BRANCH   4  11
ATOM     11  O   UNL     1      29.645  26.124  10.382  1.00  0.00    -0.502 OA
ATOM     12  H   UNL     1      29.814  27.099  10.600  1.00  0.00     0.293 HD
ENDBRANCH   4  11
TORSDOF 3
ENDMDL
MODEL 7
REMARK VINA RESULT:    -3.951      1.288      2.861
REMARK INTER + INTRA:          -4.298
REMARK INTER:                  -4.298
REMARK INTRA:                   0.000
REMARK UNBOUND:                 0.000
REMARK SMILES Oc1cccc(O)c1O
REMARK SMILES IDX 4 1 5 2 6 3 8 4 2 5 3 6 7 7 1 9 9 11
REMARK H PARENT 7 8 1 10 9 12
REMARK Flexibility Score: inf
ROOT
ATOM      1  C   UNL     1      30.678  28.269  12.267  1.00  0.00     0.008 A 
ATOM      2  C   UNL     1      29.416  28.810  12.019  1.00  0.00     0.050 A 
ATOM      3  C   UNL     1      28.324  27.970  11.769  1.00  0.00     0.161 A 
ATOM      4  C   UNL     1      28.499  26.574  11.768  1.00  0.00     0.200 A 
ATOM      5  C   UNL     1      29.773  26.031  12.018  1.00  0.00     0.161 A 
ATOM      6  C   UNL     1      30.858  26.884  12.267  1.00  0.00     0.050 A 
ENDROOT
BRANCH   3   7
ATOM      7  O   UNL     1      27.074  28.541  11.524  1.00  0.00    -0.504 OA
ATOM      8  H   UNL     1      26.611  28.457  10.628  1.00  0.00     0.293 HD
ENDBRANCH   3   7
BRANCH   5   9
ATOM      9  O   UNL     1      29.957  24.648  12.018  1.00  0.00    -0.504 OA
ATOM     10  H   UNL     1      30.357  24.166  12.815  1.00  0.00     0.293 HD
ENDBRANCH   5   9
BRANCH   4  11
ATOM     11  O   UNL     1      27.408  25.742  11.518  1.00  0.00    -0.502 OA
ATOM     12  H   UNL     1      26.485  25.936  11.889  1.00  0.00     0.293 HD
ENDBRANCH   4  11
TORSDOF 3
ENDMDL
MODEL 8
REMARK VINA RESULT:    -3.944      1.354      2.328
REMARK INTER + INTRA:          -4.290
REMARK INTER:                  -4.290
REMARK INTRA:                   0.000
REMARK UNBOUND:                 0.000
REMARK SMILES Oc1cccc(O)c1O
REMARK SMILES IDX 4 1 5 2 6 3 8 4 2 5 3 6 7 7 1 9 9 11
REMARK H PARENT 7 8 1 10 9 12
REMARK Flexibility Score: inf
ROOT
ATOM      1  C   UNL     1      30.740  28.191  12.349  1.00  0.00     0.008 A 
ATOM      2  C   UNL     1      30.954  26.812  12.307  1.00  0.00     0.050 A 
ATOM      3  C   UNL     1      29.889  25.940  12.051  1.00  0.00     0.161 A 
ATOM      4  C   UNL     1      28.597  26.454  11.834  1.00  0.00     0.200 A 
ATOM      5  C   UNL     1      28.385  27.844  11.877  1.00  0.00     0.161 A 
ATOM      6  C   UNL     1      29.460  28.708  12.134  1.00  0.00     0.050 A 
ENDROOT
BRANCH   3   7
ATOM      7  O   UNL     1      30.134  24.567  12.016  1.00  0.00    -0.504 OA
ATOM      8  H   UNL     1      30.855  24.164  11.430  1.00  0.00     0.293 HD
ENDBRANCH   3   7
BRANCH   5   9
ATOM      9  O   UNL     1      27.107  28.363  11.664  1.00  0.00    -0.504 OA
ATOM     10  H   UNL     1      26.538  28.066  10.880  1.00  0.00     0.293 HD
ENDBRANCH   5   9
BRANCH   4  11
ATOM     11  O   UNL     1      27.541  25.580  11.580  1.00  0.00    -0.502 OA
ATOM     12  H   UNL     1      27.681  24.584  11.460  1.00  0.00     0.293 HD
ENDBRANCH   4  11
TORSDOF 3
ENDMDL
MODEL 9
REMARK VINA RESULT:    -3.835      2.609      4.364
REMARK INTER + INTRA:          -4.171
REMARK INTER:                  -4.171
REMARK INTRA:                   0.000
REMARK UNBOUND:                 0.000
REMARK SMILES Oc1cccc(O)c1O
REMARK SMILES IDX 4 1 5 2 6 3 8 4 2 5 3 6 7 7 1 9 9 11
REMARK H PARENT 7 8 1 10 9 12
REMARK Flexibility Score: inf
ROOT
ATOM      1  C   UNL     1      30.717  25.149  11.148  1.00  0.00     0.008 A 
ATOM      2  C   UNL     1      29.584  25.964  11.108  1.00  0.00     0.050 A 
ATOM      3  C   UNL     1      28.437  25.614  11.830  1.00  0.00     0.161 A 
ATOM      4  C   UNL     1      28.424  24.436  12.599  1.00  0.00     0.200 A 
ATOM      5  C   UNL     1      29.567  23.617  12.638  1.00  0.00     0.161 A 
ATOM      6  C   UNL     1      30.710  23.979  11.910  1.00  0.00     0.050 A 
ENDROOT
BRANCH   3   7
ATOM      7  O   UNL     1      27.320  26.449  11.770  1.00  0.00    -0.504 OA
ATOM      8  H   UNL     1      27.025  27.010  12.559  1.00  0.00     0.293 HD
ENDBRANCH   3   7
BRANCH   5   9
ATOM      9  O   UNL     1      29.563  22.447  13.397  1.00  0.00    -0.504 OA
ATOM     10  H   UNL     1      28.701  22.040  13.742  1.00  0.00     0.293 HD
ENDBRANCH   5   9
BRANCH   4  11
ATOM     11  O   UNL     1      27.277  24.093  13.316  1.00  0.00    -0.502 OA
ATOM     12  H   UNL     1      26.368  24.481  13.097  1.00  0.00     0.293 HD
ENDBRANCH   4  11
TORSDOF 3
ENDMDL
