MODEL 1
REMARK VINA RESULT:    -4.178      0.000      0.000
REMARK INTER + INTRA:          -8.483
REMARK INTER:                  -7.352
REMARK INTRA:                  -1.130
REMARK UNBOUND:                -1.130
REMARK SMILES CCCCCCC=CCCCCCCCC(=O)[O-]
REMARK SMILES IDX 10 1 11 2 12 3 13 4 14 5 15 6 16 7 17 8 18 9 9 10 8 11 7 12
REMARK SMILES IDX 6 13 5 14 4 15 3 16 2 17 1 18
REMARK H PARENT
REMARK Flexibility Score: inf
ROOT
ATOM      1  C   UNL     1      43.022  28.441   2.177  1.00  0.00     0.004 C 
ENDROOT
BRANCH   1   2
ATOM      2  C   UNL     1      43.981  29.627   2.364  1.00  0.00     0.000 C 
BRANCH   2   3
ATOM      3  C   UNL     1      44.683  30.032   1.055  1.00  0.00     0.000 C 
BRANCH   3   4
ATOM      4  C   UNL     1      46.183  29.694   1.061  1.00  0.00     0.000 C 
BRANCH   4   5
ATOM      5  C   UNL     1      46.584  28.765  -0.095  1.00  0.00     0.006 C 
BRANCH   5   6
ATOM      6  C   UNL     1      46.088  29.315  -1.436  1.00  0.00     0.053 C 
BRANCH   6   7
ATOM      7  C   UNL     1      46.221  28.280  -2.508  1.00  0.00     0.041 C 
ATOM      8  O   UNL     1      46.722  28.583  -3.623  1.00  0.00    -0.550 OA
ATOM      9  O   UNL     1      45.837  26.968  -2.259  1.00  0.00    -0.550 OA
ENDBRANCH   6   7
ENDBRANCH   5   6
ENDBRANCH   4   5
ENDBRANCH   3   4
ENDBRANCH   2   3
ENDBRANCH   1   2
BRANCH   1  10
ATOM     10  C   UNL     1      43.731  27.085   2.297  1.00  0.00     0.027 C 
BRANCH  10  11
ATOM     11  C   UNL     1      44.842  27.141   3.311  1.00  0.00    -0.031 C 
ATOM     12  C   UNL     1      45.246  26.030   3.944  1.00  0.00    -0.031 C 
BRANCH  12  13
ATOM     13  C   UNL     1      46.353  26.060   4.962  1.00  0.00     0.027 C 
BRANCH  13  14
ATOM     14  C   UNL     1      46.556  27.457   5.575  1.00  0.00     0.004 C 
BRANCH  14  15
ATOM     15  C   UNL     1      46.771  27.456   7.102  1.00  0.00     0.000 C 
BRANCH  15  16
ATOM     16  C   UNL     1      45.919  26.434   7.881  1.00  0.00    -0.000 C 
BRANCH  16  17
ATOM     17  C   UNL     1      45.526  26.868   9.305  1.00  0.00    -0.003 C 
ATOM     18  C   UNL     1      45.101  28.333   9.383  1.00  0.00     0.004 C 
ENDBRANCH  16  17
ENDBRANCH  15  16
ENDBRANCH  14  15
ENDBRANCH  13  14
ENDBRANCH  12  13
ENDBRANCH  10  11
ENDBRANCH   1  10
TORSDOF 13
ENDMDL
MODEL 2
REMARK VINA RESULT:    -4.081      1.338      2.850
REMARK INTER + INTRA:          -8.313
REMARK INTER:                  -6.721
REMARK INTRA:                  -1.592
REMARK UNBOUND:                -1.130
REMARK SMILES CCCCCCC=CCCCCCCCC(=O)[O-]
REMARK SMILES IDX 10 1 11 2 12 3 13 4 14 5 15 6 16 7 17 8 18 9 9 10 8 11 7 12
REMARK SMILES IDX 6 13 5 14 4 15 3 16 2 17 1 18
REMARK H PARENT
REMARK Flexibility Score: inf
ROOT
ATOM      1  C   UNL     1      44.980  26.233   4.051  1.00  0.00     0.004 C 
ENDROOT
BRANCH   1   2
ATOM      2  C   UNL     1      44.703  26.681   2.607  1.00  0.00     0.000 C 
BRANCH   2   3
ATOM      3  C   UNL     1      43.430  27.537   2.488  1.00  0.00     0.000 C 
BRANCH   3   4
ATOM      4  C   UNL     1      43.733  28.994   2.101  1.00  0.00     0.000 C 
BRANCH   4   5
ATOM      5  C   UNL     1      45.224  29.231   1.816  1.00  0.00     0.006 C 
BRANCH   5   6
ATOM      6  C   UNL     1      45.441  29.670   0.365  1.00  0.00     0.053 C 
BRANCH   6   7
ATOM      7  C   UNL     1      46.271  28.663  -0.368  1.00  0.00     0.041 C 
ATOM      8  O   UNL     1      47.058  27.909   0.264  1.00  0.00    -0.550 OA
ATOM      9  O   UNL     1      46.140  28.524  -1.744  1.00  0.00    -0.550 OA
ENDBRANCH   6   7
ENDBRANCH   5   6
ENDBRANCH   4   5
ENDBRANCH   3   4
ENDBRANCH   2   3
ENDBRANCH   1   2
BRANCH   1  10
ATOM     10  C   UNL     1      46.464  26.341   4.428  1.00  0.00     0.027 C 
BRANCH  10  11
ATOM     11  C   UNL     1      46.692  27.444   5.425  1.00  0.00    -0.031 C 
ATOM     12  C   UNL     1      46.030  28.606   5.321  1.00  0.00    -0.031 C 
BRANCH  12  13
ATOM     13  C   UNL     1      46.240  29.725   6.305  1.00  0.00     0.027 C 
BRANCH  13  14
ATOM     14  C   UNL     1      46.504  29.215   7.733  1.00  0.00     0.004 C 
BRANCH  14  15
ATOM     15  C   UNL     1      45.229  28.972   8.566  1.00  0.00     0.000 C 
BRANCH  15  16
ATOM     16  C   UNL     1      45.301  27.776   9.536  1.00  0.00    -0.000 C 
BRANCH  16  17
ATOM     17  C   UNL     1      45.558  26.414   8.867  1.00  0.00    -0.003 C 
ATOM     18  C   UNL     1      46.804  25.712   9.408  1.00  0.00     0.004 C 
ENDBRANCH  16  17
ENDBRANCH  15  16
ENDBRANCH  14  15
ENDBRANCH  13  14
ENDBRANCH  12  13
ENDBRANCH  10  11
ENDBRANCH   1  10
TORSDOF 13
ENDMDL
MODEL 3
REMARK VINA RESULT:    -4.061      4.033      8.887
REMARK INTER + INTRA:          -8.278
REMARK INTER:                  -7.511
REMARK INTRA:                  -0.767
REMARK UNBOUND:                -1.130
REMARK SMILES CCCCCCC=CCCCCCCCC(=O)[O-]
REMARK SMILES IDX 10 1 11 2 12 3 13 4 14 5 15 6 16 7 17 8 18 9 9 10 8 11 7 12
REMARK SMILES IDX 6 13 5 14 4 15 3 16 2 17 1 18
REMARK H PARENT
REMARK Flexibility Score: inf
ROOT
ATOM      1  C   UNL     1      43.871  27.642   1.823  1.00  0.00     0.004 C 
ENDROOT
BRANCH   1   2
ATOM      2  C   UNL     1      44.293  26.757   3.006  1.00  0.00     0.000 C 
BRANCH   2   3
ATOM      3  C   UNL     1      45.593  27.241   3.672  1.00  0.00     0.000 C 
BRANCH   3   4
ATOM      4  C   UNL     1      45.975  26.400   4.900  1.00  0.00     0.000 C 
BRANCH   4   5
ATOM      5  C   UNL     1      46.544  27.252   6.046  1.00  0.00     0.006 C 
BRANCH   5   6
ATOM      6  C   UNL     1      46.667  26.427   7.331  1.00  0.00     0.053 C 
BRANCH   6   7
ATOM      7  C   UNL     1      45.752  26.964   8.387  1.00  0.00     0.041 C 
ATOM      8  O   UNL     1      45.397  28.172   8.364  1.00  0.00    -0.550 OA
ATOM      9  O   UNL     1      45.252  26.117   9.368  1.00  0.00    -0.550 OA
ENDBRANCH   6   7
ENDBRANCH   5   6
ENDBRANCH   4   5
ENDBRANCH   3   4
ENDBRANCH   2   3
ENDBRANCH   1   2
BRANCH   1  10
ATOM     10  C   UNL     1      44.435  29.067   1.921  1.00  0.00     0.027 C 
BRANCH  10  11
ATOM     11  C   UNL     1      45.240  29.416   0.699  1.00  0.00    -0.031 C 
ATOM     12  C   UNL     1      45.943  28.476   0.052  1.00  0.00    -0.031 C 
BRANCH  12  13
ATOM     13  C   UNL     1      46.756  28.800  -1.172  1.00  0.00     0.027 C 
BRANCH  13  14
ATOM     14  C   UNL     1      45.946  28.662  -2.474  1.00  0.00     0.004 C 
BRANCH  14  15
ATOM     15  C   UNL     1      45.860  27.222  -3.019  1.00  0.00     0.000 C 
BRANCH  15  16
ATOM     16  C   UNL     1      45.459  27.110  -4.504  1.00  0.00    -0.000 C 
BRANCH  16  17
ATOM     17  C   UNL     1      44.528  28.225  -5.011  1.00  0.00    -0.003 C 
ATOM     18  C   UNL     1      43.199  27.693  -5.546  1.00  0.00     0.004 C 
ENDBRANCH  16  17
ENDBRANCH  15  16
ENDBRANCH  14  15
ENDBRANCH  13  14
ENDBRANCH  12  13
ENDBRANCH  10  11
ENDBRANCH   1  10
TORSDOF 13
ENDMDL
MODEL 4
REMARK VINA RESULT:    -4.038      4.385      9.035
REMARK INTER + INTRA:          -8.237
REMARK INTER:                  -7.437
REMARK INTRA:                  -0.800
REMARK UNBOUND:                -1.130
REMARK SMILES CCCCCCC=CCCCCCCCC(=O)[O-]
REMARK SMILES IDX 10 1 11 2 12 3 13 4 14 5 15 6 16 7 17 8 18 9 9 10 8 11 7 12
REMARK SMILES IDX 6 13 5 14 4 15 3 16 2 17 1 18
REMARK H PARENT
REMARK Flexibility Score: inf
ROOT
ATOM      1  C   UNL     1      44.869  26.032   3.761  1.00  0.00     0.004 C 
ENDROOT
BRANCH   1   2
ATOM      2  C   UNL     1      46.403  25.975   3.828  1.00  0.00     0.000 C 
BRANCH   2   3
ATOM      3  C   UNL     1      46.954  26.459   5.181  1.00  0.00     0.000 C 
BRANCH   3   4
ATOM      4  C   UNL     1      46.327  27.788   5.632  1.00  0.00     0.000 C 
BRANCH   4   5
ATOM      5  C   UNL     1      46.250  27.915   7.162  1.00  0.00     0.006 C 
BRANCH   5   6
ATOM      6  C   UNL     1      46.081  26.541   7.817  1.00  0.00     0.053 C 
BRANCH   6   7
ATOM      7  C   UNL     1      45.605  26.690   9.228  1.00  0.00     0.041 C 
ATOM      8  O   UNL     1      45.790  25.763  10.061  1.00  0.00    -0.550 OA
ATOM      9  O   UNL     1      45.000  27.872   9.637  1.00  0.00    -0.550 OA
ENDBRANCH   6   7
ENDBRANCH   5   6
ENDBRANCH   4   5
ENDBRANCH   3   4
ENDBRANCH   2   3
ENDBRANCH   1   2
BRANCH   1  10
ATOM     10  C   UNL     1      44.361  27.004   2.686  1.00  0.00     0.027 C 
BRANCH  10  11
ATOM     11  C   UNL     1      45.505  27.626   1.932  1.00  0.00    -0.031 C 
ATOM     12  C   UNL     1      45.344  28.043   0.668  1.00  0.00    -0.031 C 
BRANCH  12  13
ATOM     13  C   UNL     1      46.473  28.667  -0.107  1.00  0.00     0.027 C 
BRANCH  13  14
ATOM     14  C   UNL     1      46.095  28.959  -1.570  1.00  0.00     0.004 C 
BRANCH  14  15
ATOM     15  C   UNL     1      46.615  27.917  -2.581  1.00  0.00     0.000 C 
BRANCH  15  16
ATOM     16  C   UNL     1      46.088  28.083  -4.020  1.00  0.00    -0.000 C 
BRANCH  16  17
ATOM     17  C   UNL     1      45.082  27.008  -4.471  1.00  0.00    -0.003 C 
ATOM     18  C   UNL     1      43.947  27.577  -5.321  1.00  0.00     0.004 C 
ENDBRANCH  16  17
ENDBRANCH  15  16
ENDBRANCH  14  15
ENDBRANCH  13  14
ENDBRANCH  12  13
ENDBRANCH  10  11
ENDBRANCH   1  10
TORSDOF 13
ENDMDL
MODEL 5
REMARK VINA RESULT:    -4.017      1.452      2.076
REMARK INTER + INTRA:          -8.201
REMARK INTER:                  -7.552
REMARK INTRA:                  -0.648
REMARK UNBOUND:                -1.130
REMARK SMILES CCCCCCC=CCCCCCCCC(=O)[O-]
REMARK SMILES IDX 10 1 11 2 12 3 13 4 14 5 15 6 16 7 17 8 18 9 9 10 8 11 7 12
REMARK SMILES IDX 6 13 5 14 4 15 3 16 2 17 1 18
REMARK H PARENT
REMARK Flexibility Score: inf
ROOT
ATOM      1  C   UNL     1      45.096  27.885   0.940  1.00  0.00     0.004 C 
ENDROOT
BRANCH   1   2
ATOM      2  C   UNL     1      45.334  29.385   0.707  1.00  0.00     0.000 C 
BRANCH   2   3
ATOM      3  C   UNL     1      45.930  29.680  -0.681  1.00  0.00     0.000 C 
BRANCH   3   4
ATOM      4  C   UNL     1      46.365  28.405  -1.420  1.00  0.00     0.000 C 
BRANCH   4   5
ATOM      5  C   UNL     1      46.267  28.544  -2.947  1.00  0.00     0.006 C 
BRANCH   5   6
ATOM      6  C   UNL     1      46.117  27.173  -3.613  1.00  0.00     0.053 C 
BRANCH   6   7
ATOM      7  C   UNL     1      45.348  27.294  -4.891  1.00  0.00     0.041 C 
ATOM      8  O   UNL     1      44.092  27.195  -4.887  1.00  0.00    -0.550 OA
ATOM      9  O   UNL     1      46.014  27.563  -6.080  1.00  0.00    -0.550 OA
ENDBRANCH   6   7
ENDBRANCH   5   6
ENDBRANCH   4   5
ENDBRANCH   3   4
ENDBRANCH   2   3
ENDBRANCH   1   2
BRANCH   1  10
ATOM     10  C   UNL     1      43.850  27.610   1.794  1.00  0.00     0.027 C 
BRANCH  10  11
ATOM     11  C   UNL     1      44.193  26.787   3.006  1.00  0.00    -0.031 C 
ATOM     12  C   UNL     1      45.450  26.750   3.472  1.00  0.00    -0.031 C 
BRANCH  12  13
ATOM     13  C   UNL     1      45.819  25.934   4.681  1.00  0.00     0.027 C 
BRANCH  13  14
ATOM     14  C   UNL     1      46.720  26.705   5.663  1.00  0.00     0.004 C 
BRANCH  14  15
ATOM     15  C   UNL     1      45.983  27.265   6.896  1.00  0.00     0.000 C 
BRANCH  15  16
ATOM     16  C   UNL     1      46.102  26.408   8.172  1.00  0.00    -0.000 C 
BRANCH  16  17
ATOM     17  C   UNL     1      45.433  27.009   9.422  1.00  0.00    -0.003 C 
ATOM     18  C   UNL     1      45.169  28.508   9.291  1.00  0.00     0.004 C 
ENDBRANCH  16  17
ENDBRANCH  15  16
ENDBRANCH  14  15
ENDBRANCH  13  14
ENDBRANCH  12  13
ENDBRANCH  10  11
ENDBRANCH   1  10
TORSDOF 13
ENDMDL
MODEL 6
REMARK VINA RESULT:    -3.876      1.070      2.104
REMARK INTER + INTRA:          -7.953
REMARK INTER:                  -6.948
REMARK INTRA:                  -1.005
REMARK UNBOUND:                -1.130
REMARK SMILES CCCCCCC=CCCCCCCCC(=O)[O-]
REMARK SMILES IDX 10 1 11 2 12 3 13 4 14 5 15 6 16 7 17 8 18 9 9 10 8 11 7 12
REMARK SMILES IDX 6 13 5 14 4 15 3 16 2 17 1 18
REMARK H PARENT
REMARK Flexibility Score: inf
ROOT
ATOM      1  C   UNL     1      44.536  26.738   3.095  1.00  0.00     0.004 C 
ENDROOT
BRANCH   1   2
ATOM      2  C   UNL     1      43.985  27.482   1.868  1.00  0.00     0.000 C 
BRANCH   2   3
ATOM      3  C   UNL     1      44.302  28.987   1.897  1.00  0.00     0.000 C 
BRANCH   3   4
ATOM      4  C   UNL     1      45.235  29.416   0.753  1.00  0.00     0.000 C 
BRANCH   4   5
ATOM      5  C   UNL     1      45.606  28.249  -0.176  1.00  0.00     0.006 C 
BRANCH   5   6
ATOM      6  C   UNL     1      46.583  28.705  -1.263  1.00  0.00     0.053 C 
BRANCH   6   7
ATOM      7  C   UNL     1      46.411  27.881  -2.500  1.00  0.00     0.041 C 
ATOM      8  O   UNL     1      47.086  26.830  -2.661  1.00  0.00    -0.550 OA
ATOM      9  O   UNL     1      45.471  28.248  -3.454  1.00  0.00    -0.550 OA
ENDBRANCH   6   7
ENDBRANCH   5   6
ENDBRANCH   4   5
ENDBRANCH   3   4
ENDBRANCH   2   3
ENDBRANCH   1   2
BRANCH   1  10
ATOM     10  C   UNL     1      46.056  26.892   3.244  1.00  0.00     0.027 C 
BRANCH  10  11
ATOM     11  C   UNL     1      46.424  27.319   4.639  1.00  0.00    -0.031 C 
ATOM     12  C   UNL     1      46.625  26.407   5.602  1.00  0.00    -0.031 C 
BRANCH  12  13
ATOM     13  C   UNL     1      46.993  26.808   7.004  1.00  0.00     0.027 C 
BRANCH  13  14
ATOM     14  C   UNL     1      45.891  26.471   8.025  1.00  0.00     0.004 C 
BRANCH  14  15
ATOM     15  C   UNL     1      45.943  27.311   9.317  1.00  0.00     0.000 C 
BRANCH  15  16
ATOM     16  C   UNL     1      44.878  28.421   9.417  1.00  0.00    -0.000 C 
BRANCH  16  17
ATOM     17  C   UNL     1      45.393  29.842   9.129  1.00  0.00    -0.003 C 
ATOM     18  C   UNL     1      45.552  30.125   7.635  1.00  0.00     0.004 C 
ENDBRANCH  16  17
ENDBRANCH  15  16
ENDBRANCH  14  15
ENDBRANCH  13  14
ENDBRANCH  12  13
ENDBRANCH  10  11
ENDBRANCH   1  10
TORSDOF 13
ENDMDL
MODEL 7
REMARK VINA RESULT:    -3.840      3.352      5.959
REMARK INTER + INTRA:          -7.888
REMARK INTER:                  -6.755
REMARK INTRA:                  -1.133
REMARK UNBOUND:                -1.130
REMARK SMILES CCCCCCC=CCCCCCCCC(=O)[O-]
REMARK SMILES IDX 10 1 11 2 12 3 13 4 14 5 15 6 16 7 17 8 18 9 9 10 8 11 7 12
REMARK SMILES IDX 6 13 5 14 4 15 3 16 2 17 1 18
REMARK H PARENT
REMARK Flexibility Score: inf
ROOT
ATOM      1  C   UNL     1      45.996  27.563  -2.771  1.00  0.00     0.004 C 
ENDROOT
BRANCH   1   2
ATOM      2  C   UNL     1      46.258  27.099  -4.212  1.00  0.00     0.000 C 
BRANCH   2   3
ATOM      3  C   UNL     1      46.440  28.275  -5.188  1.00  0.00     0.000 C 
BRANCH   3   4
ATOM      4  C   UNL     1      45.934  27.952  -6.603  1.00  0.00     0.000 C 
BRANCH   4   5
ATOM      5  C   UNL     1      44.793  28.879  -7.049  1.00  0.00     0.006 C 
BRANCH   5   6
ATOM      6  C   UNL     1      43.953  29.329  -5.849  1.00  0.00     0.053 C 
BRANCH   6   7
ATOM      7  C   UNL     1      42.758  28.443  -5.684  1.00  0.00     0.041 C 
ATOM      8  O   UNL     1      41.604  28.886  -5.922  1.00  0.00    -0.550 OA
ATOM      9  O   UNL     1      42.925  27.115  -5.314  1.00  0.00    -0.550 OA
ENDBRANCH   6   7
ENDBRANCH   5   6
ENDBRANCH   4   5
ENDBRANCH   3   4
ENDBRANCH   2   3
ENDBRANCH   1   2
BRANCH   1  10
ATOM     10  C   UNL     1      46.267  29.061  -2.575  1.00  0.00     0.027 C 
BRANCH  10  11
ATOM     11  C   UNL     1      46.222  29.434  -1.118  1.00  0.00    -0.031 C 
ATOM     12  C   UNL     1      45.969  28.507  -0.183  1.00  0.00    -0.031 C 
BRANCH  12  13
ATOM     13  C   UNL     1      45.919  28.854   1.280  1.00  0.00     0.027 C 
BRANCH  13  14
ATOM     14  C   UNL     1      45.921  27.609   2.185  1.00  0.00     0.004 C 
BRANCH  14  15
ATOM     15  C   UNL     1      44.596  27.365   2.934  1.00  0.00     0.000 C 
BRANCH  15  16
ATOM     16  C   UNL     1      43.370  27.121   2.030  1.00  0.00    -0.000 C 
BRANCH  16  17
ATOM     17  C   UNL     1      42.171  28.049   2.300  1.00  0.00    -0.003 C 
ATOM     18  C   UNL     1      42.591  29.479   2.636  1.00  0.00     0.004 C 
ENDBRANCH  16  17
ENDBRANCH  15  16
ENDBRANCH  14  15
ENDBRANCH  13  14
ENDBRANCH  12  13
ENDBRANCH  10  11
ENDBRANCH   1  10
TORSDOF 13
ENDMDL
MODEL 8
REMARK VINA RESULT:    -3.802      2.861      4.876
REMARK INTER + INTRA:          -7.823
REMARK INTER:                  -7.029
REMARK INTRA:                  -0.794
REMARK UNBOUND:                -1.130
REMARK SMILES CCCCCCC=CCCCCCCCC(=O)[O-]
REMARK SMILES IDX 10 1 11 2 12 3 13 4 14 5 15 6 16 7 17 8 18 9 9 10 8 11 7 12
REMARK SMILES IDX 6 13 5 14 4 15 3 16 2 17 1 18
REMARK H PARENT
REMARK Flexibility Score: inf
ROOT
ATOM      1  C   UNL     1      46.032  28.820  -2.042  1.00  0.00     0.004 C 
ENDROOT
BRANCH   1   2
ATOM      2  C   UNL     1      46.366  27.571  -2.871  1.00  0.00     0.000 C 
BRANCH   2   3
ATOM      3  C   UNL     1      45.254  27.212  -3.873  1.00  0.00     0.000 C 
BRANCH   3   4
ATOM      4  C   UNL     1      45.505  27.803  -5.270  1.00  0.00     0.000 C 
BRANCH   4   5
ATOM      5  C   UNL     1      44.740  29.115  -5.502  1.00  0.00     0.006 C 
BRANCH   5   6
ATOM      6  C   UNL     1      43.634  28.927  -6.544  1.00  0.00     0.053 C 
BRANCH   6   7
ATOM      7  C   UNL     1      42.287  28.968  -5.892  1.00  0.00     0.041 C 
ATOM      8  O   UNL     1      41.863  27.970  -5.250  1.00  0.00    -0.550 OA
ATOM      9  O   UNL     1      41.522  30.125  -5.952  1.00  0.00    -0.550 OA
ENDBRANCH   6   7
ENDBRANCH   5   6
ENDBRANCH   4   5
ENDBRANCH   3   4
ENDBRANCH   2   3
ENDBRANCH   1   2
BRANCH   1  10
ATOM     10  C   UNL     1      46.682  28.796  -0.651  1.00  0.00     0.027 C 
BRANCH  10  11
ATOM     11  C   UNL     1      45.645  28.893   0.435  1.00  0.00    -0.031 C 
ATOM     12  C   UNL     1      44.998  27.798   0.860  1.00  0.00    -0.031 C 
BRANCH  12  13
ATOM     13  C   UNL     1      43.956  27.868   1.943  1.00  0.00     0.027 C 
BRANCH  13  14
ATOM     14  C   UNL     1      44.124  26.759   2.998  1.00  0.00     0.004 C 
BRANCH  14  15
ATOM     15  C   UNL     1      45.579  26.533   3.456  1.00  0.00     0.000 C 
BRANCH  15  16
ATOM     16  C   UNL     1      46.003  27.333   4.704  1.00  0.00    -0.000 C 
BRANCH  16  17
ATOM     17  C   UNL     1      46.784  26.526   5.757  1.00  0.00    -0.003 C 
ATOM     18  C   UNL     1      46.269  26.749   7.178  1.00  0.00     0.004 C 
ENDBRANCH  16  17
ENDBRANCH  15  16
ENDBRANCH  14  15
ENDBRANCH  13  14
ENDBRANCH  12  13
ENDBRANCH  10  11
ENDBRANCH   1  10
TORSDOF 13
ENDMDL
MODEL 9
REMARK VINA RESULT:    -3.704      3.960      9.239
REMARK INTER + INTRA:          -7.650
REMARK INTER:                  -6.908
REMARK INTRA:                  -0.742
REMARK UNBOUND:                -1.130
REMARK SMILES CCCCCCC=CCCCCCCCC(=O)[O-]
REMARK SMILES IDX 10 1 11 2 12 3 13 4 14 5 15 6 16 7 17 8 18 9 9 10 8 11 7 12
REMARK SMILES IDX 6 13 5 14 4 15 3 16 2 17 1 18
REMARK H PARENT
REMARK Flexibility Score: inf
ROOT
ATOM      1  C   UNL     1      45.495  27.891   0.842  1.00  0.00     0.004 C 
ENDROOT
BRANCH   1   2
ATOM      2  C   UNL     1      44.559  28.299   1.990  1.00  0.00     0.000 C 
BRANCH   2   3
ATOM      3  C   UNL     1      43.995  27.086   2.751  1.00  0.00     0.000 C 
BRANCH   3   4
ATOM      4  C   UNL     1      45.072  26.344   3.558  1.00  0.00     0.000 C 
BRANCH   4   5
ATOM      5  C   UNL     1      45.918  27.289   4.425  1.00  0.00     0.006 C 
BRANCH   5   6
ATOM      6  C   UNL     1      46.582  26.528   5.577  1.00  0.00     0.053 C 
BRANCH   6   7
ATOM      7  C   UNL     1      46.207  27.138   6.892  1.00  0.00     0.041 C 
ATOM      8  O   UNL     1      45.985  28.374   6.977  1.00  0.00    -0.550 OA
ATOM      9  O   UNL     1      46.056  26.331   8.013  1.00  0.00    -0.550 OA
ENDBRANCH   6   7
ENDBRANCH   5   6
ENDBRANCH   4   5
ENDBRANCH   3   4
ENDBRANCH   2   3
ENDBRANCH   1   2
BRANCH   1  10
ATOM     10  C   UNL     1      45.978  29.095   0.019  1.00  0.00     0.027 C 
BRANCH  10  11
ATOM     11  C   UNL     1      46.210  28.712  -1.417  1.00  0.00    -0.031 C 
ATOM     12  C   UNL     1      45.928  29.572  -2.407  1.00  0.00    -0.031 C 
BRANCH  12  13
ATOM     13  C   UNL     1      46.150  29.213  -3.851  1.00  0.00     0.027 C 
BRANCH  13  14
ATOM     14  C   UNL     1      45.806  27.744  -4.156  1.00  0.00     0.004 C 
BRANCH  14  15
ATOM     15  C   UNL     1      45.823  27.385  -5.656  1.00  0.00     0.000 C 
BRANCH  15  16
ATOM     16  C   UNL     1      44.504  27.656  -6.407  1.00  0.00    -0.000 C 
BRANCH  16  17
ATOM     17  C   UNL     1      43.230  27.499  -5.557  1.00  0.00    -0.003 C 
ATOM     18  C   UNL     1      42.353  28.750  -5.564  1.00  0.00     0.004 C 
ENDBRANCH  16  17
ENDBRANCH  15  16
ENDBRANCH  14  15
ENDBRANCH  13  14
ENDBRANCH  12  13
ENDBRANCH  10  11
ENDBRANCH   1  10
TORSDOF 13
ENDMDL
