MODEL 1
REMARK VINA RESULT:    -3.712      0.000      0.000
REMARK INTER + INTRA:          -5.970
REMARK INTER:                  -5.664
REMARK INTRA:                  -0.306
REMARK UNBOUND:                -0.306
REMARK SMILES CC1=CCC[C@@H](C)C(=O)C[C@@H](C(C)C)C(=O)C1
REMARK SMILES IDX 8 1 9 2 6 3 7 4 5 5 4 6 3 7 2 8 1 9 10 11 11 12 15 13 16 14
REMARK SMILES IDX 17 15 12 17 13 18 14 19
REMARK H PARENT
REMARK Flexibility Score: 70.00
ROOT
ATOM      1  C   UNL     1      17.609  32.288  29.282  1.00  0.00     0.136 C 
ATOM      2  O   UNL     1      17.770  33.296  28.609  1.00  0.00    -0.299 OA
ENDROOT
BRANCH   1   3
ATOM      3  C   UNL     1      18.806  31.687  29.994  1.00  0.00     0.053 C 
ATOM      4  C   UNL     1      19.738  32.786  30.519  1.00  0.00     0.016 C 
BRANCH   3   5
ATOM      5  C   UNL     1      19.569  30.701  29.089  1.00  0.00     0.015 C 
BRANCH   5   6
ATOM      6  C   UNL     1      19.636  29.290  29.701  1.00  0.00     0.028 C 
BRANCH   6   7
ATOM      7  C   UNL     1      19.050  28.270  28.760  1.00  0.00    -0.028 C 
ATOM      8  C   UNL     1      17.811  27.737  28.879  1.00  0.00    -0.070 CG0
ATOM      9  C   UNL     1      17.351  26.773  27.815  1.00  0.00     0.039 C 
ATOM     10  G   UNL     1      16.881  28.057  30.039  1.00  0.00     0.000 G0
ENDBRANCH   6   7
ENDBRANCH   5   6
ENDBRANCH   3   5
ENDBRANCH   1   3
BRANCH   1  11
ATOM     11  C   UNL     1      16.228  31.672  29.346  1.00  0.00     0.087 C 
BRANCH  11  12
ATOM     12  C   UNL     1      16.134  30.549  30.416  1.00  0.00     0.066 C 
BRANCH  12  13
ATOM     13  C   UNL     1      15.918  29.187  29.768  1.00  0.00     0.140 C 
ATOM     14  O   UNL     1      14.933  28.996  29.070  1.00  0.00    -0.299 OA
BRANCH  13  15
ATOM     15  C   UNL     1      16.857  28.038  30.040  1.00  0.00     0.106 CG0
ATOM     16  G   UNL     1      17.803  27.782  28.877  1.00  0.00     0.000 G0
ENDBRANCH  13  15
ENDBRANCH  12  13
BRANCH  12  17
ATOM     17  C   UNL     1      15.046  30.816  31.505  1.00  0.00    -0.006 C 
ATOM     18  C   UNL     1      15.029  32.262  32.035  1.00  0.00     0.008 C 
ATOM     19  C   UNL     1      15.167  29.830  32.678  1.00  0.00     0.008 C 
ENDBRANCH  12  17
ENDBRANCH  11  12
ENDBRANCH   1  11
TORSDOF 1
ENDMDL
MODEL 2
REMARK VINA RESULT:    -3.662      2.519      5.786
REMARK INTER + INTRA:          -5.895
REMARK INTER:                  -5.656
REMARK INTRA:                  -0.238
REMARK UNBOUND:                -0.306
REMARK SMILES CC1=CCC[C@@H](C)C(=O)C[C@@H](C(C)C)C(=O)C1
REMARK SMILES IDX 8 1 9 2 6 3 7 4 5 5 4 6 3 7 2 8 1 9 10 11 11 12 15 13 16 14
REMARK SMILES IDX 17 15 12 17 13 18 14 19
REMARK H PARENT
REMARK Flexibility Score: 70.00
ROOT
ATOM      1  C   UNL     1      16.814  26.633  28.104  1.00  0.00     0.136 C 
ATOM      2  O   UNL     1      15.915  26.224  27.383  1.00  0.00    -0.299 OA
ENDROOT
BRANCH   1   3
ATOM      3  C   UNL     1      16.554  26.766  29.592  1.00  0.00     0.053 C 
ATOM      4  C   UNL     1      16.069  25.436  30.183  1.00  0.00     0.016 C 
BRANCH   3   5
ATOM      5  C   UNL     1      15.558  27.902  29.894  1.00  0.00     0.015 C 
BRANCH   5   6
ATOM      6  C   UNL     1      16.125  29.282  29.516  1.00  0.00     0.028 C 
BRANCH   6   7
ATOM      7  C   UNL     1      17.215  29.693  30.472  1.00  0.00    -0.028 C 
ATOM      8  C   UNL     1      18.512  29.869  30.127  1.00  0.00    -0.070 CG0
ATOM      9  C   UNL     1      19.468  30.343  31.192  1.00  0.00     0.039 C 
ATOM     10  G   UNL     1      19.041  29.595  28.728  1.00  0.00     0.000 G0
ENDBRANCH   6   7
ENDBRANCH   5   6
ENDBRANCH   3   5
ENDBRANCH   1   3
BRANCH   1  11
ATOM     11  C   UNL     1      18.134  27.014  27.469  1.00  0.00     0.087 C 
BRANCH  11  12
ATOM     12  C   UNL     1      19.310  26.968  28.484  1.00  0.00     0.066 C 
BRANCH  12  13
ATOM     13  C   UNL     1      19.927  28.347  28.676  1.00  0.00     0.140 C 
ATOM     14  O   UNL     1      21.130  28.453  28.867  1.00  0.00    -0.299 OA
BRANCH  13  15
ATOM     15  C   UNL     1      19.067  29.587  28.718  1.00  0.00     0.106 CG0
ATOM     16  G   UNL     1      18.507  29.851  30.108  1.00  0.00     0.000 G0
ENDBRANCH  13  15
ENDBRANCH  12  13
BRANCH  12  17
ATOM     17  C   UNL     1      20.410  25.922  28.116  1.00  0.00    -0.006 C 
ATOM     18  C   UNL     1      19.931  24.818  27.154  1.00  0.00     0.008 C 
ATOM     19  C   UNL     1      21.032  25.289  29.372  1.00  0.00     0.008 C 
ENDBRANCH  12  17
ENDBRANCH  11  12
ENDBRANCH   1  11
TORSDOF 1
ENDMDL
MODEL 3
REMARK VINA RESULT:    -3.560      2.666      5.684
REMARK INTER + INTRA:          -5.739
REMARK INTER:                  -5.794
REMARK INTRA:                   0.055
REMARK UNBOUND:                -0.306
REMARK SMILES CC1=CCC[C@@H](C)C(=O)C[C@@H](C(C)C)C(=O)C1
REMARK SMILES IDX 8 1 9 2 6 3 7 4 5 5 4 6 3 7 2 8 1 9 10 11 11 12 15 13 16 14
REMARK SMILES IDX 17 15 12 17 13 18 14 19
REMARK H PARENT
REMARK Flexibility Score: 70.00
ROOT
ATOM      1  C   UNL     1      17.900  27.946  28.579  1.00  0.00     0.136 C 
ATOM      2  O   UNL     1      17.196  27.324  27.797  1.00  0.00    -0.299 OA
ENDROOT
BRANCH   1   3
ATOM      3  C   UNL     1      17.260  28.557  29.811  1.00  0.00     0.053 C 
ATOM      4  C   UNL     1      16.232  27.598  30.425  1.00  0.00     0.016 C 
BRANCH   3   5
ATOM      5  C   UNL     1      16.624  29.925  29.501  1.00  0.00     0.015 C 
BRANCH   5   6
ATOM      6  C   UNL     1      17.686  31.014  29.264  1.00  0.00     0.028 C 
BRANCH   6   7
ATOM      7  C   UNL     1      18.450  31.301  30.529  1.00  0.00    -0.028 C 
ATOM      8  C   UNL     1      19.755  30.997  30.724  1.00  0.00    -0.070 CG0
ATOM      9  C   UNL     1      20.390  31.409  32.028  1.00  0.00     0.039 C 
ATOM     10  G   UNL     1      20.593  30.252  29.697  1.00  0.00     0.000 G0
ENDBRANCH   6   7
ENDBRANCH   5   6
ENDBRANCH   3   5
ENDBRANCH   1   3
BRANCH   1  11
ATOM     11  C   UNL     1      19.372  28.101  28.263  1.00  0.00     0.087 C 
BRANCH  11  12
ATOM     12  C   UNL     1      20.278  27.639  29.438  1.00  0.00     0.066 C 
BRANCH  12  13
ATOM     13  C   UNL     1      20.925  28.829  30.135  1.00  0.00     0.140 C 
ATOM     14  O   UNL     1      21.647  28.645  31.105  1.00  0.00    -0.299 OA
BRANCH  13  15
ATOM     15  C   UNL     1      20.625  30.244  29.702  1.00  0.00     0.106 CG0
ATOM     16  G   UNL     1      19.768  30.986  30.716  1.00  0.00     0.000 G0
ENDBRANCH  13  15
ENDBRANCH  12  13
BRANCH  12  17
ATOM     17  C   UNL     1      21.361  26.596  29.016  1.00  0.00    -0.006 C 
ATOM     18  C   UNL     1      22.522  27.192  28.197  1.00  0.00     0.008 C 
ATOM     19  C   UNL     1      20.739  25.412  28.257  1.00  0.00     0.008 C 
ENDBRANCH  12  17
ENDBRANCH  11  12
ENDBRANCH   1  11
TORSDOF 1
ENDMDL
MODEL 4
REMARK VINA RESULT:    -3.557      1.925      4.181
REMARK INTER + INTRA:          -5.734
REMARK INTER:                  -5.422
REMARK INTRA:                  -0.312
REMARK UNBOUND:                -0.306
REMARK SMILES CC1=CCC[C@@H](C)C(=O)C[C@@H](C(C)C)C(=O)C1
REMARK SMILES IDX 8 1 9 2 6 3 7 4 5 5 4 6 3 7 2 8 1 9 10 11 11 12 15 13 16 14
REMARK SMILES IDX 17 15 12 17 13 18 14 19
REMARK H PARENT
REMARK Flexibility Score: 70.00
ROOT
ATOM      1  C   UNL     1      16.184  27.636  30.866  1.00  0.00     0.136 C 
ATOM      2  O   UNL     1      15.769  26.863  31.718  1.00  0.00    -0.299 OA
ENDROOT
BRANCH   1   3
ATOM      3  C   UNL     1      16.050  27.251  29.405  1.00  0.00     0.053 C 
ATOM      4  C   UNL     1      14.733  26.505  29.155  1.00  0.00     0.016 C 
BRANCH   3   5
ATOM      5  C   UNL     1      17.256  26.422  28.923  1.00  0.00     0.015 C 
BRANCH   5   6
ATOM      6  C   UNL     1      18.088  27.174  27.868  1.00  0.00     0.028 C 
BRANCH   6   7
ATOM      7  C   UNL     1      19.470  27.469  28.388  1.00  0.00    -0.028 C 
ATOM      8  C   UNL     1      19.908  28.697  28.754  1.00  0.00    -0.070 CG0
ATOM      9  C   UNL     1      21.303  28.812  29.315  1.00  0.00     0.039 C 
ATOM     10  G   UNL     1      19.063  29.953  28.609  1.00  0.00     0.000 G0
ENDBRANCH   6   7
ENDBRANCH   5   6
ENDBRANCH   3   5
ENDBRANCH   1   3
BRANCH   1  11
ATOM     11  C   UNL     1      16.837  28.925  31.313  1.00  0.00     0.087 C 
BRANCH  11  12
ATOM     12  C   UNL     1      16.933  29.966  30.163  1.00  0.00     0.066 C 
BRANCH  12  13
ATOM     13  C   UNL     1      18.380  30.353  29.889  1.00  0.00     0.140 C 
ATOM     14  O   UNL     1      18.983  31.055  30.688  1.00  0.00    -0.299 OA
BRANCH  13  15
ATOM     15  C   UNL     1      19.063  29.954  28.603  1.00  0.00     0.106 CG0
ATOM     16  G   UNL     1      19.910  28.701  28.768  1.00  0.00     0.000 G0
ENDBRANCH  13  15
ENDBRANCH  12  13
BRANCH  12  17
ATOM     17  C   UNL     1      16.061  31.240  30.403  1.00  0.00    -0.006 C 
ATOM     18  C   UNL     1      14.578  30.942  30.691  1.00  0.00     0.008 C 
ATOM     19  C   UNL     1      16.179  32.233  29.235  1.00  0.00     0.008 C 
ENDBRANCH  12  17
ENDBRANCH  11  12
ENDBRANCH   1  11
TORSDOF 1
ENDMDL
MODEL 5
REMARK VINA RESULT:    -3.542      2.414      4.512
REMARK INTER + INTRA:          -5.712
REMARK INTER:                  -5.534
REMARK INTRA:                  -0.178
REMARK UNBOUND:                -0.306
REMARK SMILES CC1=CCC[C@@H](C)C(=O)C[C@@H](C(C)C)C(=O)C1
REMARK SMILES IDX 8 1 9 2 6 3 7 4 5 5 4 6 3 7 2 8 1 9 10 11 11 12 15 13 16 14
REMARK SMILES IDX 17 15 12 17 13 18 14 19
REMARK H PARENT
REMARK Flexibility Score: 70.00
ROOT
ATOM      1  C   UNL     1      17.386  28.798  29.313  1.00  0.00     0.136 C 
ATOM      2  O   UNL     1      16.185  28.671  29.123  1.00  0.00    -0.299 OA
ENDROOT
BRANCH   1   3
ATOM      3  C   UNL     1      18.351  28.126  28.356  1.00  0.00     0.053 C 
ATOM      4  C   UNL     1      17.649  27.019  27.559  1.00  0.00     0.016 C 
BRANCH   3   5
ATOM      5  C   UNL     1      19.590  27.579  29.090  1.00  0.00     0.015 C 
BRANCH   5   6
ATOM      6  C   UNL     1      20.840  28.439  28.831  1.00  0.00     0.028 C 
BRANCH   6   7
ATOM      7  C   UNL     1      21.645  28.605  30.093  1.00  0.00    -0.028 C 
ATOM      8  C   UNL     1      21.745  29.759  30.795  1.00  0.00    -0.070 CG0
ATOM      9  C   UNL     1      22.542  29.742  32.074  1.00  0.00     0.039 C 
ATOM     10  G   UNL     1      21.104  31.061  30.340  1.00  0.00     0.000 G0
ENDBRANCH   6   7
ENDBRANCH   5   6
ENDBRANCH   3   5
ENDBRANCH   1   3
BRANCH   1  11
ATOM     11  C   UNL     1      17.849  29.596  30.512  1.00  0.00     0.087 C 
BRANCH  11  12
ATOM     12  C   UNL     1      18.475  30.959  30.107  1.00  0.00     0.066 C 
BRANCH  12  13
ATOM     13  C   UNL     1      19.725  31.257  30.926  1.00  0.00     0.140 C 
ATOM     14  O   UNL     1      19.617  31.729  32.048  1.00  0.00    -0.299 OA
BRANCH  13  15
ATOM     15  C   UNL     1      21.104  31.057  30.345  1.00  0.00     0.106 CG0
ATOM     16  G   UNL     1      21.743  29.759  30.815  1.00  0.00     0.000 G0
ENDBRANCH  13  15
ENDBRANCH  12  13
BRANCH  12  17
ATOM     17  C   UNL     1      17.472  32.153  30.185  1.00  0.00    -0.006 C 
ATOM     18  C   UNL     1      16.130  31.803  30.854  1.00  0.00     0.008 C 
ATOM     19  C   UNL     1      17.221  32.771  28.799  1.00  0.00     0.008 C 
ENDBRANCH  12  17
ENDBRANCH  11  12
ENDBRANCH   1  11
TORSDOF 1
ENDMDL
MODEL 6
REMARK VINA RESULT:    -3.538      3.853      6.069
REMARK INTER + INTRA:          -5.705
REMARK INTER:                  -5.785
REMARK INTRA:                   0.079
REMARK UNBOUND:                -0.306
REMARK SMILES CC1=CCC[C@@H](C)C(=O)C[C@@H](C(C)C)C(=O)C1
REMARK SMILES IDX 8 1 9 2 6 3 7 4 5 5 4 6 3 7 2 8 1 9 10 11 11 12 15 13 16 14
REMARK SMILES IDX 17 15 12 17 13 18 14 19
REMARK H PARENT
REMARK Flexibility Score: 70.00
ROOT
ATOM      1  C   UNL     1      22.910  27.648  28.278  1.00  0.00     0.136 C 
ATOM      2  O   UNL     1      22.905  27.211  27.136  1.00  0.00    -0.299 OA
ENDROOT
BRANCH   1   3
ATOM      3  C   UNL     1      24.062  28.533  28.714  1.00  0.00     0.053 C 
ATOM      4  C   UNL     1      25.388  27.761  28.682  1.00  0.00     0.016 C 
BRANCH   3   5
ATOM      5  C   UNL     1      23.813  29.145  30.105  1.00  0.00     0.015 C 
BRANCH   5   6
ATOM      6  C   UNL     1      23.515  30.653  30.027  1.00  0.00     0.028 C 
BRANCH   6   7
ATOM      7  C   UNL     1      22.565  31.068  31.120  1.00  0.00    -0.028 C 
ATOM      8  C   UNL     1      21.218  30.947  31.055  1.00  0.00    -0.070 CG0
ATOM      9  C   UNL     1      20.413  31.353  32.263  1.00  0.00     0.039 C 
ATOM     10  G   UNL     1      20.492  30.437  29.820  1.00  0.00     0.000 G0
ENDBRANCH   6   7
ENDBRANCH   5   6
ENDBRANCH   3   5
ENDBRANCH   1   3
BRANCH   1  11
ATOM     11  C   UNL     1      21.782  27.260  29.208  1.00  0.00     0.087 C 
BRANCH  11  12
ATOM     12  C   UNL     1      20.453  27.984  28.856  1.00  0.00     0.066 C 
BRANCH  12  13
ATOM     13  C   UNL     1      20.070  28.988  29.936  1.00  0.00     0.140 C 
ATOM     14  O   UNL     1      19.373  28.633  30.875  1.00  0.00    -0.299 OA
BRANCH  13  15
ATOM     15  C   UNL     1      20.466  30.440  29.826  1.00  0.00     0.106 CG0
ATOM     16  G   UNL     1      21.204  30.930  31.063  1.00  0.00     0.000 G0
ENDBRANCH  13  15
ENDBRANCH  12  13
BRANCH  12  17
ATOM     17  C   UNL     1      19.269  27.007  28.571  1.00  0.00    -0.006 C 
ATOM     18  C   UNL     1      19.686  25.701  27.870  1.00  0.00     0.008 C 
ATOM     19  C   UNL     1      18.149  27.695  27.773  1.00  0.00     0.008 C 
ENDBRANCH  12  17
ENDBRANCH  11  12
ENDBRANCH   1  11
TORSDOF 1
ENDMDL
MODEL 7
REMARK VINA RESULT:    -3.448      2.613      4.783
REMARK INTER + INTRA:          -5.568
REMARK INTER:                  -5.414
REMARK INTRA:                  -0.154
REMARK UNBOUND:                -0.306
REMARK SMILES CC1=CCC[C@@H](C)C(=O)C[C@@H](C(C)C)C(=O)C1
REMARK SMILES IDX 8 1 9 2 6 3 7 4 5 5 4 6 3 7 2 8 1 9 10 11 11 12 15 13 16 14
REMARK SMILES IDX 17 15 12 17 13 18 14 19
REMARK H PARENT
REMARK Flexibility Score: 70.00
ROOT
ATOM      1  C   UNL     1      20.946  27.802  28.571  1.00  0.00     0.136 C 
ATOM      2  O   UNL     1      22.018  27.745  27.985  1.00  0.00    -0.299 OA
ENDROOT
BRANCH   1   3
ATOM      3  C   UNL     1      20.197  26.513  28.849  1.00  0.00     0.053 C 
ATOM      4  C   UNL     1      21.174  25.355  29.090  1.00  0.00     0.016 C 
BRANCH   3   5
ATOM      5  C   UNL     1      19.207  26.176  27.719  1.00  0.00     0.015 C 
BRANCH   5   6
ATOM      6  C   UNL     1      18.027  27.164  27.672  1.00  0.00     0.028 C 
BRANCH   6   7
ATOM      7  C   UNL     1      17.174  27.037  28.906  1.00  0.00    -0.028 C 
ATOM      8  C   UNL     1      16.943  28.039  29.787  1.00  0.00    -0.070 CG0
ATOM      9  C   UNL     1      16.012  27.766  30.941  1.00  0.00     0.039 C 
ATOM     10  G   UNL     1      17.591  29.410  29.668  1.00  0.00     0.000 G0
ENDBRANCH   6   7
ENDBRANCH   5   6
ENDBRANCH   3   5
ENDBRANCH   1   3
BRANCH   1  11
ATOM     11  C   UNL     1      20.405  29.160  28.962  1.00  0.00     0.087 C 
BRANCH  11  12
ATOM     12  C   UNL     1      20.098  29.255  30.482  1.00  0.00     0.066 C 
BRANCH  12  13
ATOM     13  C   UNL     1      18.650  29.660  30.728  1.00  0.00     0.140 C 
ATOM     14  O   UNL     1      18.323  30.117  31.813  1.00  0.00    -0.299 OA
BRANCH  13  15
ATOM     15  C   UNL     1      17.588  29.430  29.680  1.00  0.00     0.106 CG0
ATOM     16  G   UNL     1      16.954  28.053  29.797  1.00  0.00     0.000 G0
ENDBRANCH  13  15
ENDBRANCH  12  13
BRANCH  12  17
ATOM     17  C   UNL     1      21.070  30.202  31.256  1.00  0.00    -0.006 C 
ATOM     18  C   UNL     1      21.638  31.352  30.403  1.00  0.00     0.008 C 
ATOM     19  C   UNL     1      22.219  29.419  31.911  1.00  0.00     0.008 C 
ENDBRANCH  12  17
ENDBRANCH  11  12
ENDBRANCH   1  11
TORSDOF 1
ENDMDL
MODEL 8
REMARK VINA RESULT:    -3.333      2.537      4.582
REMARK INTER + INTRA:          -5.392
REMARK INTER:                  -5.130
REMARK INTRA:                  -0.263
REMARK UNBOUND:                -0.306
REMARK SMILES CC1=CCC[C@@H](C)C(=O)C[C@@H](C(C)C)C(=O)C1
REMARK SMILES IDX 8 1 9 2 6 3 7 4 5 5 4 6 3 7 2 8 1 9 10 11 11 12 15 13 16 14
REMARK SMILES IDX 17 15 12 17 13 18 14 19
REMARK H PARENT
REMARK Flexibility Score: 70.00
ROOT
ATOM      1  C   UNL     1      15.254  28.122  30.422  1.00  0.00     0.136 C 
ATOM      2  O   UNL     1      14.235  28.769  30.618  1.00  0.00    -0.299 OA
ENDROOT
BRANCH   1   3
ATOM      3  C   UNL     1      16.354  28.161  31.465  1.00  0.00     0.053 C 
ATOM      4  C   UNL     1      15.769  28.070  32.880  1.00  0.00     0.016 C 
BRANCH   3   5
ATOM      5  C   UNL     1      17.239  29.412  31.311  1.00  0.00     0.015 C 
BRANCH   5   6
ATOM      6  C   UNL     1      17.780  29.563  29.878  1.00  0.00     0.028 C 
BRANCH   6   7
ATOM      7  C   UNL     1      19.027  28.739  29.687  1.00  0.00    -0.028 C 
ATOM      8  C   UNL     1      19.174  27.775  28.748  1.00  0.00    -0.070 CG0
ATOM      9  C   UNL     1      20.510  27.084  28.648  1.00  0.00     0.039 C 
ATOM     10  G   UNL     1      18.053  27.355  27.811  1.00  0.00     0.000 G0
ENDBRANCH   6   7
ENDBRANCH   5   6
ENDBRANCH   3   5
ENDBRANCH   1   3
BRANCH   1  11
ATOM     11  C   UNL     1      15.378  27.339  29.133  1.00  0.00     0.087 C 
BRANCH  11  12
ATOM     12  C   UNL     1      16.284  26.087  29.291  1.00  0.00     0.066 C 
BRANCH  12  13
ATOM     13  C   UNL     1      17.388  26.069  28.241  1.00  0.00     0.140 C 
ATOM     14  O   UNL     1      17.784  25.002  27.795  1.00  0.00    -0.299 OA
BRANCH  13  15
ATOM     15  C   UNL     1      18.064  27.344  27.800  1.00  0.00     0.106 CG0
ATOM     16  G   UNL     1      19.179  27.761  28.746  1.00  0.00     0.000 G0
ENDBRANCH  13  15
ENDBRANCH  12  13
BRANCH  12  17
ATOM     17  C   UNL     1      15.493  24.740  29.276  1.00  0.00    -0.006 C 
ATOM     18  C   UNL     1      14.355  24.692  28.240  1.00  0.00     0.008 C 
ATOM     19  C   UNL     1      14.947  24.391  30.671  1.00  0.00     0.008 C 
ENDBRANCH  12  17
ENDBRANCH  11  12
ENDBRANCH   1  11
TORSDOF 1
ENDMDL
MODEL 9
REMARK VINA RESULT:    -3.302      2.442      4.347
REMARK INTER + INTRA:          -5.345
REMARK INTER:                  -5.135
REMARK INTRA:                  -0.210
REMARK UNBOUND:                -0.306
REMARK SMILES CC1=CCC[C@@H](C)C(=O)C[C@@H](C(C)C)C(=O)C1
REMARK SMILES IDX 8 1 9 2 6 3 7 4 5 5 4 6 3 7 2 8 1 9 10 11 11 12 15 13 16 14
REMARK SMILES IDX 17 15 12 17 13 18 14 19
REMARK H PARENT
REMARK Flexibility Score: 70.00
ROOT
ATOM      1  C   UNL     1      17.124  29.085  31.147  1.00  0.00     0.136 C 
ATOM      2  O   UNL     1      16.232  28.910  31.964  1.00  0.00    -0.299 OA
ENDROOT
BRANCH   1   3
ATOM      3  C   UNL     1      16.763  29.159  29.676  1.00  0.00     0.053 C 
ATOM      4  C   UNL     1      15.322  29.654  29.491  1.00  0.00     0.016 C 
BRANCH   3   5
ATOM      5  C   UNL     1      16.979  27.808  28.969  1.00  0.00     0.015 C 
BRANCH   5   6
ATOM      6  C   UNL     1      18.129  27.868  27.948  1.00  0.00     0.028 C 
BRANCH   6   7
ATOM      7  C   UNL     1      19.144  26.790  28.222  1.00  0.00    -0.028 C 
ATOM      8  C   UNL     1      20.397  27.014  28.684  1.00  0.00    -0.070 CG0
ATOM      9  C   UNL     1      21.272  25.819  28.966  1.00  0.00     0.039 C 
ATOM     10  G   UNL     1      20.957  28.410  28.912  1.00  0.00     0.000 G0
ENDBRANCH   6   7
ENDBRANCH   5   6
ENDBRANCH   3   5
ENDBRANCH   1   3
BRANCH   1  11
ATOM     11  C   UNL     1      18.550  29.190  31.643  1.00  0.00     0.087 C 
BRANCH  11  12
ATOM     12  C   UNL     1      19.495  29.829  30.588  1.00  0.00     0.066 C 
BRANCH  12  13
ATOM     13  C   UNL     1      20.694  28.933  30.306  1.00  0.00     0.140 C 
ATOM     14  O   UNL     1      21.489  28.684  31.201  1.00  0.00    -0.299 OA
BRANCH  13  15
ATOM     15  C   UNL     1      20.967  28.410  28.917  1.00  0.00     0.106 CG0
ATOM     16  G   UNL     1      20.406  27.011  28.709  1.00  0.00     0.000 G0
ENDBRANCH  13  15
ENDBRANCH  12  13
BRANCH  12  17
ATOM     17  C   UNL     1      19.964  31.270  30.965  1.00  0.00    -0.006 C 
ATOM     18  C   UNL     1      20.229  31.471  32.469  1.00  0.00     0.008 C 
ATOM     19  C   UNL     1      18.978  32.336  30.460  1.00  0.00     0.008 C 
ENDBRANCH  12  17
ENDBRANCH  11  12
ENDBRANCH   1  11
TORSDOF 1
ENDMDL
