MODEL 1
REMARK VINA RESULT:    -5.161      0.000      0.000
REMARK INTER + INTRA:          -7.135
REMARK INTER:                  -6.821
REMARK INTRA:                  -0.314
REMARK UNBOUND:                -0.314
REMARK SMILES CCCCC=CC=CCO
REMARK SMILES IDX 5 1 6 2 4 3 3 4 2 5 1 6 7 7 8 8 9 9 10 10
REMARK H PARENT 10 11
REMARK Flexibility Score: inf
ROOT
ATOM      1  C   UNL     1      18.611   0.733 -15.254  1.00  0.00    -0.027 C 
ATOM      2  C   UNL     1      19.133   1.408 -16.281  1.00  0.00    -0.005 C 
ENDROOT
BRANCH   1   3
ATOM      3  C   UNL     1      17.153   0.375 -15.208  1.00  0.00     0.027 C 
BRANCH   3   4
ATOM      4  C   UNL     1      16.704  -0.291 -16.514  1.00  0.00     0.004 C 
BRANCH   4   5
ATOM      5  C   UNL     1      15.476   0.420 -17.098  1.00  0.00    -0.003 C 
ATOM      6  C   UNL     1      14.636   1.061 -15.996  1.00  0.00     0.004 C 
ENDBRANCH   4   5
ENDBRANCH   3   4
ENDBRANCH   1   3
BRANCH   2   7
ATOM      7  C   UNL     1      20.561   1.764 -16.307  1.00  0.00    -0.002 C 
ATOM      8  C   UNL     1      21.505   0.821 -16.306  1.00  0.00     0.001 C 
BRANCH   8   9
ATOM      9  C   UNL     1      22.962   1.173 -16.341  1.00  0.00     0.183 C 
BRANCH   9  10
ATOM     10  O   UNL     1      23.309   1.930 -15.213  1.00  0.00    -0.392 OA
ATOM     11  H   UNL     1      23.692   1.299 -14.550  1.00  0.00     0.210 HD
ENDBRANCH   9  10
ENDBRANCH   8   9
ENDBRANCH   2   7
TORSDOF 6
ENDMDL
MODEL 2
REMARK VINA RESULT:    -5.057     11.910     12.428
REMARK INTER + INTRA:          -6.997
REMARK INTER:                  -6.696
REMARK INTRA:                  -0.301
REMARK UNBOUND:                -0.314
REMARK SMILES CCCCC=CC=CCO
REMARK SMILES IDX 5 1 6 2 4 3 3 4 2 5 1 6 7 7 8 8 9 9 10 10
REMARK H PARENT 10 11
REMARK Flexibility Score: inf
ROOT
ATOM      1  C   UNL     1      20.093  -3.455 -28.277  1.00  0.00    -0.027 C 
ATOM      2  C   UNL     1      20.864  -3.849 -27.261  1.00  0.00    -0.005 C 
ENDROOT
BRANCH   1   3
ATOM      3  C   UNL     1      18.737  -4.056 -28.514  1.00  0.00     0.027 C 
BRANCH   3   4
ATOM      4  C   UNL     1      17.768  -3.708 -27.377  1.00  0.00     0.004 C 
BRANCH   4   5
ATOM      5  C   UNL     1      17.431  -4.951 -26.545  1.00  0.00    -0.003 C 
ATOM      6  C   UNL     1      16.930  -6.089 -27.431  1.00  0.00     0.004 C 
ENDBRANCH   4   5
ENDBRANCH   3   4
ENDBRANCH   1   3
BRANCH   2   7
ATOM      7  C   UNL     1      22.196  -3.262 -27.047  1.00  0.00    -0.002 C 
ATOM      8  C   UNL     1      22.395  -1.947 -27.168  1.00  0.00     0.001 C 
BRANCH   8   9
ATOM      9  C   UNL     1      23.746  -1.338 -26.943  1.00  0.00     0.183 C 
BRANCH   9  10
ATOM     10  O   UNL     1      24.677  -1.867 -27.849  1.00  0.00    -0.392 OA
ATOM     11  H   UNL     1      24.161  -2.214 -28.622  1.00  0.00     0.210 HD
ENDBRANCH   9  10
ENDBRANCH   8   9
ENDBRANCH   2   7
TORSDOF 6
ENDMDL
MODEL 3
REMARK VINA RESULT:    -4.911     12.542     13.833
REMARK INTER + INTRA:          -6.804
REMARK INTER:                  -6.596
REMARK INTRA:                  -0.208
REMARK UNBOUND:                -0.314
REMARK SMILES CCCCC=CC=CCO
REMARK SMILES IDX 5 1 6 2 4 3 3 4 2 5 1 6 7 7 8 8 9 9 10 10
REMARK H PARENT 10 11
REMARK Flexibility Score: inf
ROOT
ATOM      1  C   UNL     1      20.326  -3.369 -27.423  1.00  0.00    -0.027 C 
ATOM      2  C   UNL     1      19.574  -3.630 -28.495  1.00  0.00    -0.005 C 
ENDROOT
BRANCH   1   3
ATOM      3  C   UNL     1      21.590  -2.565 -27.527  1.00  0.00     0.027 C 
BRANCH   3   4
ATOM      4  C   UNL     1      22.714  -3.185 -26.689  1.00  0.00     0.004 C 
BRANCH   4   5
ATOM      5  C   UNL     1      23.788  -2.143 -26.354  1.00  0.00    -0.003 C 
ATOM      6  C   UNL     1      24.068  -1.236 -27.550  1.00  0.00     0.004 C 
ENDBRANCH   4   5
ENDBRANCH   3   4
ENDBRANCH   1   3
BRANCH   2   7
ATOM      7  C   UNL     1      18.345  -4.431 -28.382  1.00  0.00    -0.002 C 
ATOM      8  C   UNL     1      18.088  -5.146 -27.284  1.00  0.00     0.001 C 
BRANCH   8   9
ATOM      9  C   UNL     1      16.834  -5.957 -27.155  1.00  0.00     0.183 C 
BRANCH   9  10
ATOM     10  O   UNL     1      16.581  -6.656 -28.343  1.00  0.00    -0.392 OA
ATOM     11  H   UNL     1      16.159  -7.518 -28.087  1.00  0.00     0.210 HD
ENDBRANCH   9  10
ENDBRANCH   8   9
ENDBRANCH   2   7
TORSDOF 6
ENDMDL
MODEL 4
REMARK VINA RESULT:    -4.856     12.260     13.689
REMARK INTER + INTRA:          -6.732
REMARK INTER:                  -6.573
REMARK INTRA:                  -0.159
REMARK UNBOUND:                -0.314
REMARK SMILES CCCCC=CC=CCO
REMARK SMILES IDX 5 1 6 2 4 3 3 4 2 5 1 6 7 7 8 8 9 9 10 10
REMARK H PARENT 10 11
REMARK Flexibility Score: inf
ROOT
ATOM      1  C   UNL     1      17.253  -4.976 -27.239  1.00  0.00    -0.027 C 
ATOM      2  C   UNL     1      16.851  -6.249 -27.271  1.00  0.00    -0.005 C 
ENDROOT
BRANCH   1   3
ATOM      3  C   UNL     1      18.300  -4.458 -28.182  1.00  0.00     0.027 C 
BRANCH   3   4
ATOM      4  C   UNL     1      19.244  -3.475 -27.480  1.00  0.00     0.004 C 
BRANCH   4   5
ATOM      5  C   UNL     1      20.547  -3.306 -28.269  1.00  0.00    -0.003 C 
ATOM      6  C   UNL     1      21.637  -2.675 -27.406  1.00  0.00     0.004 C 
ENDBRANCH   4   5
ENDBRANCH   3   4
ENDBRANCH   1   3
BRANCH   2   7
ATOM      7  C   UNL     1      15.834  -6.747 -26.332  1.00  0.00    -0.002 C 
ATOM      8  C   UNL     1      16.025  -6.683 -25.013  1.00  0.00     0.001 C 
BRANCH   8   9
ATOM      9  C   UNL     1      14.991  -7.179 -24.047  1.00  0.00     0.183 C 
BRANCH   9  10
ATOM     10  O   UNL     1      14.241  -8.213 -24.625  1.00  0.00    -0.392 OA
ATOM     11  H   UNL     1      13.985  -7.910 -25.535  1.00  0.00     0.210 HD
ENDBRANCH   9  10
ENDBRANCH   8   9
ENDBRANCH   2   7
TORSDOF 6
ENDMDL
MODEL 5
REMARK VINA RESULT:    -4.828      6.952     11.546
REMARK INTER + INTRA:          -6.694
REMARK INTER:                  -6.376
REMARK INTRA:                  -0.319
REMARK UNBOUND:                -0.314
REMARK SMILES CCCCC=CC=CCO
REMARK SMILES IDX 5 1 6 2 4 3 3 4 2 5 1 6 7 7 8 8 9 9 10 10
REMARK H PARENT 10 11
REMARK Flexibility Score: inf
ROOT
ATOM      1  C   UNL     1      29.038  -0.664 -15.335  1.00  0.00    -0.027 C 
ATOM      2  C   UNL     1      28.608  -1.378 -16.378  1.00  0.00    -0.005 C 
ENDROOT
BRANCH   1   3
ATOM      3  C   UNL     1      30.491  -0.331 -15.155  1.00  0.00     0.027 C 
BRANCH   3   4
ATOM      4  C   UNL     1      30.997   0.578 -16.281  1.00  0.00     0.004 C 
BRANCH   4   5
ATOM      5  C   UNL     1      32.324   0.062 -16.849  1.00  0.00    -0.003 C 
ATOM      6  C   UNL     1      33.074  -0.779 -15.819  1.00  0.00     0.004 C 
ENDBRANCH   4   5
ENDBRANCH   3   4
ENDBRANCH   1   3
BRANCH   2   7
ATOM      7  C   UNL     1      27.183  -1.709 -16.535  1.00  0.00    -0.002 C 
ATOM      8  C   UNL     1      26.236  -0.950 -15.979  1.00  0.00     0.001 C 
BRANCH   8   9
ATOM      9  C   UNL     1      24.781  -1.273 -16.141  1.00  0.00     0.183 C 
BRANCH   9  10
ATOM     10  O   UNL     1      24.609  -2.291 -17.089  1.00  0.00    -0.392 OA
ATOM     11  H   UNL     1      23.793  -2.068 -17.608  1.00  0.00     0.210 HD
ENDBRANCH   9  10
ENDBRANCH   8   9
ENDBRANCH   2   7
TORSDOF 6
ENDMDL
MODEL 6
REMARK VINA RESULT:    -4.810      7.288     10.279
REMARK INTER + INTRA:          -6.671
REMARK INTER:                  -6.455
REMARK INTRA:                  -0.216
REMARK UNBOUND:                -0.314
REMARK SMILES CCCCC=CC=CCO
REMARK SMILES IDX 5 1 6 2 4 3 3 4 2 5 1 6 7 7 8 8 9 9 10 10
REMARK H PARENT 10 11
REMARK Flexibility Score: inf
ROOT
ATOM      1  C   UNL     1      28.728  -0.947 -16.032  1.00  0.00    -0.027 C 
ATOM      2  C   UNL     1      29.509  -0.575 -15.015  1.00  0.00    -0.005 C 
ENDROOT
BRANCH   1   3
ATOM      3  C   UNL     1      27.241  -1.082 -15.873  1.00  0.00     0.027 C 
BRANCH   3   4
ATOM      4  C   UNL     1      26.586  -1.580 -17.167  1.00  0.00     0.004 C 
BRANCH   4   5
ATOM      5  C   UNL     1      25.057  -1.525 -17.064  1.00  0.00    -0.003 C 
ATOM      6  C   UNL     1      24.609  -0.434 -16.096  1.00  0.00     0.004 C 
ENDBRANCH   4   5
ENDBRANCH   3   4
ENDBRANCH   1   3
BRANCH   2   7
ATOM      7  C   UNL     1      30.966  -0.459 -15.181  1.00  0.00    -0.002 C 
ATOM      8  C   UNL     1      31.536  -0.606 -16.379  1.00  0.00     0.001 C 
BRANCH   8   9
ATOM      9  C   UNL     1      33.019  -0.480 -16.561  1.00  0.00     0.183 C 
BRANCH   9  10
ATOM     10  O   UNL     1      33.686  -0.818 -15.375  1.00  0.00    -0.392 OA
ATOM     11  H   UNL     1      33.005  -1.196 -14.759  1.00  0.00     0.210 HD
ENDBRANCH   9  10
ENDBRANCH   8   9
ENDBRANCH   2   7
TORSDOF 6
ENDMDL
MODEL 7
REMARK VINA RESULT:    -4.783      2.311      2.475
REMARK INTER + INTRA:          -6.634
REMARK INTER:                  -6.366
REMARK INTRA:                  -0.269
REMARK UNBOUND:                -0.314
REMARK SMILES CCCCC=CC=CCO
REMARK SMILES IDX 5 1 6 2 4 3 3 4 2 5 1 6 7 7 8 8 9 9 10 10
REMARK H PARENT 10 11
REMARK Flexibility Score: inf
ROOT
ATOM      1  C   UNL     1      18.839   1.412 -16.203  1.00  0.00    -0.027 C 
ATOM      2  C   UNL     1      20.145   1.147 -16.283  1.00  0.00    -0.005 C 
ENDROOT
BRANCH   1   3
ATOM      3  C   UNL     1      17.931   0.627 -15.300  1.00  0.00     0.027 C 
BRANCH   3   4
ATOM      4  C   UNL     1      17.086  -0.375 -16.096  1.00  0.00     0.004 C 
BRANCH   4   5
ATOM      5  C   UNL     1      15.912   0.327 -16.788  1.00  0.00    -0.003 C 
ATOM      6  C   UNL     1      14.980   0.978 -15.769  1.00  0.00     0.004 C 
ENDBRANCH   4   5
ENDBRANCH   3   4
ENDBRANCH   1   3
BRANCH   2   7
ATOM      7  C   UNL     1      21.021   1.915 -17.183  1.00  0.00    -0.002 C 
ATOM      8  C   UNL     1      20.599   2.303 -18.388  1.00  0.00     0.001 C 
BRANCH   8   9
ATOM      9  C   UNL     1      21.480   3.094 -19.307  1.00  0.00     0.183 C 
BRANCH   9  10
ATOM     10  O   UNL     1      20.721   4.031 -20.024  1.00  0.00    -0.392 OA
ATOM     11  H   UNL     1      19.767   3.832 -19.837  1.00  0.00     0.210 HD
ENDBRANCH   9  10
ENDBRANCH   8   9
ENDBRANCH   2   7
TORSDOF 6
ENDMDL
MODEL 8
REMARK VINA RESULT:    -4.734      2.911      6.121
REMARK INTER + INTRA:          -6.570
REMARK INTER:                  -6.314
REMARK INTRA:                  -0.257
REMARK UNBOUND:                -0.314
REMARK SMILES CCCCC=CC=CCO
REMARK SMILES IDX 5 1 6 2 4 3 3 4 2 5 1 6 7 7 8 8 9 9 10 10
REMARK H PARENT 10 11
REMARK Flexibility Score: inf
ROOT
ATOM      1  C   UNL     1      19.987   1.590 -16.678  1.00  0.00    -0.027 C 
ATOM      2  C   UNL     1      19.619   0.911 -15.589  1.00  0.00    -0.005 C 
ENDROOT
BRANCH   1   3
ATOM      3  C   UNL     1      21.429   1.903 -16.959  1.00  0.00     0.027 C 
BRANCH   3   4
ATOM      4  C   UNL     1      22.361   1.094 -16.050  1.00  0.00     0.004 C 
BRANCH   4   5
ATOM      5  C   UNL     1      23.436   0.371 -16.870  1.00  0.00    -0.003 C 
ATOM      6  C   UNL     1      24.412  -0.375 -15.964  1.00  0.00     0.004 C 
ENDBRANCH   4   5
ENDBRANCH   3   4
ENDBRANCH   1   3
BRANCH   2   7
ATOM      7  C   UNL     1      18.202   0.622 -15.318  1.00  0.00    -0.002 C 
ATOM      8  C   UNL     1      17.281   0.737 -16.278  1.00  0.00     0.001 C 
BRANCH   8   9
ATOM      9  C   UNL     1      15.836   0.436 -16.015  1.00  0.00     0.183 C 
BRANCH   9  10
ATOM     10  O   UNL     1      15.052   0.812 -17.115  1.00  0.00    -0.392 OA
ATOM     11  H   UNL     1      14.246   0.233 -17.105  1.00  0.00     0.210 HD
ENDBRANCH   9  10
ENDBRANCH   8   9
ENDBRANCH   2   7
TORSDOF 6
ENDMDL
MODEL 9
REMARK VINA RESULT:    -4.724     11.412     11.949
REMARK INTER + INTRA:          -6.557
REMARK INTER:                  -6.281
REMARK INTRA:                  -0.276
REMARK UNBOUND:                -0.314
REMARK SMILES CCCCC=CC=CCO
REMARK SMILES IDX 5 1 6 2 4 3 3 4 2 5 1 6 7 7 8 8 9 9 10 10
REMARK H PARENT 10 11
REMARK Flexibility Score: inf
ROOT
ATOM      1  C   UNL     1      20.908  -3.448 -27.562  1.00  0.00    -0.027 C 
ATOM      2  C   UNL     1      21.892  -2.561 -27.395  1.00  0.00    -0.005 C 
ENDROOT
BRANCH   1   3
ATOM      3  C   UNL     1      19.958  -3.358 -28.722  1.00  0.00     0.027 C 
BRANCH   3   4
ATOM      4  C   UNL     1      18.508  -3.572 -28.271  1.00  0.00     0.004 C 
BRANCH   4   5
ATOM      5  C   UNL     1      18.402  -4.766 -27.314  1.00  0.00    -0.003 C 
ATOM      6  C   UNL     1      17.046  -5.456 -27.443  1.00  0.00     0.004 C 
ENDBRANCH   4   5
ENDBRANCH   3   4
ENDBRANCH   1   3
BRANCH   2   7
ATOM      7  C   UNL     1      22.808  -2.653 -26.246  1.00  0.00    -0.002 C 
ATOM      8  C   UNL     1      22.723  -3.663 -25.378  1.00  0.00     0.001 C 
BRANCH   8   9
ATOM      9  C   UNL     1      23.657  -3.771 -24.210  1.00  0.00     0.183 C 
BRANCH   9  10
ATOM     10  O   UNL     1      23.441  -4.973 -23.522  1.00  0.00    -0.392 OA
ATOM     11  H   UNL     1      24.223  -5.109 -22.926  1.00  0.00     0.210 HD
ENDBRANCH   9  10
ENDBRANCH   8   9
ENDBRANCH   2   7
TORSDOF 6
ENDMDL
