MODEL 1
REMARK VINA RESULT:    -6.630      0.000      0.000
REMARK INTER + INTRA:          -8.411
REMARK INTER:                  -7.987
REMARK INTRA:                  -0.424
REMARK UNBOUND:                -0.424
REMARK SMILES O=c1c(O)c(-c2ccc(O)cc2O)oc2cc(O)cc(O)c12
REMARK SMILES IDX 5 1 3 2 2 3 1 4 22 5 20 6 19 7 17 8 16 9 15 10 14 11 6 12
REMARK SMILES IDX 8 13 7 14 9 15 11 16 12 17 10 18 13 20 4 22 21 24 18 26
REMARK H PARENT 10 19 13 21 4 23 21 25 18 27
REMARK Flexibility Score: inf
ROOT
ATOM      1  C   UNL     1     -96.561  81.976 208.404  1.00  0.00     0.184 A 
ATOM      2  C   UNL     1     -95.862  81.227 207.442  1.00  0.00     0.208 A 
ATOM      3  C   UNL     1     -96.192  79.875 207.264  1.00  0.00     0.238 A 
ATOM      4  O   UNL     1     -95.564  79.190 206.411  1.00  0.00    -0.285 OA
ATOM      5  C   UNL     1     -97.224  79.303 208.037  1.00  0.00     0.111 A 
ATOM      6  C   UNL     1     -97.620  77.950 207.917  1.00  0.00     0.134 A 
ATOM      7  C   UNL     1     -98.663  77.457 208.716  1.00  0.00     0.093 A 
ATOM      8  C   UNL     1     -99.317  78.290 209.628  1.00  0.00     0.123 A 
ATOM      9  C   UNL     1     -98.930  79.627 209.751  1.00  0.00     0.094 A 
ATOM     10  C   UNL     1     -97.891  80.137 208.965  1.00  0.00     0.146 A 
ATOM     11  O   UNL     1     -97.539  81.411 209.104  1.00  0.00    -0.451 OA
ENDROOT
BRANCH   1  12
ATOM     12  C   UNL     1     -96.256  83.402 208.650  1.00  0.00     0.063 A 
ATOM     13  C   UNL     1     -96.517  85.725 207.984  1.00  0.00     0.047 A 
ATOM     14  C   UNL     1     -96.781  84.369 207.778  1.00  0.00     0.020 A 
ATOM     15  C   UNL     1     -95.737  86.133 209.074  1.00  0.00     0.119 A 
ATOM     16  C   UNL     1     -95.231  85.178 209.961  1.00  0.00     0.093 A 
ATOM     17  C   UNL     1     -95.495  83.814 209.763  1.00  0.00     0.130 A 
BRANCH  15  18
ATOM     18  O   UNL     1     -95.465  87.481 209.287  1.00  0.00    -0.508 OA
ATOM     19  H   UNL     1     -94.891  87.790 210.065  1.00  0.00     0.293 HD
ENDBRANCH  15  18
BRANCH  17  20
ATOM     20  O   UNL     1     -95.025  82.877 210.683  1.00  0.00    -0.507 OA
ATOM     21  H   UNL     1     -94.237  82.275 210.473  1.00  0.00     0.293 HD
ENDBRANCH  17  20
ENDBRANCH   1  12
BRANCH   2  22
ATOM     22  O   UNL     1     -94.875  81.835 206.661  1.00  0.00    -0.502 OA
ATOM     23  H   UNL     1     -94.311  81.315 206.000  1.00  0.00     0.293 HD
ENDBRANCH   2  22
BRANCH   6  24
ATOM     24  O   UNL     1     -96.988  77.093 207.015  1.00  0.00    -0.507 OA
ATOM     25  H   UNL     1     -96.014  76.833 207.120  1.00  0.00     0.293 HD
ENDBRANCH   6  24
BRANCH   8  26
ATOM     26  O   UNL     1    -100.350  77.776 210.408  1.00  0.00    -0.508 OA
ATOM     27  H   UNL     1    -101.322  77.898 210.147  1.00  0.00     0.293 HD
ENDBRANCH   8  26
TORSDOF 6
ENDMDL
MODEL 2
REMARK VINA RESULT:    -6.616      1.908      3.219
REMARK INTER + INTRA:          -8.393
REMARK INTER:                  -8.021
REMARK INTRA:                  -0.373
REMARK UNBOUND:                -0.424
REMARK SMILES O=c1c(O)c(-c2ccc(O)cc2O)oc2cc(O)cc(O)c12
REMARK SMILES IDX 5 1 3 2 2 3 1 4 22 5 20 6 19 7 17 8 16 9 15 10 14 11 6 12
REMARK SMILES IDX 8 13 7 14 9 15 11 16 12 17 10 18 13 20 4 22 21 24 18 26
REMARK H PARENT 10 19 13 21 4 23 21 25 18 27
REMARK Flexibility Score: inf
ROOT
ATOM      1  C   UNL     1     -96.540  83.141 207.965  1.00  0.00     0.184 A 
ATOM      2  C   UNL     1     -96.382  82.502 209.208  1.00  0.00     0.208 A 
ATOM      3  C   UNL     1     -96.577  81.115 209.287  1.00  0.00     0.238 A 
ATOM      4  O   UNL     1     -96.449  80.533 210.398  1.00  0.00    -0.285 OA
ATOM      5  C   UNL     1     -96.909  80.391 208.123  1.00  0.00     0.111 A 
ATOM      6  C   UNL     1     -97.119  78.992 208.115  1.00  0.00     0.134 A 
ATOM      7  C   UNL     1     -97.437  78.343 206.913  1.00  0.00     0.093 A 
ATOM      8  C   UNL     1     -97.546  79.063 205.721  1.00  0.00     0.123 A 
ATOM      9  C   UNL     1     -97.339  80.445 205.722  1.00  0.00     0.094 A 
ATOM     10  C   UNL     1     -97.024  81.112 206.910  1.00  0.00     0.146 A 
ATOM     11  O   UNL     1     -96.836  82.427 206.884  1.00  0.00    -0.451 OA
ENDROOT
BRANCH   1  12
ATOM     12  C   UNL     1     -96.360  84.600 207.814  1.00  0.00     0.063 A 
ATOM     13  C   UNL     1     -94.879  86.527 207.879  1.00  0.00     0.047 A 
ATOM     14  C   UNL     1     -95.085  85.153 208.019  1.00  0.00     0.020 A 
ATOM     15  C   UNL     1     -95.941  87.365 207.518  1.00  0.00     0.119 A 
ATOM     16  C   UNL     1     -97.208  86.820 207.289  1.00  0.00     0.093 A 
ATOM     17  C   UNL     1     -97.422  85.440 207.423  1.00  0.00     0.130 A 
BRANCH  15  18
ATOM     18  O   UNL     1     -95.747  88.737 207.379  1.00  0.00    -0.508 OA
ATOM     19  H   UNL     1     -96.043  89.233 206.545  1.00  0.00     0.293 HD
ENDBRANCH  15  18
BRANCH  17  20
ATOM     20  O   UNL     1     -98.679  84.904 207.143  1.00  0.00    -0.507 OA
ATOM     21  H   UNL     1     -99.383  84.794 207.864  1.00  0.00     0.293 HD
ENDBRANCH  17  20
ENDBRANCH   1  12
BRANCH   2  22
ATOM     22  O   UNL     1     -96.009  83.241 210.334  1.00  0.00    -0.502 OA
ATOM     23  H   UNL     1     -96.013  82.846 211.267  1.00  0.00     0.293 HD
ENDBRANCH   2  22
BRANCH   6  24
ATOM     24  O   UNL     1     -97.017  78.244 209.289  1.00  0.00    -0.507 OA
ATOM     25  H   UNL     1     -96.736  77.270 209.277  1.00  0.00     0.293 HD
ENDBRANCH   6  24
BRANCH   8  26
ATOM     26  O   UNL     1     -97.861  78.393 204.541  1.00  0.00    -0.508 OA
ATOM     27  H   UNL     1     -97.154  78.184 203.845  1.00  0.00     0.293 HD
ENDBRANCH   8  26
TORSDOF 6
ENDMDL
MODEL 3
REMARK VINA RESULT:    -6.531      1.910      6.944
REMARK INTER + INTRA:          -8.291
REMARK INTER:                  -7.894
REMARK INTRA:                  -0.397
REMARK UNBOUND:                -0.424
REMARK SMILES O=c1c(O)c(-c2ccc(O)cc2O)oc2cc(O)cc(O)c12
REMARK SMILES IDX 5 1 3 2 2 3 1 4 22 5 20 6 19 7 17 8 16 9 15 10 14 11 6 12
REMARK SMILES IDX 8 13 7 14 9 15 11 16 12 17 10 18 13 20 4 22 21 24 18 26
REMARK H PARENT 10 19 13 21 4 23 21 25 18 27
REMARK Flexibility Score: inf
ROOT
ATOM      1  C   UNL     1     -96.828  83.053 208.010  1.00  0.00     0.184 A 
ATOM      2  C   UNL     1     -96.005  83.719 208.934  1.00  0.00     0.208 A 
ATOM      3  C   UNL     1     -96.093  85.116 209.036  1.00  0.00     0.238 A 
ATOM      4  O   UNL     1     -95.352  85.726 209.854  1.00  0.00    -0.285 OA
ATOM      5  C   UNL     1     -97.012  85.816 208.227  1.00  0.00     0.111 A 
ATOM      6  C   UNL     1     -97.165  87.223 208.270  1.00  0.00     0.134 A 
ATOM      7  C   UNL     1     -98.109  87.845 207.440  1.00  0.00     0.093 A 
ATOM      8  C   UNL     1     -98.902  87.091 206.571  1.00  0.00     0.123 A 
ATOM      9  C   UNL     1     -98.755  85.702 206.524  1.00  0.00     0.094 A 
ATOM     10  C   UNL     1     -97.818  85.062 207.342  1.00  0.00     0.146 A 
ATOM     11  O   UNL     1     -97.695  83.741 207.274  1.00  0.00    -0.451 OA
ENDROOT
BRANCH   1  12
ATOM     12  C   UNL     1     -96.778  81.585 207.844  1.00  0.00     0.063 A 
ATOM     13  C   UNL     1     -97.738  79.406 208.336  1.00  0.00     0.047 A 
ATOM     14  C   UNL     1     -97.753  80.795 208.476  1.00  0.00     0.020 A 
ATOM     15  C   UNL     1     -96.757  78.788 207.549  1.00  0.00     0.119 A 
ATOM     16  C   UNL     1     -95.797  79.568 206.898  1.00  0.00     0.093 A 
ATOM     17  C   UNL     1     -95.808  80.965 207.029  1.00  0.00     0.130 A 
BRANCH  15  18
ATOM     18  O   UNL     1     -96.731  77.403 207.406  1.00  0.00    -0.508 OA
ATOM     19  H   UNL     1     -97.244  76.937 206.665  1.00  0.00     0.293 HD
ENDBRANCH  15  18
BRANCH  17  20
ATOM     20  O   UNL     1     -94.875  81.734 206.334  1.00  0.00    -0.507 OA
ATOM     21  H   UNL     1     -94.250  81.323 205.650  1.00  0.00     0.293 HD
ENDBRANCH  17  20
ENDBRANCH   1  12
BRANCH   2  22
ATOM     22  O   UNL     1     -95.137  82.992 209.753  1.00  0.00    -0.502 OA
ATOM     23  H   UNL     1     -94.291  83.395 210.138  1.00  0.00     0.293 HD
ENDBRANCH   2  22
BRANCH   6  24
ATOM     24  O   UNL     1     -96.390  88.004 209.128  1.00  0.00    -0.507 OA
ATOM     25  H   UNL     1     -96.465  89.015 209.143  1.00  0.00     0.293 HD
ENDBRANCH   6  24
BRANCH   8  26
ATOM     26  O   UNL     1     -99.832  87.734 205.758  1.00  0.00    -0.508 OA
ATOM     27  H   UNL     1    -100.746  87.333 205.579  1.00  0.00     0.293 HD
ENDBRANCH   8  26
TORSDOF 6
ENDMDL
MODEL 4
REMARK VINA RESULT:    -6.377      2.553      4.783
REMARK INTER + INTRA:          -8.106
REMARK INTER:                  -7.700
REMARK INTRA:                  -0.406
REMARK UNBOUND:                -0.424
REMARK SMILES O=c1c(O)c(-c2ccc(O)cc2O)oc2cc(O)cc(O)c12
REMARK SMILES IDX 5 1 3 2 2 3 1 4 22 5 20 6 19 7 17 8 16 9 15 10 14 11 6 12
REMARK SMILES IDX 8 13 7 14 9 15 11 16 12 17 10 18 13 20 4 22 21 24 18 26
REMARK H PARENT 10 19 13 21 4 23 21 25 18 27
REMARK Flexibility Score: inf
ROOT
ATOM      1  C   UNL     1     -96.466  86.027 208.468  1.00  0.00     0.184 A 
ATOM      2  C   UNL     1     -95.662  85.506 209.498  1.00  0.00     0.208 A 
ATOM      3  C   UNL     1     -95.607  84.116 209.676  1.00  0.00     0.238 A 
ATOM      4  O   UNL     1     -94.898  83.638 210.604  1.00  0.00    -0.285 OA
ATOM      5  C   UNL     1     -96.339  83.273 208.815  1.00  0.00     0.111 A 
ATOM      6  C   UNL     1     -96.335  81.862 208.925  1.00  0.00     0.134 A 
ATOM      7  C   UNL     1     -97.083  81.092 208.022  1.00  0.00     0.093 A 
ATOM      8  C   UNL     1     -97.831  81.703 207.013  1.00  0.00     0.123 A 
ATOM      9  C   UNL     1     -97.839  83.096 206.899  1.00  0.00     0.094 A 
ATOM     10  C   UNL     1     -97.102  83.882 207.790  1.00  0.00     0.146 A 
ATOM     11  O   UNL     1     -97.130  85.204 207.663  1.00  0.00    -0.451 OA
ENDROOT
BRANCH   1  12
ATOM     12  C   UNL     1     -96.578  87.481 208.231  1.00  0.00     0.063 A 
ATOM     13  C   UNL     1     -97.571  89.614 208.844  1.00  0.00     0.047 A 
ATOM     14  C   UNL     1     -97.444  88.237 209.038  1.00  0.00     0.020 A 
ATOM     15  C   UNL     1     -96.821  90.257 207.851  1.00  0.00     0.119 A 
ATOM     16  C   UNL     1     -95.938  89.517 207.060  1.00  0.00     0.093 A 
ATOM     17  C   UNL     1     -95.802  88.134 207.251  1.00  0.00     0.130 A 
BRANCH  15  18
ATOM     18  O   UNL     1     -96.941  91.629 207.648  1.00  0.00    -0.508 OA
ATOM     19  H   UNL     1     -97.480  92.006 206.875  1.00  0.00     0.293 HD
ENDBRANCH  15  18
BRANCH  17  20
ATOM     20  O   UNL     1     -94.882  87.415 206.488  1.00  0.00    -0.507 OA
ATOM     21  H   UNL     1     -95.176  86.804 205.736  1.00  0.00     0.293 HD
ENDBRANCH  17  20
ENDBRANCH   1  12
BRANCH   2  22
ATOM     22  O   UNL     1     -94.914  86.366 210.306  1.00  0.00    -0.502 OA
ATOM     23  H   UNL     1     -93.931  86.211 210.496  1.00  0.00     0.293 HD
ENDBRANCH   2  22
BRANCH   6  24
ATOM     24  O   UNL     1     -95.597  81.221 209.922  1.00  0.00    -0.507 OA
ATOM     25  H   UNL     1     -94.660  80.874 209.750  1.00  0.00     0.293 HD
ENDBRANCH   6  24
BRANCH   8  26
ATOM     26  O   UNL     1     -98.564  80.914 206.129  1.00  0.00    -0.508 OA
ATOM     27  H   UNL     1     -98.125  80.455 205.339  1.00  0.00     0.293 HD
ENDBRANCH   8  26
TORSDOF 6
ENDMDL
MODEL 5
REMARK VINA RESULT:    -6.281      2.416      4.151
REMARK INTER + INTRA:          -7.990
REMARK INTER:                  -7.813
REMARK INTRA:                  -0.177
REMARK UNBOUND:                -0.424
REMARK SMILES O=c1c(O)c(-c2ccc(O)cc2O)oc2cc(O)cc(O)c12
REMARK SMILES IDX 5 1 3 2 2 3 1 4 22 5 20 6 19 7 17 8 16 9 15 10 14 11 6 12
REMARK SMILES IDX 8 13 7 14 9 15 11 16 12 17 10 18 13 20 4 22 21 24 18 26
REMARK H PARENT 10 19 13 21 4 23 21 25 18 27
REMARK Flexibility Score: inf
ROOT
ATOM      1  C   UNL     1     -96.968  84.876 207.948  1.00  0.00     0.184 A 
ATOM      2  C   UNL     1     -96.213  84.537 209.084  1.00  0.00     0.208 A 
ATOM      3  C   UNL     1     -96.021  83.181 209.389  1.00  0.00     0.238 A 
ATOM      4  O   UNL     1     -95.355  82.864 210.413  1.00  0.00    -0.285 OA
ATOM      5  C   UNL     1     -96.569  82.192 208.546  1.00  0.00     0.111 A 
ATOM      6  C   UNL     1     -96.419  80.805 208.781  1.00  0.00     0.134 A 
ATOM      7  C   UNL     1     -96.988  79.883 207.889  1.00  0.00     0.093 A 
ATOM      8  C   UNL     1     -97.700  80.320 206.769  1.00  0.00     0.123 A 
ATOM      9  C   UNL     1     -97.852  81.690 206.533  1.00  0.00     0.094 A 
ATOM     10  C   UNL     1     -97.295  82.625 207.411  1.00  0.00     0.146 A 
ATOM     11  O   UNL     1     -97.457  83.920 207.165  1.00  0.00    -0.451 OA
ENDROOT
BRANCH   1  12
ATOM     12  C   UNL     1     -97.218  86.284 207.575  1.00  0.00     0.063 A 
ATOM     13  C   UNL     1     -96.333  88.508 207.149  1.00  0.00     0.047 A 
ATOM     14  C   UNL     1     -96.133  87.172 207.503  1.00  0.00     0.020 A 
ATOM     15  C   UNL     1     -97.620  88.971 206.847  1.00  0.00     0.119 A 
ATOM     16  C   UNL     1     -98.703  88.088 206.893  1.00  0.00     0.093 A 
ATOM     17  C   UNL     1     -98.510  86.744 207.243  1.00  0.00     0.130 A 
BRANCH  15  18
ATOM     18  O   UNL     1     -97.832  90.302 206.496  1.00  0.00    -0.508 OA
ATOM     19  H   UNL     1     -97.395  90.710 205.677  1.00  0.00     0.293 HD
ENDBRANCH  15  18
BRANCH  17  20
ATOM     20  O   UNL     1     -99.591  85.863 207.237  1.00  0.00    -0.507 OA
ATOM     21  H   UNL     1     -99.934  85.447 206.379  1.00  0.00     0.293 HD
ENDBRANCH  17  20
ENDBRANCH   1  12
BRANCH   2  22
ATOM     22  O   UNL     1     -95.645  85.539 209.874  1.00  0.00    -0.502 OA
ATOM     23  H   UNL     1     -95.525  85.437 210.875  1.00  0.00     0.293 HD
ENDBRANCH   2  22
BRANCH   6  24
ATOM     24  O   UNL     1     -95.713  80.336 209.889  1.00  0.00    -0.507 OA
ATOM     25  H   UNL     1     -95.964  79.471 210.354  1.00  0.00     0.293 HD
ENDBRANCH   6  24
BRANCH   8  26
ATOM     26  O   UNL     1     -98.253  79.384 205.899  1.00  0.00    -0.508 OA
ATOM     27  H   UNL     1     -99.248  79.364 205.705  1.00  0.00     0.293 HD
ENDBRANCH   8  26
TORSDOF 6
ENDMDL
MODEL 6
REMARK VINA RESULT:    -6.212      2.409      6.761
REMARK INTER + INTRA:          -7.907
REMARK INTER:                  -7.495
REMARK INTRA:                  -0.412
REMARK UNBOUND:                -0.424
REMARK SMILES O=c1c(O)c(-c2ccc(O)cc2O)oc2cc(O)cc(O)c12
REMARK SMILES IDX 5 1 3 2 2 3 1 4 22 5 20 6 19 7 17 8 16 9 15 10 14 11 6 12
REMARK SMILES IDX 8 13 7 14 9 15 11 16 12 17 10 18 13 20 4 22 21 24 18 26
REMARK H PARENT 10 19 13 21 4 23 21 25 18 27
REMARK Flexibility Score: inf
ROOT
ATOM      1  C   UNL     1     -97.125  82.877 207.775  1.00  0.00     0.184 A 
ATOM      2  C   UNL     1     -98.163  82.966 206.829  1.00  0.00     0.208 A 
ATOM      3  C   UNL     1     -98.696  84.228 206.525  1.00  0.00     0.238 A 
ATOM      4  O   UNL     1     -99.634  84.318 205.687  1.00  0.00    -0.285 OA
ATOM      5  C   UNL     1     -98.173  85.375 207.156  1.00  0.00     0.111 A 
ATOM      6  C   UNL     1     -98.652  86.683 206.903  1.00  0.00     0.134 A 
ATOM      7  C   UNL     1     -98.072  87.776 207.565  1.00  0.00     0.093 A 
ATOM      8  C   UNL     1     -97.024  87.588 208.469  1.00  0.00     0.123 A 
ATOM      9  C   UNL     1     -96.547  86.299 208.723  1.00  0.00     0.094 A 
ATOM     10  C   UNL     1     -97.113  85.195 208.076  1.00  0.00     0.146 A 
ATOM     11  O   UNL     1     -96.644  83.981 208.338  1.00  0.00    -0.451 OA
ENDROOT
BRANCH   1  12
ATOM     12  C   UNL     1     -96.526  81.580 208.149  1.00  0.00     0.063 A 
ATOM     13  C   UNL     1     -96.565  79.607 209.569  1.00  0.00     0.047 A 
ATOM     14  C   UNL     1     -97.104  80.839 209.193  1.00  0.00     0.020 A 
ATOM     15  C   UNL     1     -95.450  79.091 208.896  1.00  0.00     0.119 A 
ATOM     16  C   UNL     1     -94.883  79.810 207.841  1.00  0.00     0.093 A 
ATOM     17  C   UNL     1     -95.420  81.047 207.454  1.00  0.00     0.130 A 
BRANCH  15  18
ATOM     18  O   UNL     1     -94.903  77.865 209.265  1.00  0.00    -0.508 OA
ATOM     19  H   UNL     1     -95.483  77.108 209.610  1.00  0.00     0.293 HD
ENDBRANCH  15  18
BRANCH  17  20
ATOM     20  O   UNL     1     -94.875  81.731 206.367  1.00  0.00    -0.507 OA
ATOM     21  H   UNL     1     -95.112  81.488 205.412  1.00  0.00     0.293 HD
ENDBRANCH  17  20
ENDBRANCH   1  12
BRANCH   2  22
ATOM     22  O   UNL     1     -98.628  81.815 206.189  1.00  0.00    -0.502 OA
ATOM     23  H   UNL     1     -99.313  81.849 205.443  1.00  0.00     0.293 HD
ENDBRANCH   2  22
BRANCH   6  24
ATOM     24  O   UNL     1     -99.696  86.905 206.004  1.00  0.00    -0.507 OA
ATOM     25  H   UNL     1    -100.562  86.380 206.053  1.00  0.00     0.293 HD
ENDBRANCH   6  24
BRANCH   8  26
ATOM     26  O   UNL     1     -96.465  88.690 209.111  1.00  0.00    -0.508 OA
ATOM     27  H   UNL     1     -95.477  88.901 209.038  1.00  0.00     0.293 HD
ENDBRANCH   8  26
TORSDOF 6
ENDMDL
MODEL 7
REMARK VINA RESULT:    -6.019      4.302      7.106
REMARK INTER + INTRA:          -7.674
REMARK INTER:                  -7.246
REMARK INTRA:                  -0.427
REMARK UNBOUND:                -0.424
REMARK SMILES O=c1c(O)c(-c2ccc(O)cc2O)oc2cc(O)cc(O)c12
REMARK SMILES IDX 5 1 3 2 2 3 1 4 22 5 20 6 19 7 17 8 16 9 15 10 14 11 6 12
REMARK SMILES IDX 8 13 7 14 9 15 11 16 12 17 10 18 13 20 4 22 21 24 18 26
REMARK H PARENT 10 19 13 21 4 23 21 25 18 27
REMARK Flexibility Score: inf
ROOT
ATOM      1  C   UNL     1     -98.818  86.007 206.330  1.00  0.00     0.184 A 
ATOM      2  C   UNL     1     -98.414  87.086 207.135  1.00  0.00     0.208 A 
ATOM      3  C   UNL     1     -97.487  86.855 208.163  1.00  0.00     0.238 A 
ATOM      4  O   UNL     1     -97.125  87.814 208.898  1.00  0.00    -0.285 OA
ATOM      5  C   UNL     1     -96.970  85.558 208.356  1.00  0.00     0.111 A 
ATOM      6  C   UNL     1     -96.030  85.241 209.366  1.00  0.00     0.134 A 
ATOM      7  C   UNL     1     -95.556  83.926 209.488  1.00  0.00     0.093 A 
ATOM      8  C   UNL     1     -95.999  82.925 208.620  1.00  0.00     0.123 A 
ATOM      9  C   UNL     1     -96.927  83.232 207.620  1.00  0.00     0.094 A 
ATOM     10  C   UNL     1     -97.415  84.535 207.484  1.00  0.00     0.146 A 
ATOM     11  O   UNL     1     -98.299  84.799 206.528  1.00  0.00    -0.451 OA
ENDROOT
BRANCH   1  12
ATOM     12  C   UNL     1     -99.799  86.178 205.238  1.00  0.00     0.063 A 
ATOM     13  C   UNL     1    -100.285  86.961 202.989  1.00  0.00     0.047 A 
ATOM     14  C   UNL     1     -99.386  86.788 204.043  1.00  0.00     0.020 A 
ATOM     15  C   UNL     1    -101.607  86.512 203.110  1.00  0.00     0.119 A 
ATOM     16  C   UNL     1    -102.020  85.881 204.287  1.00  0.00     0.093 A 
ATOM     17  C   UNL     1    -101.121  85.699 205.349  1.00  0.00     0.130 A 
BRANCH  15  18
ATOM     18  O   UNL     1    -102.513  86.682 202.066  1.00  0.00    -0.508 OA
ATOM     19  H   UNL     1    -103.507  86.780 202.239  1.00  0.00     0.293 HD
ENDBRANCH  15  18
BRANCH  17  20
ATOM     20  O   UNL     1    -101.533  85.025 206.498  1.00  0.00    -0.507 OA
ATOM     21  H   UNL     1    -102.475  85.116 206.860  1.00  0.00     0.293 HD
ENDBRANCH  17  20
ENDBRANCH   1  12
BRANCH   2  22
ATOM     22  O   UNL     1     -98.910  88.368 206.890  1.00  0.00    -0.502 OA
ATOM     23  H   UNL     1     -99.577  88.818 207.506  1.00  0.00     0.293 HD
ENDBRANCH   2  22
BRANCH   6  24
ATOM     24  O   UNL     1     -95.567  86.219 210.248  1.00  0.00    -0.507 OA
ATOM     25  H   UNL     1     -95.044  85.978 211.082  1.00  0.00     0.293 HD
ENDBRANCH   6  24
BRANCH   8  26
ATOM     26  O   UNL     1     -95.511  81.628 208.761  1.00  0.00    -0.508 OA
ATOM     27  H   UNL     1     -95.221  81.081 207.959  1.00  0.00     0.293 HD
ENDBRANCH   8  26
TORSDOF 6
ENDMDL
MODEL 8
REMARK VINA RESULT:    -5.842      3.078      5.061
REMARK INTER + INTRA:          -7.461
REMARK INTER:                  -7.127
REMARK INTRA:                  -0.334
REMARK UNBOUND:                -0.424
REMARK SMILES O=c1c(O)c(-c2ccc(O)cc2O)oc2cc(O)cc(O)c12
REMARK SMILES IDX 5 1 3 2 2 3 1 4 22 5 20 6 19 7 17 8 16 9 15 10 14 11 6 12
REMARK SMILES IDX 8 13 7 14 9 15 11 16 12 17 10 18 13 20 4 22 21 24 18 26
REMARK H PARENT 10 19 13 21 4 23 21 25 18 27
REMARK Flexibility Score: inf
ROOT
ATOM      1  C   UNL     1     -97.656  86.220 207.237  1.00  0.00     0.184 A 
ATOM      2  C   UNL     1     -98.795  85.726 206.577  1.00  0.00     0.208 A 
ATOM      3  C   UNL     1     -98.927  84.341 206.399  1.00  0.00     0.238 A 
ATOM      4  O   UNL     1     -99.939  83.887 205.799  1.00  0.00    -0.285 OA
ATOM      5  C   UNL     1     -97.931  83.476 206.897  1.00  0.00     0.111 A 
ATOM      6  C   UNL     1     -97.989  82.069 206.762  1.00  0.00     0.134 A 
ATOM      7  C   UNL     1     -96.962  81.275 207.294  1.00  0.00     0.093 A 
ATOM      8  C   UNL     1     -95.881  81.860 207.959  1.00  0.00     0.123 A 
ATOM      9  C   UNL     1     -95.817  83.250 208.095  1.00  0.00     0.094 A 
ATOM     10  C   UNL     1     -96.830  84.059 207.569  1.00  0.00     0.146 A 
ATOM     11  O   UNL     1     -96.743  85.377 207.709  1.00  0.00    -0.451 OA
ENDROOT
BRANCH   1  12
ATOM     12  C   UNL     1     -97.448  87.668 207.448  1.00  0.00     0.063 A 
ATOM     13  C   UNL     1     -97.187  89.889 206.495  1.00  0.00     0.047 A 
ATOM     14  C   UNL     1     -97.377  88.516 206.331  1.00  0.00     0.020 A 
ATOM     15  C   UNL     1     -97.080  90.436 207.781  1.00  0.00     0.119 A 
ATOM     16  C   UNL     1     -97.174  89.603 208.899  1.00  0.00     0.093 A 
ATOM     17  C   UNL     1     -97.370  88.223 208.743  1.00  0.00     0.130 A 
BRANCH  15  18
ATOM     18  O   UNL     1     -96.887  91.804 207.956  1.00  0.00    -0.508 OA
ATOM     19  H   UNL     1     -96.576  92.186 208.842  1.00  0.00     0.293 HD
ENDBRANCH  15  18
BRANCH  17  20
ATOM     20  O   UNL     1     -97.511  87.411 209.868  1.00  0.00    -0.507 OA
ATOM     21  H   UNL     1     -97.524  86.400 209.796  1.00  0.00     0.293 HD
ENDBRANCH  17  20
ENDBRANCH   1  12
BRANCH   2  22
ATOM     22  O   UNL     1     -99.786  86.606 206.135  1.00  0.00    -0.502 OA
ATOM     23  H   UNL     1    -100.507  86.964 206.750  1.00  0.00     0.293 HD
ENDBRANCH   2  22
BRANCH   6  24
ATOM     24  O   UNL     1     -99.057  81.454 206.105  1.00  0.00    -0.507 OA
ATOM     25  H   UNL     1     -99.858  81.982 205.781  1.00  0.00     0.293 HD
ENDBRANCH   6  24
BRANCH   8  26
ATOM     26  O   UNL     1     -94.875  81.049 208.479  1.00  0.00    -0.508 OA
ATOM     27  H   UNL     1     -94.427  81.262 209.363  1.00  0.00     0.293 HD
ENDBRANCH   8  26
TORSDOF 6
ENDMDL
