MODEL 1
REMARK VINA RESULT:    -6.988      0.000      0.000
REMARK INTER + INTRA:          -6.988
REMARK INTER:                  -6.988
REMARK INTRA:                   0.000
REMARK UNBOUND:                 0.000
REMARK SMILES C[NH+]1CCN(C2=[NH+]c3ccccc3Oc3ccc(Cl)cc32)CC1
REMARK SMILES IDX 7 1 6 2 21 3 5 4 8 5 9 6 13 7 10 8 12 9 14 10 11 11 15 12
REMARK SMILES IDX 16 13 17 14 18 15 20 16 19 17 4 18 22 19 3 20 23 21 2 22
REMARK SMILES IDX 1 23
REMARK H PARENT 7 24 2 25
REMARK Flexibility Score: inf
ROOT
ATOM      1  N   UNL     1     101.774 110.250 111.831  1.00  0.00    -0.237 N 
ATOM      2  C   UNL     1     101.769 111.545 111.653  1.00  0.00     0.286 C 
ATOM      3  C   UNL     1     100.976 112.227 110.597  1.00  0.00     0.108 A 
ATOM      4  N   UNL     1     102.613 112.363 112.487  1.00  0.00    -0.250 N 
ATOM      5  C   UNL     1     101.042 109.260 111.087  1.00  0.00     0.168 A 
ATOM      6  C   UNL     1     101.621 107.987 110.929  1.00  0.00     0.056 A 
ATOM      7  C   UNL     1      99.706 109.454 110.682  1.00  0.00     0.173 A 
ATOM      8  C   UNL     1     100.892 106.933 110.375  1.00  0.00     0.005 A 
ATOM      9  C   UNL     1      98.972 108.382 110.157  1.00  0.00     0.052 A 
ATOM     10  O   UNL     1      99.073 110.690 110.777  1.00  0.00    -0.452 OA
ATOM     11  C   UNL     1      99.564 107.129 109.996  1.00  0.00     0.004 A 
ATOM     12  C   UNL     1      99.652 111.857 110.289  1.00  0.00     0.143 A 
ATOM     13  C   UNL     1      98.875 112.671 109.452  1.00  0.00     0.049 A 
ATOM     14  C   UNL     1      99.417 113.819 108.875  1.00  0.00     0.024 A 
ATOM     15  C   UNL     1     100.741 114.170 109.138  1.00  0.00     0.042 A 
ATOM     16  C   UNL     1     101.513 113.385 109.998  1.00  0.00     0.041 A 
ATOM     17  Cl  UNL     1     101.428 115.613 108.414  1.00  0.00    -0.084 Cl
ATOM     18  C   UNL     1     102.017 113.398 113.335  1.00  0.00     0.298 C 
ATOM     19  C   UNL     1     104.015 112.006 112.716  1.00  0.00     0.298 C 
ATOM     20  C   UNL     1     102.933 114.627 113.377  1.00  0.00     0.308 C 
ATOM     21  C   UNL     1     104.869 113.278 112.775  1.00  0.00     0.308 C 
ATOM     22  N   UNL     1     104.313 114.244 113.746  1.00  0.00    -0.331 N 
ATOM     23  C   UNL     1     105.167 115.441 113.811  1.00  0.00     0.332 C 
ATOM     24  H   UNL     1     102.404 109.870 112.574  1.00  0.00     0.312 HD
ATOM     25  H   UNL     1     104.304 113.806 114.699  1.00  0.00     0.348 HD
ENDROOT
TORSDOF 0
ENDMDL
MODEL 2
REMARK VINA RESULT:    -6.593      1.055      1.116
REMARK INTER + INTRA:          -6.593
REMARK INTER:                  -6.593
REMARK INTRA:                   0.000
REMARK UNBOUND:                 0.000
REMARK SMILES C[NH+]1CCN(C2=[NH+]c3ccccc3Oc3ccc(Cl)cc32)CC1
REMARK SMILES IDX 7 1 6 2 21 3 5 4 8 5 9 6 13 7 10 8 12 9 14 10 11 11 15 12
REMARK SMILES IDX 16 13 17 14 18 15 20 16 19 17 4 18 22 19 3 20 23 21 2 22
REMARK SMILES IDX 1 23
REMARK H PARENT 7 24 2 25
REMARK Flexibility Score: inf
ROOT
ATOM      1  N   UNL     1     102.137 109.491 111.694  1.00  0.00    -0.237 N 
ATOM      2  C   UNL     1     102.325 110.783 111.649  1.00  0.00     0.286 C 
ATOM      3  C   UNL     1     101.530 111.702 110.793  1.00  0.00     0.108 A 
ATOM      4  N   UNL     1     103.392 111.357 112.432  1.00  0.00    -0.250 N 
ATOM      5  C   UNL     1     101.163 108.721 110.967  1.00  0.00     0.168 A 
ATOM      6  C   UNL     1     101.497 107.404 110.600  1.00  0.00     0.056 A 
ATOM      7  C   UNL     1      99.837 109.163 110.780  1.00  0.00     0.173 A 
ATOM      8  C   UNL     1     100.539 106.549 110.053  1.00  0.00     0.005 A 
ATOM      9  C   UNL     1      98.875 108.287 110.261  1.00  0.00     0.052 A 
ATOM     10  O   UNL     1      99.436 110.459 111.089  1.00  0.00    -0.452 OA
ATOM     11  C   UNL     1      99.225 106.988 109.892  1.00  0.00     0.004 A 
ATOM     12  C   UNL     1     100.134 111.577 110.643  1.00  0.00     0.143 A 
ATOM     13  C   UNL     1      99.405 112.595 110.013  1.00  0.00     0.049 A 
ATOM     14  C   UNL     1     100.053 113.709 109.482  1.00  0.00     0.024 A 
ATOM     15  C   UNL     1     101.439 113.822 109.586  1.00  0.00     0.042 A 
ATOM     16  C   UNL     1     102.172 112.829 110.242  1.00  0.00     0.041 A 
ATOM     17  Cl  UNL     1     102.260 115.222 108.920  1.00  0.00    -0.084 Cl
ATOM     18  C   UNL     1     103.088 112.358 113.457  1.00  0.00     0.298 C 
ATOM     19  C   UNL     1     104.732 110.767 112.419  1.00  0.00     0.298 C 
ATOM     20  C   UNL     1     104.193 113.419 113.489  1.00  0.00     0.308 C 
ATOM     21  C   UNL     1     105.786 111.878 112.482  1.00  0.00     0.308 C 
ATOM     22  N   UNL     1     105.526 112.790 113.616  1.00  0.00    -0.331 N 
ATOM     23  C   UNL     1     106.569 113.828 113.677  1.00  0.00     0.332 C 
ATOM     24  H   UNL     1     102.784 108.932 112.295  1.00  0.00     0.312 HD
ATOM     25  H   UNL     1     105.565 112.246 114.511  1.00  0.00     0.348 HD
ENDROOT
TORSDOF 0
ENDMDL
MODEL 3
REMARK VINA RESULT:    -6.259     10.315     12.721
REMARK INTER + INTRA:          -6.259
REMARK INTER:                  -6.259
REMARK INTRA:                   0.000
REMARK UNBOUND:                 0.000
REMARK SMILES C[NH+]1CCN(C2=[NH+]c3ccccc3Oc3ccc(Cl)cc32)CC1
REMARK SMILES IDX 7 1 6 2 21 3 5 4 8 5 9 6 13 7 10 8 12 9 14 10 11 11 15 12
REMARK SMILES IDX 16 13 17 14 18 15 20 16 19 17 4 18 22 19 3 20 23 21 2 22
REMARK SMILES IDX 1 23
REMARK H PARENT 7 24 2 25
REMARK Flexibility Score: inf
ROOT
ATOM      1  N   UNL     1     109.584 119.552 108.249  1.00  0.00    -0.237 N 
ATOM      2  C   UNL     1     109.801 119.277 109.509  1.00  0.00     0.286 C 
ATOM      3  C   UNL     1     110.966 118.489 109.990  1.00  0.00     0.108 A 
ATOM      4  N   UNL     1     108.840 119.714 110.490  1.00  0.00    -0.250 N 
ATOM      5  C   UNL     1     110.390 119.177 107.118  1.00  0.00     0.168 A 
ATOM      6  C   UNL     1     109.744 118.945 105.891  1.00  0.00     0.056 A 
ATOM      7  C   UNL     1     111.799 119.222 107.148  1.00  0.00     0.173 A 
ATOM      8  C   UNL     1     110.479 118.753 104.719  1.00  0.00     0.005 A 
ATOM      9  C   UNL     1     112.527 119.062 105.961  1.00  0.00     0.052 A 
ATOM     10  O   UNL     1     112.512 119.417 108.327  1.00  0.00    -0.452 OA
ATOM     11  C   UNL     1     111.872 118.820 104.754  1.00  0.00     0.004 A 
ATOM     12  C   UNL     1     112.265 118.668 109.473  1.00  0.00     0.143 A 
ATOM     13  C   UNL     1     113.360 118.070 110.112  1.00  0.00     0.049 A 
ATOM     14  C   UNL     1     113.173 117.252 111.225  1.00  0.00     0.024 A 
ATOM     15  C   UNL     1     111.887 117.032 111.718  1.00  0.00     0.042 A 
ATOM     16  C   UNL     1     110.792 117.651 111.110  1.00  0.00     0.041 A 
ATOM     17  Cl  UNL     1     111.646 116.003 113.119  1.00  0.00    -0.084 Cl
ATOM     18  C   UNL     1     109.254 120.621 111.563  1.00  0.00     0.298 C 
ATOM     19  C   UNL     1     107.406 119.495 110.285  1.00  0.00     0.298 C 
ATOM     20  C   UNL     1     108.527 120.254 112.862  1.00  0.00     0.308 C 
ATOM     21  C   UNL     1     106.737 119.162 111.624  1.00  0.00     0.308 C 
ATOM     22  N   UNL     1     107.066 120.178 112.647  1.00  0.00    -0.331 N 
ATOM     23  C   UNL     1     106.386 119.856 113.913  1.00  0.00     0.332 C 
ATOM     24  H   UNL     1     108.708 120.073 108.016  1.00  0.00     0.312 HD
ATOM     25  H   UNL     1     106.716 121.113 112.326  1.00  0.00     0.348 HD
ENDROOT
TORSDOF 0
ENDMDL
MODEL 4
REMARK VINA RESULT:    -6.038      2.848      4.441
REMARK INTER + INTRA:          -6.038
REMARK INTER:                  -6.038
REMARK INTRA:                   0.000
REMARK UNBOUND:                 0.000
REMARK SMILES C[NH+]1CCN(C2=[NH+]c3ccccc3Oc3ccc(Cl)cc32)CC1
REMARK SMILES IDX 7 1 6 2 21 3 5 4 8 5 9 6 13 7 10 8 12 9 14 10 11 11 15 12
REMARK SMILES IDX 16 13 17 14 18 15 20 16 19 17 4 18 22 19 3 20 23 21 2 22
REMARK SMILES IDX 1 23
REMARK H PARENT 7 24 2 25
REMARK Flexibility Score: inf
ROOT
ATOM      1  N   UNL     1     101.656 110.659 110.695  1.00  0.00    -0.237 N 
ATOM      2  C   UNL     1     102.513 110.981 111.629  1.00  0.00     0.286 C 
ATOM      3  C   UNL     1     102.824 110.114 112.795  1.00  0.00     0.108 A 
ATOM      4  N   UNL     1     103.162 112.267 111.561  1.00  0.00    -0.250 N 
ATOM      5  C   UNL     1     100.877 109.454 110.598  1.00  0.00     0.168 A 
ATOM      6  C   UNL     1      99.607 109.531 109.999  1.00  0.00     0.056 A 
ATOM      7  C   UNL     1     101.410 108.184 110.901  1.00  0.00     0.173 A 
ATOM      8  C   UNL     1      98.878 108.375 109.715  1.00  0.00     0.005 A 
ATOM      9  C   UNL     1     100.686 107.028 110.581  1.00  0.00     0.052 A 
ATOM     10  O   UNL     1     102.646 108.026 111.520  1.00  0.00    -0.452 OA
ATOM     11  C   UNL     1      99.422 107.122 109.998  1.00  0.00     0.004 A 
ATOM     12  C   UNL     1     102.989 108.719 112.677  1.00  0.00     0.143 A 
ATOM     13  C   UNL     1     103.502 107.982 113.753  1.00  0.00     0.049 A 
ATOM     14  C   UNL     1     103.801 108.607 114.963  1.00  0.00     0.024 A 
ATOM     15  C   UNL     1     103.600 109.979 115.105  1.00  0.00     0.042 A 
ATOM     16  C   UNL     1     103.121 110.729 114.028  1.00  0.00     0.041 A 
ATOM     17  Cl  UNL     1     103.974 110.770 116.626  1.00  0.00    -0.084 Cl
ATOM     18  C   UNL     1     104.622 112.343 111.471  1.00  0.00     0.298 C 
ATOM     19  C   UNL     1     102.390 113.484 111.304  1.00  0.00     0.298 C 
ATOM     20  C   UNL     1     105.131 113.539 112.284  1.00  0.00     0.308 C 
ATOM     21  C   UNL     1     102.967 114.645 112.123  1.00  0.00     0.308 C 
ATOM     22  N   UNL     1     104.422 114.779 111.898  1.00  0.00    -0.331 N 
ATOM     23  C   UNL     1     104.948 115.919 112.667  1.00  0.00     0.332 C 
ATOM     24  H   UNL     1     101.477 111.364 109.944  1.00  0.00     0.312 HD
ATOM     25  H   UNL     1     104.597 114.972 110.882  1.00  0.00     0.348 HD
ENDROOT
TORSDOF 0
ENDMDL
MODEL 5
REMARK VINA RESULT:    -6.037      3.969      7.077
REMARK INTER + INTRA:          -6.037
REMARK INTER:                  -6.037
REMARK INTRA:                   0.000
REMARK UNBOUND:                 0.000
REMARK SMILES C[NH+]1CCN(C2=[NH+]c3ccccc3Oc3ccc(Cl)cc32)CC1
REMARK SMILES IDX 7 1 6 2 21 3 5 4 8 5 9 6 13 7 10 8 12 9 14 10 11 11 15 12
REMARK SMILES IDX 16 13 17 14 18 15 20 16 19 17 4 18 22 19 3 20 23 21 2 22
REMARK SMILES IDX 1 23
REMARK H PARENT 7 24 2 25
REMARK Flexibility Score: inf
ROOT
ATOM      1  N   UNL     1     104.550 115.532 114.349  1.00  0.00    -0.237 N 
ATOM      2  C   UNL     1     103.696 114.634 113.933  1.00  0.00     0.286 C 
ATOM      3  C   UNL     1     103.103 114.631 112.570  1.00  0.00     0.108 A 
ATOM      4  N   UNL     1     103.258 113.614 114.853  1.00  0.00    -0.250 N 
ATOM      5  C   UNL     1     105.079 116.647 113.610  1.00  0.00     0.168 A 
ATOM      6  C   UNL     1     105.403 117.818 114.318  1.00  0.00     0.056 A 
ATOM      7  C   UNL     1     105.459 116.544 112.256  1.00  0.00     0.173 A 
ATOM      8  C   UNL     1     106.082 118.867 113.695  1.00  0.00     0.005 A 
ATOM      9  C   UNL     1     106.169 117.588 111.648  1.00  0.00     0.052 A 
ATOM     10  O   UNL     1     105.149 115.431 111.481  1.00  0.00    -0.452 OA
ATOM     11  C   UNL     1     106.472 118.748 112.361  1.00  0.00     0.004 A 
ATOM     12  C   UNL     1     103.861 114.909 111.415  1.00  0.00     0.143 A 
ATOM     13  C   UNL     1     103.315 114.673 110.147  1.00  0.00     0.049 A 
ATOM     14  C   UNL     1     102.004 114.215 110.011  1.00  0.00     0.024 A 
ATOM     15  C   UNL     1     101.230 113.979 111.147  1.00  0.00     0.042 A 
ATOM     16  C   UNL     1     101.776 114.179 112.417  1.00  0.00     0.041 A 
ATOM     17  Cl  UNL     1      99.581 113.404 110.982  1.00  0.00    -0.084 Cl
ATOM     18  C   UNL     1     103.497 112.202 114.544  1.00  0.00     0.298 C 
ATOM     19  C   UNL     1     102.831 113.961 116.210  1.00  0.00     0.298 C 
ATOM     20  C   UNL     1     102.306 111.359 115.014  1.00  0.00     0.308 C 
ATOM     21  C   UNL     1     101.660 113.064 116.628  1.00  0.00     0.308 C 
ATOM     22  N   UNL     1     101.990 111.637 116.432  1.00  0.00    -0.331 N 
ATOM     23  C   UNL     1     100.865 110.794 116.871  1.00  0.00     0.332 C 
ATOM     24  H   UNL     1     104.869 115.467 115.343  1.00  0.00     0.312 HD
ATOM     25  H   UNL     1     102.821 111.392 117.024  1.00  0.00     0.348 HD
ENDROOT
TORSDOF 0
ENDMDL
MODEL 6
REMARK VINA RESULT:    -5.967      3.437      4.923
REMARK INTER + INTRA:          -5.967
REMARK INTER:                  -5.967
REMARK INTRA:                   0.000
REMARK UNBOUND:                 0.000
REMARK SMILES C[NH+]1CCN(C2=[NH+]c3ccccc3Oc3ccc(Cl)cc32)CC1
REMARK SMILES IDX 7 1 6 2 21 3 5 4 8 5 9 6 13 7 10 8 12 9 14 10 11 11 15 12
REMARK SMILES IDX 16 13 17 14 18 15 20 16 19 17 4 18 22 19 3 20 23 21 2 22
REMARK SMILES IDX 1 23
REMARK H PARENT 7 24 2 25
REMARK Flexibility Score: inf
ROOT
ATOM      1  N   UNL     1     102.471 114.659 110.047  1.00  0.00    -0.237 N 
ATOM      2  C   UNL     1     102.725 114.232 111.256  1.00  0.00     0.286 C 
ATOM      3  C   UNL     1     101.675 113.776 112.205  1.00  0.00     0.108 A 
ATOM      4  N   UNL     1     104.088 114.245 111.725  1.00  0.00    -0.250 N 
ATOM      5  C   UNL     1     101.188 114.765 109.406  1.00  0.00     0.168 A 
ATOM      6  C   UNL     1     100.998 115.796 108.468  1.00  0.00     0.056 A 
ATOM      7  C   UNL     1     100.193 113.774 109.538  1.00  0.00     0.173 A 
ATOM      8  C   UNL     1      99.843 115.847 107.684  1.00  0.00     0.005 A 
ATOM      9  C   UNL     1      99.054 113.815 108.724  1.00  0.00     0.052 A 
ATOM     10  O   UNL     1     100.294 112.740 110.464  1.00  0.00    -0.452 OA
ATOM     11  C   UNL     1      98.875 114.850 107.806  1.00  0.00     0.004 A 
ATOM     12  C   UNL     1     100.591 112.971 111.803  1.00  0.00     0.143 A 
ATOM     13  C   UNL     1      99.761 112.383 112.767  1.00  0.00     0.049 A 
ATOM     14  C   UNL     1      99.963 112.631 114.125  1.00  0.00     0.024 A 
ATOM     15  C   UNL     1     101.006 113.462 114.532  1.00  0.00     0.042 A 
ATOM     16  C   UNL     1     101.861 114.025 113.580  1.00  0.00     0.041 A 
ATOM     17  Cl  UNL     1     101.265 113.778 116.238  1.00  0.00    -0.084 Cl
ATOM     18  C   UNL     1     104.731 112.993 112.134  1.00  0.00     0.298 C 
ATOM     19  C   UNL     1     104.932 115.428 111.544  1.00  0.00     0.298 C 
ATOM     20  C   UNL     1     105.644 113.249 113.338  1.00  0.00     0.308 C 
ATOM     21  C   UNL     1     105.838 115.608 112.767  1.00  0.00     0.308 C 
ATOM     22  N   UNL     1     106.578 114.363 113.066  1.00  0.00    -0.331 N 
ATOM     23  C   UNL     1     107.466 114.570 114.222  1.00  0.00     0.332 C 
ATOM     24  H   UNL     1     103.280 115.000 109.479  1.00  0.00     0.312 HD
ATOM     25  H   UNL     1     107.179 114.115 112.243  1.00  0.00     0.348 HD
ENDROOT
TORSDOF 0
ENDMDL
MODEL 7
REMARK VINA RESULT:    -5.967      3.591      5.398
REMARK INTER + INTRA:          -5.967
REMARK INTER:                  -5.967
REMARK INTRA:                   0.000
REMARK UNBOUND:                 0.000
REMARK SMILES C[NH+]1CCN(C2=[NH+]c3ccccc3Oc3ccc(Cl)cc32)CC1
REMARK SMILES IDX 7 1 6 2 21 3 5 4 8 5 9 6 13 7 10 8 12 9 14 10 11 11 15 12
REMARK SMILES IDX 16 13 17 14 18 15 20 16 19 17 4 18 22 19 3 20 23 21 2 22
REMARK SMILES IDX 1 23
REMARK H PARENT 7 24 2 25
REMARK Flexibility Score: inf
ROOT
ATOM      1  N   UNL     1     105.197 110.306 112.337  1.00  0.00    -0.237 N 
ATOM      2  C   UNL     1     103.928 110.475 112.069  1.00  0.00     0.286 C 
ATOM      3  C   UNL     1     102.949 109.360 111.984  1.00  0.00     0.108 A 
ATOM      4  N   UNL     1     103.450 111.806 111.789  1.00  0.00    -0.250 N 
ATOM      5  C   UNL     1     105.879 109.068 112.602  1.00  0.00     0.168 A 
ATOM      6  C   UNL     1     107.226 108.956 112.212  1.00  0.00     0.056 A 
ATOM      7  C   UNL     1     105.315 108.051 113.398  1.00  0.00     0.173 A 
ATOM      8  C   UNL     1     107.994 107.855 112.597  1.00  0.00     0.005 A 
ATOM      9  C   UNL     1     106.102 106.966 113.807  1.00  0.00     0.052 A 
ATOM     10  O   UNL     1     103.983 108.074 113.799  1.00  0.00    -0.452 OA
ATOM     11  C   UNL     1     107.433 106.864 113.402  1.00  0.00     0.004 A 
ATOM     12  C   UNL     1     102.942 108.290 112.901  1.00  0.00     0.143 A 
ATOM     13  C   UNL     1     101.868 107.390 112.917  1.00  0.00     0.049 A 
ATOM     14  C   UNL     1     100.827 107.510 111.996  1.00  0.00     0.024 A 
ATOM     15  C   UNL     1     100.846 108.540 111.056  1.00  0.00     0.042 A 
ATOM     16  C   UNL     1     101.896 109.462 111.054  1.00  0.00     0.041 A 
ATOM     17  Cl  UNL     1      99.539 108.695 109.896  1.00  0.00    -0.084 Cl
ATOM     18  C   UNL     1     102.411 112.400 112.634  1.00  0.00     0.298 C 
ATOM     19  C   UNL     1     104.165 112.680 110.857  1.00  0.00     0.298 C 
ATOM     20  C   UNL     1     101.459 113.239 111.774  1.00  0.00     0.308 C 
ATOM     21  C   UNL     1     103.159 113.510 110.051  1.00  0.00     0.308 C 
ATOM     22  N   UNL     1     102.211 114.208 110.946  1.00  0.00    -0.331 N 
ATOM     23  C   UNL     1     101.277 115.024 110.153  1.00  0.00     0.332 C 
ATOM     24  H   UNL     1     105.807 111.155 112.325  1.00  0.00     0.312 HD
ATOM     25  H   UNL     1     102.745 114.855 111.575  1.00  0.00     0.348 HD
ENDROOT
TORSDOF 0
ENDMDL
MODEL 8
REMARK VINA RESULT:    -5.878     11.159     12.973
REMARK INTER + INTRA:          -5.878
REMARK INTER:                  -5.878
REMARK INTRA:                   0.000
REMARK UNBOUND:                 0.000
REMARK SMILES C[NH+]1CCN(C2=[NH+]c3ccccc3Oc3ccc(Cl)cc32)CC1
REMARK SMILES IDX 7 1 6 2 21 3 5 4 8 5 9 6 13 7 10 8 12 9 14 10 11 11 15 12
REMARK SMILES IDX 16 13 17 14 18 15 20 16 19 17 4 18 22 19 3 20 23 21 2 22
REMARK SMILES IDX 1 23
REMARK H PARENT 7 24 2 25
REMARK Flexibility Score: inf
ROOT
ATOM      1  N   UNL     1     111.537 118.979 109.253  1.00  0.00    -0.237 N 
ATOM      2  C   UNL     1     111.673 117.867 109.928  1.00  0.00     0.286 C 
ATOM      3  C   UNL     1     111.918 116.545 109.294  1.00  0.00     0.108 A 
ATOM      4  N   UNL     1     111.531 117.904 111.362  1.00  0.00    -0.250 N 
ATOM      5  C   UNL     1     111.601 119.152 107.827  1.00  0.00     0.168 A 
ATOM      6  C   UNL     1     110.814 120.163 107.245  1.00  0.00     0.056 A 
ATOM      7  C   UNL     1     112.552 118.485 107.027  1.00  0.00     0.173 A 
ATOM      8  C   UNL     1     110.962 120.499 105.898  1.00  0.00     0.005 A 
ATOM      9  C   UNL     1     112.716 118.853 105.685  1.00  0.00     0.052 A 
ATOM     10  O   UNL     1     113.346 117.455 107.521  1.00  0.00    -0.452 OA
ATOM     11  C   UNL     1     111.920 119.849 105.120  1.00  0.00     0.004 A 
ATOM     12  C   UNL     1     112.811 116.376 108.217  1.00  0.00     0.143 A 
ATOM     13  C   UNL     1     113.176 115.087 107.808  1.00  0.00     0.049 A 
ATOM     14  C   UNL     1     112.622 113.963 108.420  1.00  0.00     0.024 A 
ATOM     15  C   UNL     1     111.704 114.119 109.457  1.00  0.00     0.042 A 
ATOM     16  C   UNL     1     111.358 115.400 109.897  1.00  0.00     0.041 A 
ATOM     17  Cl  UNL     1     111.003 112.708 110.231  1.00  0.00    -0.084 Cl
ATOM     18  C   UNL     1     112.646 117.487 112.216  1.00  0.00     0.298 C 
ATOM     19  C   UNL     1     110.407 118.605 111.987  1.00  0.00     0.298 C 
ATOM     20  C   UNL     1     112.108 116.747 113.446  1.00  0.00     0.308 C 
ATOM     21  C   UNL     1     109.938 117.829 113.223  1.00  0.00     0.308 C 
ATOM     22  N   UNL     1     111.069 117.547 114.132  1.00  0.00    -0.331 N 
ATOM     23  C   UNL     1     110.590 116.832 115.327  1.00  0.00     0.332 C 
ATOM     24  H   UNL     1     111.321 119.846 109.796  1.00  0.00     0.312 HD
ATOM     25  H   UNL     1     111.489 118.454 114.450  1.00  0.00     0.348 HD
ENDROOT
TORSDOF 0
ENDMDL
MODEL 9
REMARK VINA RESULT:    -5.849     12.805     15.201
REMARK INTER + INTRA:          -5.849
REMARK INTER:                  -5.849
REMARK INTRA:                   0.000
REMARK UNBOUND:                 0.000
REMARK SMILES C[NH+]1CCN(C2=[NH+]c3ccccc3Oc3ccc(Cl)cc32)CC1
REMARK SMILES IDX 7 1 6 2 21 3 5 4 8 5 9 6 13 7 10 8 12 9 14 10 11 11 15 12
REMARK SMILES IDX 16 13 17 14 18 15 20 16 19 17 4 18 22 19 3 20 23 21 2 22
REMARK SMILES IDX 1 23
REMARK H PARENT 7 24 2 25
REMARK Flexibility Score: inf
ROOT
ATOM      1  N   UNL     1     115.829 116.725 109.000  1.00  0.00    -0.237 N 
ATOM      2  C   UNL     1     114.629 117.215 109.168  1.00  0.00     0.286 C 
ATOM      3  C   UNL     1     113.975 117.353 110.497  1.00  0.00     0.108 A 
ATOM      4  N   UNL     1     113.867 117.601 108.007  1.00  0.00    -0.250 N 
ATOM      5  C   UNL     1     116.731 116.247 110.013  1.00  0.00     0.168 A 
ATOM      6  C   UNL     1     117.609 115.199 109.680  1.00  0.00     0.056 A 
ATOM      7  C   UNL     1     116.899 116.908 111.248  1.00  0.00     0.173 A 
ATOM      8  C   UNL     1     118.625 114.810 110.555  1.00  0.00     0.005 A 
ATOM      9  C   UNL     1     117.942 116.533 112.104  1.00  0.00     0.052 A 
ATOM     10  O   UNL     1     116.053 117.932 111.662  1.00  0.00    -0.452 OA
ATOM     11  C   UNL     1     118.796 115.483 111.764  1.00  0.00     0.004 A 
ATOM     12  C   UNL     1     114.668 117.806 111.637  1.00  0.00     0.143 A 
ATOM     13  C   UNL     1     113.960 118.133 112.801  1.00  0.00     0.049 A 
ATOM     14  C   UNL     1     112.577 117.963 112.863  1.00  0.00     0.024 A 
ATOM     15  C   UNL     1     111.887 117.473 111.755  1.00  0.00     0.042 A 
ATOM     16  C   UNL     1     112.579 117.176 110.578  1.00  0.00     0.041 A 
ATOM     17  Cl  UNL     1     110.147 117.257 111.828  1.00  0.00    -0.084 Cl
ATOM     18  C   UNL     1     113.419 118.988 107.856  1.00  0.00     0.298 C 
ATOM     19  C   UNL     1     113.767 116.713 106.847  1.00  0.00     0.298 C 
ATOM     20  C   UNL     1     112.026 119.016 107.218  1.00  0.00     0.308 C 
ATOM     21  C   UNL     1     112.362 116.811 106.241  1.00  0.00     0.308 C 
ATOM     22  N   UNL     1     111.998 118.219 105.972  1.00  0.00    -0.331 N 
ATOM     23  C   UNL     1     110.661 118.286 105.361  1.00  0.00     0.332 C 
ATOM     24  H   UNL     1     116.175 116.629 108.018  1.00  0.00     0.312 HD
ATOM     25  H   UNL     1     112.682 118.626 105.289  1.00  0.00     0.348 HD
ENDROOT
TORSDOF 0
ENDMDL
