MODEL 1
REMARK VINA RESULT:    -4.563      0.000      0.000
REMARK INTER + INTRA:         -13.445
REMARK INTER:                  -9.898
REMARK INTRA:                  -3.547
REMARK UNBOUND:                -3.547
REMARK SMILES CCCCCCCCCCCCCCCCCCCCCC(=O)[O-]
REMARK SMILES IDX 12 1 11 2 10 3 9 4 8 5 7 6 6 7 5 8 4 9 3 10 2 11 1 12 13 13
REMARK SMILES IDX 14 14 15 15 16 16 17 17 18 18 19 19 20 20 21 21 22 22 23 23
REMARK SMILES IDX 24 24
REMARK H PARENT
REMARK Flexibility Score: inf
ROOT
ATOM      1  C   UNL     1      -2.003 -45.347  17.751  1.00  0.00     0.000 C 
ENDROOT
BRANCH   1   2
ATOM      2  C   UNL     1      -1.648 -46.752  18.279  1.00  0.00     0.000 C 
BRANCH   2   3
ATOM      3  C   UNL     1      -1.549 -47.846  17.202  1.00  0.00     0.000 C 
BRANCH   3   4
ATOM      4  C   UNL     1      -2.413 -49.076  17.518  1.00  0.00    -0.000 C 
BRANCH   4   5
ATOM      5  C   UNL     1      -3.770 -48.990  16.805  1.00  0.00    -0.000 C 
BRANCH   5   6
ATOM      6  C   UNL     1      -4.946 -48.794  17.779  1.00  0.00    -0.000 C 
BRANCH   6   7
ATOM      7  C   UNL     1      -4.573 -48.841  19.275  1.00  0.00    -0.000 C 
BRANCH   7   8
ATOM      8  C   UNL     1      -4.646 -47.491  20.010  1.00  0.00    -0.000 C 
BRANCH   8   9
ATOM      9  C   UNL     1      -5.327 -46.395  19.177  1.00  0.00    -0.000 C 
BRANCH   9  10
ATOM     10  C   UNL     1      -5.066 -45.009  19.776  1.00  0.00    -0.000 C 
BRANCH  10  11
ATOM     11  C   UNL     1      -5.431 -43.902  18.781  1.00  0.00    -0.003 C 
ATOM     12  C   UNL     1      -6.941 -43.821  18.574  1.00  0.00     0.004 C 
ENDBRANCH  10  11
ENDBRANCH   9  10
ENDBRANCH   8   9
ENDBRANCH   7   8
ENDBRANCH   6   7
ENDBRANCH   5   6
ENDBRANCH   4   5
ENDBRANCH   3   4
ENDBRANCH   2   3
ENDBRANCH   1   2
BRANCH   1  13
ATOM     13  C   UNL     1      -1.669 -45.105  16.266  1.00  0.00     0.000 C 
BRANCH  13  14
ATOM     14  C   UNL     1      -2.873 -44.729  15.378  1.00  0.00     0.000 C 
BRANCH  14  15
ATOM     15  C   UNL     1      -4.188 -45.449  15.724  1.00  0.00     0.000 C 
BRANCH  15  16
ATOM     16  C   UNL     1      -4.879 -46.056  14.489  1.00  0.00     0.000 C 
BRANCH  16  17
ATOM     17  C   UNL     1      -3.873 -46.512  13.417  1.00  0.00     0.000 C 
BRANCH  17  18
ATOM     18  C   UNL     1      -3.854 -48.041  13.238  1.00  0.00     0.000 C 
BRANCH  18  19
ATOM     19  C   UNL     1      -2.512 -48.665  13.652  1.00  0.00     0.000 C 
BRANCH  19  20
ATOM     20  C   UNL     1      -2.099 -49.838  12.746  1.00  0.00     0.006 C 
BRANCH  20  21
ATOM     21  C   UNL     1      -0.601 -49.813  12.413  1.00  0.00     0.053 C 
BRANCH  21  22
ATOM     22  C   UNL     1      -0.339 -49.220  11.062  1.00  0.00     0.041 C 
ATOM     23  O   UNL     1      -1.269 -49.135  10.217  1.00  0.00    -0.550 OA
ATOM     24  O   UNL     1       0.924 -48.734  10.748  1.00  0.00    -0.550 OA
ENDBRANCH  21  22
ENDBRANCH  20  21
ENDBRANCH  19  20
ENDBRANCH  18  19
ENDBRANCH  17  18
ENDBRANCH  16  17
ENDBRANCH  15  16
ENDBRANCH  14  15
ENDBRANCH  13  14
ENDBRANCH   1  13
TORSDOF 20
ENDMDL
MODEL 2
REMARK VINA RESULT:    -4.362      2.769      3.752
REMARK INTER + INTRA:         -13.010
REMARK INTER:                  -9.444
REMARK INTRA:                  -3.566
REMARK UNBOUND:                -3.547
REMARK SMILES CCCCCCCCCCCCCCCCCCCCCC(=O)[O-]
REMARK SMILES IDX 12 1 11 2 10 3 9 4 8 5 7 6 6 7 5 8 4 9 3 10 2 11 1 12 13 13
REMARK SMILES IDX 14 14 15 15 16 16 17 17 18 18 19 19 20 20 21 21 22 22 23 23
REMARK SMILES IDX 24 24
REMARK H PARENT
REMARK Flexibility Score: inf
ROOT
ATOM      1  C   UNL     1      -1.675 -45.237  16.259  1.00  0.00     0.000 C 
ENDROOT
BRANCH   1   2
ATOM      2  C   UNL     1      -1.720 -46.778  16.278  1.00  0.00     0.000 C 
BRANCH   2   3
ATOM      3  C   UNL     1      -1.442 -47.420  17.649  1.00  0.00     0.000 C 
BRANCH   3   4
ATOM      4  C   UNL     1      -2.082 -48.809  17.799  1.00  0.00    -0.000 C 
BRANCH   4   5
ATOM      5  C   UNL     1      -2.786 -49.231  16.502  1.00  0.00    -0.000 C 
BRANCH   5   6
ATOM      6  C   UNL     1      -4.316 -49.329  16.656  1.00  0.00    -0.000 C 
BRANCH   6   7
ATOM      7  C   UNL     1      -4.890 -48.668  17.926  1.00  0.00    -0.000 C 
BRANCH   7   8
ATOM      8  C   UNL     1      -5.652 -47.352  17.691  1.00  0.00    -0.000 C 
BRANCH   8   9
ATOM      9  C   UNL     1      -5.450 -46.336  18.825  1.00  0.00    -0.000 C 
BRANCH   9  10
ATOM     10  C   UNL     1      -4.321 -46.778  19.763  1.00  0.00    -0.000 C 
BRANCH  10  11
ATOM     11  C   UNL     1      -3.306 -45.650  19.974  1.00  0.00    -0.003 C 
ATOM     12  C   UNL     1      -3.664 -44.422  19.142  1.00  0.00     0.004 C 
ENDBRANCH  10  11
ENDBRANCH   9  10
ENDBRANCH   8   9
ENDBRANCH   7   8
ENDBRANCH   6   7
ENDBRANCH   5   6
ENDBRANCH   4   5
ENDBRANCH   3   4
ENDBRANCH   2   3
ENDBRANCH   1   2
BRANCH   1  13
ATOM     13  C   UNL     1      -2.630 -44.569  15.250  1.00  0.00     0.000 C 
BRANCH  13  14
ATOM     14  C   UNL     1      -4.129 -44.680  15.598  1.00  0.00     0.000 C 
BRANCH  14  15
ATOM     15  C   UNL     1      -4.951 -45.585  14.662  1.00  0.00     0.000 C 
BRANCH  15  16
ATOM     16  C   UNL     1      -4.168 -46.014  13.408  1.00  0.00     0.000 C 
BRANCH  16  17
ATOM     17  C   UNL     1      -3.813 -47.511  13.420  1.00  0.00     0.000 C 
BRANCH  17  18
ATOM     18  C   UNL     1      -3.988 -48.170  12.040  1.00  0.00     0.000 C 
BRANCH  18  19
ATOM     19  C   UNL     1      -4.232 -47.142  10.923  1.00  0.00     0.000 C 
BRANCH  19  20
ATOM     20  C   UNL     1      -5.489 -47.455  10.093  1.00  0.00     0.006 C 
BRANCH  20  21
ATOM     21  C   UNL     1      -6.684 -46.583  10.501  1.00  0.00     0.053 C 
BRANCH  21  22
ATOM     22  C   UNL     1      -7.760 -47.386  11.167  1.00  0.00     0.041 C 
ATOM     23  O   UNL     1      -8.606 -46.821  11.909  1.00  0.00    -0.550 OA
ATOM     24  O   UNL     1      -7.844 -48.755  10.945  1.00  0.00    -0.550 OA
ENDBRANCH  21  22
ENDBRANCH  20  21
ENDBRANCH  19  20
ENDBRANCH  18  19
ENDBRANCH  17  18
ENDBRANCH  16  17
ENDBRANCH  15  16
ENDBRANCH  14  15
ENDBRANCH  13  14
ENDBRANCH   1  13
TORSDOF 20
ENDMDL
MODEL 3
REMARK VINA RESULT:    -4.316      1.940      3.511
REMARK INTER + INTRA:         -12.910
REMARK INTER:                  -9.298
REMARK INTRA:                  -3.611
REMARK UNBOUND:                -3.547
REMARK SMILES CCCCCCCCCCCCCCCCCCCCCC(=O)[O-]
REMARK SMILES IDX 12 1 11 2 10 3 9 4 8 5 7 6 6 7 5 8 4 9 3 10 2 11 1 12 13 13
REMARK SMILES IDX 14 14 15 15 16 16 17 17 18 18 19 19 20 20 21 21 22 22 23 23
REMARK SMILES IDX 24 24
REMARK H PARENT
REMARK Flexibility Score: inf
ROOT
ATOM      1  C   UNL     1      -2.725 -44.117  14.837  1.00  0.00     0.000 C 
ENDROOT
BRANCH   1   2
ATOM      2  C   UNL     1      -3.849 -45.034  14.314  1.00  0.00     0.000 C 
BRANCH   2   3
ATOM      3  C   UNL     1      -5.275 -44.600  14.696  1.00  0.00     0.000 C 
BRANCH   3   4
ATOM      4  C   UNL     1      -5.515 -44.603  16.213  1.00  0.00    -0.000 C 
BRANCH   4   5
ATOM      5  C   UNL     1      -6.258 -45.874  16.648  1.00  0.00    -0.000 C 
BRANCH   5   6
ATOM      6  C   UNL     1      -5.329 -47.095  16.779  1.00  0.00    -0.000 C 
BRANCH   6   7
ATOM      7  C   UNL     1      -5.684 -48.067  17.924  1.00  0.00    -0.000 C 
BRANCH   7   8
ATOM      8  C   UNL     1      -4.579 -48.267  18.977  1.00  0.00    -0.000 C 
BRANCH   8   9
ATOM      9  C   UNL     1      -4.750 -47.354  20.201  1.00  0.00    -0.000 C 
BRANCH   9  10
ATOM     10  C   UNL     1      -4.024 -46.020  19.995  1.00  0.00    -0.000 C 
BRANCH  10  11
ATOM     11  C   UNL     1      -5.021 -44.862  19.885  1.00  0.00    -0.003 C 
ATOM     12  C   UNL     1      -6.386 -45.254  20.444  1.00  0.00     0.004 C 
ENDBRANCH  10  11
ENDBRANCH   9  10
ENDBRANCH   8   9
ENDBRANCH   7   8
ENDBRANCH   6   7
ENDBRANCH   5   6
ENDBRANCH   4   5
ENDBRANCH   3   4
ENDBRANCH   2   3
ENDBRANCH   1   2
BRANCH   1  13
ATOM     13  C   UNL     1      -1.953 -44.661  16.055  1.00  0.00     0.000 C 
BRANCH  13  14
ATOM     14  C   UNL     1      -1.993 -46.194  16.222  1.00  0.00     0.000 C 
BRANCH  14  15
ATOM     15  C   UNL     1      -1.615 -46.709  17.622  1.00  0.00     0.000 C 
BRANCH  15  16
ATOM     16  C   UNL     1      -1.438 -48.237  17.669  1.00  0.00     0.000 C 
BRANCH  16  17
ATOM     17  C   UNL     1      -0.869 -48.804  16.357  1.00  0.00     0.000 C 
BRANCH  17  18
ATOM     18  C   UNL     1      -1.556 -50.115  15.934  1.00  0.00     0.000 C 
BRANCH  18  19
ATOM     19  C   UNL     1      -3.081 -49.965  15.805  1.00  0.00     0.000 C 
BRANCH  19  20
ATOM     20  C   UNL     1      -3.555 -49.961  14.342  1.00  0.00     0.006 C 
BRANCH  20  21
ATOM     21  C   UNL     1      -3.443 -48.571  13.701  1.00  0.00     0.053 C 
BRANCH  21  22
ATOM     22  C   UNL     1      -3.905 -48.574  12.275  1.00  0.00     0.041 C 
ATOM     23  O   UNL     1      -3.570 -47.641  11.499  1.00  0.00    -0.550 OA
ATOM     24  O   UNL     1      -4.681 -49.622  11.798  1.00  0.00    -0.550 OA
ENDBRANCH  21  22
ENDBRANCH  20  21
ENDBRANCH  19  20
ENDBRANCH  18  19
ENDBRANCH  17  18
ENDBRANCH  16  17
ENDBRANCH  15  16
ENDBRANCH  14  15
ENDBRANCH  13  14
ENDBRANCH   1  13
TORSDOF 20
ENDMDL
MODEL 4
REMARK VINA RESULT:    -4.313      1.214      2.168
REMARK INTER + INTRA:         -12.902
REMARK INTER:                  -9.807
REMARK INTRA:                  -3.095
REMARK UNBOUND:                -3.547
REMARK SMILES CCCCCCCCCCCCCCCCCCCCCC(=O)[O-]
REMARK SMILES IDX 12 1 11 2 10 3 9 4 8 5 7 6 6 7 5 8 4 9 3 10 2 11 1 12 13 13
REMARK SMILES IDX 14 14 15 15 16 16 17 17 18 18 19 19 20 20 21 21 22 22 23 23
REMARK SMILES IDX 24 24
REMARK H PARENT
REMARK Flexibility Score: inf
ROOT
ATOM      1  C   UNL     1      -1.959 -45.075  16.236  1.00  0.00     0.000 C 
ENDROOT
BRANCH   1   2
ATOM      2  C   UNL     1      -2.171 -45.256  17.753  1.00  0.00     0.000 C 
BRANCH   2   3
ATOM      3  C   UNL     1      -1.608 -46.563  18.337  1.00  0.00     0.000 C 
BRANCH   3   4
ATOM      4  C   UNL     1      -1.461 -47.673  17.287  1.00  0.00    -0.000 C 
BRANCH   4   5
ATOM      5  C   UNL     1      -2.125 -48.972  17.765  1.00  0.00    -0.000 C 
BRANCH   5   6
ATOM      6  C   UNL     1      -3.433 -49.287  17.016  1.00  0.00    -0.000 C 
BRANCH   6   7
ATOM      7  C   UNL     1      -4.717 -48.758  17.690  1.00  0.00    -0.000 C 
BRANCH   7   8
ATOM      8  C   UNL     1      -4.593 -48.472  19.197  1.00  0.00    -0.000 C 
BRANCH   8   9
ATOM      9  C   UNL     1      -4.908 -47.012  19.554  1.00  0.00    -0.000 C 
BRANCH   9  10
ATOM     10  C   UNL     1      -5.626 -46.308  18.397  1.00  0.00    -0.000 C 
BRANCH  10  11
ATOM     11  C   UNL     1      -6.247 -44.985  18.859  1.00  0.00    -0.003 C 
ATOM     12  C   UNL     1      -5.486 -43.790  18.293  1.00  0.00     0.004 C 
ENDBRANCH  10  11
ENDBRANCH   9  10
ENDBRANCH   8   9
ENDBRANCH   7   8
ENDBRANCH   6   7
ENDBRANCH   5   6
ENDBRANCH   4   5
ENDBRANCH   3   4
ENDBRANCH   2   3
ENDBRANCH   1   2
BRANCH   1  13
ATOM     13  C   UNL     1      -3.253 -44.958  15.406  1.00  0.00     0.000 C 
BRANCH  13  14
ATOM     14  C   UNL     1      -3.845 -46.299  14.927  1.00  0.00     0.000 C 
BRANCH  14  15
ATOM     15  C   UNL     1      -4.177 -46.367  13.425  1.00  0.00     0.000 C 
BRANCH  15  16
ATOM     16  C   UNL     1      -3.800 -47.718  12.792  1.00  0.00     0.000 C 
BRANCH  16  17
ATOM     17  C   UNL     1      -2.936 -48.585  13.724  1.00  0.00     0.000 C 
BRANCH  17  18
ATOM     18  C   UNL     1      -1.904 -49.430  12.955  1.00  0.00     0.000 C 
BRANCH  18  19
ATOM     19  C   UNL     1      -2.008 -49.245  11.433  1.00  0.00     0.000 C 
BRANCH  19  20
ATOM     20  C   UNL     1      -0.658 -48.891  10.785  1.00  0.00     0.006 C 
BRANCH  20  21
ATOM     21  C   UNL     1      -0.829 -48.043   9.517  1.00  0.00     0.053 C 
BRANCH  21  22
ATOM     22  C   UNL     1      -1.240 -48.875   8.340  1.00  0.00     0.041 C 
ATOM     23  O   UNL     1      -2.241 -48.546   7.651  1.00  0.00    -0.550 OA
ATOM     24  O   UNL     1      -0.499 -49.996   7.988  1.00  0.00    -0.550 OA
ENDBRANCH  21  22
ENDBRANCH  20  21
ENDBRANCH  19  20
ENDBRANCH  18  19
ENDBRANCH  17  18
ENDBRANCH  16  17
ENDBRANCH  15  16
ENDBRANCH  14  15
ENDBRANCH  13  14
ENDBRANCH   1  13
TORSDOF 20
ENDMDL
MODEL 5
REMARK VINA RESULT:    -4.293      3.008      4.249
REMARK INTER + INTRA:         -12.860
REMARK INTER:                  -9.761
REMARK INTRA:                  -3.099
REMARK UNBOUND:                -3.547
REMARK SMILES CCCCCCCCCCCCCCCCCCCCCC(=O)[O-]
REMARK SMILES IDX 12 1 11 2 10 3 9 4 8 5 7 6 6 7 5 8 4 9 3 10 2 11 1 12 13 13
REMARK SMILES IDX 14 14 15 15 16 16 17 17 18 18 19 19 20 20 21 21 22 22 23 23
REMARK SMILES IDX 24 24
REMARK H PARENT
REMARK Flexibility Score: inf
ROOT
ATOM      1  C   UNL     1      -3.230 -44.965  15.483  1.00  0.00     0.000 C 
ENDROOT
BRANCH   1   2
ATOM      2  C   UNL     1      -1.996 -45.248  16.365  1.00  0.00     0.000 C 
BRANCH   2   3
ATOM      3  C   UNL     1      -1.624 -46.734  16.507  1.00  0.00     0.000 C 
BRANCH   3   4
ATOM      4  C   UNL     1      -1.597 -47.206  17.969  1.00  0.00    -0.000 C 
BRANCH   4   5
ATOM      5  C   UNL     1      -2.169 -48.624  18.098  1.00  0.00    -0.000 C 
BRANCH   5   6
ATOM      6  C   UNL     1      -2.830 -49.125  16.800  1.00  0.00    -0.000 C 
BRANCH   6   7
ATOM      7  C   UNL     1      -4.373 -49.132  16.812  1.00  0.00    -0.000 C 
BRANCH   7   8
ATOM      8  C   UNL     1      -5.021 -48.321  17.949  1.00  0.00    -0.000 C 
BRANCH   8   9
ATOM      9  C   UNL     1      -5.767 -47.077  17.443  1.00  0.00    -0.000 C 
BRANCH   9  10
ATOM     10  C   UNL     1      -5.899 -46.028  18.552  1.00  0.00    -0.000 C 
BRANCH  10  11
ATOM     11  C   UNL     1      -4.783 -46.183  19.591  1.00  0.00    -0.003 C 
ATOM     12  C   UNL     1      -3.852 -44.973  19.586  1.00  0.00     0.004 C 
ENDBRANCH  10  11
ENDBRANCH   9  10
ENDBRANCH   8   9
ENDBRANCH   7   8
ENDBRANCH   6   7
ENDBRANCH   5   6
ENDBRANCH   4   5
ENDBRANCH   3   4
ENDBRANCH   2   3
ENDBRANCH   1   2
BRANCH   1  13
ATOM     13  C   UNL     1      -3.676 -46.140  14.590  1.00  0.00     0.000 C 
BRANCH  13  14
ATOM     14  C   UNL     1      -4.926 -45.868  13.729  1.00  0.00     0.000 C 
BRANCH  14  15
ATOM     15  C   UNL     1      -6.023 -45.035  14.415  1.00  0.00     0.000 C 
BRANCH  15  16
ATOM     16  C   UNL     1      -7.171 -44.659  13.462  1.00  0.00     0.000 C 
BRANCH  16  17
ATOM     17  C   UNL     1      -8.524 -45.238  13.913  1.00  0.00     0.000 C 
BRANCH  17  18
ATOM     18  C   UNL     1      -9.115 -46.223  12.889  1.00  0.00     0.000 C 
BRANCH  18  19
ATOM     19  C   UNL     1      -8.396 -46.164  11.532  1.00  0.00     0.000 C 
BRANCH  19  20
ATOM     20  C   UNL     1      -7.997 -47.555  11.010  1.00  0.00     0.006 C 
BRANCH  20  21
ATOM     21  C   UNL     1      -8.026 -47.629   9.477  1.00  0.00     0.053 C 
BRANCH  21  22
ATOM     22  C   UNL     1      -6.770 -48.233   8.924  1.00  0.00     0.041 C 
ATOM     23  O   UNL     1      -6.833 -49.103   8.016  1.00  0.00    -0.550 OA
ATOM     24  O   UNL     1      -5.531 -47.813   9.392  1.00  0.00    -0.550 OA
ENDBRANCH  21  22
ENDBRANCH  20  21
ENDBRANCH  19  20
ENDBRANCH  18  19
ENDBRANCH  17  18
ENDBRANCH  16  17
ENDBRANCH  15  16
ENDBRANCH  14  15
ENDBRANCH  13  14
ENDBRANCH   1  13
TORSDOF 20
ENDMDL
MODEL 6
REMARK VINA RESULT:    -4.268      3.648      7.958
REMARK INTER + INTRA:         -12.806
REMARK INTER:                 -10.349
REMARK INTRA:                  -2.457
REMARK UNBOUND:                -3.547
REMARK SMILES CCCCCCCCCCCCCCCCCCCCCC(=O)[O-]
REMARK SMILES IDX 12 1 11 2 10 3 9 4 8 5 7 6 6 7 5 8 4 9 3 10 2 11 1 12 13 13
REMARK SMILES IDX 14 14 15 15 16 16 17 17 18 18 19 19 20 20 21 21 22 22 23 23
REMARK SMILES IDX 24 24
REMARK H PARENT
REMARK Flexibility Score: inf
ROOT
ATOM      1  C   UNL     1      -3.044 -44.884  16.456  1.00  0.00     0.000 C 
ENDROOT
BRANCH   1   2
ATOM      2  C   UNL     1      -4.063 -45.618  15.562  1.00  0.00     0.000 C 
BRANCH   2   3
ATOM      3  C   UNL     1      -3.869 -45.412  14.049  1.00  0.00     0.000 C 
BRANCH   3   4
ATOM      4  C   UNL     1      -4.369 -46.601  13.215  1.00  0.00    -0.000 C 
BRANCH   4   5
ATOM      5  C   UNL     1      -3.530 -47.856  13.493  1.00  0.00    -0.000 C 
BRANCH   5   6
ATOM      6  C   UNL     1      -3.239 -48.676  12.222  1.00  0.00    -0.000 C 
BRANCH   6   7
ATOM      7  C   UNL     1      -1.781 -49.159  12.075  1.00  0.00    -0.000 C 
BRANCH   7   8
ATOM      8  C   UNL     1      -1.228 -49.138  10.639  1.00  0.00    -0.000 C 
BRANCH   8   9
ATOM      9  C   UNL     1       0.304 -49.043  10.592  1.00  0.00    -0.000 C 
BRANCH   9  10
ATOM     10  C   UNL     1       0.752 -47.731   9.938  1.00  0.00    -0.000 C 
BRANCH  10  11
ATOM     11  C   UNL     1       2.185 -47.372  10.348  1.00  0.00    -0.003 C 
ATOM     12  C   UNL     1       2.650 -46.089   9.666  1.00  0.00     0.004 C 
ENDBRANCH  10  11
ENDBRANCH   9  10
ENDBRANCH   8   9
ENDBRANCH   7   8
ENDBRANCH   6   7
ENDBRANCH   5   6
ENDBRANCH   4   5
ENDBRANCH   3   4
ENDBRANCH   2   3
ENDBRANCH   1   2
BRANCH   1  13
ATOM     13  C   UNL     1      -1.997 -45.791  17.132  1.00  0.00     0.000 C 
BRANCH  13  14
ATOM     14  C   UNL     1      -1.575 -47.026  16.310  1.00  0.00     0.000 C 
BRANCH  14  15
ATOM     15  C   UNL     1      -1.060 -48.217  17.138  1.00  0.00     0.000 C 
BRANCH  15  16
ATOM     16  C   UNL     1      -2.197 -49.032  17.780  1.00  0.00     0.000 C 
BRANCH  16  17
ATOM     17  C   UNL     1      -3.463 -49.068  16.906  1.00  0.00     0.000 C 
BRANCH  17  18
ATOM     18  C   UNL     1      -4.743 -48.776  17.710  1.00  0.00     0.000 C 
BRANCH  18  19
ATOM     19  C   UNL     1      -4.488 -48.727  19.225  1.00  0.00     0.000 C 
BRANCH  19  20
ATOM     20  C   UNL     1      -4.561 -47.299  19.793  1.00  0.00     0.006 C 
BRANCH  20  21
ATOM     21  C   UNL     1      -5.436 -46.377  18.931  1.00  0.00     0.053 C 
BRANCH  21  22
ATOM     22  C   UNL     1      -5.626 -45.033  19.566  1.00  0.00     0.041 C 
ATOM     23  O   UNL     1      -4.694 -44.186  19.546  1.00  0.00    -0.550 OA
ATOM     24  O   UNL     1      -6.841 -44.706  20.154  1.00  0.00    -0.550 OA
ENDBRANCH  21  22
ENDBRANCH  20  21
ENDBRANCH  19  20
ENDBRANCH  18  19
ENDBRANCH  17  18
ENDBRANCH  16  17
ENDBRANCH  15  16
ENDBRANCH  14  15
ENDBRANCH  13  14
ENDBRANCH   1  13
TORSDOF 20
ENDMDL
MODEL 7
REMARK VINA RESULT:    -4.255      3.607      5.780
REMARK INTER + INTRA:         -12.777
REMARK INTER:                  -8.655
REMARK INTRA:                  -4.122
REMARK UNBOUND:                -3.547
REMARK SMILES CCCCCCCCCCCCCCCCCCCCCC(=O)[O-]
REMARK SMILES IDX 12 1 11 2 10 3 9 4 8 5 7 6 6 7 5 8 4 9 3 10 2 11 1 12 13 13
REMARK SMILES IDX 14 14 15 15 16 16 17 17 18 18 19 19 20 20 21 21 22 22 23 23
REMARK SMILES IDX 24 24
REMARK H PARENT
REMARK Flexibility Score: inf
ROOT
ATOM      1  C   UNL     1      -4.825 -48.750  17.739  1.00  0.00     0.000 C 
ENDROOT
BRANCH   1   2
ATOM      2  C   UNL     1      -4.571 -48.913  19.251  1.00  0.00     0.000 C 
BRANCH   2   3
ATOM      3  C   UNL     1      -4.571 -47.602  20.057  1.00  0.00     0.000 C 
BRANCH   3   4
ATOM      4  C   UNL     1      -4.938 -46.378  19.206  1.00  0.00    -0.000 C 
BRANCH   4   5
ATOM      5  C   UNL     1      -4.044 -45.180  19.554  1.00  0.00    -0.000 C 
BRANCH   5   6
ATOM      6  C   UNL     1      -4.705 -43.826  19.233  1.00  0.00    -0.000 C 
BRANCH   6   7
ATOM      7  C   UNL     1      -6.243 -43.805  19.347  1.00  0.00    -0.000 C 
BRANCH   7   8
ATOM      8  C   UNL     1      -6.951 -42.782  18.441  1.00  0.00    -0.000 C 
BRANCH   8   9
ATOM      9  C   UNL     1      -6.029 -42.211  17.353  1.00  0.00    -0.000 C 
BRANCH   9  10
ATOM     10  C   UNL     1      -6.841 -41.698  16.159  1.00  0.00    -0.000 C 
BRANCH  10  11
ATOM     11  C   UNL     1      -5.993 -40.784  15.268  1.00  0.00    -0.003 C 
ATOM     12  C   UNL     1      -5.121 -41.596  14.316  1.00  0.00     0.004 C 
ENDBRANCH  10  11
ENDBRANCH   9  10
ENDBRANCH   8   9
ENDBRANCH   7   8
ENDBRANCH   6   7
ENDBRANCH   5   6
ENDBRANCH   4   5
ENDBRANCH   3   4
ENDBRANCH   2   3
ENDBRANCH   1   2
BRANCH   1  13
ATOM     13  C   UNL     1      -3.590 -48.967  16.843  1.00  0.00     0.000 C 
BRANCH  13  14
ATOM     14  C   UNL     1      -2.232 -48.853  17.564  1.00  0.00     0.000 C 
BRANCH  14  15
ATOM     15  C   UNL     1      -1.599 -47.450  17.548  1.00  0.00     0.000 C 
BRANCH  15  16
ATOM     16  C   UNL     1      -1.877 -46.686  16.241  1.00  0.00     0.000 C 
BRANCH  16  17
ATOM     17  C   UNL     1      -2.018 -45.170  16.465  1.00  0.00     0.000 C 
BRANCH  17  18
ATOM     18  C   UNL     1      -3.320 -44.604  15.870  1.00  0.00     0.000 C 
BRANCH  18  19
ATOM     19  C   UNL     1      -4.286 -45.709  15.411  1.00  0.00     0.000 C 
BRANCH  19  20
ATOM     20  C   UNL     1      -5.745 -45.424  15.809  1.00  0.00     0.006 C 
BRANCH  20  21
ATOM     21  C   UNL     1      -6.591 -44.965  14.614  1.00  0.00     0.053 C 
BRANCH  21  22
ATOM     22  C   UNL     1      -8.056 -45.171  14.855  1.00  0.00     0.041 C 
ATOM     23  O   UNL     1      -8.781 -45.677  13.958  1.00  0.00    -0.550 OA
ATOM     24  O   UNL     1      -8.614 -44.832  16.081  1.00  0.00    -0.550 OA
ENDBRANCH  21  22
ENDBRANCH  20  21
ENDBRANCH  19  20
ENDBRANCH  18  19
ENDBRANCH  17  18
ENDBRANCH  16  17
ENDBRANCH  15  16
ENDBRANCH  14  15
ENDBRANCH  13  14
ENDBRANCH   1  13
TORSDOF 20
ENDMDL
MODEL 8
REMARK VINA RESULT:    -4.240      4.018      5.817
REMARK INTER + INTRA:         -12.744
REMARK INTER:                  -8.801
REMARK INTRA:                  -3.942
REMARK UNBOUND:                -3.547
REMARK SMILES CCCCCCCCCCCCCCCCCCCCCC(=O)[O-]
REMARK SMILES IDX 12 1 11 2 10 3 9 4 8 5 7 6 6 7 5 8 4 9 3 10 2 11 1 12 13 13
REMARK SMILES IDX 14 14 15 15 16 16 17 17 18 18 19 19 20 20 21 21 22 22 23 23
REMARK SMILES IDX 24 24
REMARK H PARENT
REMARK Flexibility Score: inf
ROOT
ATOM      1  C   UNL     1      -1.984 -45.381  17.331  1.00  0.00     0.000 C 
ENDROOT
BRANCH   1   2
ATOM      2  C   UNL     1      -1.606 -46.730  17.975  1.00  0.00     0.000 C 
BRANCH   2   3
ATOM      3  C   UNL     1      -1.501 -47.912  16.995  1.00  0.00     0.000 C 
BRANCH   3   4
ATOM      4  C   UNL     1      -2.430 -49.078  17.364  1.00  0.00    -0.000 C 
BRANCH   4   5
ATOM      5  C   UNL     1      -3.797 -48.927  16.683  1.00  0.00    -0.000 C 
BRANCH   5   6
ATOM      6  C   UNL     1      -4.924 -48.580  17.673  1.00  0.00    -0.000 C 
BRANCH   6   7
ATOM      7  C   UNL     1      -4.567 -48.764  19.163  1.00  0.00    -0.000 C 
BRANCH   7   8
ATOM      8  C   UNL     1      -4.587 -47.474  20.003  1.00  0.00    -0.000 C 
BRANCH   8   9
ATOM      9  C   UNL     1      -5.303 -46.313  19.296  1.00  0.00    -0.000 C 
BRANCH   9  10
ATOM     10  C   UNL     1      -4.619 -44.977  19.607  1.00  0.00    -0.000 C 
BRANCH  10  11
ATOM     11  C   UNL     1      -5.510 -43.796  19.208  1.00  0.00    -0.003 C 
ATOM     12  C   UNL     1      -6.974 -44.075  19.534  1.00  0.00     0.004 C 
ENDBRANCH  10  11
ENDBRANCH   9  10
ENDBRANCH   8   9
ENDBRANCH   7   8
ENDBRANCH   6   7
ENDBRANCH   5   6
ENDBRANCH   4   5
ENDBRANCH   3   4
ENDBRANCH   2   3
ENDBRANCH   1   2
BRANCH   1  13
ATOM     13  C   UNL     1      -2.559 -45.477  15.904  1.00  0.00     0.000 C 
BRANCH  13  14
ATOM     14  C   UNL     1      -3.166 -44.170  15.355  1.00  0.00     0.000 C 
BRANCH  14  15
ATOM     15  C   UNL     1      -4.693 -44.189  15.163  1.00  0.00     0.000 C 
BRANCH  15  16
ATOM     16  C   UNL     1      -5.341 -45.490  15.669  1.00  0.00     0.000 C 
BRANCH  16  17
ATOM     17  C   UNL     1      -6.819 -45.301  16.052  1.00  0.00     0.000 C 
BRANCH  17  18
ATOM     18  C   UNL     1      -7.746 -45.257  14.823  1.00  0.00     0.000 C 
BRANCH  18  19
ATOM     19  C   UNL     1      -8.677 -44.034  14.832  1.00  0.00     0.000 C 
BRANCH  19  20
ATOM     20  C   UNL     1      -8.678 -43.299  16.184  1.00  0.00     0.006 C 
BRANCH  20  21
ATOM     21  C   UNL     1      -8.369 -41.803  16.030  1.00  0.00     0.053 C 
BRANCH  21  22
ATOM     22  C   UNL     1      -7.339 -41.342  17.016  1.00  0.00     0.041 C 
ATOM     23  O   UNL     1      -6.119 -41.339  16.704  1.00  0.00    -0.550 OA
ATOM     24  O   UNL     1      -7.730 -40.889  18.270  1.00  0.00    -0.550 OA
ENDBRANCH  21  22
ENDBRANCH  20  21
ENDBRANCH  19  20
ENDBRANCH  18  19
ENDBRANCH  17  18
ENDBRANCH  16  17
ENDBRANCH  15  16
ENDBRANCH  14  15
ENDBRANCH  13  14
ENDBRANCH   1  13
TORSDOF 20
ENDMDL
MODEL 9
REMARK VINA RESULT:    -4.209      3.971      7.139
REMARK INTER + INTRA:         -12.678
REMARK INTER:                  -8.577
REMARK INTRA:                  -4.101
REMARK UNBOUND:                -3.547
REMARK SMILES CCCCCCCCCCCCCCCCCCCCCC(=O)[O-]
REMARK SMILES IDX 12 1 11 2 10 3 9 4 8 5 7 6 6 7 5 8 4 9 3 10 2 11 1 12 13 13
REMARK SMILES IDX 14 14 15 15 16 16 17 17 18 18 19 19 20 20 21 21 22 22 23 23
REMARK SMILES IDX 24 24
REMARK H PARENT
REMARK Flexibility Score: inf
ROOT
ATOM      1  C   UNL     1      -1.814 -45.606  16.294  1.00  0.00     0.000 C 
ENDROOT
BRANCH   1   2
ATOM      2  C   UNL     1      -3.259 -45.529  15.759  1.00  0.00     0.000 C 
BRANCH   2   3
ATOM      3  C   UNL     1      -3.723 -44.123  15.338  1.00  0.00     0.000 C 
BRANCH   3   4
ATOM      4  C   UNL     1      -5.240 -43.930  15.473  1.00  0.00    -0.000 C 
BRANCH   4   5
ATOM      5  C   UNL     1      -5.935 -45.257  15.808  1.00  0.00    -0.000 C 
BRANCH   5   6
ATOM      6  C   UNL     1      -7.415 -45.282  15.385  1.00  0.00    -0.000 C 
BRANCH   6   7
ATOM      7  C   UNL     1      -7.720 -44.614  14.028  1.00  0.00    -0.000 C 
BRANCH   7   8
ATOM      8  C   UNL     1      -8.154 -45.576  12.909  1.00  0.00    -0.000 C 
BRANCH   8   9
ATOM      9  C   UNL     1      -7.031 -45.861  11.899  1.00  0.00    -0.000 C 
BRANCH   9  10
ATOM     10  C   UNL     1      -5.986 -44.741  11.912  1.00  0.00    -0.000 C 
BRANCH  10  11
ATOM     11  C   UNL     1      -4.565 -45.314  11.948  1.00  0.00    -0.003 C 
ATOM     12  C   UNL     1      -4.553 -46.724  12.532  1.00  0.00     0.004 C 
ENDBRANCH  10  11
ENDBRANCH   9  10
ENDBRANCH   8   9
ENDBRANCH   7   8
ENDBRANCH   6   7
ENDBRANCH   5   6
ENDBRANCH   4   5
ENDBRANCH   3   4
ENDBRANCH   2   3
ENDBRANCH   1   2
BRANCH   1  13
ATOM     13  C   UNL     1      -1.621 -46.517  17.522  1.00  0.00     0.000 C 
BRANCH  13  14
ATOM     14  C   UNL     1      -1.341 -47.999  17.199  1.00  0.00     0.000 C 
BRANCH  14  15
ATOM     15  C   UNL     1      -2.401 -48.990  17.712  1.00  0.00     0.000 C 
BRANCH  15  16
ATOM     16  C   UNL     1      -3.662 -49.025  16.831  1.00  0.00     0.000 C 
BRANCH  16  17
ATOM     17  C   UNL     1      -4.934 -48.643  17.608  1.00  0.00     0.000 C 
BRANCH  17  18
ATOM     18  C   UNL     1      -4.625 -48.096  19.014  1.00  0.00     0.000 C 
BRANCH  18  19
ATOM     19  C   UNL     1      -5.246 -46.711  19.256  1.00  0.00     0.000 C 
BRANCH  19  20
ATOM     20  C   UNL     1      -4.217 -45.676  19.741  1.00  0.00     0.006 C 
BRANCH  20  21
ATOM     21  C   UNL     1      -4.447 -44.293  19.116  1.00  0.00     0.053 C 
BRANCH  21  22
ATOM     22  C   UNL     1      -5.730 -43.676  19.583  1.00  0.00     0.041 C 
ATOM     23  O   UNL     1      -5.810 -43.175  20.736  1.00  0.00    -0.550 OA
ATOM     24  O   UNL     1      -6.829 -43.629  18.734  1.00  0.00    -0.550 OA
ENDBRANCH  21  22
ENDBRANCH  20  21
ENDBRANCH  19  20
ENDBRANCH  18  19
ENDBRANCH  17  18
ENDBRANCH  16  17
ENDBRANCH  15  16
ENDBRANCH  14  15
ENDBRANCH  13  14
ENDBRANCH   1  13
TORSDOF 20
ENDMDL
