MODEL 1
REMARK VINA RESULT:    -4.064      0.000      0.000
REMARK INTER + INTRA:          -9.253
REMARK INTER:                  -7.390
REMARK INTRA:                  -1.863
REMARK UNBOUND:                -1.863
REMARK SMILES CCCCCCCCCCCCCC[C@@H](C)C(=O)[O-]
REMARK SMILES IDX 9 1 10 2 11 3 12 4 13 5 14 6 15 7 16 8 17 9 18 10 19 11 8 12
REMARK SMILES IDX 7 13 6 14 5 15 4 16 3 17 2 18 1 19
REMARK H PARENT
REMARK Flexibility Score: inf
ROOT
ATOM      1  C   UNL     1       6.154   4.153  53.039  1.00  0.00     0.000 C 
ENDROOT
BRANCH   1   2
ATOM      2  C   UNL     1       7.356   4.467  53.951  1.00  0.00     0.000 C 
BRANCH   2   3
ATOM      3  C   UNL     1       8.725   4.457  53.246  1.00  0.00     0.000 C 
BRANCH   3   4
ATOM      4  C   UNL     1       9.620   5.634  53.662  1.00  0.00     0.000 C 
BRANCH   4   5
ATOM      5  C   UNL     1      10.538   6.059  52.509  1.00  0.00     0.001 C 
BRANCH   5   6
ATOM      6  C   UNL     1      10.032   5.508  51.168  1.00  0.00     0.009 C 
BRANCH   6   7
ATOM      7  C   UNL     1      11.090   4.636  50.460  1.00  0.00     0.032 C 
ATOM      8  C   UNL     1      12.497   5.196  50.698  1.00  0.00     0.014 C 
BRANCH   7   9
ATOM      9  C   UNL     1      11.023   3.205  50.921  1.00  0.00     0.044 C 
ATOM     10  O   UNL     1      10.253   2.384  50.356  1.00  0.00    -0.550 OA
ATOM     11  O   UNL     1      11.816   2.781  51.980  1.00  0.00    -0.550 OA
ENDBRANCH   7   9
ENDBRANCH   6   7
ENDBRANCH   5   6
ENDBRANCH   4   5
ENDBRANCH   3   4
ENDBRANCH   2   3
ENDBRANCH   1   2
BRANCH   1  12
ATOM     12  C   UNL     1       6.500   3.401  51.740  1.00  0.00     0.000 C 
BRANCH  12  13
ATOM     13  C   UNL     1       6.142   4.183  50.458  1.00  0.00    -0.000 C 
BRANCH  13  14
ATOM     14  C   UNL     1       6.480   5.680  50.570  1.00  0.00    -0.000 C 
BRANCH  14  15
ATOM     15  C   UNL     1       5.323   6.583  50.111  1.00  0.00    -0.000 C 
BRANCH  15  16
ATOM     16  C   UNL     1       4.034   6.339  50.910  1.00  0.00    -0.000 C 
BRANCH  16  17
ATOM     17  C   UNL     1       2.846   6.085  49.970  1.00  0.00    -0.000 C 
BRANCH  17  18
ATOM     18  C   UNL     1       1.867   5.038  50.524  1.00  0.00    -0.003 C 
ATOM     19  C   UNL     1       2.553   3.723  50.892  1.00  0.00     0.004 C 
ENDBRANCH  17  18
ENDBRANCH  16  17
ENDBRANCH  15  16
ENDBRANCH  14  15
ENDBRANCH  13  14
ENDBRANCH  12  13
ENDBRANCH   1  12
TORSDOF 14
ENDMDL
MODEL 2
REMARK VINA RESULT:    -3.618      3.546      6.733
REMARK INTER + INTRA:          -8.442
REMARK INTER:                  -6.481
REMARK INTRA:                  -1.961
REMARK UNBOUND:                -1.863
REMARK SMILES CCCCCCCCCCCCCC[C@@H](C)C(=O)[O-]
REMARK SMILES IDX 9 1 10 2 11 3 12 4 13 5 14 6 15 7 16 8 17 9 18 10 19 11 8 12
REMARK SMILES IDX 7 13 6 14 5 15 4 16 3 17 2 18 1 19
REMARK H PARENT
REMARK Flexibility Score: inf
ROOT
ATOM      1  C   UNL     1       9.139   5.701  51.369  1.00  0.00     0.000 C 
ENDROOT
BRANCH   1   2
ATOM      2  C   UNL     1       8.323   6.410  50.271  1.00  0.00     0.000 C 
BRANCH   2   3
ATOM      3  C   UNL     1       7.014   5.701  49.875  1.00  0.00     0.000 C 
BRANCH   3   4
ATOM      4  C   UNL     1       5.788   6.624  49.949  1.00  0.00     0.000 C 
BRANCH   4   5
ATOM      5  C   UNL     1       4.804   6.143  51.023  1.00  0.00     0.001 C 
BRANCH   5   6
ATOM      6  C   UNL     1       3.353   6.251  50.529  1.00  0.00     0.009 C 
BRANCH   6   7
ATOM      7  C   UNL     1       2.813   4.902  50.011  1.00  0.00     0.032 C 
ATOM      8  C   UNL     1       3.724   3.751  50.453  1.00  0.00     0.014 C 
BRANCH   7   9
ATOM      9  C   UNL     1       1.406   4.654  50.484  1.00  0.00     0.044 C 
ATOM     10  O   UNL     1       0.509   5.522  50.315  1.00  0.00    -0.550 OA
ATOM     11  O   UNL     1       1.088   3.456  51.114  1.00  0.00    -0.550 OA
ENDBRANCH   7   9
ENDBRANCH   6   7
ENDBRANCH   5   6
ENDBRANCH   4   5
ENDBRANCH   3   4
ENDBRANCH   2   3
ENDBRANCH   1   2
BRANCH   1  12
ATOM     12  C   UNL     1       9.349   4.190  51.153  1.00  0.00     0.000 C 
BRANCH  12  13
ATOM     13  C   UNL     1       8.672   3.310  52.224  1.00  0.00    -0.000 C 
BRANCH  13  14
ATOM     14  C   UNL     1       7.195   3.023  51.900  1.00  0.00    -0.000 C 
BRANCH  14  15
ATOM     15  C   UNL     1       6.255   3.373  53.064  1.00  0.00    -0.000 C 
BRANCH  15  16
ATOM     16  C   UNL     1       6.643   4.686  53.761  1.00  0.00    -0.000 C 
BRANCH  16  17
ATOM     17  C   UNL     1       6.676   4.508  55.286  1.00  0.00    -0.000 C 
BRANCH  17  18
ATOM     18  C   UNL     1       8.037   4.880  55.895  1.00  0.00    -0.003 C 
ATOM     19  C   UNL     1       8.905   5.706  54.945  1.00  0.00     0.004 C 
ENDBRANCH  17  18
ENDBRANCH  16  17
ENDBRANCH  15  16
ENDBRANCH  14  15
ENDBRANCH  13  14
ENDBRANCH  12  13
ENDBRANCH   1  12
TORSDOF 14
ENDMDL
MODEL 3
REMARK VINA RESULT:    -3.541      1.356      2.171
REMARK INTER + INTRA:          -8.302
REMARK INTER:                  -6.873
REMARK INTRA:                  -1.429
REMARK UNBOUND:                -1.863
REMARK SMILES CCCCCCCCCCCCCC[C@@H](C)C(=O)[O-]
REMARK SMILES IDX 9 1 10 2 11 3 12 4 13 5 14 6 15 7 16 8 17 9 18 10 19 11 8 12
REMARK SMILES IDX 7 13 6 14 5 15 4 16 3 17 2 18 1 19
REMARK H PARENT
REMARK Flexibility Score: inf
ROOT
ATOM      1  C   UNL     1       6.646   4.366  52.769  1.00  0.00     0.000 C 
ENDROOT
BRANCH   1   2
ATOM      2  C   UNL     1       8.009   4.605  52.093  1.00  0.00     0.000 C 
BRANCH   2   3
ATOM      3  C   UNL     1       7.983   4.586  50.553  1.00  0.00     0.000 C 
BRANCH   3   4
ATOM      4  C   UNL     1       8.087   5.989  49.936  1.00  0.00     0.000 C 
BRANCH   4   5
ATOM      5  C   UNL     1       9.264   6.768  50.537  1.00  0.00     0.001 C 
BRANCH   5   6
ATOM      6  C   UNL     1      10.602   6.264  49.975  1.00  0.00     0.009 C 
BRANCH   6   7
ATOM      7  C   UNL     1      11.575   5.831  51.091  1.00  0.00     0.032 C 
ATOM      8  C   UNL     1      11.135   6.402  52.443  1.00  0.00     0.014 C 
BRANCH   7   9
ATOM      9  C   UNL     1      11.681   4.331  51.178  1.00  0.00     0.044 C 
ATOM     10  O   UNL     1      12.259   3.784  52.154  1.00  0.00    -0.550 OA
ATOM     11  O   UNL     1      11.137   3.540  50.173  1.00  0.00    -0.550 OA
ENDBRANCH   7   9
ENDBRANCH   6   7
ENDBRANCH   5   6
ENDBRANCH   4   5
ENDBRANCH   3   4
ENDBRANCH   2   3
ENDBRANCH   1   2
BRANCH   1  12
ATOM     12  C   UNL     1       5.723   3.370  52.041  1.00  0.00     0.000 C 
BRANCH  12  13
ATOM     13  C   UNL     1       4.703   4.044  51.099  1.00  0.00    -0.000 C 
BRANCH  13  14
ATOM     14  C   UNL     1       4.497   5.534  51.427  1.00  0.00    -0.000 C 
BRANCH  14  15
ATOM     15  C   UNL     1       3.358   6.167  50.612  1.00  0.00    -0.000 C 
BRANCH  15  16
ATOM     16  C   UNL     1       2.409   5.117  50.012  1.00  0.00    -0.000 C 
BRANCH  16  17
ATOM     17  C   UNL     1       0.960   5.627  50.010  1.00  0.00    -0.000 C 
BRANCH  17  18
ATOM     18  C   UNL     1      -0.056   4.520  50.329  1.00  0.00    -0.003 C 
ATOM     19  C   UNL     1       0.607   3.172  50.614  1.00  0.00     0.004 C 
ENDBRANCH  17  18
ENDBRANCH  16  17
ENDBRANCH  15  16
ENDBRANCH  14  15
ENDBRANCH  13  14
ENDBRANCH  12  13
ENDBRANCH   1  12
TORSDOF 14
ENDMDL
MODEL 4
REMARK VINA RESULT:    -3.514      1.883      3.262
REMARK INTER + INTRA:          -8.252
REMARK INTER:                  -6.918
REMARK INTRA:                  -1.334
REMARK UNBOUND:                -1.863
REMARK SMILES CCCCCCCCCCCCCC[C@@H](C)C(=O)[O-]
REMARK SMILES IDX 9 1 10 2 11 3 12 4 13 5 14 6 15 7 16 8 17 9 18 10 19 11 8 12
REMARK SMILES IDX 7 13 6 14 5 15 4 16 3 17 2 18 1 19
REMARK H PARENT
REMARK Flexibility Score: inf
ROOT
ATOM      1  C   UNL     1       5.852   4.868  52.063  1.00  0.00     0.000 C 
ENDROOT
BRANCH   1   2
ATOM      2  C   UNL     1       6.812   3.675  52.232  1.00  0.00     0.000 C 
BRANCH   2   3
ATOM      3  C   UNL     1       6.603   2.527  51.228  1.00  0.00     0.000 C 
BRANCH   3   4
ATOM      4  C   UNL     1       7.924   1.963  50.680  1.00  0.00     0.000 C 
BRANCH   4   5
ATOM      5  C   UNL     1       8.703   3.038  49.911  1.00  0.00     0.001 C 
BRANCH   5   6
ATOM      6  C   UNL     1      10.210   2.934  50.194  1.00  0.00     0.009 C 
BRANCH   6   7
ATOM      7  C   UNL     1      10.544   3.213  51.674  1.00  0.00     0.032 C 
ATOM      8  C   UNL     1      11.653   2.273  52.163  1.00  0.00     0.014 C 
BRANCH   7   9
ATOM      9  C   UNL     1      10.955   4.645  51.886  1.00  0.00     0.044 C 
ATOM     10  O   UNL     1      12.146   5.007  51.693  1.00  0.00    -0.550 OA
ATOM     11  O   UNL     1      10.014   5.581  52.297  1.00  0.00    -0.550 OA
ENDBRANCH   7   9
ENDBRANCH   6   7
ENDBRANCH   5   6
ENDBRANCH   4   5
ENDBRANCH   3   4
ENDBRANCH   2   3
ENDBRANCH   1   2
BRANCH   1  12
ATOM     12  C   UNL     1       5.788   5.457  50.640  1.00  0.00     0.000 C 
BRANCH  12  13
ATOM     13  C   UNL     1       4.409   5.301  49.966  1.00  0.00    -0.000 C 
BRANCH  13  14
ATOM     14  C   UNL     1       3.264   5.199  50.989  1.00  0.00    -0.000 C 
BRANCH  14  15
ATOM     15  C   UNL     1       2.569   3.827  50.963  1.00  0.00    -0.000 C 
BRANCH  15  16
ATOM     16  C   UNL     1       1.068   3.933  50.650  1.00  0.00    -0.000 C 
BRANCH  16  17
ATOM     17  C   UNL     1       0.695   5.362  50.231  1.00  0.00    -0.000 C 
BRANCH  17  18
ATOM     18  C   UNL     1      -0.822   5.603  50.240  1.00  0.00    -0.003 C 
ATOM     19  C   UNL     1      -1.195   7.041  49.875  1.00  0.00     0.004 C 
ENDBRANCH  17  18
ENDBRANCH  16  17
ENDBRANCH  15  16
ENDBRANCH  14  15
ENDBRANCH  13  14
ENDBRANCH  12  13
ENDBRANCH   1  12
TORSDOF 14
ENDMDL
MODEL 5
REMARK VINA RESULT:    -3.404      2.537      6.170
REMARK INTER + INTRA:          -8.052
REMARK INTER:                  -6.014
REMARK INTRA:                  -2.038
REMARK UNBOUND:                -1.863
REMARK SMILES CCCCCCCCCCCCCC[C@@H](C)C(=O)[O-]
REMARK SMILES IDX 9 1 10 2 11 3 12 4 13 5 14 6 15 7 16 8 17 9 18 10 19 11 8 12
REMARK SMILES IDX 7 13 6 14 5 15 4 16 3 17 2 18 1 19
REMARK H PARENT
REMARK Flexibility Score: inf
ROOT
ATOM      1  C   UNL     1       9.463   6.022  54.343  1.00  0.00     0.000 C 
ENDROOT
BRANCH   1   2
ATOM      2  C   UNL     1       8.282   5.100  54.704  1.00  0.00     0.000 C 
BRANCH   2   3
ATOM      3  C   UNL     1       7.794   4.191  53.562  1.00  0.00     0.000 C 
BRANCH   3   4
ATOM      4  C   UNL     1       6.323   4.433  53.192  1.00  0.00     0.000 C 
BRANCH   4   5
ATOM      5  C   UNL     1       5.865   3.463  52.095  1.00  0.00     0.001 C 
BRANCH   5   6
ATOM      6  C   UNL     1       6.056   4.078  50.700  1.00  0.00     0.009 C 
BRANCH   6   7
ATOM      7  C   UNL     1       4.784   4.793  50.201  1.00  0.00     0.032 C 
ATOM      8  C   UNL     1       3.540   4.237  50.903  1.00  0.00     0.014 C 
BRANCH   7   9
ATOM      9  C   UNL     1       4.870   6.281  50.411  1.00  0.00     0.044 C 
ATOM     10  O   UNL     1       3.974   6.892  51.053  1.00  0.00    -0.550 OA
ATOM     11  O   UNL     1       5.946   6.992  49.894  1.00  0.00    -0.550 OA
ENDBRANCH   7   9
ENDBRANCH   6   7
ENDBRANCH   5   6
ENDBRANCH   4   5
ENDBRANCH   3   4
ENDBRANCH   2   3
ENDBRANCH   1   2
BRANCH   1  12
ATOM     12  C   UNL     1      10.384   5.492  53.227  1.00  0.00     0.000 C 
BRANCH  12  13
ATOM     13  C   UNL     1      10.407   6.382  51.967  1.00  0.00    -0.000 C 
BRANCH  13  14
ATOM     14  C   UNL     1       9.416   5.901  50.892  1.00  0.00    -0.000 C 
BRANCH  14  15
ATOM     15  C   UNL     1      10.031   4.854  49.948  1.00  0.00    -0.000 C 
BRANCH  15  16
ATOM     16  C   UNL     1       9.198   3.565  49.875  1.00  0.00    -0.000 C 
BRANCH  16  17
ATOM     17  C   UNL     1       9.729   2.512  50.858  1.00  0.00    -0.000 C 
BRANCH  17  18
ATOM     18  C   UNL     1      11.245   2.625  51.082  1.00  0.00    -0.003 C 
ATOM     19  C   UNL     1      11.673   2.159  52.474  1.00  0.00     0.004 C 
ENDBRANCH  17  18
ENDBRANCH  16  17
ENDBRANCH  15  16
ENDBRANCH  14  15
ENDBRANCH  13  14
ENDBRANCH  12  13
ENDBRANCH   1  12
TORSDOF 14
ENDMDL
MODEL 6
REMARK VINA RESULT:    -3.393      1.865      2.845
REMARK INTER + INTRA:          -8.032
REMARK INTER:                  -6.804
REMARK INTRA:                  -1.228
REMARK UNBOUND:                -1.863
REMARK SMILES CCCCCCCCCCCCCC[C@@H](C)C(=O)[O-]
REMARK SMILES IDX 9 1 10 2 11 3 12 4 13 5 14 6 15 7 16 8 17 9 18 10 19 11 8 12
REMARK SMILES IDX 7 13 6 14 5 15 4 16 3 17 2 18 1 19
REMARK H PARENT
REMARK Flexibility Score: inf
ROOT
ATOM      1  C   UNL     1       6.981   4.841  51.864  1.00  0.00     0.000 C 
ENDROOT
BRANCH   1   2
ATOM      2  C   UNL     1       7.841   3.720  52.478  1.00  0.00     0.000 C 
BRANCH   2   3
ATOM      3  C   UNL     1       8.346   2.666  51.475  1.00  0.00     0.000 C 
BRANCH   3   4
ATOM      4  C   UNL     1       9.751   2.977  50.938  1.00  0.00     0.000 C 
BRANCH   4   5
ATOM      5  C   UNL     1      10.821   2.684  51.998  1.00  0.00     0.001 C 
BRANCH   5   6
ATOM      6  C   UNL     1      11.889   3.788  52.023  1.00  0.00     0.009 C 
BRANCH   6   7
ATOM      7  C   UNL     1      11.395   5.091  51.360  1.00  0.00     0.032 C 
ATOM      8  C   UNL     1      10.840   6.056  52.413  1.00  0.00     0.014 C 
BRANCH   7   9
ATOM      9  C   UNL     1      12.492   5.761  50.576  1.00  0.00     0.044 C 
ATOM     10  O   UNL     1      13.650   5.268  50.543  1.00  0.00    -0.550 OA
ATOM     11  O   UNL     1      12.228   6.935  49.881  1.00  0.00    -0.550 OA
ENDBRANCH   7   9
ENDBRANCH   6   7
ENDBRANCH   5   6
ENDBRANCH   4   5
ENDBRANCH   3   4
ENDBRANCH   2   3
ENDBRANCH   1   2
BRANCH   1  12
ATOM     12  C   UNL     1       6.801   4.762  50.336  1.00  0.00     0.000 C 
BRANCH  12  13
ATOM     13  C   UNL     1       5.336   4.911  49.876  1.00  0.00    -0.000 C 
BRANCH  13  14
ATOM     14  C   UNL     1       4.496   5.752  50.854  1.00  0.00    -0.000 C 
BRANCH  14  15
ATOM     15  C   UNL     1       2.989   5.469  50.733  1.00  0.00    -0.000 C 
BRANCH  15  16
ATOM     16  C   UNL     1       2.651   3.982  50.923  1.00  0.00    -0.000 C 
BRANCH  16  17
ATOM     17  C   UNL     1       1.164   3.718  50.650  1.00  0.00    -0.000 C 
BRANCH  17  18
ATOM     18  C   UNL     1       0.335   5.010  50.592  1.00  0.00    -0.003 C 
ATOM     19  C   UNL     1      -1.131   4.758  50.238  1.00  0.00     0.004 C 
ENDBRANCH  17  18
ENDBRANCH  16  17
ENDBRANCH  15  16
ENDBRANCH  14  15
ENDBRANCH  13  14
ENDBRANCH  12  13
ENDBRANCH   1  12
TORSDOF 14
ENDMDL
MODEL 7
REMARK VINA RESULT:    -3.366      1.298      2.450
REMARK INTER + INTRA:          -7.983
REMARK INTER:                  -7.392
REMARK INTRA:                  -0.591
REMARK UNBOUND:                -1.863
REMARK SMILES CCCCCCCCCCCCCC[C@@H](C)C(=O)[O-]
REMARK SMILES IDX 9 1 10 2 11 3 12 4 13 5 14 6 15 7 16 8 17 9 18 10 19 11 8 12
REMARK SMILES IDX 7 13 6 14 5 15 4 16 3 17 2 18 1 19
REMARK H PARENT
REMARK Flexibility Score: inf
ROOT
ATOM      1  C   UNL     1       7.790   4.862  55.558  1.00  0.00     0.000 C 
ENDROOT
BRANCH   1   2
ATOM      2  C   UNL     1       8.875   5.759  54.932  1.00  0.00     0.000 C 
BRANCH   2   3
ATOM      3  C   UNL     1       9.364   5.314  53.542  1.00  0.00     0.000 C 
BRANCH   3   4
ATOM      4  C   UNL     1      10.637   6.047  53.092  1.00  0.00     0.000 C 
BRANCH   4   5
ATOM      5  C   UNL     1      10.540   6.463  51.619  1.00  0.00     0.001 C 
BRANCH   5   6
ATOM      6  C   UNL     1       9.749   5.428  50.805  1.00  0.00     0.009 C 
BRANCH   6   7
ATOM      7  C   UNL     1      10.673   4.403  50.112  1.00  0.00     0.032 C 
ATOM      8  C   UNL     1      12.063   5.003  49.876  1.00  0.00     0.014 C 
BRANCH   7   9
ATOM      9  C   UNL     1      10.790   3.136  50.917  1.00  0.00     0.044 C 
ATOM     10  O   UNL     1       9.915   2.235  50.827  1.00  0.00    -0.550 OA
ATOM     11  O   UNL     1      11.874   2.955  51.768  1.00  0.00    -0.550 OA
ENDBRANCH   7   9
ENDBRANCH   6   7
ENDBRANCH   5   6
ENDBRANCH   4   5
ENDBRANCH   3   4
ENDBRANCH   2   3
ENDBRANCH   1   2
BRANCH   1  12
ATOM     12  C   UNL     1       6.615   4.513  54.624  1.00  0.00     0.000 C 
BRANCH  12  13
ATOM     13  C   UNL     1       7.050   4.139  53.192  1.00  0.00    -0.000 C 
BRANCH  13  14
ATOM     14  C   UNL     1       5.977   3.327  52.446  1.00  0.00    -0.000 C 
BRANCH  14  15
ATOM     15  C   UNL     1       6.471   2.798  51.090  1.00  0.00    -0.000 C 
BRANCH  15  16
ATOM     16  C   UNL     1       6.366   3.849  49.974  1.00  0.00    -0.000 C 
BRANCH  16  17
ATOM     17  C   UNL     1       5.160   4.772  50.201  1.00  0.00    -0.000 C 
BRANCH  17  18
ATOM     18  C   UNL     1       5.553   6.256  50.251  1.00  0.00    -0.003 C 
ATOM     19  C   UNL     1       4.376   7.168  50.598  1.00  0.00     0.004 C 
ENDBRANCH  17  18
ENDBRANCH  16  17
ENDBRANCH  15  16
ENDBRANCH  14  15
ENDBRANCH  13  14
ENDBRANCH  12  13
ENDBRANCH   1  12
TORSDOF 14
ENDMDL
MODEL 8
REMARK VINA RESULT:    -3.291      3.643      7.567
REMARK INTER + INTRA:          -7.848
REMARK INTER:                  -6.286
REMARK INTRA:                  -1.562
REMARK UNBOUND:                -1.863
REMARK SMILES CCCCCCCCCCCCCC[C@@H](C)C(=O)[O-]
REMARK SMILES IDX 9 1 10 2 11 3 12 4 13 5 14 6 15 7 16 8 17 9 18 10 19 11 8 12
REMARK SMILES IDX 7 13 6 14 5 15 4 16 3 17 2 18 1 19
REMARK H PARENT
REMARK Flexibility Score: inf
ROOT
ATOM      1  C   UNL     1       8.036   4.838  52.047  1.00  0.00     0.000 C 
ENDROOT
BRANCH   1   2
ATOM      2  C   UNL     1       7.274   3.688  52.734  1.00  0.00     0.000 C 
BRANCH   2   3
ATOM      3  C   UNL     1       5.781   3.591  52.370  1.00  0.00     0.000 C 
BRANCH   3   4
ATOM      4  C   UNL     1       5.533   2.831  51.059  1.00  0.00     0.000 C 
BRANCH   4   5
ATOM      5  C   UNL     1       4.895   3.745  50.005  1.00  0.00     0.001 C 
BRANCH   5   6
ATOM      6  C   UNL     1       3.380   3.507  49.914  1.00  0.00     0.009 C 
BRANCH   6   7
ATOM      7  C   UNL     1       2.580   4.516  50.763  1.00  0.00     0.032 C 
ATOM      8  C   UNL     1       2.806   5.945  50.259  1.00  0.00     0.014 C 
BRANCH   7   9
ATOM      9  C   UNL     1       1.109   4.196  50.758  1.00  0.00     0.044 C 
ATOM     10  O   UNL     1       0.710   3.005  50.847  1.00  0.00    -0.550 OA
ATOM     11  O   UNL     1       0.178   5.223  50.655  1.00  0.00    -0.550 OA
ENDBRANCH   7   9
ENDBRANCH   6   7
ENDBRANCH   5   6
ENDBRANCH   4   5
ENDBRANCH   3   4
ENDBRANCH   2   3
ENDBRANCH   1   2
BRANCH   1  12
ATOM     12  C   UNL     1       8.632   4.493  50.669  1.00  0.00     0.000 C 
BRANCH  12  13
ATOM     13  C   UNL     1       9.007   3.004  50.510  1.00  0.00    -0.000 C 
BRANCH  13  14
ATOM     14  C   UNL     1      10.529   2.788  50.432  1.00  0.00    -0.000 C 
BRANCH  14  15
ATOM     15  C   UNL     1      11.213   2.901  51.805  1.00  0.00    -0.000 C 
BRANCH  15  16
ATOM     16  C   UNL     1      12.211   4.067  51.871  1.00  0.00    -0.000 C 
BRANCH  16  17
ATOM     17  C   UNL     1      12.120   4.939  50.610  1.00  0.00    -0.000 C 
BRANCH  17  18
ATOM     18  C   UNL     1      12.049   6.440  50.933  1.00  0.00    -0.003 C 
ATOM     19  C   UNL     1      11.220   6.737  52.183  1.00  0.00     0.004 C 
ENDBRANCH  17  18
ENDBRANCH  16  17
ENDBRANCH  15  16
ENDBRANCH  14  15
ENDBRANCH  13  14
ENDBRANCH  12  13
ENDBRANCH   1  12
TORSDOF 14
ENDMDL
