MODEL 1
REMARK VINA RESULT:    -5.140      0.000      0.000
REMARK INTER + INTRA:          -8.815
REMARK INTER:                  -8.145
REMARK INTRA:                  -0.670
REMARK UNBOUND:                -0.670
REMARK SMILES CCCCCCCCCCCC(=O)[O-]
REMARK SMILES IDX 7 1 8 2 9 3 10 4 11 5 12 6 13 7 14 8 6 9 5 10 4 11 3 12 2 13
REMARK SMILES IDX 1 14
REMARK H PARENT
REMARK Flexibility Score: inf
ROOT
ATOM      1  C   UNL     1     -11.245  12.480   8.932  1.00  0.00     0.000 C 
ENDROOT
BRANCH   1   2
ATOM      2  C   UNL     1     -10.860  12.065   7.500  1.00  0.00     0.000 C 
BRANCH   2   3
ATOM      3  C   UNL     1     -11.710  10.895   6.976  1.00  0.00     0.000 C 
BRANCH   3   4
ATOM      4  C   UNL     1     -11.705  10.799   5.441  1.00  0.00     0.006 C 
BRANCH   4   5
ATOM      5  C   UNL     1     -10.765  11.828   4.800  1.00  0.00     0.053 C 
BRANCH   5   6
ATOM      6  C   UNL     1     -10.414  11.458   3.391  1.00  0.00     0.041 C 
ATOM      7  O   UNL     1      -9.392  10.762   3.154  1.00  0.00    -0.550 OA
ATOM      8  O   UNL     1     -11.202  11.905   2.338  1.00  0.00    -0.550 OA
ENDBRANCH   5   6
ENDBRANCH   4   5
ENDBRANCH   3   4
ENDBRANCH   2   3
ENDBRANCH   1   2
BRANCH   1   9
ATOM      9  C   UNL     1     -10.449  13.698   9.428  1.00  0.00     0.000 C 
BRANCH   9  10
ATOM     10  C   UNL     1      -9.368  14.148   8.431  1.00  0.00    -0.000 C 
BRANCH  10  11
ATOM     11  C   UNL     1      -8.064  14.501   9.161  1.00  0.00    -0.000 C 
BRANCH  11  12
ATOM     12  C   UNL     1      -8.305  15.319  10.441  1.00  0.00    -0.000 C 
BRANCH  12  13
ATOM     13  C   UNL     1      -7.490  14.802  11.636  1.00  0.00    -0.003 C 
ATOM     14  C   UNL     1      -7.452  13.276  11.656  1.00  0.00     0.004 C 
ENDBRANCH  12  13
ENDBRANCH  11  12
ENDBRANCH  10  11
ENDBRANCH   9  10
ENDBRANCH   1   9
TORSDOF 10
ENDMDL
MODEL 2
REMARK VINA RESULT:    -5.026      1.719      2.648
REMARK INTER + INTRA:          -8.635
REMARK INTER:                  -8.132
REMARK INTRA:                  -0.503
REMARK UNBOUND:                -0.670
REMARK SMILES CCCCCCCCCCCC(=O)[O-]
REMARK SMILES IDX 7 1 8 2 9 3 10 4 11 5 12 6 13 7 14 8 6 9 5 10 4 11 3 12 2 13
REMARK SMILES IDX 1 14
REMARK H PARENT
REMARK Flexibility Score: inf
ROOT
ATOM      1  C   UNL     1     -12.021  10.690   6.778  1.00  0.00     0.000 C 
ENDROOT
BRANCH   1   2
ATOM      2  C   UNL     1     -11.200  11.599   5.846  1.00  0.00     0.000 C 
BRANCH   2   3
ATOM      3  C   UNL     1     -11.171  11.086   4.396  1.00  0.00     0.000 C 
BRANCH   3   4
ATOM      4  C   UNL     1      -9.965  11.616   3.603  1.00  0.00     0.006 C 
BRANCH   4   5
ATOM      5  C   UNL     1      -9.477  12.972   4.129  1.00  0.00     0.053 C 
BRANCH   5   6
ATOM      6  C   UNL     1      -8.956  13.842   3.025  1.00  0.00     0.041 C 
ATOM      7  O   UNL     1      -7.780  13.694   2.602  1.00  0.00    -0.550 OA
ATOM      8  O   UNL     1      -9.763  14.833   2.482  1.00  0.00    -0.550 OA
ENDBRANCH   5   6
ENDBRANCH   4   5
ENDBRANCH   3   4
ENDBRANCH   2   3
ENDBRANCH   1   2
BRANCH   1   9
ATOM      9  C   UNL     1     -11.750  10.971   8.265  1.00  0.00     0.000 C 
BRANCH   9  10
ATOM     10  C   UNL     1     -11.719  12.472   8.591  1.00  0.00    -0.000 C 
BRANCH  10  11
ATOM     11  C   UNL     1     -10.509  12.816   9.473  1.00  0.00    -0.000 C 
BRANCH  11  12
ATOM     12  C   UNL     1      -9.983  14.239   9.227  1.00  0.00    -0.000 C 
BRANCH  12  13
ATOM     13  C   UNL     1      -8.604  14.477   9.860  1.00  0.00    -0.003 C 
ATOM     14  C   UNL     1      -8.419  13.625  11.112  1.00  0.00     0.004 C 
ENDBRANCH  12  13
ENDBRANCH  11  12
ENDBRANCH  10  11
ENDBRANCH   9  10
ENDBRANCH   1   9
TORSDOF 10
ENDMDL
MODEL 3
REMARK VINA RESULT:    -4.945      3.713      6.954
REMARK INTER + INTRA:          -8.507
REMARK INTER:                  -7.980
REMARK INTRA:                  -0.527
REMARK UNBOUND:                -0.670
REMARK SMILES CCCCCCCCCCCC(=O)[O-]
REMARK SMILES IDX 7 1 8 2 9 3 10 4 11 5 12 6 13 7 14 8 6 9 5 10 4 11 3 12 2 13
REMARK SMILES IDX 1 14
REMARK H PARENT
REMARK Flexibility Score: inf
ROOT
ATOM      1  C   UNL     1     -11.388  12.064   8.837  1.00  0.00     0.000 C 
ENDROOT
BRANCH   1   2
ATOM      2  C   UNL     1     -11.107  13.512   9.277  1.00  0.00     0.000 C 
BRANCH   2   3
ATOM      3  C   UNL     1      -9.742  14.023   8.787  1.00  0.00     0.000 C 
BRANCH   3   4
ATOM      4  C   UNL     1      -8.998  14.845   9.854  1.00  0.00     0.006 C 
BRANCH   4   5
ATOM      5  C   UNL     1      -7.614  14.262  10.171  1.00  0.00     0.053 C 
BRANCH   5   6
ATOM      6  C   UNL     1      -7.601  13.549  11.489  1.00  0.00     0.041 C 
ATOM      7  O   UNL     1      -8.568  12.815  11.822  1.00  0.00    -0.550 OA
ATOM      8  O   UNL     1      -6.533  13.717  12.360  1.00  0.00    -0.550 OA
ENDBRANCH   5   6
ENDBRANCH   4   5
ENDBRANCH   3   4
ENDBRANCH   2   3
ENDBRANCH   1   2
BRANCH   1   9
ATOM      9  C   UNL     1     -12.813  11.880   8.288  1.00  0.00     0.000 C 
BRANCH   9  10
ATOM     10  C   UNL     1     -12.832  11.526   6.792  1.00  0.00    -0.000 C 
BRANCH  10  11
ATOM     11  C   UNL     1     -11.405  11.355   6.252  1.00  0.00    -0.000 C 
BRANCH  11  12
ATOM     12  C   UNL     1     -11.374  11.066   4.742  1.00  0.00    -0.000 C 
BRANCH  12  13
ATOM     13  C   UNL     1     -10.311  11.893   4.003  1.00  0.00    -0.003 C 
ATOM     14  C   UNL     1      -9.700  11.100   2.852  1.00  0.00     0.004 C 
ENDBRANCH  12  13
ENDBRANCH  11  12
ENDBRANCH  10  11
ENDBRANCH   9  10
ENDBRANCH   1   9
TORSDOF 10
ENDMDL
MODEL 4
REMARK VINA RESULT:    -4.878      3.714      6.773
REMARK INTER + INTRA:          -8.400
REMARK INTER:                  -7.885
REMARK INTRA:                  -0.515
REMARK UNBOUND:                -0.670
REMARK SMILES CCCCCCCCCCCC(=O)[O-]
REMARK SMILES IDX 7 1 8 2 9 3 10 4 11 5 12 6 13 7 14 8 6 9 5 10 4 11 3 12 2 13
REMARK SMILES IDX 1 14
REMARK H PARENT
REMARK Flexibility Score: inf
ROOT
ATOM      1  C   UNL     1     -10.991  11.901   7.379  1.00  0.00     0.000 C 
ENDROOT
BRANCH   1   2
ATOM      2  C   UNL     1     -11.488  12.173   8.810  1.00  0.00     0.000 C 
BRANCH   2   3
ATOM      3  C   UNL     1     -10.443  12.904   9.669  1.00  0.00     0.000 C 
BRANCH   3   4
ATOM      4  C   UNL     1      -9.858  14.141   8.968  1.00  0.00     0.006 C 
BRANCH   4   5
ATOM      5  C   UNL     1      -8.501  14.552   9.555  1.00  0.00     0.053 C 
BRANCH   5   6
ATOM      6  C   UNL     1      -8.581  15.866  10.271  1.00  0.00     0.041 C 
ATOM      7  O   UNL     1      -9.651  16.529  10.263  1.00  0.00    -0.550 OA
ATOM      8  O   UNL     1      -7.464  16.371  10.924  1.00  0.00    -0.550 OA
ENDBRANCH   5   6
ENDBRANCH   4   5
ENDBRANCH   3   4
ENDBRANCH   2   3
ENDBRANCH   1   2
BRANCH   1   9
ATOM      9  C   UNL     1     -12.112  11.413   6.447  1.00  0.00     0.000 C 
BRANCH   9  10
ATOM     10  C   UNL     1     -11.576  10.741   5.173  1.00  0.00    -0.000 C 
BRANCH  10  11
ATOM     11  C   UNL     1     -10.895  11.768   4.257  1.00  0.00    -0.000 C 
BRANCH  11  12
ATOM     12  C   UNL     1      -9.904  11.122   3.276  1.00  0.00    -0.000 C 
BRANCH  12  13
ATOM     13  C   UNL     1      -8.593  11.913   3.153  1.00  0.00    -0.003 C 
ATOM     14  C   UNL     1      -8.734  13.307   3.757  1.00  0.00     0.004 C 
ENDBRANCH  12  13
ENDBRANCH  11  12
ENDBRANCH  10  11
ENDBRANCH   9  10
ENDBRANCH   1   9
TORSDOF 10
ENDMDL
MODEL 5
REMARK VINA RESULT:    -4.868      2.973      3.368
REMARK INTER + INTRA:          -8.384
REMARK INTER:                  -7.870
REMARK INTRA:                  -0.514
REMARK UNBOUND:                -0.670
REMARK SMILES CCCCCCCCCCCC(=O)[O-]
REMARK SMILES IDX 7 1 8 2 9 3 10 4 11 5 12 6 13 7 14 8 6 9 5 10 4 11 3 12 2 13
REMARK SMILES IDX 1 14
REMARK H PARENT
REMARK Flexibility Score: inf
ROOT
ATOM      1  C   UNL     1     -10.843  12.622   9.200  1.00  0.00     0.000 C 
ENDROOT
BRANCH   1   2
ATOM      2  C   UNL     1     -12.306  12.937   8.840  1.00  0.00     0.000 C 
BRANCH   2   3
ATOM      3  C   UNL     1     -12.930  11.871   7.923  1.00  0.00     0.000 C 
BRANCH   3   4
ATOM      4  C   UNL     1     -11.911  10.817   7.459  1.00  0.00     0.006 C 
BRANCH   4   5
ATOM      5  C   UNL     1     -12.546   9.761   6.544  1.00  0.00     0.053 C 
BRANCH   5   6
ATOM      6  C   UNL     1     -13.106   8.613   7.327  1.00  0.00     0.041 C 
ATOM      7  O   UNL     1     -13.818   7.745   6.758  1.00  0.00    -0.550 OA
ATOM      8  O   UNL     1     -12.864   8.518   8.691  1.00  0.00    -0.550 OA
ENDBRANCH   5   6
ENDBRANCH   4   5
ENDBRANCH   3   4
ENDBRANCH   2   3
ENDBRANCH   1   2
BRANCH   1   9
ATOM      9  C   UNL     1      -9.875  13.736   8.766  1.00  0.00     0.000 C 
BRANCH   9  10
ATOM     10  C   UNL     1     -10.226  15.101   9.380  1.00  0.00    -0.000 C 
BRANCH  10  11
ATOM     11  C   UNL     1      -9.051  15.649  10.203  1.00  0.00    -0.000 C 
BRANCH  11  12
ATOM     12  C   UNL     1      -8.028  14.562  10.572  1.00  0.00    -0.000 C 
BRANCH  12  13
ATOM     13  C   UNL     1      -7.334  14.833  11.914  1.00  0.00    -0.003 C 
ATOM     14  C   UNL     1      -6.646  13.577  12.441  1.00  0.00     0.004 C 
ENDBRANCH  12  13
ENDBRANCH  11  12
ENDBRANCH  10  11
ENDBRANCH   9  10
ENDBRANCH   1   9
TORSDOF 10
ENDMDL
MODEL 6
REMARK VINA RESULT:    -4.837      4.043      5.931
REMARK INTER + INTRA:          -8.335
REMARK INTER:                  -7.851
REMARK INTRA:                  -0.484
REMARK UNBOUND:                -0.670
REMARK SMILES CCCCCCCCCCCC(=O)[O-]
REMARK SMILES IDX 7 1 8 2 9 3 10 4 11 5 12 6 13 7 14 8 6 9 5 10 4 11 3 12 2 13
REMARK SMILES IDX 1 14
REMARK H PARENT
REMARK Flexibility Score: inf
ROOT
ATOM      1  C   UNL     1     -10.507  12.356   2.972  1.00  0.00     0.000 C 
ENDROOT
BRANCH   1   2
ATOM      2  C   UNL     1      -9.667  13.427   3.691  1.00  0.00     0.000 C 
BRANCH   2   3
ATOM      3  C   UNL     1      -8.175  13.061   3.758  1.00  0.00     0.000 C 
BRANCH   3   4
ATOM      4  C   UNL     1      -7.461  13.230   2.406  1.00  0.00     0.006 C 
BRANCH   4   5
ATOM      5  C   UNL     1      -7.574  14.662   1.867  1.00  0.00     0.053 C 
BRANCH   5   6
ATOM      6  C   UNL     1      -6.629  14.904   0.729  1.00  0.00     0.041 C 
ATOM      7  O   UNL     1      -6.934  15.711  -0.187  1.00  0.00    -0.550 OA
ATOM      8  O   UNL     1      -5.425  14.216   0.668  1.00  0.00    -0.550 OA
ENDBRANCH   5   6
ENDBRANCH   4   5
ENDBRANCH   3   4
ENDBRANCH   2   3
ENDBRANCH   1   2
BRANCH   1   9
ATOM      9  C   UNL     1     -10.747  11.111   3.842  1.00  0.00     0.000 C 
BRANCH   9  10
ATOM     10  C   UNL     1     -11.088  11.461   5.299  1.00  0.00    -0.000 C 
BRANCH  10  11
ATOM     11  C   UNL     1     -12.188  10.536   5.841  1.00  0.00    -0.000 C 
BRANCH  11  12
ATOM     12  C   UNL     1     -12.058  10.282   7.351  1.00  0.00    -0.000 C 
BRANCH  12  13
ATOM     13  C   UNL     1     -11.787  11.569   8.146  1.00  0.00    -0.003 C 
ATOM     14  C   UNL     1     -13.089  12.284   8.493  1.00  0.00     0.004 C 
ENDBRANCH  12  13
ENDBRANCH  11  12
ENDBRANCH  10  11
ENDBRANCH   9  10
ENDBRANCH   1   9
TORSDOF 10
ENDMDL
MODEL 7
REMARK VINA RESULT:    -4.837      5.671      7.219
REMARK INTER + INTRA:          -8.335
REMARK INTER:                  -7.712
REMARK INTRA:                  -0.623
REMARK UNBOUND:                -0.670
REMARK SMILES CCCCCCCCCCCC(=O)[O-]
REMARK SMILES IDX 7 1 8 2 9 3 10 4 11 5 12 6 13 7 14 8 6 9 5 10 4 11 3 12 2 13
REMARK SMILES IDX 1 14
REMARK H PARENT
REMARK Flexibility Score: inf
ROOT
ATOM      1  C   UNL     1     -13.609   8.516   7.513  1.00  0.00     0.000 C 
ENDROOT
BRANCH   1   2
ATOM      2  C   UNL     1     -13.799   7.022   7.194  1.00  0.00     0.000 C 
BRANCH   2   3
ATOM      3  C   UNL     1     -13.302   6.109   8.328  1.00  0.00     0.000 C 
BRANCH   3   4
ATOM      4  C   UNL     1     -14.421   5.233   8.917  1.00  0.00     0.006 C 
BRANCH   4   5
ATOM      5  C   UNL     1     -15.814   5.816   8.650  1.00  0.00     0.053 C 
BRANCH   5   6
ATOM      6  C   UNL     1     -16.382   6.480   9.867  1.00  0.00     0.041 C 
ATOM      7  O   UNL     1     -16.018   7.644  10.182  1.00  0.00    -0.550 OA
ATOM      8  O   UNL     1     -17.291   5.803  10.669  1.00  0.00    -0.550 OA
ENDBRANCH   5   6
ENDBRANCH   4   5
ENDBRANCH   3   4
ENDBRANCH   2   3
ENDBRANCH   1   2
BRANCH   1   9
ATOM      9  C   UNL     1     -12.951   9.287   6.357  1.00  0.00     0.000 C 
BRANCH   9  10
ATOM     10  C   UNL     1     -12.090  10.464   6.842  1.00  0.00    -0.000 C 
BRANCH  10  11
ATOM     11  C   UNL     1     -12.963  11.686   7.163  1.00  0.00    -0.000 C 
BRANCH  11  12
ATOM     12  C   UNL     1     -12.633  12.307   8.530  1.00  0.00    -0.000 C 
BRANCH  12  13
ATOM     13  C   UNL     1     -11.162  12.115   8.928  1.00  0.00    -0.003 C 
ATOM     14  C   UNL     1     -10.519  13.444   9.313  1.00  0.00     0.004 C 
ENDBRANCH  12  13
ENDBRANCH  11  12
ENDBRANCH  10  11
ENDBRANCH   9  10
ENDBRANCH   1   9
TORSDOF 10
ENDMDL
MODEL 8
REMARK VINA RESULT:    -4.828      4.624      6.600
REMARK INTER + INTRA:          -8.321
REMARK INTER:                  -7.668
REMARK INTRA:                  -0.653
REMARK UNBOUND:                -0.670
REMARK SMILES CCCCCCCCCCCC(=O)[O-]
REMARK SMILES IDX 7 1 8 2 9 3 10 4 11 5 12 6 13 7 14 8 6 9 5 10 4 11 3 12 2 13
REMARK SMILES IDX 1 14
REMARK H PARENT
REMARK Flexibility Score: inf
ROOT
ATOM      1  C   UNL     1     -10.048  12.078   3.455  1.00  0.00     0.000 C 
ENDROOT
BRANCH   1   2
ATOM      2  C   UNL     1     -10.980  11.126   4.226  1.00  0.00     0.000 C 
BRANCH   2   3
ATOM      3  C   UNL     1     -11.129  11.516   5.706  1.00  0.00     0.000 C 
BRANCH   3   4
ATOM      4  C   UNL     1     -12.473  11.069   6.305  1.00  0.00     0.006 C 
BRANCH   4   5
ATOM      5  C   UNL     1     -12.288  10.152   7.522  1.00  0.00     0.053 C 
BRANCH   5   6
ATOM      6  C   UNL     1     -13.294   9.042   7.539  1.00  0.00     0.041 C 
ATOM      7  O   UNL     1     -13.625   8.469   6.468  1.00  0.00    -0.550 OA
ATOM      8  O   UNL     1     -13.886   8.659   8.735  1.00  0.00    -0.550 OA
ENDBRANCH   5   6
ENDBRANCH   4   5
ENDBRANCH   3   4
ENDBRANCH   2   3
ENDBRANCH   1   2
BRANCH   1   9
ATOM      9  C   UNL     1      -9.287  13.039   4.382  1.00  0.00     0.000 C 
BRANCH   9  10
ATOM     10  C   UNL     1      -7.813  13.212   3.980  1.00  0.00    -0.000 C 
BRANCH  10  11
ATOM     11  C   UNL     1      -7.379  12.106   3.006  1.00  0.00    -0.000 C 
BRANCH  11  12
ATOM     12  C   UNL     1      -6.125  12.485   2.201  1.00  0.00    -0.000 C 
BRANCH  12  13
ATOM     13  C   UNL     1      -6.454  12.924   0.766  1.00  0.00    -0.003 C 
ATOM     14  C   UNL     1      -7.860  12.487   0.366  1.00  0.00     0.004 C 
ENDBRANCH  12  13
ENDBRANCH  11  12
ENDBRANCH  10  11
ENDBRANCH   9  10
ENDBRANCH   1   9
TORSDOF 10
ENDMDL
MODEL 9
REMARK VINA RESULT:    -4.798      4.175      6.128
REMARK INTER + INTRA:          -8.273
REMARK INTER:                  -7.796
REMARK INTRA:                  -0.477
REMARK UNBOUND:                -0.670
REMARK SMILES CCCCCCCCCCCC(=O)[O-]
REMARK SMILES IDX 7 1 8 2 9 3 10 4 11 5 12 6 13 7 14 8 6 9 5 10 4 11 3 12 2 13
REMARK SMILES IDX 1 14
REMARK H PARENT
REMARK Flexibility Score: inf
ROOT
ATOM      1  C   UNL     1     -10.924  11.494   5.282  1.00  0.00     0.000 C 
ENDROOT
BRANCH   1   2
ATOM      2  C   UNL     1     -10.848  11.192   3.775  1.00  0.00     0.000 C 
BRANCH   2   3
ATOM      3  C   UNL     1      -9.932  12.171   3.022  1.00  0.00     0.000 C 
BRANCH   3   4
ATOM      4  C   UNL     1      -9.376  13.281   3.930  1.00  0.00     0.006 C 
BRANCH   4   5
ATOM      5  C   UNL     1      -7.842  13.336   3.904  1.00  0.00     0.053 C 
BRANCH   5   6
ATOM      6  C   UNL     1      -7.320  13.646   2.534  1.00  0.00     0.041 C 
ATOM      7  O   UNL     1      -7.587  14.748   1.988  1.00  0.00    -0.550 OA
ATOM      8  O   UNL     1      -6.562  12.705   1.850  1.00  0.00    -0.550 OA
ENDBRANCH   5   6
ENDBRANCH   4   5
ENDBRANCH   3   4
ENDBRANCH   2   3
ENDBRANCH   1   2
BRANCH   1   9
ATOM      9  C   UNL     1     -11.979  10.640   6.003  1.00  0.00     0.000 C 
BRANCH   9  10
ATOM     10  C   UNL     1     -11.917  10.784   7.532  1.00  0.00    -0.000 C 
BRANCH  10  11
ATOM     11  C   UNL     1     -12.616   9.603   8.222  1.00  0.00    -0.000 C 
BRANCH  11  12
ATOM     12  C   UNL     1     -13.359   8.694   7.230  1.00  0.00    -0.000 C 
BRANCH  12  13
ATOM     13  C   UNL     1     -14.148   7.576   7.928  1.00  0.00    -0.003 C 
ATOM     14  C   UNL     1     -14.205   6.321   7.062  1.00  0.00     0.004 C 
ENDBRANCH  12  13
ENDBRANCH  11  12
ENDBRANCH  10  11
ENDBRANCH   9  10
ENDBRANCH   1   9
TORSDOF 10
ENDMDL
