MODEL 1
REMARK VINA RESULT:    -7.332      0.000      0.000
REMARK INTER + INTRA:         -11.219
REMARK INTER:                  -9.261
REMARK INTRA:                  -1.958
REMARK UNBOUND:                -1.958
REMARK SMILES O[C@@H]1OC[C@@H](Cc2ccc3c(c2)OCO3)[C@H]1Cc1ccc2c(c1)OCO2
REMARK SMILES IDX 4 1 5 2 16 3 2 4 3 5 6 6 7 7 12 8 8 9 11 10 9 11 10 12 13 13
REMARK SMILES IDX 15 14 14 15 17 16 18 17 23 18 19 19 22 20 20 21 21 22 24 23
REMARK SMILES IDX 26 24 25 25 1 26
REMARK H PARENT 1 27
REMARK Flexibility Score: inf
ROOT
ATOM      1  C   UNL     1     -17.019 -29.591 -22.437  1.00  0.00     0.168 C 
ATOM      2  C   UNL     1     -15.789 -28.935 -21.796  1.00  0.00     0.028 C 
ATOM      3  C   UNL     1     -14.813 -30.101 -21.781  1.00  0.00     0.055 C 
ATOM      4  C   UNL     1     -15.748 -31.300 -21.625  1.00  0.00     0.250 C 
ATOM      5  O   UNL     1     -16.973 -30.990 -22.252  1.00  0.00    -0.352 OA
ENDROOT
BRANCH   2   6
ATOM      6  C   UNL     1     -16.101 -28.341 -20.402  1.00  0.00     0.042 C 
BRANCH   6   7
ATOM      7  C   UNL     1     -15.444 -26.999 -20.186  1.00  0.00    -0.044 A 
ATOM      8  C   UNL     1     -15.126 -26.175 -21.290  1.00  0.00     0.054 A 
ATOM      9  C   UNL     1     -15.141 -26.558 -18.871  1.00  0.00     0.008 A 
ATOM     10  C   UNL     1     -14.515 -24.951 -21.037  1.00  0.00     0.166 A 
ATOM     11  C   UNL     1     -14.522 -25.311 -18.661  1.00  0.00     0.051 A 
ATOM     12  C   UNL     1     -14.226 -24.537 -19.778  1.00  0.00     0.165 A 
ATOM     13  O   UNL     1     -14.111 -23.988 -21.942  1.00  0.00    -0.454 OA
ATOM     14  O   UNL     1     -13.626 -23.293 -19.827  1.00  0.00    -0.454 OA
ATOM     15  C   UNL     1     -13.533 -22.901 -21.204  1.00  0.00     0.468 C 
ENDBRANCH   6   7
ENDBRANCH   2   6
BRANCH   3  16
ATOM     16  C   UNL     1     -13.579 -30.020 -20.828  1.00  0.00     0.044 C 
BRANCH  16  17
ATOM     17  C   UNL     1     -12.485 -29.046 -21.215  1.00  0.00    -0.044 A 
ATOM     18  C   UNL     1     -11.959 -29.063 -22.528  1.00  0.00     0.054 A 
ATOM     19  C   UNL     1     -12.030 -28.059 -20.300  1.00  0.00     0.008 A 
ATOM     20  C   UNL     1     -10.967 -28.143 -22.853  1.00  0.00     0.166 A 
ATOM     21  C   UNL     1     -11.025 -27.147 -20.669  1.00  0.00     0.051 A 
ATOM     22  C   UNL     1     -10.515 -27.228 -21.960  1.00  0.00     0.165 A 
ATOM     23  O   UNL     1     -10.300 -27.984 -24.052  1.00  0.00    -0.454 OA
ATOM     24  O   UNL     1      -9.541 -26.448 -22.552  1.00  0.00    -0.454 OA
ATOM     25  C   UNL     1      -9.369 -26.903 -23.901  1.00  0.00     0.468 C 
ENDBRANCH  16  17
ENDBRANCH   3  16
BRANCH   4  26
ATOM     26  O   UNL     1     -15.191 -32.458 -22.189  1.00  0.00    -0.368 OA
ATOM     27  H   UNL     1     -14.207 -32.399 -22.075  1.00  0.00     0.213 HD
ENDBRANCH   4  26
TORSDOF 5
ENDMDL
MODEL 2
REMARK VINA RESULT:    -7.316      9.932     13.464
REMARK INTER + INTRA:         -11.199
REMARK INTER:                  -9.173
REMARK INTRA:                  -2.026
REMARK UNBOUND:                -1.958
REMARK SMILES O[C@@H]1OC[C@@H](Cc2ccc3c(c2)OCO3)[C@H]1Cc1ccc2c(c1)OCO2
REMARK SMILES IDX 4 1 5 2 16 3 2 4 3 5 6 6 7 7 12 8 8 9 11 10 9 11 10 12 13 13
REMARK SMILES IDX 15 14 14 15 17 16 18 17 23 18 19 19 22 20 20 21 21 22 24 23
REMARK SMILES IDX 26 24 25 25 1 26
REMARK H PARENT 1 27
REMARK Flexibility Score: inf
ROOT
ATOM      1  C   UNL     1      -5.433 -19.225 -27.407  1.00  0.00     0.168 C 
ATOM      2  C   UNL     1      -5.529 -20.568 -28.143  1.00  0.00     0.028 C 
ATOM      3  C   UNL     1      -5.190 -20.144 -29.564  1.00  0.00     0.055 C 
ATOM      4  C   UNL     1      -5.726 -18.714 -29.609  1.00  0.00     0.250 C 
ATOM      5  O   UNL     1      -5.620 -18.160 -28.316  1.00  0.00    -0.352 OA
ENDROOT
BRANCH   2   6
ATOM      6  C   UNL     1      -6.920 -21.226 -27.984  1.00  0.00     0.042 C 
BRANCH   6   7
ATOM      7  C   UNL     1      -6.837 -22.729 -27.865  1.00  0.00    -0.044 A 
ATOM      8  C   UNL     1      -5.657 -23.341 -27.382  1.00  0.00     0.054 A 
ATOM      9  C   UNL     1      -7.944 -23.535 -28.238  1.00  0.00     0.008 A 
ATOM     10  C   UNL     1      -5.630 -24.730 -27.298  1.00  0.00     0.166 A 
ATOM     11  C   UNL     1      -7.873 -24.937 -28.137  1.00  0.00     0.051 A 
ATOM     12  C   UNL     1      -6.691 -25.494 -27.659  1.00  0.00     0.165 A 
ATOM     13  O   UNL     1      -4.602 -25.546 -26.866  1.00  0.00    -0.454 OA
ATOM     14  O   UNL     1      -6.384 -26.829 -27.473  1.00  0.00    -0.454 OA
ATOM     15  C   UNL     1      -5.046 -26.907 -26.962  1.00  0.00     0.468 C 
ENDBRANCH   6   7
ENDBRANCH   2   6
BRANCH   3  16
ATOM     16  C   UNL     1      -5.584 -21.100 -30.733  1.00  0.00     0.044 C 
BRANCH  16  17
ATOM     17  C   UNL     1      -4.859 -22.428 -30.799  1.00  0.00    -0.044 A 
ATOM     18  C   UNL     1      -3.475 -22.491 -30.512  1.00  0.00     0.054 A 
ATOM     19  C   UNL     1      -5.564 -23.632 -31.070  1.00  0.00     0.008 A 
ATOM     20  C   UNL     1      -2.846 -23.730 -30.566  1.00  0.00     0.166 A 
ATOM     21  C   UNL     1      -4.889 -24.865 -31.114  1.00  0.00     0.051 A 
ATOM     22  C   UNL     1      -3.522 -24.868 -30.860  1.00  0.00     0.165 A 
ATOM     23  O   UNL     1      -1.515 -24.030 -30.344  1.00  0.00    -0.454 OA
ATOM     24  O   UNL     1      -2.652 -25.940 -30.839  1.00  0.00    -0.454 OA
ATOM     25  C   UNL     1      -1.347 -25.445 -30.512  1.00  0.00     0.468 C 
ENDBRANCH  16  17
ENDBRANCH   3  16
BRANCH   4  26
ATOM     26  O   UNL     1      -5.017 -17.932 -30.534  1.00  0.00    -0.368 OA
ATOM     27  H   UNL     1      -5.685 -17.409 -31.051  1.00  0.00     0.213 HD
ENDBRANCH   4  26
TORSDOF 5
ENDMDL
MODEL 3
REMARK VINA RESULT:    -7.119      3.073      6.177
REMARK INTER + INTRA:         -10.950
REMARK INTER:                  -9.386
REMARK INTRA:                  -1.563
REMARK UNBOUND:                -1.958
REMARK SMILES O[C@@H]1OC[C@@H](Cc2ccc3c(c2)OCO3)[C@H]1Cc1ccc2c(c1)OCO2
REMARK SMILES IDX 4 1 5 2 16 3 2 4 3 5 6 6 7 7 12 8 8 9 11 10 9 11 10 12 13 13
REMARK SMILES IDX 15 14 14 15 17 16 18 17 23 18 19 19 22 20 20 21 21 22 24 23
REMARK SMILES IDX 26 24 25 25 1 26
REMARK H PARENT 1 27
REMARK Flexibility Score: inf
ROOT
ATOM      1  C   UNL     1      -7.630 -29.136 -21.968  1.00  0.00     0.168 C 
ATOM      2  C   UNL     1      -9.108 -29.020 -22.365  1.00  0.00     0.028 C 
ATOM      3  C   UNL     1      -9.020 -29.220 -23.870  1.00  0.00     0.055 C 
ATOM      4  C   UNL     1      -7.646 -28.637 -24.192  1.00  0.00     0.250 C 
ATOM      5  O   UNL     1      -6.807 -28.838 -23.076  1.00  0.00    -0.352 OA
ENDROOT
BRANCH   2   6
ATOM      6  C   UNL     1      -9.727 -27.669 -21.932  1.00  0.00     0.042 C 
BRANCH   6   7
ATOM      7  C   UNL     1     -11.056 -27.840 -21.238  1.00  0.00    -0.044 A 
ATOM      8  C   UNL     1     -11.784 -26.709 -20.804  1.00  0.00     0.054 A 
ATOM      9  C   UNL     1     -11.582 -29.140 -21.017  1.00  0.00     0.008 A 
ATOM     10  C   UNL     1     -13.001 -26.922 -20.163  1.00  0.00     0.166 A 
ATOM     11  C   UNL     1     -12.817 -29.309 -20.365  1.00  0.00     0.051 A 
ATOM     12  C   UNL     1     -13.496 -28.167 -19.953  1.00  0.00     0.165 A 
ATOM     13  O   UNL     1     -13.880 -25.986 -19.653  1.00  0.00    -0.454 OA
ATOM     14  O   UNL     1     -14.711 -28.077 -19.300  1.00  0.00    -0.454 OA
ATOM     15  C   UNL     1     -14.996 -26.687 -19.087  1.00  0.00     0.468 C 
ENDBRANCH   6   7
ENDBRANCH   2   6
BRANCH   3  16
ATOM     16  C   UNL     1     -10.225 -28.757 -24.748  1.00  0.00     0.044 C 
BRANCH  16  17
ATOM     17  C   UNL     1     -11.331 -29.767 -24.973  1.00  0.00    -0.044 A 
ATOM     18  C   UNL     1     -11.078 -30.931 -25.737  1.00  0.00     0.054 A 
ATOM     19  C   UNL     1     -12.603 -29.605 -24.361  1.00  0.00     0.008 A 
ATOM     20  C   UNL     1     -12.112 -31.845 -25.909  1.00  0.00     0.166 A 
ATOM     21  C   UNL     1     -13.621 -30.554 -24.560  1.00  0.00     0.051 A 
ATOM     22  C   UNL     1     -13.333 -31.662 -25.348  1.00  0.00     0.165 A 
ATOM     23  O   UNL     1     -12.105 -33.029 -26.619  1.00  0.00    -0.454 OA
ATOM     24  O   UNL     1     -14.156 -32.720 -25.680  1.00  0.00    -0.454 OA
ATOM     25  C   UNL     1     -13.404 -33.625 -26.501  1.00  0.00     0.468 C 
ENDBRANCH  16  17
ENDBRANCH   3  16
BRANCH   4  26
ATOM     26  O   UNL     1      -7.090 -29.238 -25.333  1.00  0.00    -0.368 OA
ATOM     27  H   UNL     1      -7.598 -30.075 -25.502  1.00  0.00     0.213 HD
ENDBRANCH   4  26
TORSDOF 5
ENDMDL
MODEL 4
REMARK VINA RESULT:    -6.890      3.097      6.359
REMARK INTER + INTRA:         -10.660
REMARK INTER:                  -9.153
REMARK INTRA:                  -1.506
REMARK UNBOUND:                -1.958
REMARK SMILES O[C@@H]1OC[C@@H](Cc2ccc3c(c2)OCO3)[C@H]1Cc1ccc2c(c1)OCO2
REMARK SMILES IDX 4 1 5 2 16 3 2 4 3 5 6 6 7 7 12 8 8 9 11 10 9 11 10 12 13 13
REMARK SMILES IDX 15 14 14 15 17 16 18 17 23 18 19 19 22 20 20 21 21 22 24 23
REMARK SMILES IDX 26 24 25 25 1 26
REMARK H PARENT 1 27
REMARK Flexibility Score: inf
ROOT
ATOM      1  C   UNL     1      -7.896 -29.145 -21.932  1.00  0.00     0.168 C 
ATOM      2  C   UNL     1      -9.343 -29.018 -22.428  1.00  0.00     0.028 C 
ATOM      3  C   UNL     1      -9.151 -29.192 -23.927  1.00  0.00     0.055 C 
ATOM      4  C   UNL     1      -7.757 -28.607 -24.142  1.00  0.00     0.250 C 
ATOM      5  O   UNL     1      -6.997 -28.829 -22.974  1.00  0.00    -0.352 OA
ENDROOT
BRANCH   2   6
ATOM      6  C   UNL     1      -9.989 -27.674 -22.015  1.00  0.00     0.042 C 
BRANCH   6   7
ATOM      7  C   UNL     1     -11.324 -27.860 -21.338  1.00  0.00    -0.044 A 
ATOM      8  C   UNL     1     -11.986 -29.109 -21.396  1.00  0.00     0.054 A 
ATOM      9  C   UNL     1     -11.924 -26.781 -20.637  1.00  0.00     0.008 A 
ATOM     10  C   UNL     1     -13.218 -29.226 -20.760  1.00  0.00     0.166 A 
ATOM     11  C   UNL     1     -13.172 -26.944 -20.008  1.00  0.00     0.051 A 
ATOM     12  C   UNL     1     -13.786 -28.189 -20.095  1.00  0.00     0.165 A 
ATOM     13  O   UNL     1     -14.045 -30.329 -20.684  1.00  0.00    -0.454 OA
ATOM     14  O   UNL     1     -14.999 -28.588 -19.567  1.00  0.00    -0.454 OA
ATOM     15  C   UNL     1     -15.205 -29.963 -19.923  1.00  0.00     0.468 C 
ENDBRANCH   6   7
ENDBRANCH   2   6
BRANCH   3  16
ATOM     16  C   UNL     1     -10.291 -28.711 -24.878  1.00  0.00     0.044 C 
BRANCH  16  17
ATOM     17  C   UNL     1     -11.395 -29.704 -25.174  1.00  0.00    -0.044 A 
ATOM     18  C   UNL     1     -11.073 -30.988 -25.674  1.00  0.00     0.054 A 
ATOM     19  C   UNL     1     -12.751 -29.397 -24.881  1.00  0.00     0.008 A 
ATOM     20  C   UNL     1     -12.111 -31.881 -25.919  1.00  0.00     0.166 A 
ATOM     21  C   UNL     1     -13.771 -30.330 -25.143  1.00  0.00     0.051 A 
ATOM     22  C   UNL     1     -13.405 -31.563 -25.668  1.00  0.00     0.165 A 
ATOM     23  O   UNL     1     -12.041 -33.167 -26.417  1.00  0.00    -0.454 OA
ATOM     24  O   UNL     1     -14.214 -32.633 -25.999  1.00  0.00    -0.454 OA
ATOM     25  C   UNL     1     -13.376 -33.688 -26.488  1.00  0.00     0.468 C 
ENDBRANCH  16  17
ENDBRANCH   3  16
BRANCH   4  26
ATOM     26  O   UNL     1      -7.124 -29.188 -25.252  1.00  0.00    -0.368 OA
ATOM     27  H   UNL     1      -6.168 -28.921 -25.221  1.00  0.00     0.213 HD
ENDBRANCH   4  26
TORSDOF 5
ENDMDL
MODEL 5
REMARK VINA RESULT:    -6.869     11.831     14.019
REMARK INTER + INTRA:         -10.634
REMARK INTER:                  -8.693
REMARK INTRA:                  -1.941
REMARK UNBOUND:                -1.958
REMARK SMILES O[C@@H]1OC[C@@H](Cc2ccc3c(c2)OCO3)[C@H]1Cc1ccc2c(c1)OCO2
REMARK SMILES IDX 4 1 5 2 16 3 2 4 3 5 6 6 7 7 12 8 8 9 11 10 9 11 10 12 13 13
REMARK SMILES IDX 15 14 14 15 17 16 18 17 23 18 19 19 22 20 20 21 21 22 24 23
REMARK SMILES IDX 26 24 25 25 1 26
REMARK H PARENT 1 27
REMARK Flexibility Score: inf
ROOT
ATOM      1  C   UNL     1      -4.339 -18.543 -28.625  1.00  0.00     0.168 C 
ATOM      2  C   UNL     1      -4.360 -20.074 -28.532  1.00  0.00     0.028 C 
ATOM      3  C   UNL     1      -5.314 -20.420 -29.665  1.00  0.00     0.055 C 
ATOM      4  C   UNL     1      -6.245 -19.209 -29.682  1.00  0.00     0.250 C 
ATOM      5  O   UNL     1      -5.511 -18.080 -29.261  1.00  0.00    -0.352 OA
ENDROOT
BRANCH   2   6
ATOM      6  C   UNL     1      -4.813 -20.571 -27.138  1.00  0.00     0.042 C 
BRANCH   6   7
ATOM      7  C   UNL     1      -4.102 -21.835 -26.718  1.00  0.00    -0.044 A 
ATOM      8  C   UNL     1      -2.789 -22.099 -27.172  1.00  0.00     0.054 A 
ATOM      9  C   UNL     1      -4.749 -22.765 -25.864  1.00  0.00     0.008 A 
ATOM     10  C   UNL     1      -2.181 -23.281 -26.760  1.00  0.00     0.166 A 
ATOM     11  C   UNL     1      -4.097 -23.949 -25.472  1.00  0.00     0.051 A 
ATOM     12  C   UNL     1      -2.807 -24.167 -25.945  1.00  0.00     0.165 A 
ATOM     13  O   UNL     1      -0.921 -23.753 -27.071  1.00  0.00    -0.454 OA
ATOM     14  O   UNL     1      -1.973 -25.241 -25.704  1.00  0.00    -0.454 OA
ATOM     15  C   UNL     1      -0.745 -25.015 -26.411  1.00  0.00     0.468 C 
ENDBRANCH   6   7
ENDBRANCH   2   6
BRANCH   3  16
ATOM     16  C   UNL     1      -5.970 -21.836 -29.672  1.00  0.00     0.044 C 
BRANCH  16  17
ATOM     17  C   UNL     1      -5.032 -23.020 -29.784  1.00  0.00    -0.044 A 
ATOM     18  C   UNL     1      -3.766 -22.861 -30.396  1.00  0.00     0.054 A 
ATOM     19  C   UNL     1      -5.370 -24.276 -29.212  1.00  0.00     0.008 A 
ATOM     20  C   UNL     1      -2.924 -23.965 -30.466  1.00  0.00     0.166 A 
ATOM     21  C   UNL     1      -4.489 -25.367 -29.305  1.00  0.00     0.051 A 
ATOM     22  C   UNL     1      -3.272 -25.169 -29.947  1.00  0.00     0.165 A 
ATOM     23  O   UNL     1      -1.664 -24.053 -31.026  1.00  0.00    -0.454 OA
ATOM     24  O   UNL     1      -2.250 -26.074 -30.156  1.00  0.00    -0.454 OA
ATOM     25  C   UNL     1      -1.194 -25.397 -30.850  1.00  0.00     0.468 C 
ENDBRANCH  16  17
ENDBRANCH   3  16
BRANCH   4  26
ATOM     26  O   UNL     1      -6.780 -18.993 -30.961  1.00  0.00    -0.368 OA
ATOM     27  H   UNL     1      -7.769 -19.021 -30.876  1.00  0.00     0.213 HD
ENDBRANCH   4  26
TORSDOF 5
ENDMDL
MODEL 6
REMARK VINA RESULT:    -6.726      1.672      6.583
REMARK INTER + INTRA:         -10.453
REMARK INTER:                  -9.191
REMARK INTRA:                  -1.262
REMARK UNBOUND:                -1.958
REMARK SMILES O[C@@H]1OC[C@@H](Cc2ccc3c(c2)OCO3)[C@H]1Cc1ccc2c(c1)OCO2
REMARK SMILES IDX 4 1 5 2 16 3 2 4 3 5 6 6 7 7 12 8 8 9 11 10 9 11 10 12 13 13
REMARK SMILES IDX 15 14 14 15 17 16 18 17 23 18 19 19 22 20 20 21 21 22 24 23
REMARK SMILES IDX 26 24 25 25 1 26
REMARK H PARENT 1 27
REMARK Flexibility Score: inf
ROOT
ATOM      1  C   UNL     1     -12.473 -24.744 -20.640  1.00  0.00     0.168 C 
ATOM      2  C   UNL     1     -12.556 -26.276 -20.677  1.00  0.00     0.028 C 
ATOM      3  C   UNL     1     -13.926 -26.508 -20.059  1.00  0.00     0.055 C 
ATOM      4  C   UNL     1     -14.049 -25.326 -19.099  1.00  0.00     0.250 C 
ATOM      5  O   UNL     1     -13.334 -24.237 -19.642  1.00  0.00    -0.352 OA
ENDROOT
BRANCH   2   6
ATOM      6  C   UNL     1     -11.387 -26.945 -19.915  1.00  0.00     0.042 C 
BRANCH   6   7
ATOM      7  C   UNL     1     -10.470 -27.720 -20.831  1.00  0.00    -0.044 A 
ATOM      8  C   UNL     1      -9.913 -27.100 -21.972  1.00  0.00     0.054 A 
ATOM      9  C   UNL     1     -10.163 -29.077 -20.549  1.00  0.00     0.008 A 
ATOM     10  C   UNL     1      -9.079 -27.860 -22.787  1.00  0.00     0.166 A 
ATOM     11  C   UNL     1      -9.315 -29.809 -21.401  1.00  0.00     0.051 A 
ATOM     12  C   UNL     1      -8.793 -29.158 -22.513  1.00  0.00     0.165 A 
ATOM     13  O   UNL     1      -8.428 -27.480 -23.945  1.00  0.00    -0.454 OA
ATOM     14  O   UNL     1      -7.947 -29.659 -23.485  1.00  0.00    -0.454 OA
ATOM     15  C   UNL     1      -7.686 -28.610 -24.428  1.00  0.00     0.468 C 
ENDBRANCH   6   7
ENDBRANCH   2   6
BRANCH   3  16
ATOM     16  C   UNL     1     -14.254 -27.928 -19.502  1.00  0.00     0.044 C 
BRANCH  16  17
ATOM     17  C   UNL     1     -14.867 -28.915 -20.474  1.00  0.00    -0.044 A 
ATOM     18  C   UNL     1     -16.236 -28.810 -20.816  1.00  0.00     0.054 A 
ATOM     19  C   UNL     1     -14.069 -29.902 -21.112  1.00  0.00     0.008 A 
ATOM     20  C   UNL     1     -16.761 -29.723 -21.724  1.00  0.00     0.166 A 
ATOM     21  C   UNL     1     -14.639 -30.806 -22.026  1.00  0.00     0.051 A 
ATOM     22  C   UNL     1     -15.996 -30.683 -22.301  1.00  0.00     0.165 A 
ATOM     23  O   UNL     1     -18.057 -29.826 -22.191  1.00  0.00    -0.454 OA
ATOM     24  O   UNL     1     -16.773 -31.439 -23.157  1.00  0.00    -0.454 OA
ATOM     25  C   UNL     1     -18.110 -30.921 -23.115  1.00  0.00     0.468 C 
ENDBRANCH  16  17
ENDBRANCH   3  16
BRANCH   4  26
ATOM     26  O   UNL     1     -15.392 -24.972 -18.893  1.00  0.00    -0.368 OA
ATOM     27  H   UNL     1     -15.398 -24.158 -18.324  1.00  0.00     0.213 HD
ENDBRANCH   4  26
TORSDOF 5
ENDMDL
MODEL 7
REMARK VINA RESULT:    -6.701      8.891     12.532
REMARK INTER + INTRA:         -10.421
REMARK INTER:                  -8.842
REMARK INTRA:                  -1.579
REMARK UNBOUND:                -1.958
REMARK SMILES O[C@@H]1OC[C@@H](Cc2ccc3c(c2)OCO3)[C@H]1Cc1ccc2c(c1)OCO2
REMARK SMILES IDX 4 1 5 2 16 3 2 4 3 5 6 6 7 7 12 8 8 9 11 10 9 11 10 12 13 13
REMARK SMILES IDX 15 14 14 15 17 16 18 17 23 18 19 19 22 20 20 21 21 22 24 23
REMARK SMILES IDX 26 24 25 25 1 26
REMARK H PARENT 1 27
REMARK Flexibility Score: inf
ROOT
ATOM      1  C   UNL     1      -5.736 -23.091 -30.591  1.00  0.00     0.168 C 
ATOM      2  C   UNL     1      -5.315 -23.130 -29.117  1.00  0.00     0.028 C 
ATOM      3  C   UNL     1      -5.252 -21.645 -28.794  1.00  0.00     0.055 C 
ATOM      4  C   UNL     1      -4.849 -21.041 -30.138  1.00  0.00     0.250 C 
ATOM      5  O   UNL     1      -5.380 -21.851 -31.164  1.00  0.00    -0.352 OA
ENDROOT
BRANCH   2   6
ATOM      6  C   UNL     1      -3.983 -23.889 -28.907  1.00  0.00     0.042 C 
BRANCH   6   7
ATOM      7  C   UNL     1      -4.051 -24.867 -27.760  1.00  0.00    -0.044 A 
ATOM      8  C   UNL     1      -5.080 -25.835 -27.709  1.00  0.00     0.054 A 
ATOM      9  C   UNL     1      -3.080 -24.820 -26.725  1.00  0.00     0.008 A 
ATOM     10  C   UNL     1      -5.101 -26.710 -26.626  1.00  0.00     0.166 A 
ATOM     11  C   UNL     1      -3.139 -25.724 -25.648  1.00  0.00     0.051 A 
ATOM     12  C   UNL     1      -4.172 -26.657 -25.639  1.00  0.00     0.165 A 
ATOM     13  O   UNL     1      -5.998 -27.725 -26.358  1.00  0.00    -0.454 OA
ATOM     14  O   UNL     1      -4.438 -27.636 -24.701  1.00  0.00    -0.454 OA
ATOM     15  C   UNL     1      -5.608 -28.349 -25.126  1.00  0.00     0.468 C 
ENDBRANCH   6   7
ENDBRANCH   2   6
BRANCH   3  16
ATOM     16  C   UNL     1      -4.451 -21.196 -27.532  1.00  0.00     0.044 C 
BRANCH  16  17
ATOM     17  C   UNL     1      -5.202 -21.190 -26.217  1.00  0.00    -0.044 A 
ATOM     18  C   UNL     1      -5.963 -20.056 -25.846  1.00  0.00     0.054 A 
ATOM     19  C   UNL     1      -5.219 -22.338 -25.380  1.00  0.00     0.008 A 
ATOM     20  C   UNL     1      -6.653 -20.091 -24.639  1.00  0.00     0.166 A 
ATOM     21  C   UNL     1      -5.931 -22.332 -24.167  1.00  0.00     0.051 A 
ATOM     22  C   UNL     1      -6.634 -21.181 -23.831  1.00  0.00     0.165 A 
ATOM     23  O   UNL     1      -7.439 -19.109 -24.067  1.00  0.00    -0.454 OA
ATOM     24  O   UNL     1      -7.404 -20.938 -22.711  1.00  0.00    -0.454 OA
ATOM     25  C   UNL     1      -7.941 -19.613 -22.821  1.00  0.00     0.468 C 
ENDBRANCH  16  17
ENDBRANCH   3  16
BRANCH   4  26
ATOM     26  O   UNL     1      -5.316 -19.724 -30.267  1.00  0.00    -0.368 OA
ATOM     27  H   UNL     1      -4.798 -19.298 -30.999  1.00  0.00     0.213 HD
ENDBRANCH   4  26
TORSDOF 5
ENDMDL
MODEL 8
REMARK VINA RESULT:    -6.674      7.535     12.226
REMARK INTER + INTRA:         -10.387
REMARK INTER:                  -8.577
REMARK INTRA:                  -1.811
REMARK UNBOUND:                -1.958
REMARK SMILES O[C@@H]1OC[C@@H](Cc2ccc3c(c2)OCO3)[C@H]1Cc1ccc2c(c1)OCO2
REMARK SMILES IDX 4 1 5 2 16 3 2 4 3 5 6 6 7 7 12 8 8 9 11 10 9 11 10 12 13 13
REMARK SMILES IDX 15 14 14 15 17 16 18 17 23 18 19 19 22 20 20 21 21 22 24 23
REMARK SMILES IDX 26 24 25 25 1 26
REMARK H PARENT 1 27
REMARK Flexibility Score: inf
ROOT
ATOM      1  C   UNL     1      -4.112 -24.600 -30.711  1.00  0.00     0.168 C 
ATOM      2  C   UNL     1      -4.256 -24.330 -29.208  1.00  0.00     0.028 C 
ATOM      3  C   UNL     1      -3.249 -23.207 -29.017  1.00  0.00     0.055 C 
ATOM      4  C   UNL     1      -2.200 -23.532 -30.079  1.00  0.00     0.250 C 
ATOM      5  O   UNL     1      -2.848 -24.161 -31.163  1.00  0.00    -0.352 OA
ENDROOT
BRANCH   2   6
ATOM      6  C   UNL     1      -3.979 -25.592 -28.356  1.00  0.00     0.042 C 
BRANCH   6   7
ATOM      7  C   UNL     1      -5.196 -26.052 -27.593  1.00  0.00    -0.044 A 
ATOM      8  C   UNL     1      -5.152 -27.242 -26.830  1.00  0.00     0.054 A 
ATOM      9  C   UNL     1      -6.394 -25.292 -27.637  1.00  0.00     0.008 A 
ATOM     10  C   UNL     1      -6.305 -27.626 -26.150  1.00  0.00     0.166 A 
ATOM     11  C   UNL     1      -7.536 -25.717 -26.934  1.00  0.00     0.051 A 
ATOM     12  C   UNL     1      -7.446 -26.895 -26.200  1.00  0.00     0.165 A 
ATOM     13  O   UNL     1      -6.504 -28.736 -25.353  1.00  0.00    -0.454 OA
ATOM     14  O   UNL     1      -8.421 -27.509 -25.436  1.00  0.00    -0.454 OA
ATOM     15  C   UNL     1      -7.855 -28.700 -24.872  1.00  0.00     0.468 C 
ENDBRANCH   6   7
ENDBRANCH   2   6
BRANCH   3  16
ATOM     16  C   UNL     1      -2.743 -22.906 -27.571  1.00  0.00     0.044 C 
BRANCH  16  17
ATOM     17  C   UNL     1      -3.800 -22.591 -26.533  1.00  0.00    -0.044 A 
ATOM     18  C   UNL     1      -4.696 -21.516 -26.742  1.00  0.00     0.054 A 
ATOM     19  C   UNL     1      -3.959 -23.410 -25.382  1.00  0.00     0.008 A 
ATOM     20  C   UNL     1      -5.664 -21.267 -25.775  1.00  0.00     0.166 A 
ATOM     21  C   UNL     1      -4.953 -23.123 -24.429  1.00  0.00     0.051 A 
ATOM     22  C   UNL     1      -5.784 -22.034 -24.663  1.00  0.00     0.165 A 
ATOM     23  O   UNL     1      -6.624 -20.274 -25.754  1.00  0.00    -0.454 OA
ATOM     24  O   UNL     1      -6.824 -21.562 -23.887  1.00  0.00    -0.454 OA
ATOM     25  C   UNL     1      -7.393 -20.426 -24.553  1.00  0.00     0.468 C 
ENDBRANCH  16  17
ENDBRANCH   3  16
BRANCH   4  26
ATOM     26  O   UNL     1      -1.538 -22.373 -30.514  1.00  0.00    -0.368 OA
ATOM     27  H   UNL     1      -1.613 -21.700 -29.788  1.00  0.00     0.213 HD
ENDBRANCH   4  26
TORSDOF 5
ENDMDL
MODEL 9
REMARK VINA RESULT:    -6.583      2.210      5.943
REMARK INTER + INTRA:         -10.273
REMARK INTER:                  -8.279
REMARK INTRA:                  -1.994
REMARK UNBOUND:                -1.958
REMARK SMILES O[C@@H]1OC[C@@H](Cc2ccc3c(c2)OCO3)[C@H]1Cc1ccc2c(c1)OCO2
REMARK SMILES IDX 4 1 5 2 16 3 2 4 3 5 6 6 7 7 12 8 8 9 11 10 9 11 10 12 13 13
REMARK SMILES IDX 15 14 14 15 17 16 18 17 23 18 19 19 22 20 20 21 21 22 24 23
REMARK SMILES IDX 26 24 25 25 1 26
REMARK H PARENT 1 27
REMARK Flexibility Score: inf
ROOT
ATOM      1  C   UNL     1      -8.643 -28.068 -24.589  1.00  0.00     0.168 C 
ATOM      2  C   UNL     1      -9.850 -28.165 -23.646  1.00  0.00     0.028 C 
ATOM      3  C   UNL     1      -9.164 -28.490 -22.329  1.00  0.00     0.055 C 
ATOM      4  C   UNL     1      -7.940 -29.279 -22.791  1.00  0.00     0.250 C 
ATOM      5  O   UNL     1      -7.557 -28.799 -24.061  1.00  0.00    -0.352 OA
ENDROOT
BRANCH   2   6
ATOM      6  C   UNL     1     -10.876 -29.225 -24.114  1.00  0.00     0.042 C 
BRANCH   6   7
ATOM      7  C   UNL     1     -12.302 -28.792 -23.876  1.00  0.00    -0.044 A 
ATOM      8  C   UNL     1     -13.303 -29.752 -23.602  1.00  0.00     0.054 A 
ATOM      9  C   UNL     1     -12.647 -27.415 -23.926  1.00  0.00     0.008 A 
ATOM     10  C   UNL     1     -14.603 -29.301 -23.397  1.00  0.00     0.166 A 
ATOM     11  C   UNL     1     -13.974 -27.003 -23.711  1.00  0.00     0.051 A 
ATOM     12  C   UNL     1     -14.925 -27.984 -23.449  1.00  0.00     0.165 A 
ATOM     13  O   UNL     1     -15.737 -30.041 -23.121  1.00  0.00    -0.454 OA
ATOM     14  O   UNL     1     -16.277 -27.829 -23.208  1.00  0.00    -0.454 OA
ATOM     15  C   UNL     1     -16.839 -29.131 -22.991  1.00  0.00     0.468 C 
ENDBRANCH   6   7
ENDBRANCH   2   6
BRANCH   3  16
ATOM     16  C   UNL     1     -10.024 -29.100 -21.178  1.00  0.00     0.044 C 
BRANCH  16  17
ATOM     17  C   UNL     1     -11.236 -28.305 -20.741  1.00  0.00    -0.044 A 
ATOM     18  C   UNL     1     -12.436 -28.977 -20.403  1.00  0.00     0.054 A 
ATOM     19  C   UNL     1     -11.167 -26.894 -20.586  1.00  0.00     0.008 A 
ATOM     20  C   UNL     1     -13.523 -28.216 -19.989  1.00  0.00     0.166 A 
ATOM     21  C   UNL     1     -12.292 -26.163 -20.164  1.00  0.00     0.051 A 
ATOM     22  C   UNL     1     -13.456 -26.866 -19.879  1.00  0.00     0.165 A 
ATOM     23  O   UNL     1     -14.787 -28.644 -19.629  1.00  0.00    -0.454 OA
ATOM     24  O   UNL     1     -14.673 -26.377 -19.446  1.00  0.00    -0.454 OA
ATOM     25  C   UNL     1     -15.561 -27.490 -19.274  1.00  0.00     0.468 C 
ENDBRANCH  16  17
ENDBRANCH   3  16
BRANCH   4  26
ATOM     26  O   UNL     1      -6.878 -29.153 -21.882  1.00  0.00    -0.368 OA
ATOM     27  H   UNL     1      -6.486 -28.250 -22.010  1.00  0.00     0.213 HD
ENDBRANCH   4  26
TORSDOF 5
ENDMDL
