MODEL 1
REMARK VINA RESULT:    -4.338      0.000      0.000
REMARK INTER + INTRA:         -10.063
REMARK INTER:                  -8.396
REMARK INTRA:                  -1.667
REMARK UNBOUND:                -1.667
REMARK SMILES CCCCCCCCCCCCCCCCCC(=O)[O-]
REMARK SMILES IDX 10 1 11 2 12 3 13 4 14 5 15 6 16 7 17 8 18 9 19 10 20 11
REMARK SMILES IDX 9 12 8 13 7 14 6 15 5 16 4 17 3 18 2 19 1 20
REMARK H PARENT
REMARK Flexibility Score: inf
ROOT
ATOM      1  C   UNL     1       7.152  -6.305 -18.190  1.00  0.00     0.000 C 
ENDROOT
BRANCH   1   2
ATOM      2  C   UNL     1       5.822  -5.969 -17.488  1.00  0.00     0.000 C 
BRANCH   2   3
ATOM      3  C   UNL     1       5.959  -5.128 -16.205  1.00  0.00     0.000 C 
BRANCH   3   4
ATOM      4  C   UNL     1       7.186  -5.465 -15.335  1.00  0.00     0.000 C 
BRANCH   4   5
ATOM      5  C   UNL     1       6.878  -6.242 -14.040  1.00  0.00     0.000 C 
BRANCH   5   6
ATOM      6  C   UNL     1       7.165  -7.753 -14.106  1.00  0.00     0.000 C 
BRANCH   6   7
ATOM      7  C   UNL     1       5.909  -8.609 -13.869  1.00  0.00     0.006 C 
BRANCH   7   8
ATOM      8  C   UNL     1       4.627  -7.890 -14.312  1.00  0.00     0.053 C 
BRANCH   8   9
ATOM      9  C   UNL     1       3.530  -8.038 -13.302  1.00  0.00     0.041 C 
ATOM     10  O   UNL     1       3.180  -9.182 -12.910  1.00  0.00    -0.550 OA
ATOM     11  O   UNL     1       2.915  -6.912 -12.772  1.00  0.00    -0.550 OA
ENDBRANCH   8   9
ENDBRANCH   7   8
ENDBRANCH   6   7
ENDBRANCH   5   6
ENDBRANCH   4   5
ENDBRANCH   3   4
ENDBRANCH   2   3
ENDBRANCH   1   2
BRANCH   1  12
ATOM     12  C   UNL     1       7.597  -7.773 -18.017  1.00  0.00     0.000 C 
BRANCH  12  13
ATOM     13  C   UNL     1       6.491  -8.660 -17.418  1.00  0.00    -0.000 C 
BRANCH  13  14
ATOM     14  C   UNL     1       6.609 -10.135 -17.841  1.00  0.00    -0.000 C 
BRANCH  14  15
ATOM     15  C   UNL     1       7.208 -10.371 -19.244  1.00  0.00    -0.000 C 
BRANCH  15  16
ATOM     16  C   UNL     1       6.193 -10.771 -20.331  1.00  0.00    -0.000 C 
BRANCH  16  17
ATOM     17  C   UNL     1       4.720 -10.710 -19.885  1.00  0.00    -0.000 C 
BRANCH  17  18
ATOM     18  C   UNL     1       4.229 -12.005 -19.197  1.00  0.00    -0.000 C 
BRANCH  18  19
ATOM     19  C   UNL     1       2.742 -11.971 -18.806  1.00  0.00    -0.003 C 
ATOM     20  C   UNL     1       2.110 -13.363 -18.786  1.00  0.00     0.004 C 
ENDBRANCH  18  19
ENDBRANCH  17  18
ENDBRANCH  16  17
ENDBRANCH  15  16
ENDBRANCH  14  15
ENDBRANCH  13  14
ENDBRANCH  12  13
ENDBRANCH   1  12
TORSDOF 16
ENDMDL
MODEL 2
REMARK VINA RESULT:    -4.312      2.302      5.844
REMARK INTER + INTRA:         -10.012
REMARK INTER:                  -7.885
REMARK INTRA:                  -2.126
REMARK UNBOUND:                -1.667
REMARK SMILES CCCCCCCCCCCCCCCCCC(=O)[O-]
REMARK SMILES IDX 10 1 11 2 12 3 13 4 14 5 15 6 16 7 17 8 18 9 19 10 20 11
REMARK SMILES IDX 9 12 8 13 7 14 6 15 5 16 4 17 3 18 2 19 1 20
REMARK H PARENT
REMARK Flexibility Score: inf
ROOT
ATOM      1  C   UNL     1       6.200  -6.568 -17.981  1.00  0.00     0.000 C 
ENDROOT
BRANCH   1   2
ATOM      2  C   UNL     1       7.584  -6.862 -18.591  1.00  0.00     0.000 C 
BRANCH   2   3
ATOM      3  C   UNL     1       8.123  -8.280 -18.324  1.00  0.00     0.000 C 
BRANCH   3   4
ATOM      4  C   UNL     1       7.409  -9.045 -17.192  1.00  0.00     0.000 C 
BRANCH   4   5
ATOM      5  C   UNL     1       6.371 -10.086 -17.658  1.00  0.00     0.000 C 
BRANCH   5   6
ATOM      6  C   UNL     1       6.340 -10.338 -19.175  1.00  0.00     0.000 C 
BRANCH   6   7
ATOM      7  C   UNL     1       5.013 -10.955 -19.650  1.00  0.00     0.006 C 
BRANCH   7   8
ATOM      8  C   UNL     1       4.463 -11.983 -18.653  1.00  0.00     0.053 C 
BRANCH   8   9
ATOM      9  C   UNL     1       2.980 -12.145 -18.783  1.00  0.00     0.041 C 
ATOM     10  O   UNL     1       2.238 -11.133 -18.874  1.00  0.00    -0.550 OA
ATOM     11  O   UNL     1       2.421 -13.415 -18.835  1.00  0.00    -0.550 OA
ENDBRANCH   8   9
ENDBRANCH   7   8
ENDBRANCH   6   7
ENDBRANCH   5   6
ENDBRANCH   4   5
ENDBRANCH   3   4
ENDBRANCH   2   3
ENDBRANCH   1   2
BRANCH   1  12
ATOM     12  C   UNL     1       6.037  -5.121 -17.469  1.00  0.00     0.000 C 
BRANCH  12  13
ATOM     13  C   UNL     1       5.948  -5.042 -15.934  1.00  0.00    -0.000 C 
BRANCH  13  14
ATOM     14  C   UNL     1       7.177  -5.644 -15.231  1.00  0.00    -0.000 C 
BRANCH  14  15
ATOM     15  C   UNL     1       6.895  -6.305 -13.865  1.00  0.00    -0.000 C 
BRANCH  15  16
ATOM     16  C   UNL     1       6.958  -7.844 -13.856  1.00  0.00    -0.000 C 
BRANCH  16  17
ATOM     17  C   UNL     1       5.586  -8.541 -13.802  1.00  0.00    -0.000 C 
BRANCH  17  18
ATOM     18  C   UNL     1       4.661  -8.177 -14.987  1.00  0.00    -0.000 C 
BRANCH  18  19
ATOM     19  C   UNL     1       3.533  -7.201 -14.612  1.00  0.00    -0.003 C 
ATOM     20  C   UNL     1       3.319  -7.107 -13.101  1.00  0.00     0.004 C 
ENDBRANCH  18  19
ENDBRANCH  17  18
ENDBRANCH  16  17
ENDBRANCH  15  16
ENDBRANCH  14  15
ENDBRANCH  13  14
ENDBRANCH  12  13
ENDBRANCH   1  12
TORSDOF 16
ENDMDL
MODEL 3
REMARK VINA RESULT:    -4.173      2.352      6.341
REMARK INTER + INTRA:          -9.744
REMARK INTER:                  -7.932
REMARK INTRA:                  -1.812
REMARK UNBOUND:                -1.667
REMARK SMILES CCCCCCCCCCCCCCCCCC(=O)[O-]
REMARK SMILES IDX 10 1 11 2 12 3 13 4 14 5 15 6 16 7 17 8 18 9 19 10 20 11
REMARK SMILES IDX 9 12 8 13 7 14 6 15 5 16 4 17 3 18 2 19 1 20
REMARK H PARENT
REMARK Flexibility Score: inf
ROOT
ATOM      1  C   UNL     1       5.887  -6.632 -17.527  1.00  0.00     0.000 C 
ENDROOT
BRANCH   1   2
ATOM      2  C   UNL     1       7.242  -6.731 -18.255  1.00  0.00     0.000 C 
BRANCH   2   3
ATOM      3  C   UNL     1       7.894  -8.126 -18.225  1.00  0.00     0.000 C 
BRANCH   3   4
ATOM      4  C   UNL     1       7.307  -9.096 -17.180  1.00  0.00     0.000 C 
BRANCH   4   5
ATOM      5  C   UNL     1       6.475 -10.258 -17.758  1.00  0.00     0.000 C 
BRANCH   5   6
ATOM      6  C   UNL     1       6.361 -10.274 -19.293  1.00  0.00     0.000 C 
BRANCH   6   7
ATOM      7  C   UNL     1       5.068 -10.947 -19.786  1.00  0.00     0.006 C 
BRANCH   7   8
ATOM      8  C   UNL     1       4.536 -11.982 -18.787  1.00  0.00     0.053 C 
BRANCH   8   9
ATOM      9  C   UNL     1       3.043 -12.096 -18.846  1.00  0.00     0.041 C 
ATOM     10  O   UNL     1       2.330 -11.059 -18.858  1.00  0.00    -0.550 OA
ATOM     11  O   UNL     1       2.443 -13.345 -18.920  1.00  0.00    -0.550 OA
ENDBRANCH   8   9
ENDBRANCH   7   8
ENDBRANCH   6   7
ENDBRANCH   5   6
ENDBRANCH   4   5
ENDBRANCH   3   4
ENDBRANCH   2   3
ENDBRANCH   1   2
BRANCH   1  12
ATOM     12  C   UNL     1       5.448  -5.184 -17.217  1.00  0.00     0.000 C 
BRANCH  12  13
ATOM     13  C   UNL     1       4.337  -5.117 -16.155  1.00  0.00    -0.000 C 
BRANCH  13  14
ATOM     14  C   UNL     1       3.838  -6.507 -15.721  1.00  0.00    -0.000 C 
BRANCH  14  15
ATOM     15  C   UNL     1       3.555  -6.663 -14.212  1.00  0.00    -0.000 C 
BRANCH  15  16
ATOM     16  C   UNL     1       4.030  -7.990 -13.590  1.00  0.00    -0.000 C 
BRANCH  16  17
ATOM     17  C   UNL     1       5.540  -8.260 -13.732  1.00  0.00    -0.000 C 
BRANCH  17  18
ATOM     18  C   UNL     1       6.420  -7.030 -13.410  1.00  0.00    -0.000 C 
BRANCH  18  19
ATOM     19  C   UNL     1       7.325  -6.597 -14.577  1.00  0.00    -0.003 C 
ATOM     20  C   UNL     1       7.531  -5.083 -14.626  1.00  0.00     0.004 C 
ENDBRANCH  18  19
ENDBRANCH  17  18
ENDBRANCH  16  17
ENDBRANCH  15  16
ENDBRANCH  14  15
ENDBRANCH  13  14
ENDBRANCH  12  13
ENDBRANCH   1  12
TORSDOF 16
ENDMDL
MODEL 4
REMARK VINA RESULT:    -4.050      2.527      6.383
REMARK INTER + INTRA:          -9.505
REMARK INTER:                  -7.638
REMARK INTRA:                  -1.866
REMARK UNBOUND:                -1.667
REMARK SMILES CCCCCCCCCCCCCCCCCC(=O)[O-]
REMARK SMILES IDX 10 1 11 2 12 3 13 4 14 5 15 6 16 7 17 8 18 9 19 10 20 11
REMARK SMILES IDX 9 12 8 13 7 14 6 15 5 16 4 17 3 18 2 19 1 20
REMARK H PARENT
REMARK Flexibility Score: inf
ROOT
ATOM      1  C   UNL     1       7.530  -8.131 -14.403  1.00  0.00     0.000 C 
ENDROOT
BRANCH   1   2
ATOM      2  C   UNL     1       7.065  -8.648 -15.778  1.00  0.00     0.000 C 
BRANCH   2   3
ATOM      3  C   UNL     1       8.079  -8.456 -16.922  1.00  0.00     0.000 C 
BRANCH   3   4
ATOM      4  C   UNL     1       7.458  -8.327 -18.326  1.00  0.00     0.000 C 
BRANCH   4   5
ATOM      5  C   UNL     1       8.460  -8.397 -19.496  1.00  0.00     0.000 C 
BRANCH   5   6
ATOM      6  C   UNL     1       8.247  -9.575 -20.463  1.00  0.00     0.000 C 
BRANCH   6   7
ATOM      7  C   UNL     1       7.457 -10.732 -19.828  1.00  0.00     0.006 C 
BRANCH   7   8
ATOM      8  C   UNL     1       5.980 -10.720 -20.243  1.00  0.00     0.053 C 
BRANCH   8   9
ATOM      9  C   UNL     1       5.092 -11.236 -19.152  1.00  0.00     0.041 C 
ATOM     10  O   UNL     1       3.905 -11.568 -19.405  1.00  0.00    -0.550 OA
ATOM     11  O   UNL     1       5.586 -11.380 -17.862  1.00  0.00    -0.550 OA
ENDBRANCH   8   9
ENDBRANCH   7   8
ENDBRANCH   6   7
ENDBRANCH   5   6
ENDBRANCH   4   5
ENDBRANCH   3   4
ENDBRANCH   2   3
ENDBRANCH   1   2
BRANCH   1  12
ATOM     12  C   UNL     1       6.373  -7.765 -13.448  1.00  0.00     0.000 C 
BRANCH  12  13
ATOM     13  C   UNL     1       5.272  -8.840 -13.414  1.00  0.00    -0.000 C 
BRANCH  13  14
ATOM     14  C   UNL     1       3.875  -8.277 -13.729  1.00  0.00    -0.000 C 
BRANCH  14  15
ATOM     15  C   UNL     1       3.848  -6.806 -14.193  1.00  0.00    -0.000 C 
BRANCH  15  16
ATOM     16  C   UNL     1       4.017  -6.594 -15.710  1.00  0.00    -0.000 C 
BRANCH  16  17
ATOM     17  C   UNL     1       4.738  -5.290 -16.098  1.00  0.00    -0.000 C 
BRANCH  17  18
ATOM     18  C   UNL     1       5.769  -5.470 -17.236  1.00  0.00    -0.000 C 
BRANCH  18  19
ATOM     19  C   UNL     1       7.209  -5.114 -16.826  1.00  0.00    -0.003 C 
ATOM     20  C   UNL     1       7.366  -4.965 -15.313  1.00  0.00     0.004 C 
ENDBRANCH  18  19
ENDBRANCH  17  18
ENDBRANCH  16  17
ENDBRANCH  15  16
ENDBRANCH  14  15
ENDBRANCH  13  14
ENDBRANCH  12  13
ENDBRANCH   1  12
TORSDOF 16
ENDMDL
MODEL 5
REMARK VINA RESULT:    -4.013      1.277      2.644
REMARK INTER + INTRA:          -9.434
REMARK INTER:                  -7.888
REMARK INTRA:                  -1.545
REMARK UNBOUND:                -1.667
REMARK SMILES CCCCCCCCCCCCCCCCCC(=O)[O-]
REMARK SMILES IDX 10 1 11 2 12 3 13 4 14 5 15 6 16 7 17 8 18 9 19 10 20 11
REMARK SMILES IDX 9 12 8 13 7 14 6 15 5 16 4 17 3 18 2 19 1 20
REMARK H PARENT
REMARK Flexibility Score: inf
ROOT
ATOM      1  C   UNL     1       7.436  -7.210 -18.286  1.00  0.00     0.000 C 
ENDROOT
BRANCH   1   2
ATOM      2  C   UNL     1       7.171  -5.780 -17.776  1.00  0.00     0.000 C 
BRANCH   2   3
ATOM      3  C   UNL     1       5.739  -5.528 -17.266  1.00  0.00     0.000 C 
BRANCH   3   4
ATOM      4  C   UNL     1       5.601  -5.445 -15.733  1.00  0.00     0.000 C 
BRANCH   4   5
ATOM      5  C   UNL     1       6.890  -5.743 -14.941  1.00  0.00     0.000 C 
BRANCH   5   6
ATOM      6  C   UNL     1       6.679  -6.502 -13.619  1.00  0.00     0.000 C 
BRANCH   6   7
ATOM      7  C   UNL     1       6.643  -8.028 -13.808  1.00  0.00     0.006 C 
BRANCH   7   8
ATOM      8  C   UNL     1       5.395  -8.660 -13.176  1.00  0.00     0.053 C 
BRANCH   8   9
ATOM      9  C   UNL     1       4.134  -8.072 -13.731  1.00  0.00     0.041 C 
ATOM     10  O   UNL     1       3.379  -7.383 -12.996  1.00  0.00    -0.550 OA
ATOM     11  O   UNL     1       3.808  -8.260 -15.067  1.00  0.00    -0.550 OA
ENDBRANCH   8   9
ENDBRANCH   7   8
ENDBRANCH   6   7
ENDBRANCH   5   6
ENDBRANCH   4   5
ENDBRANCH   3   4
ENDBRANCH   2   3
ENDBRANCH   1   2
BRANCH   1  12
ATOM     12  C   UNL     1       8.369  -8.037 -17.375  1.00  0.00     0.000 C 
BRANCH  12  13
ATOM     13  C   UNL     1       7.605  -9.066 -16.523  1.00  0.00    -0.000 C 
BRANCH  13  14
ATOM     14  C   UNL     1       6.298  -9.538 -17.184  1.00  0.00    -0.000 C 
BRANCH  14  15
ATOM     15  C   UNL     1       6.248 -11.038 -17.546  1.00  0.00    -0.000 C 
BRANCH  15  16
ATOM     16  C   UNL     1       5.139 -11.436 -18.538  1.00  0.00    -0.000 C 
BRANCH  16  17
ATOM     17  C   UNL     1       5.232 -10.749 -19.913  1.00  0.00    -0.000 C 
BRANCH  17  18
ATOM     18  C   UNL     1       6.572 -11.004 -20.641  1.00  0.00    -0.000 C 
BRANCH  18  19
ATOM     19  C   UNL     1       7.684 -10.016 -20.249  1.00  0.00    -0.003 C 
ATOM     20  C   UNL     1       8.877 -10.070 -21.203  1.00  0.00     0.004 C 
ENDBRANCH  18  19
ENDBRANCH  17  18
ENDBRANCH  16  17
ENDBRANCH  15  16
ENDBRANCH  14  15
ENDBRANCH  13  14
ENDBRANCH  12  13
ENDBRANCH   1  12
TORSDOF 16
ENDMDL
MODEL 6
REMARK VINA RESULT:    -3.960      2.896      5.834
REMARK INTER + INTRA:          -9.330
REMARK INTER:                  -7.267
REMARK INTRA:                  -2.064
REMARK UNBOUND:                -1.667
REMARK SMILES CCCCCCCCCCCCCCCCCC(=O)[O-]
REMARK SMILES IDX 10 1 11 2 12 3 13 4 14 5 15 6 16 7 17 8 18 9 19 10 20 11
REMARK SMILES IDX 9 12 8 13 7 14 6 15 5 16 4 17 3 18 2 19 1 20
REMARK H PARENT
REMARK Flexibility Score: inf
ROOT
ATOM      1  C   UNL     1       6.251  -5.167 -17.249  1.00  0.00     0.000 C 
ENDROOT
BRANCH   1   2
ATOM      2  C   UNL     1       6.232  -6.486 -18.046  1.00  0.00     0.000 C 
BRANCH   2   3
ATOM      3  C   UNL     1       7.591  -6.905 -18.639  1.00  0.00     0.000 C 
BRANCH   3   4
ATOM      4  C   UNL     1       7.980  -8.376 -18.394  1.00  0.00     0.000 C 
BRANCH   4   5
ATOM      5  C   UNL     1       7.570  -8.943 -17.020  1.00  0.00     0.000 C 
BRANCH   5   6
ATOM      6  C   UNL     1       6.265  -9.760 -17.018  1.00  0.00     0.000 C 
BRANCH   6   7
ATOM      7  C   UNL     1       6.459 -11.194 -17.538  1.00  0.00     0.006 C 
BRANCH   7   8
ATOM      8  C   UNL     1       5.345 -11.614 -18.506  1.00  0.00     0.053 C 
BRANCH   8   9
ATOM      9  C   UNL     1       5.471 -10.923 -19.830  1.00  0.00     0.041 C 
ATOM     10  O   UNL     1       4.470 -10.364 -20.350  1.00  0.00    -0.550 OA
ATOM     11  O   UNL     1       6.699 -10.873 -20.475  1.00  0.00    -0.550 OA
ENDBRANCH   8   9
ENDBRANCH   7   8
ENDBRANCH   6   7
ENDBRANCH   5   6
ENDBRANCH   4   5
ENDBRANCH   3   4
ENDBRANCH   2   3
ENDBRANCH   1   2
BRANCH   1  12
ATOM     12  C   UNL     1       7.525  -4.967 -16.400  1.00  0.00     0.000 C 
BRANCH  12  13
ATOM     13  C   UNL     1       7.286  -5.228 -14.902  1.00  0.00    -0.000 C 
BRANCH  13  14
ATOM     14  C   UNL     1       7.251  -6.727 -14.553  1.00  0.00    -0.000 C 
BRANCH  14  15
ATOM     15  C   UNL     1       6.532  -7.078 -13.233  1.00  0.00    -0.000 C 
BRANCH  15  16
ATOM     16  C   UNL     1       6.189  -8.569 -13.052  1.00  0.00    -0.000 C 
BRANCH  16  17
ATOM     17  C   UNL     1       4.715  -8.924 -13.322  1.00  0.00    -0.000 C 
BRANCH  17  18
ATOM     18  C   UNL     1       3.823  -7.691 -13.598  1.00  0.00    -0.000 C 
BRANCH  18  19
ATOM     19  C   UNL     1       3.764  -7.293 -15.082  1.00  0.00    -0.003 C 
ATOM     20  C   UNL     1       3.502  -5.799 -15.277  1.00  0.00     0.004 C 
ENDBRANCH  18  19
ENDBRANCH  17  18
ENDBRANCH  16  17
ENDBRANCH  15  16
ENDBRANCH  14  15
ENDBRANCH  13  14
ENDBRANCH  12  13
ENDBRANCH   1  12
TORSDOF 16
ENDMDL
MODEL 7
REMARK VINA RESULT:    -3.804      1.574      2.273
REMARK INTER + INTRA:          -9.030
REMARK INTER:                  -7.684
REMARK INTRA:                  -1.345
REMARK UNBOUND:                -1.667
REMARK SMILES CCCCCCCCCCCCCCCCCC(=O)[O-]
REMARK SMILES IDX 10 1 11 2 12 3 13 4 14 5 15 6 16 7 17 8 18 9 19 10 20 11
REMARK SMILES IDX 9 12 8 13 7 14 6 15 5 16 4 17 3 18 2 19 1 20
REMARK H PARENT
REMARK Flexibility Score: inf
ROOT
ATOM      1  C   UNL     1       7.309  -5.676 -17.849  1.00  0.00     0.000 C 
ENDROOT
BRANCH   1   2
ATOM      2  C   UNL     1       7.343  -5.611 -16.310  1.00  0.00     0.000 C 
BRANCH   2   3
ATOM      3  C   UNL     1       6.052  -5.088 -15.653  1.00  0.00     0.000 C 
BRANCH   3   4
ATOM      4  C   UNL     1       4.746  -5.644 -16.253  1.00  0.00     0.000 C 
BRANCH   4   5
ATOM      5  C   UNL     1       3.800  -6.328 -15.245  1.00  0.00     0.000 C 
BRANCH   5   6
ATOM      6  C   UNL     1       3.993  -7.848 -15.103  1.00  0.00     0.000 C 
BRANCH   6   7
ATOM      7  C   UNL     1       4.028  -8.309 -13.635  1.00  0.00     0.006 C 
BRANCH   7   8
ATOM      8  C   UNL     1       5.385  -8.913 -13.251  1.00  0.00     0.053 C 
BRANCH   8   9
ATOM      9  C   UNL     1       6.490  -7.906 -13.350  1.00  0.00     0.041 C 
ATOM     10  O   UNL     1       6.395  -6.801 -12.755  1.00  0.00    -0.550 OA
ATOM     11  O   UNL     1       7.636  -8.199 -14.076  1.00  0.00    -0.550 OA
ENDBRANCH   8   9
ENDBRANCH   7   8
ENDBRANCH   6   7
ENDBRANCH   5   6
ENDBRANCH   4   5
ENDBRANCH   3   4
ENDBRANCH   2   3
ENDBRANCH   1   2
BRANCH   1  12
ATOM     12  C   UNL     1       7.249  -7.112 -18.414  1.00  0.00     0.000 C 
BRANCH  12  13
ATOM     13  C   UNL     1       8.139  -8.093 -17.631  1.00  0.00    -0.000 C 
BRANCH  13  14
ATOM     14  C   UNL     1       7.332  -9.169 -16.883  1.00  0.00    -0.000 C 
BRANCH  14  15
ATOM     15  C   UNL     1       6.172  -9.796 -17.685  1.00  0.00    -0.000 C 
BRANCH  15  16
ATOM     16  C   UNL     1       6.517 -10.195 -19.133  1.00  0.00    -0.000 C 
BRANCH  16  17
ATOM     17  C   UNL     1       5.389 -10.930 -19.881  1.00  0.00    -0.000 C 
BRANCH  17  18
ATOM     18  C   UNL     1       4.613 -11.933 -18.997  1.00  0.00    -0.000 C 
BRANCH  18  19
ATOM     19  C   UNL     1       3.087 -11.742 -19.041  1.00  0.00    -0.003 C 
ATOM     20  C   UNL     1       2.327 -13.045 -18.794  1.00  0.00     0.004 C 
ENDBRANCH  18  19
ENDBRANCH  17  18
ENDBRANCH  16  17
ENDBRANCH  15  16
ENDBRANCH  14  15
ENDBRANCH  13  14
ENDBRANCH  12  13
ENDBRANCH   1  12
TORSDOF 16
ENDMDL
MODEL 8
REMARK VINA RESULT:    -3.647      2.208      3.825
REMARK INTER + INTRA:          -8.725
REMARK INTER:                  -7.148
REMARK INTRA:                  -1.577
REMARK UNBOUND:                -1.667
REMARK SMILES CCCCCCCCCCCCCCCCCC(=O)[O-]
REMARK SMILES IDX 10 1 11 2 12 3 13 4 14 5 15 6 16 7 17 8 18 9 19 10 20 11
REMARK SMILES IDX 9 12 8 13 7 14 6 15 5 16 4 17 3 18 2 19 1 20
REMARK H PARENT
REMARK Flexibility Score: inf
ROOT
ATOM      1  C   UNL     1       7.072  -8.135 -14.093  1.00  0.00     0.000 C 
ENDROOT
BRANCH   1   2
ATOM      2  C   UNL     1       5.945  -8.475 -13.099  1.00  0.00     0.000 C 
BRANCH   2   3
ATOM      3  C   UNL     1       4.531  -8.515 -13.709  1.00  0.00     0.000 C 
BRANCH   3   4
ATOM      4  C   UNL     1       3.597  -7.374 -13.259  1.00  0.00     0.000 C 
BRANCH   4   5
ATOM      5  C   UNL     1       3.238  -6.351 -14.355  1.00  0.00     0.000 C 
BRANCH   5   6
ATOM      6  C   UNL     1       3.993  -6.530 -15.683  1.00  0.00     0.000 C 
BRANCH   6   7
ATOM      7  C   UNL     1       4.539  -5.205 -16.242  1.00  0.00     0.006 C 
BRANCH   7   8
ATOM      8  C   UNL     1       5.734  -5.421 -17.180  1.00  0.00     0.053 C 
BRANCH   8   9
ATOM      9  C   UNL     1       7.037  -5.150 -16.492  1.00  0.00     0.041 C 
ATOM     10  O   UNL     1       8.096  -5.039 -17.162  1.00  0.00    -0.550 OA
ATOM     11  O   UNL     1       7.076  -4.991 -15.113  1.00  0.00    -0.550 OA
ENDBRANCH   8   9
ENDBRANCH   7   8
ENDBRANCH   6   7
ENDBRANCH   5   6
ENDBRANCH   4   5
ENDBRANCH   3   4
ENDBRANCH   2   3
ENDBRANCH   1   2
BRANCH   1  12
ATOM     12  C   UNL     1       6.801  -8.617 -15.535  1.00  0.00     0.000 C 
BRANCH  12  13
ATOM     13  C   UNL     1       8.030  -8.470 -16.449  1.00  0.00    -0.000 C 
BRANCH  13  14
ATOM     14  C   UNL     1       7.660  -8.362 -17.939  1.00  0.00    -0.000 C 
BRANCH  14  15
ATOM     15  C   UNL     1       6.636  -9.402 -18.440  1.00  0.00    -0.000 C 
BRANCH  15  16
ATOM     16  C   UNL     1       7.167 -10.386 -19.500  1.00  0.00    -0.000 C 
BRANCH  16  17
ATOM     17  C   UNL     1       6.080 -11.018 -20.390  1.00  0.00    -0.000 C 
BRANCH  17  18
ATOM     18  C   UNL     1       4.643 -10.774 -19.875  1.00  0.00    -0.000 C 
BRANCH  18  19
ATOM     19  C   UNL     1       4.104 -11.910 -18.989  1.00  0.00    -0.003 C 
ATOM     20  C   UNL     1       2.584 -11.860 -18.835  1.00  0.00     0.004 C 
ENDBRANCH  18  19
ENDBRANCH  17  18
ENDBRANCH  16  17
ENDBRANCH  15  16
ENDBRANCH  14  15
ENDBRANCH  13  14
ENDBRANCH  12  13
ENDBRANCH   1  12
TORSDOF 16
ENDMDL
MODEL 9
REMARK VINA RESULT:    -3.553      2.410      6.080
REMARK INTER + INTRA:          -8.543
REMARK INTER:                  -6.693
REMARK INTRA:                  -1.850
REMARK UNBOUND:                -1.667
REMARK SMILES CCCCCCCCCCCCCCCCCC(=O)[O-]
REMARK SMILES IDX 10 1 11 2 12 3 13 4 14 5 15 6 16 7 17 8 18 9 19 10 20 11
REMARK SMILES IDX 9 12 8 13 7 14 6 15 5 16 4 17 3 18 2 19 1 20
REMARK H PARENT
REMARK Flexibility Score: inf
ROOT
ATOM      1  C   UNL     1       6.732  -8.014 -17.089  1.00  0.00     0.000 C 
ENDROOT
BRANCH   1   2
ATOM      2  C   UNL     1       7.021  -6.781 -17.967  1.00  0.00     0.000 C 
BRANCH   2   3
ATOM      3  C   UNL     1       7.961  -7.040 -19.160  1.00  0.00     0.000 C 
BRANCH   3   4
ATOM      4  C   UNL     1       8.641  -8.422 -19.164  1.00  0.00     0.000 C 
BRANCH   4   5
ATOM      5  C   UNL     1       8.613  -9.164 -20.515  1.00  0.00     0.000 C 
BRANCH   5   6
ATOM      6  C   UNL     1       7.697 -10.400 -20.558  1.00  0.00     0.000 C 
BRANCH   6   7
ATOM      7  C   UNL     1       6.651 -10.406 -19.431  1.00  0.00     0.006 C 
BRANCH   7   8
ATOM      8  C   UNL     1       5.261 -10.820 -19.932  1.00  0.00     0.053 C 
BRANCH   8   9
ATOM      9  C   UNL     1       4.476 -11.530 -18.872  1.00  0.00     0.041 C 
ATOM     10  O   UNL     1       3.271 -11.833 -19.072  1.00  0.00    -0.550 OA
ATOM     11  O   UNL     1       5.086 -11.885 -17.676  1.00  0.00    -0.550 OA
ENDBRANCH   8   9
ENDBRANCH   7   8
ENDBRANCH   6   7
ENDBRANCH   5   6
ENDBRANCH   4   5
ENDBRANCH   3   4
ENDBRANCH   2   3
ENDBRANCH   1   2
BRANCH   1  12
ATOM     12  C   UNL     1       7.514  -8.031 -15.758  1.00  0.00     0.000 C 
BRANCH  12  13
ATOM     13  C   UNL     1       7.328  -6.738 -14.945  1.00  0.00    -0.000 C 
BRANCH  13  14
ATOM     14  C   UNL     1       6.646  -6.976 -13.587  1.00  0.00    -0.000 C 
BRANCH  14  15
ATOM     15  C   UNL     1       6.007  -8.369 -13.407  1.00  0.00    -0.000 C 
BRANCH  15  16
ATOM     16  C   UNL     1       4.536  -8.477 -13.851  1.00  0.00    -0.000 C 
BRANCH  16  17
ATOM     17  C   UNL     1       3.600  -7.422 -13.232  1.00  0.00    -0.000 C 
BRANCH  17  18
ATOM     18  C   UNL     1       3.178  -6.313 -14.224  1.00  0.00    -0.000 C 
BRANCH  18  19
ATOM     19  C   UNL     1       3.850  -6.431 -15.603  1.00  0.00    -0.003 C 
ATOM     20  C   UNL     1       4.330  -5.081 -16.136  1.00  0.00     0.004 C 
ENDBRANCH  18  19
ENDBRANCH  17  18
ENDBRANCH  16  17
ENDBRANCH  15  16
ENDBRANCH  14  15
ENDBRANCH  13  14
ENDBRANCH  12  13
ENDBRANCH   1  12
TORSDOF 16
ENDMDL
