MODEL 1
REMARK VINA RESULT:    -3.560      0.000      0.000
REMARK INTER + INTRA:          -5.281
REMARK INTER:                  -4.808
REMARK INTRA:                  -0.473
REMARK UNBOUND:                -0.473
REMARK SMILES CCCCCCCC(=O)[O-]
REMARK SMILES IDX 5 1 6 2 7 3 8 4 9 5 10 6 4 7 3 8 2 9 1 10
REMARK H PARENT
REMARK Flexibility Score: inf
ROOT
ATOM      1  C   UNL     1      15.241  11.247   0.043  1.00  0.00     0.000 C 
ENDROOT
BRANCH   1   2
ATOM      2  C   UNL     1      16.343  11.363   1.109  1.00  0.00     0.006 C 
BRANCH   2   3
ATOM      3  C   UNL     1      17.341  12.484   0.790  1.00  0.00     0.053 C 
BRANCH   3   4
ATOM      4  C   UNL     1      18.747  11.973   0.706  1.00  0.00     0.041 C 
ATOM      5  O   UNL     1      19.700  12.771   0.504  1.00  0.00    -0.550 OA
ATOM      6  O   UNL     1      19.008  10.621   0.880  1.00  0.00    -0.550 OA
ENDBRANCH   3   4
ENDBRANCH   2   3
ENDBRANCH   1   2
BRANCH   1   7
ATOM      7  C   UNL     1      14.954  12.582  -0.669  1.00  0.00     0.000 C 
BRANCH   7   8
ATOM      8  C   UNL     1      15.019  12.530  -2.209  1.00  0.00    -0.000 C 
BRANCH   8   9
ATOM      9  C   UNL     1      16.127  11.630  -2.783  1.00  0.00    -0.003 C 
ATOM     10  C   UNL     1      17.345  12.418  -3.264  1.00  0.00     0.004 C 
ENDBRANCH   8   9
ENDBRANCH   7   8
ENDBRANCH   1   7
TORSDOF 6
ENDMDL
MODEL 2
REMARK VINA RESULT:    -3.327      2.531      3.946
REMARK INTER + INTRA:          -4.966
REMARK INTER:                  -4.719
REMARK INTRA:                  -0.247
REMARK UNBOUND:                -0.473
REMARK SMILES CCCCCCCC(=O)[O-]
REMARK SMILES IDX 5 1 6 2 7 3 8 4 9 5 10 6 4 7 3 8 2 9 1 10
REMARK H PARENT
REMARK Flexibility Score: inf
ROOT
ATOM      1  C   UNL     1      15.577  11.336  -0.359  1.00  0.00     0.000 C 
ENDROOT
BRANCH   1   2
ATOM      2  C   UNL     1      15.396  12.761  -0.909  1.00  0.00     0.006 C 
BRANCH   2   3
ATOM      3  C   UNL     1      16.472  13.124  -1.941  1.00  0.00     0.053 C 
BRANCH   3   4
ATOM      4  C   UNL     1      16.443  12.206  -3.125  1.00  0.00     0.041 C 
ATOM      5  O   UNL     1      17.479  12.041  -3.822  1.00  0.00    -0.550 OA
ATOM      6  O   UNL     1      15.283  11.511  -3.440  1.00  0.00    -0.550 OA
ENDBRANCH   3   4
ENDBRANCH   2   3
ENDBRANCH   1   2
BRANCH   1   7
ATOM      7  C   UNL     1      15.619  11.290   1.180  1.00  0.00     0.000 C 
BRANCH   7   8
ATOM      8  C   UNL     1      17.032  11.265   1.797  1.00  0.00    -0.000 C 
BRANCH   8   9
ATOM      9  C   UNL     1      18.177  11.058   0.790  1.00  0.00    -0.003 C 
ATOM     10  C   UNL     1      19.036  12.308   0.601  1.00  0.00     0.004 C 
ENDBRANCH   8   9
ENDBRANCH   7   8
ENDBRANCH   1   7
TORSDOF 6
ENDMDL
MODEL 3
REMARK VINA RESULT:    -3.205     10.624     12.101
REMARK INTER + INTRA:          -4.802
REMARK INTER:                  -4.193
REMARK INTRA:                  -0.609
REMARK UNBOUND:                -0.473
REMARK SMILES CCCCCCCC(=O)[O-]
REMARK SMILES IDX 5 1 6 2 7 3 8 4 9 5 10 6 4 7 3 8 2 9 1 10
REMARK H PARENT
REMARK Flexibility Score: inf
ROOT
ATOM      1  C   UNL     1       4.343   7.949   0.870  1.00  0.00     0.000 C 
ENDROOT
BRANCH   1   2
ATOM      2  C   UNL     1       5.404   8.588  -0.043  1.00  0.00     0.006 C 
BRANCH   2   3
ATOM      3  C   UNL     1       6.813   8.053   0.245  1.00  0.00     0.053 C 
BRANCH   3   4
ATOM      4  C   UNL     1       7.694   9.101   0.855  1.00  0.00     0.041 C 
ATOM      5  O   UNL     1       7.202  10.194   1.241  1.00  0.00    -0.550 OA
ATOM      6  O   UNL     1       9.050   8.858   1.024  1.00  0.00    -0.550 OA
ENDBRANCH   3   4
ENDBRANCH   2   3
ENDBRANCH   1   2
BRANCH   1   7
ATOM      7  C   UNL     1       3.954   8.850   2.057  1.00  0.00     0.000 C 
BRANCH   7   8
ATOM      8  C   UNL     1       4.231   8.251   3.451  1.00  0.00    -0.000 C 
BRANCH   8   9
ATOM      9  C   UNL     1       5.718   8.143   3.829  1.00  0.00    -0.003 C 
ATOM     10  C   UNL     1       6.245   6.710   3.768  1.00  0.00     0.004 C 
ENDBRANCH   8   9
ENDBRANCH   7   8
ENDBRANCH   1   7
TORSDOF 6
ENDMDL
MODEL 4
REMARK VINA RESULT:    -3.184     17.454     18.775
REMARK INTER + INTRA:          -4.773
REMARK INTER:                  -4.561
REMARK INTRA:                  -0.212
REMARK UNBOUND:                -0.473
REMARK SMILES CCCCCCCC(=O)[O-]
REMARK SMILES IDX 5 1 6 2 7 3 8 4 9 5 10 6 4 7 3 8 2 9 1 10
REMARK H PARENT
REMARK Flexibility Score: inf
ROOT
ATOM      1  C   UNL     1      13.276  -6.344   3.528  1.00  0.00     0.000 C 
ENDROOT
BRANCH   1   2
ATOM      2  C   UNL     1      13.395  -7.125   2.209  1.00  0.00     0.006 C 
BRANCH   2   3
ATOM      3  C   UNL     1      12.283  -6.759   1.217  1.00  0.00     0.053 C 
BRANCH   3   4
ATOM      4  C   UNL     1      12.834  -6.191  -0.055  1.00  0.00     0.041 C 
ATOM      5  O   UNL     1      13.806  -6.749  -0.629  1.00  0.00    -0.550 OA
ATOM      6  O   UNL     1      12.256  -5.063  -0.623  1.00  0.00    -0.550 OA
ENDBRANCH   3   4
ENDBRANCH   2   3
ENDBRANCH   1   2
BRANCH   1   7
ATOM      7  C   UNL     1      12.173  -5.269   3.490  1.00  0.00     0.000 C 
BRANCH   7   8
ATOM      8  C   UNL     1      11.525  -4.947   4.852  1.00  0.00    -0.000 C 
BRANCH   8   9
ATOM      9  C   UNL     1      12.401  -4.122   5.811  1.00  0.00    -0.003 C 
ATOM     10  C   UNL     1      13.331  -3.153   5.083  1.00  0.00     0.004 C 
ENDBRANCH   8   9
ENDBRANCH   7   8
ENDBRANCH   1   7
TORSDOF 6
ENDMDL
MODEL 5
REMARK VINA RESULT:    -3.146     17.504     18.527
REMARK INTER + INTRA:          -4.723
REMARK INTER:                  -4.247
REMARK INTRA:                  -0.476
REMARK UNBOUND:                -0.473
REMARK SMILES CCCCCCCC(=O)[O-]
REMARK SMILES IDX 5 1 6 2 7 3 8 4 9 5 10 6 4 7 3 8 2 9 1 10
REMARK H PARENT
REMARK Flexibility Score: inf
ROOT
ATOM      1  C   UNL     1      13.559  -6.835   3.516  1.00  0.00     0.000 C 
ENDROOT
BRANCH   1   2
ATOM      2  C   UNL     1      12.125  -6.397   3.863  1.00  0.00     0.006 C 
BRANCH   2   3
ATOM      3  C   UNL     1      11.956  -4.873   3.807  1.00  0.00     0.053 C 
BRANCH   3   4
ATOM      4  C   UNL     1      12.549  -4.200   5.007  1.00  0.00     0.041 C 
ATOM      5  O   UNL     1      12.249  -4.593   6.165  1.00  0.00    -0.550 OA
ATOM      6  O   UNL     1      13.455  -3.161   4.847  1.00  0.00    -0.550 OA
ENDBRANCH   3   4
ENDBRANCH   2   3
ENDBRANCH   1   2
BRANCH   1   7
ATOM      7  C   UNL     1      14.091  -6.174   2.230  1.00  0.00     0.000 C 
BRANCH   7   8
ATOM      8  C   UNL     1      14.263  -7.125   1.028  1.00  0.00    -0.000 C 
BRANCH   8   9
ATOM      9  C   UNL     1      13.538  -6.687  -0.256  1.00  0.00    -0.003 C 
ATOM     10  C   UNL     1      12.476  -5.618  -0.006  1.00  0.00     0.004 C 
ENDBRANCH   8   9
ENDBRANCH   7   8
ENDBRANCH   1   7
TORSDOF 6
ENDMDL
MODEL 6
REMARK VINA RESULT:    -3.107     10.593     11.998
REMARK INTER + INTRA:          -4.670
REMARK INTER:                  -4.079
REMARK INTRA:                  -0.591
REMARK UNBOUND:                -0.473
REMARK SMILES CCCCCCCC(=O)[O-]
REMARK SMILES IDX 5 1 6 2 7 3 8 4 9 5 10 6 4 7 3 8 2 9 1 10
REMARK H PARENT
REMARK Flexibility Score: inf
ROOT
ATOM      1  C   UNL     1       6.992   7.870   0.207  1.00  0.00     0.000 C 
ENDROOT
BRANCH   1   2
ATOM      2  C   UNL     1       6.318   6.828   1.117  1.00  0.00     0.006 C 
BRANCH   2   3
ATOM      3  C   UNL     1       5.131   7.417   1.891  1.00  0.00     0.053 C 
BRANCH   3   4
ATOM      4  C   UNL     1       5.404   7.488   3.362  1.00  0.00     0.041 C 
ATOM      5  O   UNL     1       4.753   8.285   4.089  1.00  0.00    -0.550 OA
ATOM      6  O   UNL     1       6.355   6.655   3.936  1.00  0.00    -0.550 OA
ENDBRANCH   3   4
ENDBRANCH   2   3
ENDBRANCH   1   2
BRANCH   1   7
ATOM      7  C   UNL     1       7.958   8.796   0.971  1.00  0.00     0.000 C 
BRANCH   7   8
ATOM      8  C   UNL     1       7.637  10.301   0.872  1.00  0.00    -0.000 C 
BRANCH   8   9
ATOM      9  C   UNL     1       6.709  10.842   1.974  1.00  0.00    -0.003 C 
ATOM     10  C   UNL     1       5.293  11.121   1.476  1.00  0.00     0.004 C 
ENDBRANCH   8   9
ENDBRANCH   7   8
ENDBRANCH   1   7
TORSDOF 6
ENDMDL
MODEL 7
REMARK VINA RESULT:    -3.097     10.926     12.191
REMARK INTER + INTRA:          -4.656
REMARK INTER:                  -4.028
REMARK INTRA:                  -0.628
REMARK UNBOUND:                -0.473
REMARK SMILES CCCCCCCC(=O)[O-]
REMARK SMILES IDX 5 1 6 2 7 3 8 4 9 5 10 6 4 7 3 8 2 9 1 10
REMARK H PARENT
REMARK Flexibility Score: inf
ROOT
ATOM      1  C   UNL     1       4.457   9.663   2.045  1.00  0.00     0.000 C 
ENDROOT
BRANCH   1   2
ATOM      2  C   UNL     1       4.178   8.383   2.851  1.00  0.00     0.006 C 
BRANCH   2   3
ATOM      3  C   UNL     1       5.321   8.046   3.816  1.00  0.00     0.053 C 
BRANCH   3   4
ATOM      4  C   UNL     1       6.069   6.819   3.389  1.00  0.00     0.041 C 
ATOM      5  O   UNL     1       6.669   6.115   4.243  1.00  0.00    -0.550 OA
ATOM      6  O   UNL     1       6.077   6.437   2.054  1.00  0.00    -0.550 OA
ENDBRANCH   3   4
ENDBRANCH   2   3
ENDBRANCH   1   2
BRANCH   1   7
ATOM      7  C   UNL     1       4.634   9.395   0.539  1.00  0.00     0.000 C 
BRANCH   7   8
ATOM      8  C   UNL     1       6.088   9.461   0.028  1.00  0.00    -0.000 C 
BRANCH   8   9
ATOM      9  C   UNL     1       7.136   9.824   1.095  1.00  0.00    -0.003 C 
ATOM     10  C   UNL     1       8.402   8.974   0.999  1.00  0.00     0.004 C 
ENDBRANCH   8   9
ENDBRANCH   7   8
ENDBRANCH   1   7
TORSDOF 6
ENDMDL
MODEL 8
REMARK VINA RESULT:    -3.087     10.439     11.948
REMARK INTER + INTRA:          -4.642
REMARK INTER:                  -4.001
REMARK INTRA:                  -0.641
REMARK UNBOUND:                -0.473
REMARK SMILES CCCCCCCC(=O)[O-]
REMARK SMILES IDX 5 1 6 2 7 3 8 4 9 5 10 6 4 7 3 8 2 9 1 10
REMARK H PARENT
REMARK Flexibility Score: inf
ROOT
ATOM      1  C   UNL     1       6.343  10.273   1.955  1.00  0.00     0.000 C 
ENDROOT
BRANCH   1   2
ATOM      2  C   UNL     1       7.028   9.857   0.642  1.00  0.00     0.006 C 
BRANCH   2   3
ATOM      3  C   UNL     1       7.837   8.563   0.795  1.00  0.00     0.053 C 
BRANCH   3   4
ATOM      4  C   UNL     1       7.241   7.435   0.009  1.00  0.00     0.041 C 
ATOM      5  O   UNL     1       7.969   6.732  -0.740  1.00  0.00    -0.550 OA
ATOM      6  O   UNL     1       5.889   7.142   0.127  1.00  0.00    -0.550 OA
ENDBRANCH   3   4
ENDBRANCH   2   3
ENDBRANCH   1   2
BRANCH   1   7
ATOM      7  C   UNL     1       4.875   9.816   2.036  1.00  0.00     0.000 C 
BRANCH   7   8
ATOM      8  C   UNL     1       4.601   8.667   3.028  1.00  0.00    -0.000 C 
BRANCH   8   9
ATOM      9  C   UNL     1       5.818   8.215   3.853  1.00  0.00    -0.003 C 
ATOM     10  C   UNL     1       6.152   6.737   3.661  1.00  0.00     0.004 C 
ENDBRANCH   8   9
ENDBRANCH   7   8
ENDBRANCH   1   7
TORSDOF 6
ENDMDL
MODEL 9
REMARK VINA RESULT:    -3.070     10.376     11.839
REMARK INTER + INTRA:          -4.620
REMARK INTER:                  -4.081
REMARK INTRA:                  -0.539
REMARK UNBOUND:                -0.473
REMARK SMILES CCCCCCCC(=O)[O-]
REMARK SMILES IDX 5 1 6 2 7 3 8 4 9 5 10 6 4 7 3 8 2 9 1 10
REMARK H PARENT
REMARK Flexibility Score: inf
ROOT
ATOM      1  C   UNL     1       4.885  10.378   1.982  1.00  0.00     0.000 C 
ENDROOT
BRANCH   1   2
ATOM      2  C   UNL     1       5.780  10.364   0.731  1.00  0.00     0.006 C 
BRANCH   2   3
ATOM      3  C   UNL     1       7.272  10.380   1.086  1.00  0.00     0.053 C 
BRANCH   3   4
ATOM      4  C   UNL     1       7.907   9.036   0.894  1.00  0.00     0.041 C 
ATOM      5  O   UNL     1       9.143   8.887   1.083  1.00  0.00    -0.550 OA
ATOM      6  O   UNL     1       7.129   7.943   0.537  1.00  0.00    -0.550 OA
ENDBRANCH   3   4
ENDBRANCH   2   3
ENDBRANCH   1   2
BRANCH   1   7
ATOM      7  C   UNL     1       4.092   9.070   2.165  1.00  0.00     0.000 C 
BRANCH   7   8
ATOM      8  C   UNL     1       4.360   8.322   3.487  1.00  0.00    -0.000 C 
BRANCH   8   9
ATOM      9  C   UNL     1       5.846   8.119   3.830  1.00  0.00    -0.003 C 
ATOM     10  C   UNL     1       6.267   6.650   3.808  1.00  0.00     0.004 C 
ENDBRANCH   8   9
ENDBRANCH   7   8
ENDBRANCH   1   7
TORSDOF 6
ENDMDL
