MODEL 1
REMARK VINA RESULT:    -3.429      0.000      0.000
REMARK INTER + INTRA:          -7.749
REMARK INTER:                  -6.235
REMARK INTRA:                  -1.515
REMARK UNBOUND:                -1.515
REMARK SMILES CCCCCCCCCCCCCCC(=O)OC
REMARK SMILES IDX 9 1 8 2 7 3 6 4 5 5 4 6 3 7 2 8 1 9 10 10 11 11 12 12 13 13
REMARK SMILES IDX 14 14 15 15 16 16 17 17 18 18
REMARK H PARENT
REMARK Flexibility Score: inf
ROOT
ATOM      1  C   UNL     1     198.410 197.345 218.350  1.00  0.00     0.000 C 
ENDROOT
BRANCH   1   2
ATOM      2  C   UNL     1     197.136 196.773 218.987  1.00  0.00     0.000 C 
BRANCH   2   3
ATOM      3  C   UNL     1     195.849 197.338 218.360  1.00  0.00    -0.000 C 
BRANCH   3   4
ATOM      4  C   UNL     1     196.066 198.317 217.188  1.00  0.00    -0.000 C 
BRANCH   4   5
ATOM      5  C   UNL     1     195.172 199.571 217.202  1.00  0.00    -0.000 C 
BRANCH   5   6
ATOM      6  C   UNL     1     195.471 200.506 218.384  1.00  0.00    -0.000 C 
BRANCH   6   7
ATOM      7  C   UNL     1     196.962 200.867 218.495  1.00  0.00    -0.000 C 
BRANCH   7   8
ATOM      8  C   UNL     1     197.580 200.534 219.869  1.00  0.00    -0.003 C 
ATOM      9  C   UNL     1     196.545 199.990 220.855  1.00  0.00     0.004 C 
ENDBRANCH   7   8
ENDBRANCH   6   7
ENDBRANCH   5   6
ENDBRANCH   4   5
ENDBRANCH   3   4
ENDBRANCH   2   3
ENDBRANCH   1   2
BRANCH   1  10
ATOM     10  C   UNL     1     199.614 196.434 218.617  1.00  0.00     0.000 C 
BRANCH  10  11
ATOM     11  C   UNL     1     200.281 196.002 217.305  1.00  0.00     0.000 C 
BRANCH  11  12
ATOM     12  C   UNL     1     201.719 196.524 217.220  1.00  0.00     0.001 C 
BRANCH  12  13
ATOM     13  C   UNL     1     201.995 197.559 218.317  1.00  0.00     0.012 C 
BRANCH  13  14
ATOM     14  C   UNL     1     203.177 198.457 217.942  1.00  0.00     0.123 C 
BRANCH  14  15
ATOM     15  C   UNL     1     202.979 199.836 218.486  1.00  0.00     0.305 C 
ATOM     16  O   UNL     1     203.233 200.838 217.762  1.00  0.00    -0.252 OA
BRANCH  15  17
ATOM     17  O   UNL     1     202.557 199.999 219.808  1.00  0.00    -0.469 OA
ATOM     18  C   UNL     1     203.249 200.825 220.737  1.00  0.00     0.282 C 
ENDBRANCH  15  17
ENDBRANCH  14  15
ENDBRANCH  13  14
ENDBRANCH  12  13
ENDBRANCH  11  12
ENDBRANCH  10  11
ENDBRANCH   1  10
TORSDOF 14
ENDMDL
MODEL 2
REMARK VINA RESULT:    -3.410      1.672      3.943
REMARK INTER + INTRA:          -7.716
REMARK INTER:                  -5.464
REMARK INTRA:                  -2.252
REMARK UNBOUND:                -1.515
REMARK SMILES CCCCCCCCCCCCCCC(=O)OC
REMARK SMILES IDX 9 1 8 2 7 3 6 4 5 5 4 6 3 7 2 8 1 9 10 10 11 11 12 12 13 13
REMARK SMILES IDX 14 14 15 15 16 16 17 17 18 18
REMARK H PARENT
REMARK Flexibility Score: inf
ROOT
ATOM      1  C   UNL     1     195.927 200.090 220.954  1.00  0.00     0.000 C 
ENDROOT
BRANCH   1   2
ATOM      2  C   UNL     1     195.366 200.907 219.781  1.00  0.00     0.000 C 
BRANCH   2   3
ATOM      3  C   UNL     1     196.449 201.325 218.771  1.00  0.00    -0.000 C 
BRANCH   3   4
ATOM      4  C   UNL     1     196.630 200.372 217.572  1.00  0.00    -0.000 C 
BRANCH   4   5
ATOM      5  C   UNL     1     195.402 199.511 217.222  1.00  0.00    -0.000 C 
BRANCH   5   6
ATOM      6  C   UNL     1     195.650 198.008 217.419  1.00  0.00    -0.000 C 
BRANCH   6   7
ATOM      7  C   UNL     1     197.005 197.710 218.082  1.00  0.00    -0.000 C 
BRANCH   7   8
ATOM      8  C   UNL     1     196.981 196.484 219.019  1.00  0.00    -0.003 C 
ATOM      9  C   UNL     1     195.796 196.515 219.985  1.00  0.00     0.004 C 
ENDBRANCH   7   8
ENDBRANCH   6   7
ENDBRANCH   5   6
ENDBRANCH   4   5
ENDBRANCH   3   4
ENDBRANCH   2   3
ENDBRANCH   1   2
BRANCH   1  10
ATOM     10  C   UNL     1     197.459 200.055 220.916  1.00  0.00     0.000 C 
BRANCH  10  11
ATOM     11  C   UNL     1     198.007 198.907 221.772  1.00  0.00     0.000 C 
BRANCH  11  12
ATOM     12  C   UNL     1     199.524 198.770 221.604  1.00  0.00     0.001 C 
BRANCH  12  13
ATOM     13  C   UNL     1     199.934 198.948 220.138  1.00  0.00     0.012 C 
BRANCH  13  14
ATOM     14  C   UNL     1     200.459 197.635 219.550  1.00  0.00     0.123 C 
BRANCH  14  15
ATOM     15  C   UNL     1     201.839 197.821 219.006  1.00  0.00     0.305 C 
ATOM     16  O   UNL     1     202.750 198.276 219.750  1.00  0.00    -0.252 OA
BRANCH  15  17
ATOM     17  O   UNL     1     202.093 197.530 217.662  1.00  0.00    -0.469 OA
ATOM     18  C   UNL     1     201.269 196.656 216.899  1.00  0.00     0.282 C 
ENDBRANCH  15  17
ENDBRANCH  14  15
ENDBRANCH  13  14
ENDBRANCH  12  13
ENDBRANCH  11  12
ENDBRANCH  10  11
ENDBRANCH   1  10
TORSDOF 14
ENDMDL
MODEL 3
REMARK VINA RESULT:    -3.365     12.565     16.058
REMARK INTER + INTRA:          -7.634
REMARK INTER:                  -6.153
REMARK INTRA:                  -1.481
REMARK UNBOUND:                -1.515
REMARK SMILES CCCCCCCCCCCCCCC(=O)OC
REMARK SMILES IDX 9 1 8 2 7 3 6 4 5 5 4 6 3 7 2 8 1 9 10 10 11 11 12 12 13 13
REMARK SMILES IDX 14 14 15 15 16 16 17 17 18 18
REMARK H PARENT
REMARK Flexibility Score: inf
ROOT
ATOM      1  C   UNL     1     209.091 213.387 219.487  1.00  0.00     0.000 C 
ENDROOT
BRANCH   1   2
ATOM      2  C   UNL     1     208.849 213.668 217.997  1.00  0.00     0.000 C 
BRANCH   2   3
ATOM      3  C   UNL     1     208.251 212.462 217.251  1.00  0.00    -0.000 C 
BRANCH   3   4
ATOM      4  C   UNL     1     207.584 211.400 218.149  1.00  0.00    -0.000 C 
BRANCH   4   5
ATOM      5  C   UNL     1     206.080 211.603 218.405  1.00  0.00    -0.000 C 
BRANCH   5   6
ATOM      6  C   UNL     1     205.316 210.280 218.565  1.00  0.00    -0.000 C 
BRANCH   6   7
ATOM      7  C   UNL     1     206.120 209.065 218.071  1.00  0.00    -0.000 C 
BRANCH   7   8
ATOM      8  C   UNL     1     206.484 208.066 219.189  1.00  0.00    -0.003 C 
ATOM      9  C   UNL     1     205.654 208.283 220.455  1.00  0.00     0.004 C 
ENDBRANCH   7   8
ENDBRANCH   6   7
ENDBRANCH   5   6
ENDBRANCH   4   5
ENDBRANCH   3   4
ENDBRANCH   2   3
ENDBRANCH   1   2
BRANCH   1  10
ATOM     10  C   UNL     1     210.567 213.071 219.754  1.00  0.00     0.000 C 
BRANCH  10  11
ATOM     11  C   UNL     1     210.719 211.774 220.557  1.00  0.00     0.000 C 
BRANCH  11  12
ATOM     12  C   UNL     1     210.966 210.578 219.630  1.00  0.00     0.001 C 
BRANCH  12  13
ATOM     13  C   UNL     1     211.741 211.004 218.377  1.00  0.00     0.012 C 
BRANCH  13  14
ATOM     14  C   UNL     1     213.175 210.471 218.410  1.00  0.00     0.123 C 
BRANCH  14  15
ATOM     15  C   UNL     1     213.260 209.153 217.707  1.00  0.00     0.305 C 
ATOM     16  O   UNL     1     212.836 209.046 216.524  1.00  0.00    -0.252 OA
BRANCH  15  17
ATOM     17  O   UNL     1     213.768 208.043 218.387  1.00  0.00    -0.469 OA
ATOM     18  C   UNL     1     212.953 207.200 219.193  1.00  0.00     0.282 C 
ENDBRANCH  15  17
ENDBRANCH  14  15
ENDBRANCH  13  14
ENDBRANCH  12  13
ENDBRANCH  11  12
ENDBRANCH  10  11
ENDBRANCH   1  10
TORSDOF 14
ENDMDL
MODEL 4
REMARK VINA RESULT:    -3.345     15.226     17.648
REMARK INTER + INTRA:          -7.598
REMARK INTER:                  -4.965
REMARK INTRA:                  -2.633
REMARK UNBOUND:                -1.515
REMARK SMILES CCCCCCCCCCCCCCC(=O)OC
REMARK SMILES IDX 9 1 8 2 7 3 6 4 5 5 4 6 3 7 2 8 1 9 10 10 11 11 12 12 13 13
REMARK SMILES IDX 14 14 15 15 16 16 17 17 18 18
REMARK H PARENT
REMARK Flexibility Score: inf
ROOT
ATOM      1  C   UNL     1     212.916 207.202 219.061  1.00  0.00     0.000 C 
ENDROOT
BRANCH   1   2
ATOM      2  C   UNL     1     214.382 207.362 219.490  1.00  0.00     0.000 C 
BRANCH   2   3
ATOM      3  C   UNL     1     214.648 206.845 220.915  1.00  0.00    -0.000 C 
BRANCH   3   4
ATOM      4  C   UNL     1     214.327 207.844 222.045  1.00  0.00    -0.000 C 
BRANCH   4   5
ATOM      5  C   UNL     1     214.325 209.327 221.634  1.00  0.00    -0.000 C 
BRANCH   5   6
ATOM      6  C   UNL     1     212.973 210.014 221.879  1.00  0.00    -0.000 C 
BRANCH   6   7
ATOM      7  C   UNL     1     211.841 209.014 222.168  1.00  0.00    -0.000 C 
BRANCH   7   8
ATOM      8  C   UNL     1     210.441 209.531 221.776  1.00  0.00    -0.003 C 
ATOM      9  C   UNL     1     209.782 208.666 220.700  1.00  0.00     0.004 C 
ENDBRANCH   7   8
ENDBRANCH   6   7
ENDBRANCH   5   6
ENDBRANCH   4   5
ENDBRANCH   3   4
ENDBRANCH   2   3
ENDBRANCH   1   2
BRANCH   1  10
ATOM     10  C   UNL     1     212.466 208.380 218.191  1.00  0.00     0.000 C 
BRANCH  10  11
ATOM     11  C   UNL     1     213.627 209.347 217.925  1.00  0.00     0.000 C 
BRANCH  11  12
ATOM     12  C   UNL     1     213.188 210.802 218.121  1.00  0.00     0.001 C 
BRANCH  12  13
ATOM     13  C   UNL     1     211.688 210.888 218.429  1.00  0.00     0.012 C 
BRANCH  13  14
ATOM     14  C   UNL     1     211.368 212.132 219.262  1.00  0.00     0.123 C 
BRANCH  14  15
ATOM     15  C   UNL     1     209.917 212.476 219.152  1.00  0.00     0.305 C 
ATOM     16  O   UNL     1     209.151 212.281 220.135  1.00  0.00    -0.252 OA
BRANCH  15  17
ATOM     17  O   UNL     1     209.417 212.968 217.943  1.00  0.00    -0.469 OA
ATOM     18  C   UNL     1     208.371 212.322 217.227  1.00  0.00     0.282 C 
ENDBRANCH  15  17
ENDBRANCH  14  15
ENDBRANCH  13  14
ENDBRANCH  12  13
ENDBRANCH  11  12
ENDBRANCH  10  11
ENDBRANCH   1  10
TORSDOF 14
ENDMDL
MODEL 5
REMARK VINA RESULT:    -3.332      1.464      2.800
REMARK INTER + INTRA:          -7.574
REMARK INTER:                  -5.816
REMARK INTRA:                  -1.759
REMARK UNBOUND:                -1.515
REMARK SMILES CCCCCCCCCCCCCCC(=O)OC
REMARK SMILES IDX 9 1 8 2 7 3 6 4 5 5 4 6 3 7 2 8 1 9 10 10 11 11 12 12 13 13
REMARK SMILES IDX 14 14 15 15 16 16 17 17 18 18
REMARK H PARENT
REMARK Flexibility Score: inf
ROOT
ATOM      1  C   UNL     1     196.377 197.498 217.750  1.00  0.00     0.000 C 
ENDROOT
BRANCH   1   2
ATOM      2  C   UNL     1     195.050 198.270 217.742  1.00  0.00     0.000 C 
BRANCH   2   3
ATOM      3  C   UNL     1     195.215 199.737 217.307  1.00  0.00    -0.000 C 
BRANCH   3   4
ATOM      4  C   UNL     1     195.420 200.744 218.457  1.00  0.00    -0.000 C 
BRANCH   4   5
ATOM      5  C   UNL     1     196.880 201.150 218.726  1.00  0.00    -0.000 C 
BRANCH   5   6
ATOM      6  C   UNL     1     197.492 200.420 219.931  1.00  0.00    -0.000 C 
BRANCH   6   7
ATOM      7  C   UNL     1     199.030 200.461 219.933  1.00  0.00    -0.000 C 
BRANCH   7   8
ATOM      8  C   UNL     1     199.652 200.334 221.339  1.00  0.00    -0.003 C 
ATOM      9  C   UNL     1     199.904 198.877 221.733  1.00  0.00     0.004 C 
ENDBRANCH   7   8
ENDBRANCH   6   7
ENDBRANCH   5   6
ENDBRANCH   4   5
ENDBRANCH   3   4
ENDBRANCH   2   3
ENDBRANCH   1   2
BRANCH   1  10
ATOM     10  C   UNL     1     196.676 196.933 219.143  1.00  0.00     0.000 C 
BRANCH  10  11
ATOM     11  C   UNL     1     198.176 196.671 219.323  1.00  0.00     0.000 C 
BRANCH  11  12
ATOM     12  C   UNL     1     198.963 197.090 218.076  1.00  0.00     0.001 C 
BRANCH  12  13
ATOM     13  C   UNL     1     200.108 196.111 217.793  1.00  0.00     0.012 C 
BRANCH  13  14
ATOM     14  C   UNL     1     201.330 196.842 217.230  1.00  0.00     0.123 C 
BRANCH  14  15
ATOM     15  C   UNL     1     202.057 197.561 218.321  1.00  0.00     0.305 C 
ATOM     16  O   UNL     1     202.000 197.127 219.504  1.00  0.00    -0.252 OA
BRANCH  15  17
ATOM     17  O   UNL     1     202.756 198.734 218.023  1.00  0.00    -0.469 OA
ATOM     18  C   UNL     1     202.874 199.810 218.946  1.00  0.00     0.282 C 
ENDBRANCH  15  17
ENDBRANCH  14  15
ENDBRANCH  13  14
ENDBRANCH  12  13
ENDBRANCH  11  12
ENDBRANCH  10  11
ENDBRANCH   1  10
TORSDOF 14
ENDMDL
MODEL 6
REMARK VINA RESULT:    -3.281     15.083     17.817
REMARK INTER + INTRA:          -7.481
REMARK INTER:                  -5.149
REMARK INTRA:                  -2.332
REMARK UNBOUND:                -1.515
REMARK SMILES CCCCCCCCCCCCCCC(=O)OC
REMARK SMILES IDX 9 1 8 2 7 3 6 4 5 5 4 6 3 7 2 8 1 9 10 10 11 11 12 12 13 13
REMARK SMILES IDX 14 14 15 15 16 16 17 17 18 18
REMARK H PARENT
REMARK Flexibility Score: inf
ROOT
ATOM      1  C   UNL     1     213.275 208.390 221.853  1.00  0.00     0.000 C 
ENDROOT
BRANCH   1   2
ATOM      2  C   UNL     1     214.619 208.399 221.112  1.00  0.00     0.000 C 
BRANCH   2   3
ATOM      3  C   UNL     1     214.568 207.643 219.773  1.00  0.00    -0.000 C 
BRANCH   3   4
ATOM      4  C   UNL     1     213.159 207.219 219.312  1.00  0.00    -0.000 C 
BRANCH   4   5
ATOM      5  C   UNL     1     212.467 208.184 218.332  1.00  0.00    -0.000 C 
BRANCH   5   6
ATOM      6  C   UNL     1     213.463 209.010 217.503  1.00  0.00    -0.000 C 
BRANCH   6   7
ATOM      7  C   UNL     1     213.192 210.522 217.583  1.00  0.00    -0.000 C 
BRANCH   7   8
ATOM      8  C   UNL     1     213.897 211.216 218.767  1.00  0.00    -0.003 C 
ATOM      9  C   UNL     1     213.587 212.712 218.832  1.00  0.00     0.004 C 
ENDBRANCH   7   8
ENDBRANCH   6   7
ENDBRANCH   5   6
ENDBRANCH   4   5
ENDBRANCH   3   4
ENDBRANCH   2   3
ENDBRANCH   1   2
BRANCH   1  10
ATOM     10  C   UNL     1     212.629 209.780 221.838  1.00  0.00     0.000 C 
BRANCH  10  11
ATOM     11  C   UNL     1     211.156 209.701 221.421  1.00  0.00     0.000 C 
BRANCH  11  12
ATOM     12  C   UNL     1     210.674 211.037 220.844  1.00  0.00     0.001 C 
BRANCH  12  13
ATOM     13  C   UNL     1     210.116 210.855 219.428  1.00  0.00     0.012 C 
BRANCH  13  14
ATOM     14  C   UNL     1     209.879 212.208 218.752  1.00  0.00     0.123 C 
BRANCH  14  15
ATOM     15  C   UNL     1     208.529 212.243 218.109  1.00  0.00     0.305 C 
ATOM     16  O   UNL     1     208.432 212.430 216.866  1.00  0.00    -0.252 OA
BRANCH  15  17
ATOM     17  O   UNL     1     207.387 212.112 218.904  1.00  0.00    -0.469 OA
ATOM     18  C   UNL     1     206.143 211.653 218.387  1.00  0.00     0.282 C 
ENDBRANCH  15  17
ENDBRANCH  14  15
ENDBRANCH  13  14
ENDBRANCH  12  13
ENDBRANCH  11  12
ENDBRANCH  10  11
ENDBRANCH   1  10
TORSDOF 14
ENDMDL
MODEL 7
REMARK VINA RESULT:    -3.253      1.667      2.882
REMARK INTER + INTRA:          -7.430
REMARK INTER:                  -5.328
REMARK INTRA:                  -2.102
REMARK UNBOUND:                -1.515
REMARK SMILES CCCCCCCCCCCCCCC(=O)OC
REMARK SMILES IDX 9 1 8 2 7 3 6 4 5 5 4 6 3 7 2 8 1 9 10 10 11 11 12 12 13 13
REMARK SMILES IDX 14 14 15 15 16 16 17 17 18 18
REMARK H PARENT
REMARK Flexibility Score: inf
ROOT
ATOM      1  C   UNL     1     196.841 196.886 218.743  1.00  0.00     0.000 C 
ENDROOT
BRANCH   1   2
ATOM      2  C   UNL     1     195.682 197.418 217.887  1.00  0.00     0.000 C 
BRANCH   2   3
ATOM      3  C   UNL     1     196.050 198.694 217.109  1.00  0.00    -0.000 C 
BRANCH   3   4
ATOM      4  C   UNL     1     195.261 199.956 217.509  1.00  0.00    -0.000 C 
BRANCH   4   5
ATOM      5  C   UNL     1     196.031 200.969 218.375  1.00  0.00    -0.000 C 
BRANCH   5   6
ATOM      6  C   UNL     1     195.335 201.266 219.712  1.00  0.00    -0.000 C 
BRANCH   6   7
ATOM      7  C   UNL     1     194.897 199.990 220.451  1.00  0.00    -0.000 C 
BRANCH   7   8
ATOM      8  C   UNL     1     195.845 199.581 221.598  1.00  0.00    -0.003 C 
ATOM      9  C   UNL     1     195.628 198.134 222.043  1.00  0.00     0.004 C 
ENDBRANCH   7   8
ENDBRANCH   6   7
ENDBRANCH   5   6
ENDBRANCH   4   5
ENDBRANCH   3   4
ENDBRANCH   2   3
ENDBRANCH   1   2
BRANCH   1  10
ATOM     10  C   UNL     1     198.091 197.759 218.578  1.00  0.00     0.000 C 
BRANCH  10  11
ATOM     11  C   UNL     1     198.732 198.068 219.937  1.00  0.00     0.000 C 
BRANCH  11  12
ATOM     12  C   UNL     1     199.599 199.329 219.863  1.00  0.00     0.001 C 
BRANCH  12  13
ATOM     13  C   UNL     1     200.990 199.076 220.456  1.00  0.00     0.012 C 
BRANCH  13  14
ATOM     14  C   UNL     1     201.600 197.788 219.897  1.00  0.00     0.123 C 
BRANCH  14  15
ATOM     15  C   UNL     1     202.308 198.060 218.608  1.00  0.00     0.305 C 
ATOM     16  O   UNL     1     202.824 199.193 218.404  1.00  0.00    -0.252 OA
BRANCH  15  17
ATOM     17  O   UNL     1     202.350 197.068 217.624  1.00  0.00    -0.469 OA
ATOM     18  C   UNL     1     201.206 196.691 216.868  1.00  0.00     0.282 C 
ENDBRANCH  15  17
ENDBRANCH  14  15
ENDBRANCH  13  14
ENDBRANCH  12  13
ENDBRANCH  11  12
ENDBRANCH  10  11
ENDBRANCH   1  10
TORSDOF 14
ENDMDL
MODEL 8
REMARK VINA RESULT:    -3.240     16.231     18.015
REMARK INTER + INTRA:          -7.406
REMARK INTER:                  -5.264
REMARK INTRA:                  -2.142
REMARK UNBOUND:                -1.515
REMARK SMILES CCCCCCCCCCCCCCC(=O)OC
REMARK SMILES IDX 9 1 8 2 7 3 6 4 5 5 4 6 3 7 2 8 1 9 10 10 11 11 12 12 13 13
REMARK SMILES IDX 14 14 15 15 16 16 17 17 18 18
REMARK H PARENT
REMARK Flexibility Score: inf
ROOT
ATOM      1  C   UNL     1     213.479 209.000 217.659  1.00  0.00     0.000 C 
ENDROOT
BRANCH   1   2
ATOM      2  C   UNL     1     212.534 208.119 218.489  1.00  0.00     0.000 C 
BRANCH   2   3
ATOM      3  C   UNL     1     213.248 206.916 219.131  1.00  0.00    -0.000 C 
BRANCH   3   4
ATOM      4  C   UNL     1     214.608 207.234 219.785  1.00  0.00    -0.000 C 
BRANCH   4   5
ATOM      5  C   UNL     1     214.756 206.786 221.251  1.00  0.00    -0.000 C 
BRANCH   5   6
ATOM      6  C   UNL     1     214.486 207.919 222.253  1.00  0.00    -0.000 C 
BRANCH   6   7
ATOM      7  C   UNL     1     214.606 209.316 221.619  1.00  0.00    -0.000 C 
BRANCH   7   8
ATOM      8  C   UNL     1     213.317 210.158 221.723  1.00  0.00    -0.003 C 
ATOM      9  C   UNL     1     212.085 209.299 222.012  1.00  0.00     0.004 C 
ENDBRANCH   7   8
ENDBRANCH   6   7
ENDBRANCH   5   6
ENDBRANCH   4   5
ENDBRANCH   3   4
ENDBRANCH   2   3
ENDBRANCH   1   2
BRANCH   1  10
ATOM     10  C   UNL     1     213.233 210.486 217.939  1.00  0.00     0.000 C 
BRANCH  10  11
ATOM     11  C   UNL     1     211.782 210.735 218.371  1.00  0.00     0.000 C 
BRANCH  11  12
ATOM     12  C   UNL     1     211.642 212.086 219.081  1.00  0.00     0.001 C 
BRANCH  12  13
ATOM     13  C   UNL     1     210.296 212.187 219.809  1.00  0.00     0.012 C 
BRANCH  13  14
ATOM     14  C   UNL     1     209.197 211.450 219.039  1.00  0.00     0.123 C 
BRANCH  14  15
ATOM     15  C   UNL     1     208.415 212.409 218.198  1.00  0.00     0.305 C 
ATOM     16  O   UNL     1     208.623 212.467 216.956  1.00  0.00    -0.252 OA
BRANCH  15  17
ATOM     17  O   UNL     1     207.492 213.263 218.809  1.00  0.00    -0.469 OA
ATOM     18  C   UNL     1     207.595 214.680 218.735  1.00  0.00     0.282 C 
ENDBRANCH  15  17
ENDBRANCH  14  15
ENDBRANCH  13  14
ENDBRANCH  12  13
ENDBRANCH  11  12
ENDBRANCH  10  11
ENDBRANCH   1  10
TORSDOF 14
ENDMDL
MODEL 9
REMARK VINA RESULT:    -3.236      1.517      3.155
REMARK INTER + INTRA:          -7.399
REMARK INTER:                  -5.013
REMARK INTRA:                  -2.386
REMARK UNBOUND:                -1.515
REMARK SMILES CCCCCCCCCCCCCCC(=O)OC
REMARK SMILES IDX 9 1 8 2 7 3 6 4 5 5 4 6 3 7 2 8 1 9 10 10 11 11 12 12 13 13
REMARK SMILES IDX 14 14 15 15 16 16 17 17 18 18
REMARK H PARENT
REMARK Flexibility Score: inf
ROOT
ATOM      1  C   UNL     1     197.307 200.488 220.062  1.00  0.00     0.000 C 
ENDROOT
BRANCH   1   2
ATOM      2  C   UNL     1     196.767 201.195 218.811  1.00  0.00     0.000 C 
BRANCH   2   3
ATOM      3  C   UNL     1     196.694 200.268 217.585  1.00  0.00    -0.000 C 
BRANCH   3   4
ATOM      4  C   UNL     1     195.282 199.757 217.232  1.00  0.00    -0.000 C 
BRANCH   4   5
ATOM      5  C   UNL     1     194.996 198.293 217.613  1.00  0.00    -0.000 C 
BRANCH   5   6
ATOM      6  C   UNL     1     196.267 197.510 217.976  1.00  0.00    -0.000 C 
BRANCH   6   7
ATOM      7  C   UNL     1     196.146 196.771 219.320  1.00  0.00    -0.000 C 
BRANCH   7   8
ATOM      8  C   UNL     1     195.314 197.532 220.373  1.00  0.00    -0.003 C 
ATOM      9  C   UNL     1     195.935 197.458 221.769  1.00  0.00     0.004 C 
ENDBRANCH   7   8
ENDBRANCH   6   7
ENDBRANCH   5   6
ENDBRANCH   4   5
ENDBRANCH   3   4
ENDBRANCH   2   3
ENDBRANCH   1   2
BRANCH   1  10
ATOM     10  C   UNL     1     198.755 200.033 219.855  1.00  0.00     0.000 C 
BRANCH  10  11
ATOM     11  C   UNL     1     199.224 199.137 221.008  1.00  0.00     0.000 C 
BRANCH  11  12
ATOM     12  C   UNL     1     199.412 197.690 220.540  1.00  0.00     0.001 C 
BRANCH  12  13
ATOM     13  C   UNL     1     199.888 197.640 219.083  1.00  0.00     0.012 C 
BRANCH  13  14
ATOM     14  C   UNL     1     201.296 197.048 218.985  1.00  0.00     0.123 C 
BRANCH  14  15
ATOM     15  C   UNL     1     202.318 198.138 218.919  1.00  0.00     0.305 C 
ATOM     16  O   UNL     1     202.803 198.477 217.805  1.00  0.00    -0.252 OA
BRANCH  15  17
ATOM     17  O   UNL     1     202.759 198.739 220.102  1.00  0.00    -0.469 OA
ATOM     18  C   UNL     1     202.780 200.150 220.282  1.00  0.00     0.282 C 
ENDBRANCH  15  17
ENDBRANCH  14  15
ENDBRANCH  13  14
ENDBRANCH  12  13
ENDBRANCH  11  12
ENDBRANCH  10  11
ENDBRANCH   1  10
TORSDOF 14
ENDMDL
