MODEL 1
REMARK VINA RESULT:    34.952      0.000      0.000
REMARK INTER + INTRA:          42.480
REMARK INTER:                  42.103
REMARK INTRA:                   0.377
REMARK UNBOUND:                 0.377
REMARK SMILES Oc1cc(O)c2c(c1)O[C@@H](c1ccc(O)c(O)c1)[C@H](O)C2
REMARK SMILES IDX 21 1 19 2 10 3 9 4 7 5 8 6 2 7 3 8 4 9 6 10 20 11 11 13
REMARK SMILES IDX 18 14 12 15 16 16 13 17 14 18 17 19 15 21 5 23 1 25
REMARK H PARENT 20 12 17 20 15 22 5 24 1 26
REMARK Flexibility Score: inf
ROOT
ATOM      1  C   UNL     1      -3.551   8.042  16.616  1.00  0.00     0.079 C 
ATOM      2  C   UNL     1      -3.878   6.592  16.212  1.00  0.00     0.164 C 
ATOM      3  C   UNL     1      -2.779   5.637  16.726  1.00  0.00     0.232 C 
ATOM      4  O   UNL     1      -2.628   5.782  18.139  1.00  0.00    -0.482 OA
ATOM      5  C   UNL     1      -2.750   7.018  18.785  1.00  0.00     0.131 A 
ATOM      6  C   UNL     1      -2.423   7.116  20.142  1.00  0.00     0.093 A 
ATOM      7  C   UNL     1      -2.537   8.342  20.808  1.00  0.00     0.122 A 
ATOM      8  C   UNL     1      -2.979   9.472  20.114  1.00  0.00     0.092 A 
ATOM      9  C   UNL     1      -3.315   9.386  18.756  1.00  0.00     0.126 A 
ATOM     10  C   UNL     1      -3.221   8.150  18.088  1.00  0.00     0.039 A 
ENDROOT
BRANCH   2  11
ATOM     11  O   UNL     1      -4.033   6.493  14.817  1.00  0.00    -0.389 OA
ATOM     12  H   UNL     1      -4.895   6.033  14.641  1.00  0.00     0.211 HD
ENDBRANCH   2  11
BRANCH   3  13
ATOM     13  C   UNL     1      -3.108   4.201  16.395  1.00  0.00    -0.001 A 
ATOM     14  C   UNL     1      -2.885   3.181  17.336  1.00  0.00     0.057 A 
ATOM     15  C   UNL     1      -3.689   3.876  15.158  1.00  0.00     0.012 A 
ATOM     16  C   UNL     1      -3.217   1.852  17.039  1.00  0.00     0.157 A 
ATOM     17  C   UNL     1      -4.020   2.551  14.861  1.00  0.00     0.050 A 
ATOM     18  C   UNL     1      -3.786   1.536  15.793  1.00  0.00     0.157 A 
BRANCH  16  19
ATOM     19  O   UNL     1      -2.985   0.846  17.977  1.00  0.00    -0.504 OA
ATOM     20  H   UNL     1      -3.190   0.979  18.959  1.00  0.00     0.293 HD
ENDBRANCH  16  19
BRANCH  18  21
ATOM     21  O   UNL     1      -4.125   0.224  15.467  1.00  0.00    -0.504 OA
ATOM     22  H   UNL     1      -4.129  -0.109  14.510  1.00  0.00     0.293 HD
ENDBRANCH  18  21
ENDBRANCH   3  13
BRANCH   9  23
ATOM     23  O   UNL     1      -3.741  10.523  18.069  1.00  0.00    -0.507 OA
ATOM     24  H   UNL     1      -3.836  11.419  18.534  1.00  0.00     0.293 HD
ENDBRANCH   9  23
BRANCH   7  25
ATOM     25  O   UNL     1      -2.211   8.448  22.158  1.00  0.00    -0.508 OA
ATOM     26  H   UNL     1      -2.643   7.853  22.856  1.00  0.00     0.293 HD
ENDBRANCH   7  25
TORSDOF 6
ENDMDL
