MODEL 1
REMARK VINA RESULT:    -4.868      0.000      0.000
REMARK INTER + INTRA:         -11.005
REMARK INTER:                  -8.852
REMARK INTRA:                  -2.153
REMARK UNBOUND:                -2.153
REMARK SMILES CCCCCCCCCCCCCC[C@@H](C)C(=O)[O-]
REMARK SMILES IDX 9 1 10 2 11 3 12 4 13 5 14 6 15 7 16 8 17 9 18 10 19 11 8 12
REMARK SMILES IDX 7 13 6 14 5 15 4 16 3 17 2 18 1 19
REMARK H PARENT
REMARK Flexibility Score: inf
ROOT
ATOM      1  C   UNL     1      15.655 -33.953  19.835  1.00  0.00     0.000 C 
ENDROOT
BRANCH   1   2
ATOM      2  C   UNL     1      15.026 -34.173  21.223  1.00  0.00     0.000 C 
BRANCH   2   3
ATOM      3  C   UNL     1      16.018 -34.144  22.404  1.00  0.00     0.000 C 
BRANCH   3   4
ATOM      4  C   UNL     1      15.494 -33.458  23.677  1.00  0.00     0.000 C 
BRANCH   4   5
ATOM      5  C   UNL     1      15.032 -32.012  23.427  1.00  0.00     0.001 C 
BRANCH   5   6
ATOM      6  C   UNL     1      13.504 -31.847  23.531  1.00  0.00     0.009 C 
BRANCH   6   7
ATOM      7  C   UNL     1      12.939 -30.660  22.719  1.00  0.00     0.032 C 
ATOM      8  C   UNL     1      13.394 -29.330  23.330  1.00  0.00     0.014 C 
BRANCH   7   9
ATOM      9  C   UNL     1      13.363 -30.724  21.276  1.00  0.00     0.044 C 
ATOM     10  O   UNL     1      14.259 -29.951  20.846  1.00  0.00    -0.550 OA
ATOM     11  O   UNL     1      12.770 -31.635  20.410  1.00  0.00    -0.550 OA
ENDBRANCH   7   9
ENDBRANCH   6   7
ENDBRANCH   5   6
ENDBRANCH   4   5
ENDBRANCH   3   4
ENDBRANCH   2   3
ENDBRANCH   1   2
BRANCH   1  12
ATOM     12  C   UNL     1      16.503 -35.144  19.366  1.00  0.00     0.000 C 
BRANCH  12  13
ATOM     13  C   UNL     1      17.970 -34.738  19.194  1.00  0.00    -0.000 C 
BRANCH  13  14
ATOM     14  C   UNL     1      18.155 -33.232  19.421  1.00  0.00    -0.000 C 
BRANCH  14  15
ATOM     15  C   UNL     1      19.217 -32.964  20.494  1.00  0.00    -0.000 C 
BRANCH  15  16
ATOM     16  C   UNL     1      18.744 -31.884  21.479  1.00  0.00    -0.000 C 
BRANCH  16  17
ATOM     17  C   UNL     1      17.625 -31.002  20.885  1.00  0.00    -0.000 C 
BRANCH  17  18
ATOM     18  C   UNL     1      17.547 -29.600  21.512  1.00  0.00    -0.003 C 
ATOM     19  C   UNL     1      18.518 -28.606  20.879  1.00  0.00     0.004 C 
ENDBRANCH  17  18
ENDBRANCH  16  17
ENDBRANCH  15  16
ENDBRANCH  14  15
ENDBRANCH  13  14
ENDBRANCH  12  13
ENDBRANCH   1  12
TORSDOF 14
ENDMDL
MODEL 2
REMARK VINA RESULT:    -4.818      1.618      3.688
REMARK INTER + INTRA:         -10.915
REMARK INTER:                  -9.059
REMARK INTRA:                  -1.856
REMARK UNBOUND:                -2.153
REMARK SMILES CCCCCCCCCCCCCC[C@@H](C)C(=O)[O-]
REMARK SMILES IDX 9 1 10 2 11 3 12 4 13 5 14 6 15 7 16 8 17 9 18 10 19 11 8 12
REMARK SMILES IDX 7 13 6 14 5 15 4 16 3 17 2 18 1 19
REMARK H PARENT
REMARK Flexibility Score: inf
ROOT
ATOM      1  C   UNL     1      17.803 -32.122  20.530  1.00  0.00     0.000 C 
ENDROOT
BRANCH   1   2
ATOM      2  C   UNL     1      17.970 -31.879  22.041  1.00  0.00     0.000 C 
BRANCH   2   3
ATOM      3  C   UNL     1      17.814 -33.132  22.927  1.00  0.00     0.000 C 
BRANCH   3   4
ATOM      4  C   UNL     1      16.474 -33.236  23.677  1.00  0.00     0.000 C 
BRANCH   4   5
ATOM      5  C   UNL     1      15.608 -31.973  23.525  1.00  0.00     0.001 C 
BRANCH   5   6
ATOM      6  C   UNL     1      14.099 -32.280  23.546  1.00  0.00     0.009 C 
BRANCH   6   7
ATOM      7  C   UNL     1      13.242 -31.299  22.712  1.00  0.00     0.032 C 
ATOM      8  C   UNL     1      13.254 -29.905  23.348  1.00  0.00     0.014 C 
BRANCH   7   9
ATOM      9  C   UNL     1      13.729 -31.210  21.290  1.00  0.00     0.044 C 
ATOM     10  O   UNL     1      14.279 -30.156  20.876  1.00  0.00    -0.550 OA
ATOM     11  O   UNL     1      13.572 -32.287  20.426  1.00  0.00    -0.550 OA
ENDBRANCH   7   9
ENDBRANCH   6   7
ENDBRANCH   5   6
ENDBRANCH   4   5
ENDBRANCH   3   4
ENDBRANCH   2   3
ENDBRANCH   1   2
BRANCH   1  12
ATOM     12  C   UNL     1      18.758 -33.195  19.987  1.00  0.00     0.000 C 
BRANCH  12  13
ATOM     13  C   UNL     1      18.090 -34.010  18.875  1.00  0.00    -0.000 C 
BRANCH  13  14
ATOM     14  C   UNL     1      16.569 -34.062  19.068  1.00  0.00    -0.000 C 
BRANCH  14  15
ATOM     15  C   UNL     1      16.145 -35.367  19.754  1.00  0.00    -0.000 C 
BRANCH  15  16
ATOM     16  C   UNL     1      16.914 -36.566  19.179  1.00  0.00    -0.000 C 
BRANCH  16  17
ATOM     17  C   UNL     1      17.634 -37.378  20.276  1.00  0.00    -0.000 C 
BRANCH  17  18
ATOM     18  C   UNL     1      18.015 -36.543  21.511  1.00  0.00    -0.003 C 
ATOM     19  C   UNL     1      18.990 -37.262  22.441  1.00  0.00     0.004 C 
ENDBRANCH  17  18
ENDBRANCH  16  17
ENDBRANCH  15  16
ENDBRANCH  14  15
ENDBRANCH  13  14
ENDBRANCH  12  13
ENDBRANCH   1  12
TORSDOF 14
ENDMDL
MODEL 3
REMARK VINA RESULT:    -4.800      1.885      2.666
REMARK INTER + INTRA:         -10.881
REMARK INTER:                  -9.401
REMARK INTRA:                  -1.480
REMARK UNBOUND:                -2.153
REMARK SMILES CCCCCCCCCCCCCC[C@@H](C)C(=O)[O-]
REMARK SMILES IDX 9 1 10 2 11 3 12 4 13 5 14 6 15 7 16 8 17 9 18 10 19 11 8 12
REMARK SMILES IDX 7 13 6 14 5 15 4 16 3 17 2 18 1 19
REMARK H PARENT
REMARK Flexibility Score: inf
ROOT
ATOM      1  C   UNL     1      16.627 -34.155  18.995  1.00  0.00     0.000 C 
ENDROOT
BRANCH   1   2
ATOM      2  C   UNL     1      15.358 -34.427  19.824  1.00  0.00     0.000 C 
BRANCH   2   3
ATOM      3  C   UNL     1      14.312 -33.294  19.812  1.00  0.00     0.000 C 
BRANCH   3   4
ATOM      4  C   UNL     1      14.099 -32.591  21.164  1.00  0.00     0.000 C 
BRANCH   4   5
ATOM      5  C   UNL     1      13.383 -31.236  21.024  1.00  0.00     0.001 C 
BRANCH   5   6
ATOM      6  C   UNL     1      12.613 -30.833  22.295  1.00  0.00     0.009 C 
BRANCH   6   7
ATOM      7  C   UNL     1      13.296 -29.721  23.123  1.00  0.00     0.032 C 
ATOM      8  C   UNL     1      14.609 -29.291  22.461  1.00  0.00     0.014 C 
BRANCH   7   9
ATOM      9  C   UNL     1      12.398 -28.524  23.289  1.00  0.00     0.044 C 
ATOM     10  O   UNL     1      11.175 -28.609  23.003  1.00  0.00    -0.550 OA
ATOM     11  O   UNL     1      12.911 -27.320  23.756  1.00  0.00    -0.550 OA
ENDBRANCH   7   9
ENDBRANCH   6   7
ENDBRANCH   5   6
ENDBRANCH   4   5
ENDBRANCH   3   4
ENDBRANCH   2   3
ENDBRANCH   1   2
BRANCH   1  12
ATOM     12  C   UNL     1      17.921 -34.429  19.774  1.00  0.00     0.000 C 
BRANCH  12  13
ATOM     13  C   UNL     1      18.708 -33.134  20.001  1.00  0.00    -0.000 C 
BRANCH  13  14
ATOM     14  C   UNL     1      18.222 -32.407  21.261  1.00  0.00    -0.000 C 
BRANCH  14  15
ATOM     15  C   UNL     1      17.563 -31.068  20.904  1.00  0.00    -0.000 C 
BRANCH  15  16
ATOM     16  C   UNL     1      18.222 -29.910  21.669  1.00  0.00    -0.000 C 
BRANCH  16  17
ATOM     17  C   UNL     1      18.280 -28.615  20.831  1.00  0.00    -0.000 C 
BRANCH  17  18
ATOM     18  C   UNL     1      19.653 -27.922  20.863  1.00  0.00    -0.003 C 
ATOM     19  C   UNL     1      20.820 -28.907  20.887  1.00  0.00     0.004 C 
ENDBRANCH  17  18
ENDBRANCH  16  17
ENDBRANCH  15  16
ENDBRANCH  14  15
ENDBRANCH  13  14
ENDBRANCH  12  13
ENDBRANCH   1  12
TORSDOF 14
ENDMDL
MODEL 4
REMARK VINA RESULT:    -4.775      2.684      6.096
REMARK INTER + INTRA:         -10.837
REMARK INTER:                  -9.494
REMARK INTRA:                  -1.343
REMARK UNBOUND:                -2.153
REMARK SMILES CCCCCCCCCCCCCC[C@@H](C)C(=O)[O-]
REMARK SMILES IDX 9 1 10 2 11 3 12 4 13 5 14 6 15 7 16 8 17 9 18 10 19 11 8 12
REMARK SMILES IDX 7 13 6 14 5 15 4 16 3 17 2 18 1 19
REMARK H PARENT
REMARK Flexibility Score: inf
ROOT
ATOM      1  C   UNL     1      14.762 -32.592  21.883  1.00  0.00     0.000 C 
ENDROOT
BRANCH   1   2
ATOM      2  C   UNL     1      15.143 -34.046  21.550  1.00  0.00     0.000 C 
BRANCH   2   3
ATOM      3  C   UNL     1      14.925 -34.460  20.081  1.00  0.00     0.000 C 
BRANCH   3   4
ATOM      4  C   UNL     1      16.205 -34.845  19.316  1.00  0.00     0.000 C 
BRANCH   4   5
ATOM      5  C   UNL     1      17.140 -33.646  19.082  1.00  0.00     0.001 C 
BRANCH   5   6
ATOM      6  C   UNL     1      18.627 -34.006  19.259  1.00  0.00     0.009 C 
BRANCH   6   7
ATOM      7  C   UNL     1      19.279 -33.399  20.522  1.00  0.00     0.032 C 
ATOM      8  C   UNL     1      18.805 -31.957  20.727  1.00  0.00     0.014 C 
BRANCH   7   9
ATOM      9  C   UNL     1      18.970 -34.213  21.750  1.00  0.00     0.044 C 
ATOM     10  O   UNL     1      19.274 -35.435  21.790  1.00  0.00    -0.550 OA
ATOM     11  O   UNL     1      18.349 -33.624  22.845  1.00  0.00    -0.550 OA
ENDBRANCH   7   9
ENDBRANCH   6   7
ENDBRANCH   5   6
ENDBRANCH   4   5
ENDBRANCH   3   4
ENDBRANCH   2   3
ENDBRANCH   1   2
BRANCH   1  12
ATOM     12  C   UNL     1      13.796 -31.977  20.860  1.00  0.00     0.000 C 
BRANCH  12  13
ATOM     13  C   UNL     1      12.802 -31.033  21.545  1.00  0.00    -0.000 C 
BRANCH  13  14
ATOM     14  C   UNL     1      13.237 -30.722  22.982  1.00  0.00    -0.000 C 
BRANCH  14  15
ATOM     15  C   UNL     1      13.347 -29.209  23.208  1.00  0.00    -0.000 C 
BRANCH  15  16
ATOM     16  C   UNL     1      11.991 -28.615  23.619  1.00  0.00    -0.000 C 
BRANCH  16  17
ATOM     17  C   UNL     1      12.140 -27.240  24.305  1.00  0.00    -0.000 C 
BRANCH  17  18
ATOM     18  C   UNL     1      13.459 -26.523  23.969  1.00  0.00    -0.003 C 
ATOM     19  C   UNL     1      14.098 -25.846  25.179  1.00  0.00     0.004 C 
ENDBRANCH  17  18
ENDBRANCH  16  17
ENDBRANCH  15  16
ENDBRANCH  14  15
ENDBRANCH  13  14
ENDBRANCH  12  13
ENDBRANCH   1  12
TORSDOF 14
ENDMDL
MODEL 5
REMARK VINA RESULT:    -4.754      2.119      5.397
REMARK INTER + INTRA:         -10.799
REMARK INTER:                  -8.162
REMARK INTRA:                  -2.637
REMARK UNBOUND:                -2.153
REMARK SMILES CCCCCCCCCCCCCC[C@@H](C)C(=O)[O-]
REMARK SMILES IDX 9 1 10 2 11 3 12 4 13 5 14 6 15 7 16 8 17 9 18 10 19 11 8 12
REMARK SMILES IDX 7 13 6 14 5 15 4 16 3 17 2 18 1 19
REMARK H PARENT
REMARK Flexibility Score: inf
ROOT
ATOM      1  C   UNL     1      18.917 -30.488  21.278  1.00  0.00     0.000 C 
ENDROOT
BRANCH   1   2
ATOM      2  C   UNL     1      20.127 -31.341  20.855  1.00  0.00     0.000 C 
BRANCH   2   3
ATOM      3  C   UNL     1      20.756 -32.189  21.980  1.00  0.00     0.000 C 
BRANCH   3   4
ATOM      4  C   UNL     1      19.846 -33.291  22.550  1.00  0.00     0.000 C 
BRANCH   4   5
ATOM      5  C   UNL     1      19.667 -34.474  21.583  1.00  0.00     0.001 C 
BRANCH   5   6
ATOM      6  C   UNL     1      18.198 -34.916  21.448  1.00  0.00     0.009 C 
BRANCH   6   7
ATOM      7  C   UNL     1      17.475 -34.339  20.209  1.00  0.00     0.032 C 
ATOM      8  C   UNL     1      18.446 -34.224  19.029  1.00  0.00     0.014 C 
BRANCH   7   9
ATOM      9  C   UNL     1      16.295 -35.185  19.813  1.00  0.00     0.044 C 
ATOM     10  O   UNL     1      16.474 -36.272  19.203  1.00  0.00    -0.550 OA
ATOM     11  O   UNL     1      15.002 -34.773  20.115  1.00  0.00    -0.550 OA
ENDBRANCH   7   9
ENDBRANCH   6   7
ENDBRANCH   5   6
ENDBRANCH   4   5
ENDBRANCH   3   4
ENDBRANCH   2   3
ENDBRANCH   1   2
BRANCH   1  12
ATOM     12  C   UNL     1      17.627 -30.873  20.538  1.00  0.00     0.000 C 
BRANCH  12  13
ATOM     13  C   UNL     1      16.434 -30.903  21.499  1.00  0.00    -0.000 C 
BRANCH  13  14
ATOM     14  C   UNL     1      16.898 -31.093  22.949  1.00  0.00    -0.000 C 
BRANCH  14  15
ATOM     15  C   UNL     1      16.304 -32.371  23.554  1.00  0.00    -0.000 C 
BRANCH  15  16
ATOM     16  C   UNL     1      14.941 -32.695  22.925  1.00  0.00    -0.000 C 
BRANCH  16  17
ATOM     17  C   UNL     1      13.770 -32.073  23.717  1.00  0.00    -0.000 C 
BRANCH  17  18
ATOM     18  C   UNL     1      12.996 -31.002  22.930  1.00  0.00    -0.003 C 
ATOM     19  C   UNL     1      13.356 -29.577  23.346  1.00  0.00     0.004 C 
ENDBRANCH  17  18
ENDBRANCH  16  17
ENDBRANCH  15  16
ENDBRANCH  14  15
ENDBRANCH  13  14
ENDBRANCH  12  13
ENDBRANCH   1  12
TORSDOF 14
ENDMDL
MODEL 6
REMARK VINA RESULT:    -4.750      1.565      3.405
REMARK INTER + INTRA:         -10.792
REMARK INTER:                  -8.236
REMARK INTRA:                  -2.556
REMARK UNBOUND:                -2.153
REMARK SMILES CCCCCCCCCCCCCC[C@@H](C)C(=O)[O-]
REMARK SMILES IDX 9 1 10 2 11 3 12 4 13 5 14 6 15 7 16 8 17 9 18 10 19 11 8 12
REMARK SMILES IDX 7 13 6 14 5 15 4 16 3 17 2 18 1 19
REMARK H PARENT
REMARK Flexibility Score: inf
ROOT
ATOM      1  C   UNL     1      17.558 -34.616  20.138  1.00  0.00     0.000 C 
ENDROOT
BRANCH   1   2
ATOM      2  C   UNL     1      16.090 -35.075  20.056  1.00  0.00     0.000 C 
BRANCH   2   3
ATOM      3  C   UNL     1      15.075 -33.966  19.713  1.00  0.00     0.000 C 
BRANCH   3   4
ATOM      4  C   UNL     1      14.510 -33.203  20.924  1.00  0.00     0.000 C 
BRANCH   4   5
ATOM      5  C   UNL     1      13.511 -32.105  20.522  1.00  0.00     0.001 C 
BRANCH   5   6
ATOM      6  C   UNL     1      13.925 -30.709  21.025  1.00  0.00     0.009 C 
BRANCH   6   7
ATOM      7  C   UNL     1      13.193 -30.257  22.310  1.00  0.00     0.032 C 
ATOM      8  C   UNL     1      13.347 -31.310  23.412  1.00  0.00     0.014 C 
BRANCH   7   9
ATOM      9  C   UNL     1      13.708 -28.930  22.802  1.00  0.00     0.044 C 
ATOM     10  O   UNL     1      14.864 -28.545  22.484  1.00  0.00    -0.550 OA
ATOM     11  O   UNL     1      12.914 -28.125  23.609  1.00  0.00    -0.550 OA
ENDBRANCH   7   9
ENDBRANCH   6   7
ENDBRANCH   5   6
ENDBRANCH   4   5
ENDBRANCH   3   4
ENDBRANCH   2   3
ENDBRANCH   1   2
BRANCH   1  12
ATOM     12  C   UNL     1      17.751 -33.154  19.712  1.00  0.00     0.000 C 
BRANCH  12  13
ATOM     13  C   UNL     1      18.425 -32.345  20.826  1.00  0.00    -0.000 C 
BRANCH  13  14
ATOM     14  C   UNL     1      17.607 -31.094  21.170  1.00  0.00    -0.000 C 
BRANCH  14  15
ATOM     15  C   UNL     1      17.152 -31.119  22.634  1.00  0.00    -0.000 C 
BRANCH  15  16
ATOM     16  C   UNL     1      17.588 -32.421  23.323  1.00  0.00    -0.000 C 
BRANCH  16  17
ATOM     17  C   UNL     1      16.396 -33.177  23.949  1.00  0.00    -0.000 C 
BRANCH  17  18
ATOM     18  C   UNL     1      16.459 -34.701  23.745  1.00  0.00    -0.003 C 
ATOM     19  C   UNL     1      17.885 -35.246  23.739  1.00  0.00     0.004 C 
ENDBRANCH  17  18
ENDBRANCH  16  17
ENDBRANCH  15  16
ENDBRANCH  14  15
ENDBRANCH  13  14
ENDBRANCH  12  13
ENDBRANCH   1  12
TORSDOF 14
ENDMDL
MODEL 7
REMARK VINA RESULT:    -4.731      1.397      2.384
REMARK INTER + INTRA:         -10.756
REMARK INTER:                  -8.406
REMARK INTRA:                  -2.350
REMARK UNBOUND:                -2.153
REMARK SMILES CCCCCCCCCCCCCC[C@@H](C)C(=O)[O-]
REMARK SMILES IDX 9 1 10 2 11 3 12 4 13 5 14 6 15 7 16 8 17 9 18 10 19 11 8 12
REMARK SMILES IDX 7 13 6 14 5 15 4 16 3 17 2 18 1 19
REMARK H PARENT
REMARK Flexibility Score: inf
ROOT
ATOM      1  C   UNL     1      18.859 -35.780  22.153  1.00  0.00     0.000 C 
ENDROOT
BRANCH   1   2
ATOM      2  C   UNL     1      18.214 -34.870  23.215  1.00  0.00     0.000 C 
BRANCH   2   3
ATOM      3  C   UNL     1      16.672 -34.827  23.192  1.00  0.00     0.000 C 
BRANCH   3   4
ATOM      4  C   UNL     1      16.046 -33.582  23.845  1.00  0.00     0.000 C 
BRANCH   4   5
ATOM      5  C   UNL     1      14.968 -32.928  22.963  1.00  0.00     0.001 C 
BRANCH   5   6
ATOM      6  C   UNL     1      14.496 -31.567  23.510  1.00  0.00     0.009 C 
BRANCH   6   7
ATOM      7  C   UNL     1      13.230 -31.012  22.819  1.00  0.00     0.032 C 
ATOM      8  C   UNL     1      12.814 -29.681  23.454  1.00  0.00     0.014 C 
BRANCH   7   9
ATOM      9  C   UNL     1      13.443 -30.823  21.341  1.00  0.00     0.044 C 
ATOM     10  O   UNL     1      12.682 -31.393  20.515  1.00  0.00    -0.550 OA
ATOM     11  O   UNL     1      14.479 -30.021  20.878  1.00  0.00    -0.550 OA
ENDBRANCH   7   9
ENDBRANCH   6   7
ENDBRANCH   5   6
ENDBRANCH   4   5
ENDBRANCH   3   4
ENDBRANCH   2   3
ENDBRANCH   1   2
BRANCH   1  12
ATOM     12  C   UNL     1      17.849 -36.718  21.476  1.00  0.00     0.000 C 
BRANCH  12  13
ATOM     13  C   UNL     1      17.725 -36.401  19.982  1.00  0.00    -0.000 C 
BRANCH  13  14
ATOM     14  C   UNL     1      16.389 -35.714  19.673  1.00  0.00    -0.000 C 
BRANCH  14  15
ATOM     15  C   UNL     1      16.601 -34.247  19.280  1.00  0.00    -0.000 C 
BRANCH  15  16
ATOM     16  C   UNL     1      18.094 -33.937  19.097  1.00  0.00    -0.000 C 
BRANCH  16  17
ATOM     17  C   UNL     1      18.603 -32.892  20.113  1.00  0.00    -0.000 C 
BRANCH  17  18
ATOM     18  C   UNL     1      17.538 -31.860  20.520  1.00  0.00    -0.003 C 
ATOM     19  C   UNL     1      18.005 -30.927  21.635  1.00  0.00     0.004 C 
ENDBRANCH  17  18
ENDBRANCH  16  17
ENDBRANCH  15  16
ENDBRANCH  14  15
ENDBRANCH  13  14
ENDBRANCH  12  13
ENDBRANCH   1  12
TORSDOF 14
ENDMDL
MODEL 8
REMARK VINA RESULT:    -4.717      2.754      6.016
REMARK INTER + INTRA:         -10.731
REMARK INTER:                  -8.391
REMARK INTRA:                  -2.340
REMARK UNBOUND:                -2.153
REMARK SMILES CCCCCCCCCCCCCC[C@@H](C)C(=O)[O-]
REMARK SMILES IDX 9 1 10 2 11 3 12 4 13 5 14 6 15 7 16 8 17 9 18 10 19 11 8 12
REMARK SMILES IDX 7 13 6 14 5 15 4 16 3 17 2 18 1 19
REMARK H PARENT
REMARK Flexibility Score: inf
ROOT
ATOM      1  C   UNL     1      17.033 -29.888  21.294  1.00  0.00     0.000 C 
ENDROOT
BRANCH   1   2
ATOM      2  C   UNL     1      17.339 -31.340  20.885  1.00  0.00     0.000 C 
BRANCH   2   3
ATOM      3  C   UNL     1      18.399 -32.055  21.748  1.00  0.00     0.000 C 
BRANCH   3   4
ATOM      4  C   UNL     1      19.000 -33.325  21.121  1.00  0.00     0.000 C 
BRANCH   4   5
ATOM      5  C   UNL     1      18.991 -33.291  19.583  1.00  0.00     0.001 C 
BRANCH   5   6
ATOM      6  C   UNL     1      18.116 -34.399  18.967  1.00  0.00     0.009 C 
BRANCH   6   7
ATOM      7  C   UNL     1      17.273 -35.185  19.997  1.00  0.00     0.032 C 
ATOM      8  C   UNL     1      15.788 -34.837  19.850  1.00  0.00     0.014 C 
BRANCH   7   9
ATOM      9  C   UNL     1      17.461 -36.672  19.847  1.00  0.00     0.044 C 
ATOM     10  O   UNL     1      17.730 -37.378  20.854  1.00  0.00    -0.550 OA
ATOM     11  O   UNL     1      17.341 -37.272  18.599  1.00  0.00    -0.550 OA
ENDBRANCH   7   9
ENDBRANCH   6   7
ENDBRANCH   5   6
ENDBRANCH   4   5
ENDBRANCH   3   4
ENDBRANCH   2   3
ENDBRANCH   1   2
BRANCH   1  12
ATOM     12  C   UNL     1      15.745 -29.758  22.121  1.00  0.00     0.000 C 
BRANCH  12  13
ATOM     13  C   UNL     1      14.509 -30.005  21.250  1.00  0.00    -0.000 C 
BRANCH  13  14
ATOM     14  C   UNL     1      13.727 -31.231  21.738  1.00  0.00    -0.000 C 
BRANCH  14  15
ATOM     15  C   UNL     1      13.487 -31.165  23.251  1.00  0.00    -0.000 C 
BRANCH  15  16
ATOM     16  C   UNL     1      13.849 -32.497  23.925  1.00  0.00    -0.000 C 
BRANCH  16  17
ATOM     17  C   UNL     1      14.939 -33.267  23.149  1.00  0.00    -0.000 C 
BRANCH  17  18
ATOM     18  C   UNL     1      16.195 -33.564  23.984  1.00  0.00    -0.003 C 
ATOM     19  C   UNL     1      16.764 -34.959  23.734  1.00  0.00     0.004 C 
ENDBRANCH  17  18
ENDBRANCH  16  17
ENDBRANCH  15  16
ENDBRANCH  14  15
ENDBRANCH  13  14
ENDBRANCH  12  13
ENDBRANCH   1  12
TORSDOF 14
ENDMDL
MODEL 9
REMARK VINA RESULT:    -4.646      1.632      3.730
REMARK INTER + INTRA:         -10.601
REMARK INTER:                  -7.858
REMARK INTRA:                  -2.743
REMARK UNBOUND:                -2.153
REMARK SMILES CCCCCCCCCCCCCC[C@@H](C)C(=O)[O-]
REMARK SMILES IDX 9 1 10 2 11 3 12 4 13 5 14 6 15 7 16 8 17 9 18 10 19 11 8 12
REMARK SMILES IDX 7 13 6 14 5 15 4 16 3 17 2 18 1 19
REMARK H PARENT
REMARK Flexibility Score: inf
ROOT
ATOM      1  C   UNL     1      18.802 -33.353  23.687  1.00  0.00     0.000 C 
ENDROOT
BRANCH   1   2
ATOM      2  C   UNL     1      17.655 -34.351  23.922  1.00  0.00     0.000 C 
BRANCH   2   3
ATOM      3  C   UNL     1      16.245 -33.729  23.975  1.00  0.00     0.000 C 
BRANCH   3   4
ATOM      4  C   UNL     1      15.370 -33.991  22.736  1.00  0.00     0.000 C 
BRANCH   4   5
ATOM      5  C   UNL     1      14.592 -32.744  22.282  1.00  0.00     0.001 C 
BRANCH   5   6
ATOM      6  C   UNL     1      14.636 -31.604  23.317  1.00  0.00     0.009 C 
BRANCH   6   7
ATOM      7  C   UNL     1      14.258 -30.218  22.748  1.00  0.00     0.032 C 
ATOM      8  C   UNL     1      14.612 -30.136  21.260  1.00  0.00     0.014 C 
BRANCH   7   9
ATOM      9  C   UNL     1      12.794 -29.922  22.937  1.00  0.00     0.044 C 
ATOM     10  O   UNL     1      11.936 -30.506  22.225  1.00  0.00    -0.550 OA
ATOM     11  O   UNL     1      12.381 -29.004  23.895  1.00  0.00    -0.550 OA
ENDBRANCH   7   9
ENDBRANCH   6   7
ENDBRANCH   5   6
ENDBRANCH   4   5
ENDBRANCH   3   4
ENDBRANCH   2   3
ENDBRANCH   1   2
BRANCH   1  12
ATOM     12  C   UNL     1      18.308 -31.964  23.254  1.00  0.00     0.000 C 
BRANCH  12  13
ATOM     13  C   UNL     1      19.316 -31.294  22.314  1.00  0.00    -0.000 C 
BRANCH  13  14
ATOM     14  C   UNL     1      19.174 -31.827  20.883  1.00  0.00    -0.000 C 
BRANCH  14  15
ATOM     15  C   UNL     1      17.700 -31.886  20.461  1.00  0.00    -0.000 C 
BRANCH  15  16
ATOM     16  C   UNL     1      17.381 -33.214  19.760  1.00  0.00    -0.000 C 
BRANCH  16  17
ATOM     17  C   UNL     1      18.386 -34.326  20.129  1.00  0.00    -0.000 C 
BRANCH  17  18
ATOM     18  C   UNL     1      17.725 -35.685  20.416  1.00  0.00    -0.003 C 
ATOM     19  C   UNL     1      16.663 -36.062  19.386  1.00  0.00     0.004 C 
ENDBRANCH  17  18
ENDBRANCH  16  17
ENDBRANCH  15  16
ENDBRANCH  14  15
ENDBRANCH  13  14
ENDBRANCH  12  13
ENDBRANCH   1  12
TORSDOF 14
ENDMDL
