MODEL 1
REMARK VINA RESULT:    -6.630      0.000      0.000
REMARK INTER + INTRA:         -11.474
REMARK INTER:                 -10.119
REMARK INTRA:                  -1.355
REMARK UNBOUND:                -1.355
REMARK SMILES CC(=O)CCC=C(C)CCC=C(C)CCC=C(C)C
REMARK SMILES IDX 10 1 11 2 12 3 13 4 14 5 15 6 16 7 18 8 17 9 19 10 9 11 7 12
REMARK SMILES IDX 6 13 8 14 5 15 4 16 2 17 3 18 1 19
REMARK H PARENT
REMARK Flexibility Score: inf
ROOT
ATOM      1  C   UNL     1     -15.481 -14.465  32.249  1.00  0.00     0.032 C 
ENDROOT
BRANCH   1   2
ATOM      2  C   UNL     1     -14.715 -14.636  30.962  1.00  0.00    -0.028 C 
ATOM      3  C   UNL     1     -15.041 -14.041  29.793  1.00  0.00    -0.077 C 
ATOM      4  C   UNL     1     -16.203 -13.080  29.685  1.00  0.00     0.039 C 
BRANCH   3   5
ATOM      5  C   UNL     1     -14.217 -14.339  28.559  1.00  0.00     0.034 C 
BRANCH   5   6
ATOM      6  C   UNL     1     -13.143 -15.390  28.861  1.00  0.00     0.032 C 
BRANCH   6   7
ATOM      7  C   UNL     1     -12.768 -16.144  27.609  1.00  0.00    -0.028 C 
ATOM      8  C   UNL     1     -10.707 -17.134  28.633  1.00  0.00     0.039 C 
ATOM      9  C   UNL     1     -11.663 -16.912  27.484  1.00  0.00    -0.080 C 
ATOM     10  C   UNL     1     -11.395 -17.573  26.155  1.00  0.00     0.039 C 
ENDBRANCH   6   7
ENDBRANCH   5   6
ENDBRANCH   3   5
ENDBRANCH   1   2
BRANCH   1  11
ATOM     11  C   UNL     1     -14.624 -14.883  33.449  1.00  0.00     0.034 C 
BRANCH  11  12
ATOM     12  C   UNL     1     -13.716 -16.037  33.088  1.00  0.00    -0.077 C 
ATOM     13  C   UNL     1     -14.272 -17.212  32.711  1.00  0.00    -0.028 C 
ATOM     14  C   UNL     1     -12.219 -15.851  33.167  1.00  0.00     0.039 C 
BRANCH  13  15
ATOM     15  C   UNL     1     -13.493 -18.430  32.276  1.00  0.00     0.035 C 
BRANCH  15  16
ATOM     16  C   UNL     1     -13.279 -18.456  30.757  1.00  0.00     0.079 C 
BRANCH  16  17
ATOM     17  C   UNL     1     -13.329 -19.862  30.212  1.00  0.00     0.130 C 
ATOM     18  O   UNL     1     -12.856 -20.778  30.866  1.00  0.00    -0.300 OA
ATOM     19  C   UNL     1     -13.953 -20.159  28.880  1.00  0.00     0.087 C 
ENDBRANCH  16  17
ENDBRANCH  15  16
ENDBRANCH  13  15
ENDBRANCH  11  12
ENDBRANCH   1  11
TORSDOF 9
ENDMDL
MODEL 2
REMARK VINA RESULT:    -6.601      2.184      4.702
REMARK INTER + INTRA:         -11.429
REMARK INTER:                  -9.569
REMARK INTRA:                  -1.861
REMARK UNBOUND:                -1.355
REMARK SMILES CC(=O)CCC=C(C)CCC=C(C)CCC=C(C)C
REMARK SMILES IDX 10 1 11 2 12 3 13 4 14 5 15 6 16 7 18 8 17 9 19 10 9 11 7 12
REMARK SMILES IDX 6 13 8 14 5 15 4 16 2 17 3 18 1 19
REMARK H PARENT
REMARK Flexibility Score: inf
ROOT
ATOM      1  C   UNL     1     -10.382 -18.722  31.627  1.00  0.00     0.032 C 
ENDROOT
BRANCH   1   2
ATOM      2  C   UNL     1     -11.208 -18.799  30.368  1.00  0.00    -0.028 C 
ATOM      3  C   UNL     1     -12.474 -19.271  30.312  1.00  0.00    -0.077 C 
ATOM      4  C   UNL     1     -13.211 -19.724  31.551  1.00  0.00     0.039 C 
BRANCH   3   5
ATOM      5  C   UNL     1     -13.174 -19.342  28.972  1.00  0.00     0.034 C 
BRANCH   5   6
ATOM      6  C   UNL     1     -12.645 -18.263  28.021  1.00  0.00     0.032 C 
BRANCH   6   7
ATOM      7  C   UNL     1     -13.477 -17.009  28.120  1.00  0.00    -0.028 C 
ATOM      8  C   UNL     1     -11.588 -15.639  29.028  1.00  0.00     0.039 C 
ATOM      9  C   UNL     1     -13.022 -15.828  28.595  1.00  0.00    -0.080 C 
ATOM     10  C   UNL     1     -13.983 -14.669  28.676  1.00  0.00     0.039 C 
ENDBRANCH   6   7
ENDBRANCH   5   6
ENDBRANCH   3   5
ENDBRANCH   1   2
BRANCH   1  11
ATOM     11  C   UNL     1      -9.875 -17.294  31.855  1.00  0.00     0.034 C 
BRANCH  11  12
ATOM     12  C   UNL     1     -10.784 -16.543  32.803  1.00  0.00    -0.077 C 
ATOM     13  C   UNL     1     -12.103 -16.462  32.515  1.00  0.00    -0.028 C 
ATOM     14  C   UNL     1     -10.194 -15.899  34.036  1.00  0.00     0.039 C 
BRANCH  13  15
ATOM     15  C   UNL     1     -13.134 -15.791  33.392  1.00  0.00     0.035 C 
BRANCH  15  16
ATOM     16  C   UNL     1     -14.438 -16.596  33.455  1.00  0.00     0.079 C 
BRANCH  16  17
ATOM     17  C   UNL     1     -15.627 -15.762  33.048  1.00  0.00     0.130 C 
ATOM     18  O   UNL     1     -16.738 -16.056  33.460  1.00  0.00    -0.300 OA
ATOM     19  C   UNL     1     -15.472 -14.572  32.146  1.00  0.00     0.087 C 
ENDBRANCH  16  17
ENDBRANCH  15  16
ENDBRANCH  13  15
ENDBRANCH  11  12
ENDBRANCH   1  11
TORSDOF 9
ENDMDL
MODEL 3
REMARK VINA RESULT:    -6.549      2.024      4.372
REMARK INTER + INTRA:         -11.350
REMARK INTER:                  -9.699
REMARK INTRA:                  -1.650
REMARK UNBOUND:                -1.355
REMARK SMILES CC(=O)CCC=C(C)CCC=C(C)CCC=C(C)C
REMARK SMILES IDX 10 1 11 2 12 3 13 4 14 5 15 6 16 7 18 8 17 9 19 10 9 11 7 12
REMARK SMILES IDX 6 13 8 14 5 15 4 16 2 17 3 18 1 19
REMARK H PARENT
REMARK Flexibility Score: inf
ROOT
ATOM      1  C   UNL     1     -10.313 -15.507  29.667  1.00  0.00     0.032 C 
ENDROOT
BRANCH   1   2
ATOM      2  C   UNL     1     -11.079 -16.281  28.624  1.00  0.00    -0.028 C 
ATOM      3  C   UNL     1     -12.382 -16.079  28.325  1.00  0.00    -0.077 C 
ATOM      4  C   UNL     1     -13.192 -14.991  28.991  1.00  0.00     0.039 C 
BRANCH   3   5
ATOM      5  C   UNL     1     -13.045 -16.963  27.291  1.00  0.00     0.034 C 
BRANCH   5   6
ATOM      6  C   UNL     1     -14.062 -17.903  27.946  1.00  0.00     0.032 C 
BRANCH   6   7
ATOM      7  C   UNL     1     -13.529 -18.441  29.251  1.00  0.00    -0.028 C 
ATOM      8  C   UNL     1     -14.109 -20.812  28.692  1.00  0.00     0.039 C 
ATOM      9  C   UNL     1     -13.566 -19.744  29.611  1.00  0.00    -0.080 C 
ATOM     10  C   UNL     1     -13.032 -20.129  30.967  1.00  0.00     0.039 C 
ENDBRANCH   6   7
ENDBRANCH   5   6
ENDBRANCH   3   5
ENDBRANCH   1   2
BRANCH   1  11
ATOM     11  C   UNL     1      -9.876 -16.427  30.812  1.00  0.00     0.034 C 
BRANCH  11  12
ATOM     12  C   UNL     1     -10.699 -16.171  32.055  1.00  0.00    -0.077 C 
ATOM     13  C   UNL     1     -12.032 -16.397  32.013  1.00  0.00    -0.028 C 
ATOM     14  C   UNL     1     -10.014 -15.660  33.301  1.00  0.00     0.039 C 
BRANCH  13  15
ATOM     15  C   UNL     1     -12.969 -16.233  33.187  1.00  0.00     0.035 C 
BRANCH  15  16
ATOM     16  C   UNL     1     -14.334 -16.880  32.921  1.00  0.00     0.079 C 
BRANCH  16  17
ATOM     17  C   UNL     1     -15.439 -15.854  32.891  1.00  0.00     0.130 C 
ATOM     18  O   UNL     1     -16.461 -16.052  33.528  1.00  0.00    -0.300 OA
ATOM     19  C   UNL     1     -15.307 -14.589  32.093  1.00  0.00     0.087 C 
ENDBRANCH  16  17
ENDBRANCH  15  16
ENDBRANCH  13  15
ENDBRANCH  11  12
ENDBRANCH   1  11
TORSDOF 9
ENDMDL
MODEL 4
REMARK VINA RESULT:    -6.466      2.528      6.126
REMARK INTER + INTRA:         -11.223
REMARK INTER:                  -9.978
REMARK INTRA:                  -1.244
REMARK UNBOUND:                -1.355
REMARK SMILES CC(=O)CCC=C(C)CCC=C(C)CCC=C(C)C
REMARK SMILES IDX 10 1 11 2 12 3 13 4 14 5 15 6 16 7 18 8 17 9 19 10 9 11 7 12
REMARK SMILES IDX 6 13 8 14 5 15 4 16 2 17 3 18 1 19
REMARK H PARENT
REMARK Flexibility Score: inf
ROOT
ATOM      1  C   UNL     1     -13.694 -16.466  33.021  1.00  0.00     0.032 C 
ENDROOT
BRANCH   1   2
ATOM      2  C   UNL     1     -12.487 -15.707  33.513  1.00  0.00    -0.028 C 
ATOM      3  C   UNL     1     -11.207 -16.061  33.264  1.00  0.00    -0.077 C 
ATOM      4  C   UNL     1     -10.863 -17.251  32.397  1.00  0.00     0.039 C 
BRANCH   3   5
ATOM      5  C   UNL     1     -10.086 -15.238  33.862  1.00  0.00     0.034 C 
BRANCH   5   6
ATOM      6  C   UNL     1     -10.326 -14.991  35.356  1.00  0.00     0.032 C 
BRANCH   6   7
ATOM      7  C   UNL     1     -10.465 -13.516  35.636  1.00  0.00    -0.028 C 
ATOM      8  C   UNL     1     -12.616 -13.796  36.889  1.00  0.00     0.039 C 
ATOM      9  C   UNL     1     -11.503 -12.960  36.302  1.00  0.00    -0.080 C 
ATOM     10  C   UNL     1     -11.528 -11.462  36.471  1.00  0.00     0.039 C 
ENDBRANCH   6   7
ENDBRANCH   5   6
ENDBRANCH   3   5
ENDBRANCH   1   2
BRANCH   1  11
ATOM     11  C   UNL     1     -14.774 -15.501  32.521  1.00  0.00     0.034 C 
BRANCH  11  12
ATOM     12  C   UNL     1     -14.504 -15.080  31.093  1.00  0.00    -0.077 C 
ATOM     13  C   UNL     1     -13.590 -15.770  30.371  1.00  0.00    -0.028 C 
ATOM     14  C   UNL     1     -15.250 -13.900  30.517  1.00  0.00     0.039 C 
BRANCH  13  15
ATOM     15  C   UNL     1     -13.255 -15.497  28.924  1.00  0.00     0.035 C 
BRANCH  15  16
ATOM     16  C   UNL     1     -11.886 -16.070  28.540  1.00  0.00     0.079 C 
BRANCH  16  17
ATOM     17  C   UNL     1     -12.020 -17.324  27.711  1.00  0.00     0.130 C 
ATOM     18  O   UNL     1     -12.584 -18.299  28.182  1.00  0.00    -0.300 OA
ATOM     19  C   UNL     1     -11.474 -17.397  26.315  1.00  0.00     0.087 C 
ENDBRANCH  16  17
ENDBRANCH  15  16
ENDBRANCH  13  15
ENDBRANCH  11  12
ENDBRANCH   1  11
TORSDOF 9
ENDMDL
MODEL 5
REMARK VINA RESULT:    -6.391      2.268      4.860
REMARK INTER + INTRA:         -11.108
REMARK INTER:                  -9.010
REMARK INTRA:                  -2.098
REMARK UNBOUND:                -1.355
REMARK SMILES CC(=O)CCC=C(C)CCC=C(C)CCC=C(C)C
REMARK SMILES IDX 10 1 11 2 12 3 13 4 14 5 15 6 16 7 18 8 17 9 19 10 9 11 7 12
REMARK SMILES IDX 6 13 8 14 5 15 4 16 2 17 3 18 1 19
REMARK H PARENT
REMARK Flexibility Score: inf
ROOT
ATOM      1  C   UNL     1     -13.592 -18.649  28.364  1.00  0.00     0.032 C 
ENDROOT
BRANCH   1   2
ATOM      2  C   UNL     1     -12.241 -17.990  28.487  1.00  0.00    -0.028 C 
ATOM      3  C   UNL     1     -12.050 -16.661  28.641  1.00  0.00    -0.077 C 
ATOM      4  C   UNL     1     -13.208 -15.698  28.764  1.00  0.00     0.039 C 
BRANCH   3   5
ATOM      5  C   UNL     1     -10.637 -16.123  28.700  1.00  0.00     0.034 C 
BRANCH   5   6
ATOM      6  C   UNL     1     -10.261 -15.729  30.133  1.00  0.00     0.032 C 
BRANCH   6   7
ATOM      7  C   UNL     1     -10.166 -16.948  31.015  1.00  0.00    -0.028 C 
ATOM      8  C   UNL     1      -9.940 -15.606  33.117  1.00  0.00     0.039 C 
ATOM      9  C   UNL     1      -9.996 -16.909  32.355  1.00  0.00    -0.080 C 
ATOM     10  C   UNL     1      -9.875 -18.213  33.102  1.00  0.00     0.039 C 
ENDBRANCH   6   7
ENDBRANCH   5   6
ENDBRANCH   3   5
ENDBRANCH   1   2
BRANCH   1  11
ATOM     11  C   UNL     1     -13.720 -19.812  29.354  1.00  0.00     0.034 C 
BRANCH  11  12
ATOM     12  C   UNL     1     -13.381 -19.364  30.759  1.00  0.00    -0.077 C 
ATOM     13  C   UNL     1     -13.831 -18.162  31.187  1.00  0.00    -0.028 C 
ATOM     14  C   UNL     1     -12.544 -20.263  31.638  1.00  0.00     0.039 C 
BRANCH  13  15
ATOM     15  C   UNL     1     -13.614 -17.609  32.575  1.00  0.00     0.035 C 
BRANCH  15  16
ATOM     16  C   UNL     1     -13.553 -16.076  32.574  1.00  0.00     0.079 C 
BRANCH  16  17
ATOM     17  C   UNL     1     -14.931 -15.464  32.624  1.00  0.00     0.130 C 
ATOM     18  O   UNL     1     -15.162 -14.448  31.987  1.00  0.00    -0.300 OA
ATOM     19  C   UNL     1     -16.028 -16.081  33.442  1.00  0.00     0.087 C 
ENDBRANCH  16  17
ENDBRANCH  15  16
ENDBRANCH  13  15
ENDBRANCH  11  12
ENDBRANCH   1  11
TORSDOF 9
ENDMDL
MODEL 6
REMARK VINA RESULT:    -6.375      3.513      6.162
REMARK INTER + INTRA:         -11.083
REMARK INTER:                  -9.505
REMARK INTRA:                  -1.578
REMARK UNBOUND:                -1.355
REMARK SMILES CC(=O)CCC=C(C)CCC=C(C)CCC=C(C)C
REMARK SMILES IDX 10 1 11 2 12 3 13 4 14 5 15 6 16 7 18 8 17 9 19 10 9 11 7 12
REMARK SMILES IDX 6 13 8 14 5 15 4 16 2 17 3 18 1 19
REMARK H PARENT
REMARK Flexibility Score: inf
ROOT
ATOM      1  C   UNL     1     -10.522 -18.379  32.232  1.00  0.00     0.032 C 
ENDROOT
BRANCH   1   2
ATOM      2  C   UNL     1     -11.152 -18.678  30.895  1.00  0.00    -0.028 C 
ATOM      3  C   UNL     1     -12.405 -19.157  30.729  1.00  0.00    -0.077 C 
ATOM      4  C   UNL     1     -13.331 -19.389  31.902  1.00  0.00     0.039 C 
BRANCH   3   5
ATOM      5  C   UNL     1     -12.897 -19.464  29.332  1.00  0.00     0.034 C 
BRANCH   5   6
ATOM      6  C   UNL     1     -12.431 -18.392  28.340  1.00  0.00     0.032 C 
BRANCH   6   7
ATOM      7  C   UNL     1     -13.292 -17.158  28.444  1.00  0.00    -0.028 C 
ATOM      8  C   UNL     1     -11.360 -15.666  29.004  1.00  0.00     0.039 C 
ATOM      9  C   UNL     1     -12.828 -15.930  28.766  1.00  0.00    -0.080 C 
ATOM     10  C   UNL     1     -13.815 -14.796  28.874  1.00  0.00     0.039 C 
ENDBRANCH   6   7
ENDBRANCH   5   6
ENDBRANCH   3   5
ENDBRANCH   1   2
BRANCH   1  11
ATOM     11  C   UNL     1     -10.048 -16.923  32.294  1.00  0.00     0.034 C 
BRANCH  11  12
ATOM     12  C   UNL     1     -10.920 -16.111  33.226  1.00  0.00    -0.077 C 
ATOM     13  C   UNL     1     -10.338 -15.447  34.250  1.00  0.00    -0.028 C 
ATOM     14  C   UNL     1     -12.412 -16.073  32.994  1.00  0.00     0.039 C 
BRANCH  13  15
ATOM     15  C   UNL     1     -11.073 -14.559  35.227  1.00  0.00     0.035 C 
BRANCH  15  16
ATOM     16  C   UNL     1     -10.129 -13.563  35.912  1.00  0.00     0.079 C 
BRANCH  16  17
ATOM     17  C   UNL     1     -10.781 -12.215  36.096  1.00  0.00     0.130 C 
ATOM     18  O   UNL     1     -10.216 -11.212  35.689  1.00  0.00    -0.300 OA
ATOM     19  C   UNL     1     -12.115 -12.081  36.770  1.00  0.00     0.087 C 
ENDBRANCH  16  17
ENDBRANCH  15  16
ENDBRANCH  13  15
ENDBRANCH  11  12
ENDBRANCH   1  11
TORSDOF 9
ENDMDL
MODEL 7
REMARK VINA RESULT:    -6.373      1.411      4.109
REMARK INTER + INTRA:         -11.081
REMARK INTER:                  -9.257
REMARK INTRA:                  -1.823
REMARK UNBOUND:                -1.355
REMARK SMILES CC(=O)CCC=C(C)CCC=C(C)CCC=C(C)C
REMARK SMILES IDX 10 1 11 2 12 3 13 4 14 5 15 6 16 7 18 8 17 9 19 10 9 11 7 12
REMARK SMILES IDX 6 13 8 14 5 15 4 16 2 17 3 18 1 19
REMARK H PARENT
REMARK Flexibility Score: inf
ROOT
ATOM      1  C   UNL     1     -11.343 -16.395  33.109  1.00  0.00     0.032 C 
ENDROOT
BRANCH   1   2
ATOM      2  C   UNL     1     -12.712 -15.769  33.201  1.00  0.00    -0.028 C 
ATOM      3  C   UNL     1     -13.867 -16.411  32.914  1.00  0.00    -0.077 C 
ATOM      4  C   UNL     1     -13.891 -17.870  32.517  1.00  0.00     0.039 C 
BRANCH   3   5
ATOM      5  C   UNL     1     -15.173 -15.651  32.998  1.00  0.00     0.034 C 
BRANCH   5   6
ATOM      6  C   UNL     1     -15.164 -14.444  32.053  1.00  0.00     0.032 C 
BRANCH   6   7
ATOM      7  C   UNL     1     -14.517 -14.800  30.738  1.00  0.00    -0.028 C 
ATOM      8  C   UNL     1     -15.796 -13.068  29.459  1.00  0.00     0.039 C 
ATOM      9  C   UNL     1     -14.809 -14.207  29.559  1.00  0.00    -0.080 C 
ATOM     10  C   UNL     1     -14.110 -14.698  28.317  1.00  0.00     0.039 C 
ENDBRANCH   6   7
ENDBRANCH   5   6
ENDBRANCH   3   5
ENDBRANCH   1   2
BRANCH   1  11
ATOM     11  C   UNL     1     -10.682 -16.054  31.769  1.00  0.00     0.034 C 
BRANCH  11  12
ATOM     12  C   UNL     1     -10.893 -17.164  30.764  1.00  0.00    -0.077 C 
ATOM     13  C   UNL     1     -11.775 -16.974  29.757  1.00  0.00    -0.028 C 
ATOM     14  C   UNL     1     -10.124 -18.455  30.919  1.00  0.00     0.039 C 
BRANCH  13  15
ATOM     15  C   UNL     1     -12.050 -17.971  28.656  1.00  0.00     0.035 C 
BRANCH  15  16
ATOM     16  C   UNL     1     -13.530 -18.373  28.610  1.00  0.00     0.079 C 
BRANCH  16  17
ATOM     17  C   UNL     1     -13.731 -19.803  29.042  1.00  0.00     0.130 C 
ATOM     18  O   UNL     1     -14.392 -20.556  28.344  1.00  0.00    -0.300 OA
ATOM     19  C   UNL     1     -13.133 -20.324  30.317  1.00  0.00     0.087 C 
ENDBRANCH  16  17
ENDBRANCH  15  16
ENDBRANCH  13  15
ENDBRANCH  11  12
ENDBRANCH   1  11
TORSDOF 9
ENDMDL
MODEL 8
REMARK VINA RESULT:    -6.359      1.972      4.540
REMARK INTER + INTRA:         -11.060
REMARK INTER:                  -9.889
REMARK INTRA:                  -1.171
REMARK UNBOUND:                -1.355
REMARK SMILES CC(=O)CCC=C(C)CCC=C(C)CCC=C(C)C
REMARK SMILES IDX 10 1 11 2 12 3 13 4 14 5 15 6 16 7 18 8 17 9 19 10 9 11 7 12
REMARK SMILES IDX 6 13 8 14 5 15 4 16 2 17 3 18 1 19
REMARK H PARENT
REMARK Flexibility Score: inf
ROOT
ATOM      1  C   UNL     1     -13.430 -15.590  33.497  1.00  0.00     0.032 C 
ENDROOT
BRANCH   1   2
ATOM      2  C   UNL     1     -12.340 -16.383  32.820  1.00  0.00    -0.028 C 
ATOM      3  C   UNL     1     -11.023 -16.268  33.103  1.00  0.00    -0.077 C 
ATOM      4  C   UNL     1     -10.518 -15.350  34.192  1.00  0.00     0.039 C 
BRANCH   3   5
ATOM      5  C   UNL     1     -10.026 -17.088  32.312  1.00  0.00     0.034 C 
BRANCH   5   6
ATOM      6  C   UNL     1     -10.480 -18.548  32.207  1.00  0.00     0.032 C 
BRANCH   6   7
ATOM      7  C   UNL     1     -11.105 -18.817  30.861  1.00  0.00    -0.028 C 
ATOM      8  C   UNL     1     -13.227 -19.710  31.848  1.00  0.00     0.039 C 
ATOM      9  C   UNL     1     -12.329 -19.363  30.684  1.00  0.00    -0.080 C 
ATOM     10  C   UNL     1     -12.806 -19.614  29.275  1.00  0.00     0.039 C 
ENDBRANCH   6   7
ENDBRANCH   5   6
ENDBRANCH   3   5
ENDBRANCH   1   2
BRANCH   1  11
ATOM     11  C   UNL     1     -14.736 -15.675  32.699  1.00  0.00     0.034 C 
BRANCH  11  12
ATOM     12  C   UNL     1     -14.547 -15.143  31.296  1.00  0.00    -0.077 C 
ATOM     13  C   UNL     1     -13.650 -15.748  30.484  1.00  0.00    -0.028 C 
ATOM     14  C   UNL     1     -15.355 -13.950  30.845  1.00  0.00     0.039 C 
BRANCH  13  15
ATOM     15  C   UNL     1     -13.393 -15.360  29.047  1.00  0.00     0.035 C 
BRANCH  15  16
ATOM     16  C   UNL     1     -12.196 -16.117  28.458  1.00  0.00     0.079 C 
BRANCH  16  17
ATOM     17  C   UNL     1     -12.534 -16.743  27.129  1.00  0.00     0.130 C 
ATOM     18  O   UNL     1     -13.679 -16.687  26.711  1.00  0.00    -0.300 OA
ATOM     19  C   UNL     1     -11.487 -17.435  26.305  1.00  0.00     0.087 C 
ENDBRANCH  16  17
ENDBRANCH  15  16
ENDBRANCH  13  15
ENDBRANCH  11  12
ENDBRANCH   1  11
TORSDOF 9
ENDMDL
MODEL 9
REMARK VINA RESULT:    -6.246      2.963      5.584
REMARK INTER + INTRA:         -10.887
REMARK INTER:                  -9.451
REMARK INTRA:                  -1.435
REMARK UNBOUND:                -1.355
REMARK SMILES CC(=O)CCC=C(C)CCC=C(C)CCC=C(C)C
REMARK SMILES IDX 10 1 11 2 12 3 13 4 14 5 15 6 16 7 18 8 17 9 19 10 9 11 7 12
REMARK SMILES IDX 6 13 8 14 5 15 4 16 2 17 3 18 1 19
REMARK H PARENT
REMARK Flexibility Score: inf
ROOT
ATOM      1  C   UNL     1     -13.797 -17.532  32.600  1.00  0.00     0.032 C 
ENDROOT
BRANCH   1   2
ATOM      2  C   UNL     1     -13.857 -18.116  31.211  1.00  0.00    -0.028 C 
ATOM      3  C   UNL     1     -13.273 -19.279  30.844  1.00  0.00    -0.077 C 
ATOM      4  C   UNL     1     -12.534 -20.148  31.836  1.00  0.00     0.039 C 
BRANCH   3   5
ATOM      5  C   UNL     1     -13.367 -19.727  29.402  1.00  0.00     0.034 C 
BRANCH   5   6
ATOM      6  C   UNL     1     -13.146 -18.548  28.447  1.00  0.00     0.032 C 
BRANCH   6   7
ATOM      7  C   UNL     1     -11.936 -17.748  28.860  1.00  0.00    -0.028 C 
ATOM      8  C   UNL     1     -13.137 -15.555  28.700  1.00  0.00     0.039 C 
ATOM      9  C   UNL     1     -11.910 -16.399  28.953  1.00  0.00    -0.080 C 
ATOM     10  C   UNL     1     -10.614 -15.731  29.338  1.00  0.00     0.039 C 
ENDBRANCH   6   7
ENDBRANCH   5   6
ENDBRANCH   3   5
ENDBRANCH   1   2
BRANCH   1  11
ATOM     11  C   UNL     1     -13.223 -16.112  32.565  1.00  0.00     0.034 C 
BRANCH  11  12
ATOM     12  C   UNL     1     -11.894 -16.048  33.284  1.00  0.00    -0.077 C 
ATOM     13  C   UNL     1     -11.717 -15.115  34.247  1.00  0.00    -0.028 C 
ATOM     14  C   UNL     1     -10.801 -17.018  32.901  1.00  0.00     0.039 C 
BRANCH  13  15
ATOM     15  C   UNL     1     -10.465 -14.967  35.080  1.00  0.00     0.035 C 
BRANCH  15  16
ATOM     16  C   UNL     1     -10.527 -13.729  35.984  1.00  0.00     0.079 C 
BRANCH  16  17
ATOM     17  C   UNL     1     -11.788 -13.706  36.811  1.00  0.00     0.130 C 
ATOM     18  O   UNL     1     -11.941 -14.530  37.699  1.00  0.00    -0.300 OA
ATOM     19  C   UNL     1     -12.862 -12.686  36.566  1.00  0.00     0.087 C 
ENDBRANCH  16  17
ENDBRANCH  15  16
ENDBRANCH  13  15
ENDBRANCH  11  12
ENDBRANCH   1  11
TORSDOF 9
ENDMDL
