MODEL 1
REMARK VINA RESULT:    -3.913      0.000      0.000
REMARK INTER + INTRA:          -5.846
REMARK INTER:                  -5.285
REMARK INTRA:                  -0.560
REMARK UNBOUND:                -0.560
REMARK SMILES CC(=O)CCC=C(C)CCC=C(C)C
REMARK SMILES IDX 7 1 6 2 8 3 9 4 10 5 11 6 13 7 12 8 14 9 5 10 4 11 2 12 3 13
REMARK SMILES IDX 1 14
REMARK H PARENT
REMARK Flexibility Score: inf
ROOT
ATOM      1  C   UNL     1      74.737  74.744  83.629  1.00  0.00    -0.077 C 
ATOM      2  C   UNL     1      73.509  74.266  83.320  1.00  0.00    -0.028 C 
ATOM      3  C   UNL     1      75.843  73.843  84.125  1.00  0.00     0.039 C 
ENDROOT
BRANCH   1   4
ATOM      4  C   UNL     1      75.014  76.222  83.458  1.00  0.00     0.034 C 
BRANCH   4   5
ATOM      5  C   UNL     1      76.092  76.454  82.393  1.00  0.00     0.032 C 
BRANCH   5   6
ATOM      6  C   UNL     1      77.158  77.389  82.905  1.00  0.00    -0.028 C 
ATOM      7  C   UNL     1      78.203  79.545  83.452  1.00  0.00     0.039 C 
ATOM      8  C   UNL     1      77.074  78.738  82.864  1.00  0.00    -0.080 C 
ATOM      9  C   UNL     1      75.898  79.448  82.236  1.00  0.00     0.039 C 
ENDBRANCH   5   6
ENDBRANCH   4   5
ENDBRANCH   1   4
BRANCH   2  10
ATOM     10  C   UNL     1      73.088  72.828  83.491  1.00  0.00     0.035 C 
BRANCH  10  11
ATOM     11  C   UNL     1      73.222  72.065  82.171  1.00  0.00     0.079 C 
BRANCH  11  12
ATOM     12  C   UNL     1      73.780  70.686  82.407  1.00  0.00     0.130 C 
ATOM     13  O   UNL     1      73.117  69.708  82.099  1.00  0.00    -0.300 OA
ATOM     14  C   UNL     1      75.134  70.487  83.022  1.00  0.00     0.087 C 
ENDBRANCH  11  12
ENDBRANCH  10  11
ENDBRANCH   2  10
TORSDOF 6
ENDMDL
MODEL 2
REMARK VINA RESULT:    -3.888      2.867      7.200
REMARK INTER + INTRA:          -5.813
REMARK INTER:                  -5.342
REMARK INTRA:                  -0.471
REMARK UNBOUND:                -0.560
REMARK SMILES CC(=O)CCC=C(C)CCC=C(C)C
REMARK SMILES IDX 7 1 6 2 8 3 9 4 10 5 11 6 13 7 12 8 14 9 5 10 4 11 2 12 3 13
REMARK SMILES IDX 1 14
REMARK H PARENT
REMARK Flexibility Score: inf
ROOT
ATOM      1  C   UNL     1      74.847  74.837  83.621  1.00  0.00    -0.077 C 
ATOM      2  C   UNL     1      76.093  75.264  83.308  1.00  0.00    -0.028 C 
ATOM      3  C   UNL     1      73.783  75.783  84.125  1.00  0.00     0.039 C 
ENDROOT
BRANCH   1   4
ATOM      4  C   UNL     1      74.507  73.373  83.445  1.00  0.00     0.034 C 
BRANCH   4   5
ATOM      5  C   UNL     1      73.412  73.193  82.387  1.00  0.00     0.032 C 
BRANCH   5   6
ATOM      6  C   UNL     1      72.326  72.277  82.891  1.00  0.00    -0.028 C 
ATOM      7  C   UNL     1      71.212  70.139  83.373  1.00  0.00     0.039 C 
ATOM      8  C   UNL     1      72.353  70.929  82.784  1.00  0.00    -0.080 C 
ATOM      9  C   UNL     1      73.477  70.205  82.082  1.00  0.00     0.039 C 
ENDBRANCH   5   6
ENDBRANCH   4   5
ENDBRANCH   1   4
BRANCH   2  10
ATOM     10  C   UNL     1      76.575  76.682  83.483  1.00  0.00     0.035 C 
BRANCH  10  11
ATOM     11  C   UNL     1      76.295  77.508  82.225  1.00  0.00     0.079 C 
BRANCH  11  12
ATOM     12  C   UNL     1      75.833  78.895  82.591  1.00  0.00     0.130 C 
ATOM     13  O   UNL     1      74.638  79.140  82.628  1.00  0.00    -0.300 OA
ATOM     14  C   UNL     1      76.814  79.986  82.906  1.00  0.00     0.087 C 
ENDBRANCH  11  12
ENDBRANCH  10  11
ENDBRANCH   2  10
TORSDOF 6
ENDMDL
MODEL 3
REMARK VINA RESULT:    -3.594      3.887      7.829
REMARK INTER + INTRA:          -5.415
REMARK INTER:                  -4.979
REMARK INTRA:                  -0.436
REMARK UNBOUND:                -0.560
REMARK SMILES CC(=O)CCC=C(C)CCC=C(C)C
REMARK SMILES IDX 7 1 6 2 8 3 9 4 10 5 11 6 13 7 12 8 14 9 5 10 4 11 2 12 3 13
REMARK SMILES IDX 1 14
REMARK H PARENT
REMARK Flexibility Score: inf
ROOT
ATOM      1  C   UNL     1      76.804  76.610  82.945  1.00  0.00    -0.077 C 
ATOM      2  C   UNL     1      76.763  77.914  82.585  1.00  0.00    -0.028 C 
ATOM      3  C   UNL     1      77.834  76.082  83.916  1.00  0.00     0.039 C 
ENDROOT
BRANCH   1   4
ATOM      4  C   UNL     1      75.779  75.656  82.371  1.00  0.00     0.034 C 
BRANCH   4   5
ATOM      5  C   UNL     1      74.779  75.219  83.449  1.00  0.00     0.032 C 
BRANCH   5   6
ATOM      6  C   UNL     1      73.809  74.206  82.899  1.00  0.00    -0.028 C 
ATOM      7  C   UNL     1      72.823  71.984  82.531  1.00  0.00     0.039 C 
ATOM      8  C   UNL     1      73.892  72.873  83.113  1.00  0.00    -0.080 C 
ATOM      9  C   UNL     1      75.026  72.259  83.899  1.00  0.00     0.039 C 
ENDBRANCH   5   6
ENDBRANCH   4   5
ENDBRANCH   1   4
BRANCH   2  10
ATOM     10  C   UNL     1      77.753  78.955  83.044  1.00  0.00     0.035 C 
BRANCH  10  11
ATOM     11  C   UNL     1      77.296  80.355  82.627  1.00  0.00     0.079 C 
BRANCH  11  12
ATOM     12  C   UNL     1      78.403  81.357  82.828  1.00  0.00     0.130 C 
ATOM     13  O   UNL     1      78.194  82.538  82.598  1.00  0.00    -0.300 OA
ATOM     14  C   UNL     1      79.764  80.934  83.298  1.00  0.00     0.087 C 
ENDBRANCH  11  12
ENDBRANCH  10  11
ENDBRANCH   2  10
TORSDOF 6
ENDMDL
MODEL 4
REMARK VINA RESULT:    -3.481      1.310      2.251
REMARK INTER + INTRA:          -5.263
REMARK INTER:                  -4.827
REMARK INTRA:                  -0.435
REMARK UNBOUND:                -0.560
REMARK SMILES CC(=O)CCC=C(C)CCC=C(C)C
REMARK SMILES IDX 7 1 6 2 8 3 9 4 10 5 11 6 13 7 12 8 14 9 5 10 4 11 2 12 3 13
REMARK SMILES IDX 1 14
REMARK H PARENT
REMARK Flexibility Score: inf
ROOT
ATOM      1  C   UNL     1      75.542  76.399  83.108  1.00  0.00    -0.077 C 
ATOM      2  C   UNL     1      75.641  75.080  82.821  1.00  0.00    -0.028 C 
ATOM      3  C   UNL     1      74.523  76.927  84.091  1.00  0.00     0.039 C 
ENDROOT
BRANCH   1   4
ATOM      4  C   UNL     1      76.489  77.370  82.438  1.00  0.00     0.034 C 
BRANCH   4   5
ATOM      5  C   UNL     1      76.680  78.625  83.300  1.00  0.00     0.032 C 
BRANCH   5   6
ATOM      6  C   UNL     1      78.142  78.971  83.423  1.00  0.00    -0.028 C 
ATOM      7  C   UNL     1      80.158  80.370  83.265  1.00  0.00     0.039 C 
ATOM      8  C   UNL     1      78.683  80.151  83.043  1.00  0.00    -0.080 C 
ATOM      9  C   UNL     1      77.858  81.236  82.393  1.00  0.00     0.039 C 
ENDBRANCH   5   6
ENDBRANCH   4   5
ENDBRANCH   1   4
BRANCH   2  10
ATOM     10  C   UNL     1      74.730  74.017  83.379  1.00  0.00     0.035 C 
BRANCH  10  11
ATOM     11  C   UNL     1      73.578  73.729  82.412  1.00  0.00     0.079 C 
BRANCH  11  12
ATOM     12  C   UNL     1      73.077  72.319  82.585  1.00  0.00     0.130 C 
ATOM     13  O   UNL     1      71.901  72.127  82.849  1.00  0.00    -0.300 OA
ATOM     14  C   UNL     1      73.997  71.141  82.447  1.00  0.00     0.087 C 
ENDBRANCH  11  12
ENDBRANCH  10  11
ENDBRANCH   2  10
TORSDOF 6
ENDMDL
MODEL 5
REMARK VINA RESULT:    -3.473      1.880      3.048
REMARK INTER + INTRA:          -5.251
REMARK INTER:                  -4.864
REMARK INTRA:                  -0.388
REMARK UNBOUND:                -0.560
REMARK SMILES CC(=O)CCC=C(C)CCC=C(C)C
REMARK SMILES IDX 7 1 6 2 8 3 9 4 10 5 11 6 13 7 12 8 14 9 5 10 4 11 2 12 3 13
REMARK SMILES IDX 1 14
REMARK H PARENT
REMARK Flexibility Score: inf
ROOT
ATOM      1  C   UNL     1      73.855  72.388  83.109  1.00  0.00    -0.077 C 
ATOM      2  C   UNL     1      74.245  71.135  82.776  1.00  0.00    -0.028 C 
ATOM      3  C   UNL     1      72.417  72.834  82.988  1.00  0.00     0.039 C 
ENDROOT
BRANCH   1   4
ATOM      4  C   UNL     1      74.886  73.363  83.632  1.00  0.00     0.034 C 
BRANCH   4   5
ATOM      5  C   UNL     1      74.513  74.803  83.257  1.00  0.00     0.032 C 
BRANCH   5   6
ATOM      6  C   UNL     1      75.741  75.594  82.886  1.00  0.00    -0.028 C 
ATOM      7  C   UNL     1      77.205  77.564  82.741  1.00  0.00     0.039 C 
ATOM      8  C   UNL     1      75.903  76.914  83.134  1.00  0.00    -0.080 C 
ATOM      9  C   UNL     1      74.816  77.747  83.771  1.00  0.00     0.039 C 
ENDBRANCH   5   6
ENDBRANCH   4   5
ENDBRANCH   1   4
BRANCH   2  10
ATOM     10  C   UNL     1      73.331  70.085  82.197  1.00  0.00     0.035 C 
BRANCH  10  11
ATOM     11  C   UNL     1      72.728  69.221  83.308  1.00  0.00     0.079 C 
BRANCH  11  12
ATOM     12  C   UNL     1      71.411  68.634  82.871  1.00  0.00     0.130 C 
ATOM     13  O   UNL     1      70.545  69.369  82.422  1.00  0.00    -0.300 OA
ATOM     14  C   UNL     1      71.137  67.163  82.981  1.00  0.00     0.087 C 
ENDBRANCH  11  12
ENDBRANCH  10  11
ENDBRANCH   2  10
TORSDOF 6
ENDMDL
MODEL 6
REMARK VINA RESULT:    -3.415      3.027      7.416
REMARK INTER + INTRA:          -5.173
REMARK INTER:                  -4.682
REMARK INTRA:                  -0.491
REMARK UNBOUND:                -0.560
REMARK SMILES CC(=O)CCC=C(C)CCC=C(C)C
REMARK SMILES IDX 7 1 6 2 8 3 9 4 10 5 11 6 13 7 12 8 14 9 5 10 4 11 2 12 3 13
REMARK SMILES IDX 1 14
REMARK H PARENT
REMARK Flexibility Score: inf
ROOT
ATOM      1  C   UNL     1      74.174  74.087  83.690  1.00  0.00    -0.077 C 
ATOM      2  C   UNL     1      74.491  75.402  83.674  1.00  0.00    -0.028 C 
ATOM      3  C   UNL     1      75.227  73.013  83.833  1.00  0.00     0.039 C 
ENDROOT
BRANCH   1   4
ATOM      4  C   UNL     1      72.720  73.680  83.579  1.00  0.00     0.034 C 
BRANCH   4   5
ATOM      5  C   UNL     1      72.565  72.461  82.661  1.00  0.00     0.032 C 
BRANCH   5   6
ATOM      6  C   UNL     1      71.612  71.459  83.260  1.00  0.00    -0.028 C 
ATOM      7  C   UNL     1      70.672  69.239  83.744  1.00  0.00     0.039 C 
ATOM      8  C   UNL     1      71.671  70.125  83.044  1.00  0.00    -0.080 C 
ATOM      9  C   UNL     1      72.690  69.510  82.115  1.00  0.00     0.039 C 
ENDBRANCH   5   6
ENDBRANCH   4   5
ENDBRANCH   1   4
BRANCH   2  10
ATOM     10  C   UNL     1      75.899  75.938  83.727  1.00  0.00     0.035 C 
BRANCH  10  11
ATOM     11  C   UNL     1      76.259  76.645  82.418  1.00  0.00     0.079 C 
BRANCH  11  12
ATOM     12  C   UNL     1      76.526  78.108  82.658  1.00  0.00     0.130 C 
ATOM     13  O   UNL     1      77.503  78.441  83.311  1.00  0.00    -0.300 OA
ATOM     14  C   UNL     1      75.612  79.168  82.118  1.00  0.00     0.087 C 
ENDBRANCH  11  12
ENDBRANCH  10  11
ENDBRANCH   2  10
TORSDOF 6
ENDMDL
MODEL 7
REMARK VINA RESULT:    -3.386      4.139      8.205
REMARK INTER + INTRA:          -5.135
REMARK INTER:                  -4.716
REMARK INTRA:                  -0.418
REMARK UNBOUND:                -0.560
REMARK SMILES CC(=O)CCC=C(C)CCC=C(C)C
REMARK SMILES IDX 7 1 6 2 8 3 9 4 10 5 11 6 13 7 12 8 14 9 5 10 4 11 2 12 3 13
REMARK SMILES IDX 1 14
REMARK H PARENT
REMARK Flexibility Score: inf
ROOT
ATOM      1  C   UNL     1      76.463  78.053  82.636  1.00  0.00    -0.077 C 
ATOM      2  C   UNL     1      77.622  78.492  83.181  1.00  0.00    -0.028 C 
ATOM      3  C   UNL     1      75.408  79.007  82.128  1.00  0.00     0.039 C 
ENDROOT
BRANCH   1   4
ATOM      4  C   UNL     1      76.226  76.564  82.516  1.00  0.00     0.034 C 
BRANCH   4   5
ATOM      5  C   UNL     1      75.235  76.084  83.584  1.00  0.00     0.032 C 
BRANCH   5   6
ATOM      6  C   UNL     1      75.480  74.637  83.928  1.00  0.00    -0.028 C 
ATOM      7  C   UNL     1      75.136  72.203  83.852  1.00  0.00     0.039 C 
ATOM      8  C   UNL     1      74.748  73.604  83.452  1.00  0.00    -0.080 C 
ATOM      9  C   UNL     1      73.555  73.818  82.551  1.00  0.00     0.039 C 
ENDBRANCH   5   6
ENDBRANCH   4   5
ENDBRANCH   1   4
BRANCH   2  10
ATOM     10  C   UNL     1      77.961  79.945  83.403  1.00  0.00     0.035 C 
BRANCH  10  11
ATOM     11  C   UNL     1      79.375  80.252  82.904  1.00  0.00     0.079 C 
BRANCH  11  12
ATOM     12  C   UNL     1      79.775  81.657  83.272  1.00  0.00     0.130 C 
ATOM     13  O   UNL     1      80.936  81.893  83.569  1.00  0.00    -0.300 OA
ATOM     14  C   UNL     1      78.775  82.775  83.290  1.00  0.00     0.087 C 
ENDBRANCH  11  12
ENDBRANCH  10  11
ENDBRANCH   2  10
TORSDOF 6
ENDMDL
MODEL 8
REMARK VINA RESULT:    -3.306      3.052      7.867
REMARK INTER + INTRA:          -5.026
REMARK INTER:                  -4.638
REMARK INTRA:                  -0.387
REMARK UNBOUND:                -0.560
REMARK SMILES CC(=O)CCC=C(C)CCC=C(C)C
REMARK SMILES IDX 7 1 6 2 8 3 9 4 10 5 11 6 13 7 12 8 14 9 5 10 4 11 2 12 3 13
REMARK SMILES IDX 1 14
REMARK H PARENT
REMARK Flexibility Score: inf
ROOT
ATOM      1  C   UNL     1      73.809  72.721  83.197  1.00  0.00    -0.077 C 
ATOM      2  C   UNL     1      75.006  73.333  83.351  1.00  0.00    -0.028 C 
ATOM      3  C   UNL     1      72.509  73.490  83.227  1.00  0.00     0.039 C 
ENDROOT
BRANCH   1   4
ATOM      4  C   UNL     1      73.772  71.225  82.971  1.00  0.00     0.034 C 
BRANCH   4   5
ATOM      5  C   UNL     1      72.360  70.767  82.586  1.00  0.00     0.032 C 
BRANCH   5   6
ATOM      6  C   UNL     1      72.265  69.263  82.595  1.00  0.00    -0.028 C 
ATOM      7  C   UNL     1      71.183  67.066  82.810  1.00  0.00     0.039 C 
ATOM      8  C   UNL     1      71.138  68.571  82.880  1.00  0.00    -0.080 C 
ATOM      9  C   UNL     1      69.855  69.261  83.278  1.00  0.00     0.039 C 
ENDBRANCH   5   6
ENDBRANCH   4   5
ENDBRANCH   1   4
BRANCH   2  10
ATOM     10  C   UNL     1      75.179  74.804  83.631  1.00  0.00     0.035 C 
BRANCH  10  11
ATOM     11  C   UNL     1      75.738  75.527  82.403  1.00  0.00     0.079 C 
BRANCH  11  12
ATOM     12  C   UNL     1      76.638  76.662  82.816  1.00  0.00     0.130 C 
ATOM     13  O   UNL     1      77.680  76.419  83.404  1.00  0.00    -0.300 OA
ATOM     14  C   UNL     1      76.278  78.089  82.526  1.00  0.00     0.087 C 
ENDBRANCH  11  12
ENDBRANCH  10  11
ENDBRANCH   2  10
TORSDOF 6
ENDMDL
MODEL 9
REMARK VINA RESULT:    -3.103      5.626     10.214
REMARK INTER + INTRA:          -4.752
REMARK INTER:                  -4.147
REMARK INTRA:                  -0.605
REMARK UNBOUND:                -0.560
REMARK SMILES CC(=O)CCC=C(C)CCC=C(C)C
REMARK SMILES IDX 7 1 6 2 8 3 9 4 10 5 11 6 13 7 12 8 14 9 5 10 4 11 2 12 3 13
REMARK SMILES IDX 1 14
REMARK H PARENT
REMARK Flexibility Score: inf
ROOT
ATOM      1  C   UNL     1      80.098  81.041  83.242  1.00  0.00    -0.077 C 
ATOM      2  C   UNL     1      80.300  82.379  83.229  1.00  0.00    -0.028 C 
ATOM      3  C   UNL     1      81.102  80.088  83.848  1.00  0.00     0.039 C 
ENDROOT
BRANCH   1   4
ATOM      4  C   UNL     1      78.823  80.485  82.648  1.00  0.00     0.034 C 
BRANCH   4   5
ATOM      5  C   UNL     1      77.962  79.823  83.731  1.00  0.00     0.032 C 
BRANCH   5   6
ATOM      6  C   UNL     1      77.588  78.418  83.333  1.00  0.00    -0.028 C 
ATOM      7  C   UNL     1      76.237  76.643  82.299  1.00  0.00     0.039 C 
ATOM      8  C   UNL     1      76.458  78.088  82.666  1.00  0.00    -0.080 C 
ATOM      9  C   UNL     1      75.416  79.118  82.299  1.00  0.00     0.039 C 
ENDBRANCH   5   6
ENDBRANCH   4   5
ENDBRANCH   1   4
BRANCH   2  10
ATOM     10  C   UNL     1      81.546  83.057  83.741  1.00  0.00     0.035 C 
BRANCH  10  11
ATOM     11  C   UNL     1      82.438  83.500  82.579  1.00  0.00     0.079 C 
BRANCH  11  12
ATOM     12  C   UNL     1      83.710  82.693  82.546  1.00  0.00     0.130 C 
ATOM     13  O   UNL     1      83.713  81.597  82.009  1.00  0.00    -0.300 OA
ATOM     14  C   UNL     1      84.975  83.206  83.169  1.00  0.00     0.087 C 
ENDBRANCH  11  12
ENDBRANCH  10  11
ENDBRANCH   2  10
TORSDOF 6
ENDMDL
