MODEL 1
REMARK VINA RESULT:    -6.004      0.000      0.000
REMARK INTER + INTRA:          -7.335
REMARK INTER:                  -7.056
REMARK INTRA:                  -0.278
REMARK UNBOUND:                -0.278
REMARK SMILES COc1cc2ccc(=O)oc2c(OC)c1OC
REMARK SMILES IDX 3 1 15 2 12 3 11 4 5 5 4 6 6 7 7 8 8 9 9 10 10 11 2 12 1 13
REMARK SMILES IDX 16 14 17 15 13 16 14 17
REMARK H PARENT
REMARK Flexibility Score: inf
ROOT
ATOM      1  C   UNL     1     -36.017  -5.247 -13.535  1.00  0.00     0.165 A 
ATOM      2  C   UNL     1     -37.189  -4.538 -13.148  1.00  0.00     0.207 A 
ATOM      3  C   UNL     1     -38.413  -5.246 -12.995  1.00  0.00     0.208 A 
ATOM      4  C   UNL     1     -38.453  -6.627 -13.226  1.00  0.00     0.184 A 
ATOM      5  C   UNL     1     -37.291  -7.321 -13.607  1.00  0.00     0.025 A 
ATOM      6  C   UNL     1     -36.086  -6.635 -13.759  1.00  0.00     0.062 A 
ATOM      7  C   UNL     1     -37.374  -8.701 -13.827  1.00  0.00     0.020 A 
ATOM      8  C   UNL     1     -38.597  -9.348 -13.665  1.00  0.00     0.094 A 
ATOM      9  C   UNL     1     -39.711  -8.597 -13.284  1.00  0.00     0.336 A 
ATOM     10  O   UNL     1     -40.827  -9.160 -13.130  1.00  0.00    -0.246 OA
ATOM     11  O   UNL     1     -39.602  -7.288 -13.081  1.00  0.00    -0.419 OA
ENDROOT
BRANCH   1  12
ATOM     12  O   UNL     1     -34.800  -4.562 -13.689  1.00  0.00    -0.493 OA
ATOM     13  C   UNL     1     -34.124  -4.357 -14.926  1.00  0.00     0.278 C 
ENDBRANCH   1  12
BRANCH   2  14
ATOM     14  O   UNL     1     -37.187  -3.150 -12.908  1.00  0.00    -0.490 OA
ATOM     15  C   UNL     1     -36.828  -2.481 -11.705  1.00  0.00     0.278 C 
ENDBRANCH   2  14
BRANCH   3  16
ATOM     16  O   UNL     1     -39.630  -4.642 -12.617  1.00  0.00    -0.490 OA
ATOM     17  C   UNL     1     -40.061  -4.336 -11.295  1.00  0.00     0.278 C 
ENDBRANCH   3  16
TORSDOF 3
ENDMDL
MODEL 2
REMARK VINA RESULT:    -5.715      1.306      3.321
REMARK INTER + INTRA:          -6.995
REMARK INTER:                  -6.922
REMARK INTRA:                  -0.073
REMARK UNBOUND:                -0.278
REMARK SMILES COc1cc2ccc(=O)oc2c(OC)c1OC
REMARK SMILES IDX 3 1 15 2 12 3 11 4 5 5 4 6 6 7 7 8 8 9 9 10 10 11 2 12 1 13
REMARK SMILES IDX 16 14 17 15 13 16 14 17
REMARK H PARENT
REMARK Flexibility Score: inf
ROOT
ATOM      1  C   UNL     1     -37.274  -3.972 -12.676  1.00  0.00     0.165 A 
ATOM      2  C   UNL     1     -36.451  -4.992 -13.233  1.00  0.00     0.207 A 
ATOM      3  C   UNL     1     -37.006  -6.280 -13.477  1.00  0.00     0.208 A 
ATOM      4  C   UNL     1     -38.349  -6.530 -13.167  1.00  0.00     0.184 A 
ATOM      5  C   UNL     1     -39.155  -5.517 -12.617  1.00  0.00     0.025 A 
ATOM      6  C   UNL     1     -38.621  -4.252 -12.375  1.00  0.00     0.062 A 
ATOM      7  C   UNL     1     -40.492  -5.808 -12.322  1.00  0.00     0.020 A 
ATOM      8  C   UNL     1     -40.988  -7.085 -12.579  1.00  0.00     0.094 A 
ATOM      9  C   UNL     1     -40.132  -8.043 -13.127  1.00  0.00     0.336 A 
ATOM     10  O   UNL     1     -40.557  -9.203 -13.368  1.00  0.00    -0.246 OA
ATOM     11  O   UNL     1     -38.866  -7.737 -13.396  1.00  0.00    -0.419 OA
ENDROOT
BRANCH   1  12
ATOM     12  O   UNL     1     -36.741  -2.696 -12.430  1.00  0.00    -0.493 OA
ATOM     13  C   UNL     1     -36.717  -2.045 -11.164  1.00  0.00     0.278 C 
ENDBRANCH   1  12
BRANCH   2  14
ATOM     14  O   UNL     1     -35.097  -4.778 -13.557  1.00  0.00    -0.490 OA
ATOM     15  C   UNL     1     -34.558  -4.410 -14.821  1.00  0.00     0.278 C 
ENDBRANCH   2  14
BRANCH   3  16
ATOM     16  O   UNL     1     -36.282  -7.359 -14.023  1.00  0.00    -0.490 OA
ATOM     17  C   UNL     1     -36.427  -7.917 -15.325  1.00  0.00     0.278 C 
ENDBRANCH   3  16
TORSDOF 3
ENDMDL
MODEL 3
REMARK VINA RESULT:    -5.690      1.750      3.853
REMARK INTER + INTRA:          -6.966
REMARK INTER:                  -6.666
REMARK INTRA:                  -0.300
REMARK UNBOUND:                -0.278
REMARK SMILES COc1cc2ccc(=O)oc2c(OC)c1OC
REMARK SMILES IDX 3 1 15 2 12 3 11 4 5 5 4 6 6 7 7 8 8 9 9 10 10 11 2 12 1 13
REMARK SMILES IDX 16 14 17 15 13 16 14 17
REMARK H PARENT
REMARK Flexibility Score: inf
ROOT
ATOM      1  C   UNL     1     -40.064  -4.752 -11.477  1.00  0.00     0.165 A 
ATOM      2  C   UNL     1     -38.857  -4.223 -12.016  1.00  0.00     0.207 A 
ATOM      3  C   UNL     1     -38.096  -5.011 -12.924  1.00  0.00     0.208 A 
ATOM      4  C   UNL     1     -38.539  -6.292 -13.276  1.00  0.00     0.184 A 
ATOM      5  C   UNL     1     -39.733  -6.807 -12.740  1.00  0.00     0.025 A 
ATOM      6  C   UNL     1     -40.486  -6.042 -11.850  1.00  0.00     0.062 A 
ATOM      7  C   UNL     1     -40.140  -8.091 -13.119  1.00  0.00     0.020 A 
ATOM      8  C   UNL     1     -39.359  -8.823 -14.011  1.00  0.00     0.094 A 
ATOM      9  C   UNL     1     -38.185  -8.250 -14.505  1.00  0.00     0.336 A 
ATOM     10  O   UNL     1     -37.463  -8.891 -15.312  1.00  0.00    -0.246 OA
ATOM     11  O   UNL     1     -37.823  -7.027 -14.127  1.00  0.00    -0.419 OA
ENDROOT
BRANCH   1  12
ATOM     12  O   UNL     1     -40.828  -3.986 -10.580  1.00  0.00    -0.493 OA
ATOM     13  C   UNL     1     -41.024  -4.289  -9.202  1.00  0.00     0.278 C 
ENDBRANCH   1  12
BRANCH   2  14
ATOM     14  O   UNL     1     -38.380  -2.940 -11.684  1.00  0.00    -0.490 OA
ATOM     15  C   UNL     1     -37.614  -2.572 -10.543  1.00  0.00     0.278 C 
ENDBRANCH   2  14
BRANCH   3  16
ATOM     16  O   UNL     1     -36.888  -4.585 -13.514  1.00  0.00    -0.490 OA
ATOM     17  C   UNL     1     -35.589  -4.624 -12.931  1.00  0.00     0.278 C 
ENDBRANCH   3  16
TORSDOF 3
ENDMDL
MODEL 4
REMARK VINA RESULT:    -5.664      2.850      3.270
REMARK INTER + INTRA:          -6.936
REMARK INTER:                  -6.688
REMARK INTRA:                  -0.248
REMARK UNBOUND:                -0.278
REMARK SMILES COc1cc2ccc(=O)oc2c(OC)c1OC
REMARK SMILES IDX 3 1 15 2 12 3 11 4 5 5 4 6 6 7 7 8 8 9 9 10 10 11 2 12 1 13
REMARK SMILES IDX 16 14 17 15 13 16 14 17
REMARK H PARENT
REMARK Flexibility Score: inf
ROOT
ATOM      1  C   UNL     1     -35.784  -5.935 -16.718  1.00  0.00     0.165 A 
ATOM      2  C   UNL     1     -37.007  -5.214 -16.817  1.00  0.00     0.207 A 
ATOM      3  C   UNL     1     -38.126  -5.629 -16.042  1.00  0.00     0.208 A 
ATOM      4  C   UNL     1     -38.013  -6.739 -15.193  1.00  0.00     0.184 A 
ATOM      5  C   UNL     1     -36.800  -7.445 -15.100  1.00  0.00     0.025 A 
ATOM      6  C   UNL     1     -35.699  -7.045 -15.856  1.00  0.00     0.062 A 
ATOM      7  C   UNL     1     -36.729  -8.547 -14.240  1.00  0.00     0.020 A 
ATOM      8  C   UNL     1     -37.853  -8.914 -13.503  1.00  0.00     0.094 A 
ATOM      9  C   UNL     1     -39.025  -8.167 -13.644  1.00  0.00     0.336 A 
ATOM     10  O   UNL     1     -40.053  -8.479 -12.988  1.00  0.00    -0.246 OA
ATOM     11  O   UNL     1     -39.062  -7.125 -14.469  1.00  0.00    -0.419 OA
ENDROOT
BRANCH   1  12
ATOM     12  O   UNL     1     -34.670  -5.537 -17.475  1.00  0.00    -0.493 OA
ATOM     13  C   UNL     1     -33.323  -5.523 -17.012  1.00  0.00     0.278 C 
ENDBRANCH   1  12
BRANCH   2  14
ATOM     14  O   UNL     1     -37.158  -4.095 -17.659  1.00  0.00    -0.490 OA
ATOM     15  C   UNL     1     -37.512  -4.093 -19.037  1.00  0.00     0.278 C 
ENDBRANCH   2  14
BRANCH   3  16
ATOM     16  O   UNL     1     -39.382  -4.989 -16.065  1.00  0.00    -0.490 OA
ATOM     17  C   UNL     1     -39.758  -3.814 -15.353  1.00  0.00     0.278 C 
ENDBRANCH   3  16
TORSDOF 3
ENDMDL
MODEL 5
REMARK VINA RESULT:    -5.638      4.017      7.253
REMARK INTER + INTRA:          -6.905
REMARK INTER:                  -6.592
REMARK INTRA:                  -0.313
REMARK UNBOUND:                -0.278
REMARK SMILES COc1cc2ccc(=O)oc2c(OC)c1OC
REMARK SMILES IDX 3 1 15 2 12 3 11 4 5 5 4 6 6 7 7 8 8 9 9 10 10 11 2 12 1 13
REMARK SMILES IDX 16 14 17 15 13 16 14 17
REMARK H PARENT
REMARK Flexibility Score: inf
ROOT
ATOM      1  C   UNL     1     -34.905  -5.552 -15.726  1.00  0.00     0.165 A 
ATOM      2  C   UNL     1     -35.822  -5.526 -16.814  1.00  0.00     0.207 A 
ATOM      3  C   UNL     1     -35.461  -4.853 -18.014  1.00  0.00     0.208 A 
ATOM      4  C   UNL     1     -34.212  -4.224 -18.112  1.00  0.00     0.184 A 
ATOM      5  C   UNL     1     -33.311  -4.255 -17.032  1.00  0.00     0.025 A 
ATOM      6  C   UNL     1     -33.657  -4.913 -15.853  1.00  0.00     0.062 A 
ATOM      7  C   UNL     1     -32.074  -3.615 -17.171  1.00  0.00     0.020 A 
ATOM      8  C   UNL     1     -31.768  -2.969 -18.367  1.00  0.00     0.094 A 
ATOM      9  C   UNL     1     -32.710  -2.978 -19.399  1.00  0.00     0.336 A 
ATOM     10  O   UNL     1     -32.456  -2.401 -20.488  1.00  0.00    -0.246 OA
ATOM     11  O   UNL     1     -33.877  -3.594 -19.237  1.00  0.00    -0.419 OA
ENDROOT
BRANCH   1  12
ATOM     12  O   UNL     1     -35.247  -6.214 -14.535  1.00  0.00    -0.493 OA
ATOM     13  C   UNL     1     -35.648  -5.576 -13.326  1.00  0.00     0.278 C 
ENDBRANCH   1  12
BRANCH   2  14
ATOM     14  O   UNL     1     -37.086  -6.146 -16.752  1.00  0.00    -0.490 OA
ATOM     15  C   UNL     1     -38.287  -5.605 -16.216  1.00  0.00     0.278 C 
ENDBRANCH   2  14
BRANCH   3  16
ATOM     16  O   UNL     1     -36.292  -4.765 -19.149  1.00  0.00    -0.490 OA
ATOM     17  C   UNL     1     -37.321  -3.810 -19.387  1.00  0.00     0.278 C 
ENDBRANCH   3  16
TORSDOF 3
ENDMDL
MODEL 6
REMARK VINA RESULT:    -5.532      5.932      7.708
REMARK INTER + INTRA:          -6.780
REMARK INTER:                  -6.466
REMARK INTRA:                  -0.314
REMARK UNBOUND:                -0.278
REMARK SMILES COc1cc2ccc(=O)oc2c(OC)c1OC
REMARK SMILES IDX 3 1 15 2 12 3 11 4 5 5 4 6 6 7 7 8 8 9 9 10 10 11 2 12 1 13
REMARK SMILES IDX 16 14 17 15 13 16 14 17
REMARK H PARENT
REMARK Flexibility Score: inf
ROOT
ATOM      1  C   UNL     1     -31.727  -5.080 -16.794  1.00  0.00     0.165 A 
ATOM      2  C   UNL     1     -31.543  -3.935 -17.620  1.00  0.00     0.207 A 
ATOM      3  C   UNL     1     -32.659  -3.387 -18.312  1.00  0.00     0.208 A 
ATOM      4  C   UNL     1     -33.922  -3.977 -18.174  1.00  0.00     0.184 A 
ATOM      5  C   UNL     1     -34.096  -5.107 -17.355  1.00  0.00     0.025 A 
ATOM      6  C   UNL     1     -33.008  -5.651 -16.674  1.00  0.00     0.062 A 
ATOM      7  C   UNL     1     -35.375  -5.666 -17.244  1.00  0.00     0.020 A 
ATOM      8  C   UNL     1     -36.436  -5.092 -17.942  1.00  0.00     0.094 A 
ATOM      9  C   UNL     1     -36.192  -3.970 -18.737  1.00  0.00     0.336 A 
ATOM     10  O   UNL     1     -37.134  -3.434 -19.377  1.00  0.00    -0.246 OA
ATOM     11  O   UNL     1     -34.966  -3.461 -18.822  1.00  0.00    -0.419 OA
ENDROOT
BRANCH   1  12
ATOM     12  O   UNL     1     -30.635  -5.632 -16.105  1.00  0.00    -0.493 OA
ATOM     13  C   UNL     1     -29.827  -6.708 -16.572  1.00  0.00     0.278 C 
ENDBRANCH   1  12
BRANCH   2  14
ATOM     14  O   UNL     1     -30.288  -3.316 -17.784  1.00  0.00    -0.490 OA
ATOM     15  C   UNL     1     -29.284  -3.638 -18.738  1.00  0.00     0.278 C 
ENDBRANCH   2  14
BRANCH   3  16
ATOM     16  O   UNL     1     -32.587  -2.259 -19.154  1.00  0.00    -0.490 OA
ATOM     17  C   UNL     1     -32.190  -2.233 -20.521  1.00  0.00     0.278 C 
ENDBRANCH   3  16
TORSDOF 3
ENDMDL
MODEL 7
REMARK VINA RESULT:    -5.518      2.130      4.825
REMARK INTER + INTRA:          -6.764
REMARK INTER:                  -6.482
REMARK INTRA:                  -0.282
REMARK UNBOUND:                -0.278
REMARK SMILES COc1cc2ccc(=O)oc2c(OC)c1OC
REMARK SMILES IDX 3 1 15 2 12 3 11 4 5 5 4 6 6 7 7 8 8 9 9 10 10 11 2 12 1 13
REMARK SMILES IDX 16 14 17 15 13 16 14 17
REMARK H PARENT
REMARK Flexibility Score: inf
ROOT
ATOM      1  C   UNL     1     -37.363  -7.472 -13.784  1.00  0.00     0.165 A 
ATOM      2  C   UNL     1     -38.111  -6.293 -13.506  1.00  0.00     0.207 A 
ATOM      3  C   UNL     1     -37.823  -5.099 -14.226  1.00  0.00     0.208 A 
ATOM      4  C   UNL     1     -36.812  -5.097 -15.196  1.00  0.00     0.184 A 
ATOM      5  C   UNL     1     -36.079  -6.266 -15.465  1.00  0.00     0.025 A 
ATOM      6  C   UNL     1     -36.353  -7.440 -14.765  1.00  0.00     0.062 A 
ATOM      7  C   UNL     1     -35.077  -6.220 -16.442  1.00  0.00     0.020 A 
ATOM      8  C   UNL     1     -34.834  -5.027 -17.119  1.00  0.00     0.094 A 
ATOM      9  C   UNL     1     -35.601  -3.904 -16.802  1.00  0.00     0.336 A 
ATOM     10  O   UNL     1     -35.401  -2.814 -17.400  1.00  0.00    -0.246 OA
ATOM     11  O   UNL     1     -36.546  -3.977 -15.869  1.00  0.00    -0.419 OA
ENDROOT
BRANCH   1  12
ATOM     12  O   UNL     1     -37.634  -8.658 -13.082  1.00  0.00    -0.493 OA
ATOM     13  C   UNL     1     -38.637  -9.608 -13.432  1.00  0.00     0.278 C 
ENDBRANCH   1  12
BRANCH   2  14
ATOM     14  O   UNL     1     -39.133  -6.258 -12.538  1.00  0.00    -0.490 OA
ATOM     15  C   UNL     1     -40.509  -6.564 -12.724  1.00  0.00     0.278 C 
ENDBRANCH   2  14
BRANCH   3  16
ATOM     16  O   UNL     1     -38.501  -3.879 -14.029  1.00  0.00    -0.490 OA
ATOM     17  C   UNL     1     -39.724  -3.470 -14.633  1.00  0.00     0.278 C 
ENDBRANCH   3  16
TORSDOF 3
ENDMDL
MODEL 8
REMARK VINA RESULT:    -5.395      3.961      7.003
REMARK INTER + INTRA:          -6.619
REMARK INTER:                  -6.341
REMARK INTRA:                  -0.278
REMARK UNBOUND:                -0.278
REMARK SMILES COc1cc2ccc(=O)oc2c(OC)c1OC
REMARK SMILES IDX 3 1 15 2 12 3 11 4 5 5 4 6 6 7 7 8 8 9 9 10 10 11 2 12 1 13
REMARK SMILES IDX 16 14 17 15 13 16 14 17
REMARK H PARENT
REMARK Flexibility Score: inf
ROOT
ATOM      1  C   UNL     1     -36.707  -3.674 -18.326  1.00  0.00     0.165 A 
ATOM      2  C   UNL     1     -36.731  -4.778 -17.427  1.00  0.00     0.207 A 
ATOM      3  C   UNL     1     -35.513  -5.233 -16.850  1.00  0.00     0.208 A 
ATOM      4  C   UNL     1     -34.308  -4.594 -17.171  1.00  0.00     0.184 A 
ATOM      5  C   UNL     1     -34.293  -3.503 -18.059  1.00  0.00     0.025 A 
ATOM      6  C   UNL     1     -35.482  -3.050 -18.629  1.00  0.00     0.062 A 
ATOM      7  C   UNL     1     -33.068  -2.893 -18.353  1.00  0.00     0.020 A 
ATOM      8  C   UNL     1     -31.902  -3.376 -17.763  1.00  0.00     0.094 A 
ATOM      9  C   UNL     1     -31.990  -4.463 -16.889  1.00  0.00     0.336 A 
ATOM     10  O   UNL     1     -30.951  -4.918 -16.343  1.00  0.00    -0.246 OA
ATOM     11  O   UNL     1     -33.168  -5.023 -16.629  1.00  0.00    -0.419 OA
ENDROOT
BRANCH   1  12
ATOM     12  O   UNL     1     -37.902  -3.212 -18.903  1.00  0.00    -0.493 OA
ATOM     13  C   UNL     1     -38.475  -3.703 -20.110  1.00  0.00     0.278 C 
ENDBRANCH   1  12
BRANCH   2  14
ATOM     14  O   UNL     1     -37.922  -5.445 -17.082  1.00  0.00    -0.490 OA
ATOM     15  C   UNL     1     -38.918  -5.015 -16.161  1.00  0.00     0.278 C 
ENDBRANCH   2  14
BRANCH   3  16
ATOM     16  O   UNL     1     -35.423  -6.316 -15.952  1.00  0.00    -0.490 OA
ATOM     17  C   UNL     1     -35.664  -6.287 -14.548  1.00  0.00     0.278 C 
ENDBRANCH   3  16
TORSDOF 3
ENDMDL
MODEL 9
REMARK VINA RESULT:    -5.357      3.625      5.668
REMARK INTER + INTRA:          -6.575
REMARK INTER:                  -6.333
REMARK INTRA:                  -0.242
REMARK UNBOUND:                -0.278
REMARK SMILES COc1cc2ccc(=O)oc2c(OC)c1OC
REMARK SMILES IDX 3 1 15 2 12 3 11 4 5 5 4 6 6 7 7 8 8 9 9 10 10 11 2 12 1 13
REMARK SMILES IDX 16 14 17 15 13 16 14 17
REMARK H PARENT
REMARK Flexibility Score: inf
ROOT
ATOM      1  C   UNL     1     -36.421  -4.877 -18.382  1.00  0.00     0.165 A 
ATOM      2  C   UNL     1     -35.032  -4.947 -18.074  1.00  0.00     0.207 A 
ATOM      3  C   UNL     1     -34.625  -5.418 -16.795  1.00  0.00     0.208 A 
ATOM      4  C   UNL     1     -35.589  -5.807 -15.856  1.00  0.00     0.184 A 
ATOM      5  C   UNL     1     -36.958  -5.737 -16.168  1.00  0.00     0.025 A 
ATOM      6  C   UNL     1     -37.367  -5.276 -17.418  1.00  0.00     0.062 A 
ATOM      7  C   UNL     1     -37.889  -6.136 -15.201  1.00  0.00     0.020 A 
ATOM      8  C   UNL     1     -37.439  -6.590 -13.963  1.00  0.00     0.094 A 
ATOM      9  C   UNL     1     -36.064  -6.634 -13.721  1.00  0.00     0.336 A 
ATOM     10  O   UNL     1     -35.633  -7.041 -12.610  1.00  0.00    -0.246 OA
ATOM     11  O   UNL     1     -35.203  -6.249 -14.658  1.00  0.00    -0.419 OA
ENDROOT
BRANCH   1  12
ATOM     12  O   UNL     1     -36.840  -4.415 -19.640  1.00  0.00    -0.493 OA
ATOM     13  C   UNL     1     -38.088  -3.783 -19.910  1.00  0.00     0.278 C 
ENDBRANCH   1  12
BRANCH   2  14
ATOM     14  O   UNL     1     -34.036  -4.563 -18.992  1.00  0.00    -0.490 OA
ATOM     15  C   UNL     1     -33.533  -3.253 -19.224  1.00  0.00     0.278 C 
ENDBRANCH   2  14
BRANCH   3  16
ATOM     16  O   UNL     1     -33.279  -5.525 -16.387  1.00  0.00    -0.490 OA
ATOM     17  C   UNL     1     -32.427  -4.469 -15.957  1.00  0.00     0.278 C 
ENDBRANCH   3  16
TORSDOF 3
ENDMDL
