MODEL 1
REMARK VINA RESULT:    18.201      0.000      0.000
REMARK INTER + INTRA:          27.431
REMARK INTER:                  25.650
REMARK INTRA:                   1.781
REMARK UNBOUND:                 1.781
REMARK SMILES CC1=CCC(=C(C)C)C(=O)CC(C)=CCC1
REMARK SMILES IDX 12 1 14 2 13 3 15 4 16 5 2 6 1 7 3 8 11 10 9 11 10 12 5 13
REMARK SMILES IDX 6 14 7 15 8 16 4 17
REMARK H PARENT
REMARK Flexibility Score: 60.00
ROOT
ATOM      1  C   UNL     1      33.017  11.631  40.808  1.00  0.00    -0.070 C 
ATOM      2  C   UNL     1      33.121  10.280  40.821  1.00  0.00    -0.027 C 
ATOM      3  C   UNL     1      32.054  12.263  41.783  1.00  0.00     0.039 C 
ENDROOT
BRANCH   2   4
ATOM      4  C   UNL     1      34.089   9.450  40.014  1.00  0.00     0.032 C 
BRANCH   4   5
ATOM      5  C   UNL     1      35.507   9.440  40.617  1.00  0.00     0.034 C 
BRANCH   5   6
ATOM      6  C   UNL     1      36.398  10.502  40.004  1.00  0.00    -0.077 C 
ATOM      7  C   UNL     1      37.079  10.197  38.694  1.00  0.00     0.039 C 
ATOM      8  C   UNL     1      36.640  11.702  40.578  1.00  0.00    -0.023 CG0
ATOM      9  G   UNL     1      36.082  12.176  41.899  1.00  0.00     0.000 G0
ENDBRANCH   5   6
ENDBRANCH   4   5
ENDBRANCH   2   4
BRANCH   1  10
ATOM     10  C   UNL     1      33.856  12.533  39.920  1.00  0.00     0.111 C 
BRANCH  10  11
ATOM     11  C   UNL     1      34.447  13.684  40.698  1.00  0.00     0.163 C 
ATOM     12  O   UNL     1      34.191  14.856  40.310  1.00  0.00    -0.294 OA
BRANCH  11  13
ATOM     13  C   UNL     1      35.355  13.466  41.868  1.00  0.00    -0.002 C 
ATOM     14  C   UNL     1      35.458  14.381  42.878  1.00  0.00    -0.069 C 
ATOM     15  C   UNL     1      36.407  14.170  44.038  1.00  0.00     0.039 C 
ATOM     16  C   UNL     1      34.605  15.629  42.906  1.00  0.00     0.039 C 
BRANCH  13  17
ATOM     17  C   UNL     1      36.104  12.147  41.922  1.00  0.00     0.066 CG0
ATOM     18  G   UNL     1      36.602  11.783  40.543  1.00  0.00     0.000 G0
ENDBRANCH  13  17
ENDBRANCH  11  13
ENDBRANCH  10  11
ENDBRANCH   1  10
TORSDOF 0
ENDMDL
MODEL 2
REMARK VINA RESULT:    19.645      1.701      3.187
REMARK INTER + INTRA:          29.465
REMARK INTER:                  27.281
REMARK INTRA:                   2.184
REMARK UNBOUND:                 1.781
REMARK SMILES CC1=CCC(=C(C)C)C(=O)CC(C)=CCC1
REMARK SMILES IDX 12 1 14 2 13 3 15 4 16 5 2 6 1 7 3 8 11 10 9 11 10 12 5 13
REMARK SMILES IDX 6 14 7 15 8 16 4 17
REMARK H PARENT
REMARK Flexibility Score: 60.00
ROOT
ATOM      1  C   UNL     1      34.411  10.201  40.708  1.00  0.00    -0.070 C 
ATOM      2  C   UNL     1      33.064  10.117  40.595  1.00  0.00    -0.027 C 
ATOM      3  C   UNL     1      35.243   9.443  39.703  1.00  0.00     0.039 C 
ENDROOT
BRANCH   2   4
ATOM      4  C   UNL     1      32.048  10.870  41.418  1.00  0.00     0.032 C 
BRANCH   4   5
ATOM      5  C   UNL     1      31.923  12.348  40.998  1.00  0.00     0.034 C 
BRANCH   5   6
ATOM      6  C   UNL     1      32.650  12.637  39.700  1.00  0.00    -0.077 C 
ATOM      7  C   UNL     1      32.267  11.847  38.474  1.00  0.00     0.039 C 
ATOM      8  C   UNL     1      33.644  13.546  39.582  1.00  0.00    -0.023 CG0
ATOM      9  G   UNL     1      34.191  14.405  40.698  1.00  0.00     0.000 G0
ENDBRANCH   5   6
ENDBRANCH   4   5
ENDBRANCH   2   4
BRANCH   1  10
ATOM     10  C   UNL     1      35.119  11.063  41.741  1.00  0.00     0.111 C 
BRANCH  10  11
ATOM     11  C   UNL     1      35.612  12.356  41.140  1.00  0.00     0.163 C 
ATOM     12  O   UNL     1      36.494  12.294  40.241  1.00  0.00    -0.294 OA
BRANCH  11  13
ATOM     13  C   UNL     1      35.124  13.688  41.617  1.00  0.00    -0.002 C 
ATOM     14  C   UNL     1      35.546  14.227  42.801  1.00  0.00    -0.069 C 
ATOM     15  C   UNL     1      35.019  15.556  43.294  1.00  0.00     0.039 C 
ATOM     16  C   UNL     1      36.586  13.539  43.657  1.00  0.00     0.039 C 
BRANCH  13  17
ATOM     17  C   UNL     1      34.194  14.453  40.693  1.00  0.00     0.066 CG0
ATOM     18  G   UNL     1      33.659  13.528  39.625  1.00  0.00     0.000 G0
ENDBRANCH  13  17
ENDBRANCH  11  13
ENDBRANCH  10  11
ENDBRANCH   1  10
TORSDOF 0
ENDMDL
MODEL 3
REMARK VINA RESULT:    20.491      1.739      2.646
REMARK INTER + INTRA:          30.657
REMARK INTER:                  28.802
REMARK INTRA:                   1.855
REMARK UNBOUND:                 1.781
REMARK SMILES CC1=CCC(=C(C)C)C(=O)CC(C)=CCC1
REMARK SMILES IDX 12 1 14 2 13 3 15 4 16 5 2 6 1 7 3 8 11 10 9 11 10 12 5 13
REMARK SMILES IDX 6 14 7 15 8 16 4 17
REMARK H PARENT
REMARK Flexibility Score: 60.00
ROOT
ATOM      1  C   UNL     1      33.371  12.582  39.461  1.00  0.00    -0.070 C 
ATOM      2  C   UNL     1      32.899  11.313  39.433  1.00  0.00    -0.027 C 
ATOM      3  C   UNL     1      32.401  13.692  39.139  1.00  0.00     0.039 C 
ENDROOT
BRANCH   2   4
ATOM      4  C   UNL     1      33.658  10.068  39.821  1.00  0.00     0.032 C 
BRANCH   4   5
ATOM      5  C   UNL     1      33.390   9.640  41.277  1.00  0.00     0.034 C 
BRANCH   5   6
ATOM      6  C   UNL     1      32.715  10.734  42.080  1.00  0.00    -0.077 C 
ATOM      7  C   UNL     1      31.209  10.758  42.132  1.00  0.00     0.039 C 
ATOM      8  C   UNL     1      33.387  11.709  42.733  1.00  0.00    -0.023 CG0
ATOM      9  G   UNL     1      34.888  11.875  42.769  1.00  0.00     0.000 G0
ENDBRANCH   5   6
ENDBRANCH   4   5
ENDBRANCH   2   4
BRANCH   1  10
ATOM     10  C   UNL     1      34.791  12.946  39.860  1.00  0.00     0.111 C 
BRANCH  10  11
ATOM     11  C   UNL     1      34.815  13.828  41.085  1.00  0.00     0.163 C 
ATOM     12  O   UNL     1      34.499  15.041  40.948  1.00  0.00    -0.294 OA
BRANCH  11  13
ATOM     13  C   UNL     1      35.247  13.314  42.422  1.00  0.00    -0.002 C 
ATOM     14  C   UNL     1      35.888  14.115  43.327  1.00  0.00    -0.069 C 
ATOM     15  C   UNL     1      36.356  13.578  44.662  1.00  0.00     0.039 C 
ATOM     16  C   UNL     1      36.129  15.583  43.054  1.00  0.00     0.039 C 
BRANCH  13  17
ATOM     17  C   UNL     1      34.878  11.883  42.764  1.00  0.00     0.066 CG0
ATOM     18  G   UNL     1      33.375  11.726  42.757  1.00  0.00     0.000 G0
ENDBRANCH  13  17
ENDBRANCH  11  13
ENDBRANCH  10  11
ENDBRANCH   1  10
TORSDOF 0
ENDMDL
MODEL 4
REMARK VINA RESULT:    21.136      1.875      4.083
REMARK INTER + INTRA:          31.566
REMARK INTER:                  28.660
REMARK INTRA:                   2.905
REMARK UNBOUND:                 1.781
REMARK SMILES CC1=CCC(=C(C)C)C(=O)CC(C)=CCC1
REMARK SMILES IDX 12 1 14 2 13 3 15 4 16 5 2 6 1 7 3 8 11 10 9 11 10 12 5 13
REMARK SMILES IDX 6 14 7 15 8 16 4 17
REMARK H PARENT
REMARK Flexibility Score: 60.00
ROOT
ATOM      1  C   UNL     1      35.377   9.293  40.380  1.00  0.00    -0.070 C 
ATOM      2  C   UNL     1      36.358  10.200  40.605  1.00  0.00    -0.027 C 
ATOM      3  C   UNL     1      35.294   8.111  41.314  1.00  0.00     0.039 C 
ENDROOT
BRANCH   2   4
ATOM      4  C   UNL     1      36.560  11.501  39.867  1.00  0.00     0.032 C 
BRANCH   4   5
ATOM      5  C   UNL     1      37.037  12.638  40.792  1.00  0.00     0.034 C 
BRANCH   5   6
ATOM      6  C   UNL     1      35.950  13.098  41.742  1.00  0.00    -0.077 C 
ATOM      7  C   UNL     1      36.360  13.710  43.057  1.00  0.00     0.039 C 
ATOM      8  C   UNL     1      34.627  12.965  41.491  1.00  0.00    -0.023 CG0
ATOM      9  G   UNL     1      34.022  12.347  40.253  1.00  0.00     0.000 G0
ENDBRANCH   5   6
ENDBRANCH   4   5
ENDBRANCH   2   4
BRANCH   1  10
ATOM     10  C   UNL     1      34.329   9.438  39.289  1.00  0.00     0.111 C 
BRANCH  10  11
ATOM     11  C   UNL     1      33.035   9.994  39.833  1.00  0.00     0.163 C 
ATOM     12  O   UNL     1      31.964   9.395  39.545  1.00  0.00    -0.294 OA
BRANCH  11  13
ATOM     13  C   UNL     1      32.994  11.248  40.649  1.00  0.00    -0.002 C 
ATOM     14  C   UNL     1      32.177  11.370  41.739  1.00  0.00    -0.069 C 
ATOM     15  C   UNL     1      32.112  12.655  42.536  1.00  0.00     0.039 C 
ATOM     16  C   UNL     1      31.326  10.217  42.223  1.00  0.00     0.039 C 
BRANCH  13  17
ATOM     17  C   UNL     1      33.954  12.357  40.259  1.00  0.00     0.066 CG0
ATOM     18  G   UNL     1      34.623  12.913  41.494  1.00  0.00     0.000 G0
ENDBRANCH  13  17
ENDBRANCH  11  13
ENDBRANCH  10  11
ENDBRANCH   1  10
TORSDOF 0
ENDMDL
