MODEL 1
REMARK VINA RESULT:    -3.236      0.000      0.000
REMARK INTER + INTRA:          -4.993
REMARK INTER:                  -4.560
REMARK INTRA:                  -0.433
REMARK UNBOUND:                -0.433
REMARK SMILES C=CCCCCCCC(=O)[O-]
REMARK SMILES IDX 6 1 7 2 8 3 9 4 10 5 11 6 5 7 4 8 3 9 2 10 1 11
REMARK H PARENT
REMARK Flexibility Score: inf
ROOT
ATOM      1  C   UNL     1      44.193  54.564  30.735  1.00  0.00     0.000 C 
ENDROOT
BRANCH   1   2
ATOM      2  C   UNL     1      42.924  55.213  30.165  1.00  0.00     0.006 C 
BRANCH   2   3
ATOM      3  C   UNL     1      41.876  55.493  31.252  1.00  0.00     0.053 C 
BRANCH   3   4
ATOM      4  C   UNL     1      41.887  56.928  31.679  1.00  0.00     0.041 C 
ATOM      5  O   UNL     1      41.899  57.224  32.903  1.00  0.00    -0.550 OA
ATOM      6  O   UNL     1      41.918  57.938  30.725  1.00  0.00    -0.550 OA
ENDBRANCH   3   4
ENDBRANCH   2   3
ENDBRANCH   1   2
BRANCH   1   7
ATOM      7  C   UNL     1      45.449  55.135  30.068  1.00  0.00     0.000 C 
BRANCH   7   8
ATOM      8  C   UNL     1      45.112  56.374  29.227  1.00  0.00     0.004 C 
BRANCH   8   9
ATOM      9  C   UNL     1      45.740  57.651  29.800  1.00  0.00     0.027 C 
BRANCH   9  10
ATOM     10  C   UNL     1      46.854  58.160  28.924  1.00  0.00    -0.035 C 
ATOM     11  C   UNL     1      48.074  58.410  29.409  1.00  0.00     0.004 C 
ENDBRANCH   9  10
ENDBRANCH   8   9
ENDBRANCH   7   8
ENDBRANCH   1   7
TORSDOF 7
ENDMDL
MODEL 2
REMARK VINA RESULT:    -3.233      2.810      4.855
REMARK INTER + INTRA:          -4.989
REMARK INTER:                  -4.318
REMARK INTRA:                  -0.671
REMARK UNBOUND:                -0.433
REMARK SMILES C=CCCCCCCC(=O)[O-]
REMARK SMILES IDX 6 1 7 2 8 3 9 4 10 5 11 6 5 7 4 8 3 9 2 10 1 11
REMARK H PARENT
REMARK Flexibility Score: inf
ROOT
ATOM      1  C   UNL     1      44.384  55.148  28.894  1.00  0.00     0.000 C 
ENDROOT
BRANCH   1   2
ATOM      2  C   UNL     1      45.438  55.820  29.785  1.00  0.00     0.006 C 
BRANCH   2   3
ATOM      3  C   UNL     1      45.460  57.345  29.610  1.00  0.00     0.053 C 
BRANCH   3   4
ATOM      4  C   UNL     1      46.660  57.799  28.837  1.00  0.00     0.041 C 
ATOM      5  O   UNL     1      46.786  57.487  27.624  1.00  0.00    -0.550 OA
ATOM      6  O   UNL     1      47.621  58.594  29.448  1.00  0.00    -0.550 OA
ENDBRANCH   3   4
ENDBRANCH   2   3
ENDBRANCH   1   2
BRANCH   1   7
ATOM      7  C   UNL     1      43.525  54.168  29.702  1.00  0.00     0.000 C 
BRANCH   7   8
ATOM      8  C   UNL     1      43.177  54.748  31.081  1.00  0.00     0.004 C 
BRANCH   8   9
ATOM      9  C   UNL     1      41.757  55.324  31.124  1.00  0.00     0.027 C 
BRANCH   9  10
ATOM     10  C   UNL     1      41.747  56.731  31.662  1.00  0.00    -0.035 C 
ATOM     11  C   UNL     1      42.087  57.778  30.904  1.00  0.00     0.004 C 
ENDBRANCH   9  10
ENDBRANCH   8   9
ENDBRANCH   7   8
ENDBRANCH   1   7
TORSDOF 7
ENDMDL
MODEL 3
REMARK VINA RESULT:    -3.221      3.013      5.482
REMARK INTER + INTRA:          -4.972
REMARK INTER:                  -4.666
REMARK INTRA:                  -0.306
REMARK UNBOUND:                -0.433
REMARK SMILES C=CCCCCCCC(=O)[O-]
REMARK SMILES IDX 6 1 7 2 8 3 9 4 10 5 11 6 5 7 4 8 3 9 2 10 1 11
REMARK H PARENT
REMARK Flexibility Score: inf
ROOT
ATOM      1  C   UNL     1      43.375  58.552  30.796  1.00  0.00     0.000 C 
ENDROOT
BRANCH   1   2
ATOM      2  C   UNL     1      44.816  58.816  30.336  1.00  0.00     0.006 C 
BRANCH   2   3
ATOM      3  C   UNL     1      45.496  57.549  29.798  1.00  0.00     0.053 C 
BRANCH   3   4
ATOM      4  C   UNL     1      46.668  57.876  28.925  1.00  0.00     0.041 C 
ATOM      5  O   UNL     1      46.681  57.510  27.720  1.00  0.00    -0.550 OA
ATOM      6  O   UNL     1      47.731  58.611  29.433  1.00  0.00    -0.550 OA
ENDBRANCH   3   4
ENDBRANCH   2   3
ENDBRANCH   1   2
BRANCH   1   7
ATOM      7  C   UNL     1      42.987  57.086  30.575  1.00  0.00     0.000 C 
BRANCH   7   8
ATOM      8  C   UNL     1      41.570  56.806  31.095  1.00  0.00     0.004 C 
BRANCH   8   9
ATOM      9  C   UNL     1      41.552  55.702  32.159  1.00  0.00     0.027 C 
BRANCH   9  10
ATOM     10  C   UNL     1      42.218  54.446  31.662  1.00  0.00    -0.035 C 
ATOM     11  C   UNL     1      41.676  53.693  30.701  1.00  0.00     0.004 C 
ENDBRANCH   9  10
ENDBRANCH   8   9
ENDBRANCH   7   8
ENDBRANCH   1   7
TORSDOF 7
ENDMDL
MODEL 4
REMARK VINA RESULT:    -3.216      2.295      3.172
REMARK INTER + INTRA:          -4.965
REMARK INTER:                  -4.552
REMARK INTRA:                  -0.413
REMARK UNBOUND:                -0.433
REMARK SMILES C=CCCCCCCC(=O)[O-]
REMARK SMILES IDX 6 1 7 2 8 3 9 4 10 5 11 6 5 7 4 8 3 9 2 10 1 11
REMARK H PARENT
REMARK Flexibility Score: inf
ROOT
ATOM      1  C   UNL     1      42.109  57.474  31.799  1.00  0.00     0.000 C 
ENDROOT
BRANCH   1   2
ATOM      2  C   UNL     1      41.501  56.133  31.367  1.00  0.00     0.006 C 
BRANCH   2   3
ATOM      3  C   UNL     1      42.536  54.998  31.367  1.00  0.00     0.053 C 
BRANCH   3   4
ATOM      4  C   UNL     1      42.520  54.233  30.080  1.00  0.00     0.041 C 
ATOM      5  O   UNL     1      43.371  54.481  29.185  1.00  0.00    -0.550 OA
ATOM      6  O   UNL     1      41.587  53.223  29.882  1.00  0.00    -0.550 OA
ENDBRANCH   3   4
ENDBRANCH   2   3
ENDBRANCH   1   2
BRANCH   1   7
ATOM      7  C   UNL     1      42.324  58.395  30.592  1.00  0.00     0.000 C 
BRANCH   7   8
ATOM      8  C   UNL     1      43.779  58.882  30.522  1.00  0.00     0.004 C 
BRANCH   8   9
ATOM      9  C   UNL     1      44.740  57.770  30.082  1.00  0.00     0.027 C 
BRANCH   9  10
ATOM     10  C   UNL     1      46.162  58.263  30.020  1.00  0.00    -0.035 C 
ATOM     11  C   UNL     1      46.880  58.203  28.895  1.00  0.00     0.004 C 
ENDBRANCH   9  10
ENDBRANCH   8   9
ENDBRANCH   7   8
ENDBRANCH   1   7
TORSDOF 7
ENDMDL
MODEL 5
REMARK VINA RESULT:    -3.098      1.330      1.991
REMARK INTER + INTRA:          -4.798
REMARK INTER:                  -4.464
REMARK INTRA:                  -0.334
REMARK UNBOUND:                -0.433
REMARK SMILES C=CCCCCCCC(=O)[O-]
REMARK SMILES IDX 6 1 7 2 8 3 9 4 10 5 11 6 5 7 4 8 3 9 2 10 1 11
REMARK H PARENT
REMARK Flexibility Score: inf
ROOT
ATOM      1  C   UNL     1      42.890  56.988  30.580  1.00  0.00     0.000 C 
ENDROOT
BRANCH   1   2
ATOM      2  C   UNL     1      41.553  56.711  31.282  1.00  0.00     0.006 C 
BRANCH   2   3
ATOM      3  C   UNL     1      41.623  55.487  32.205  1.00  0.00     0.053 C 
BRANCH   3   4
ATOM      4  C   UNL     1      41.522  55.873  33.649  1.00  0.00     0.041 C 
ATOM      5  O   UNL     1      41.226  55.009  34.516  1.00  0.00    -0.550 OA
ATOM      6  O   UNL     1      41.787  57.179  34.040  1.00  0.00    -0.550 OA
ENDBRANCH   3   4
ENDBRANCH   2   3
ENDBRANCH   1   2
BRANCH   1   7
ATOM      7  C   UNL     1      43.522  55.689  30.069  1.00  0.00     0.000 C 
BRANCH   7   8
ATOM      8  C   UNL     1      44.918  55.949  29.483  1.00  0.00     0.004 C 
BRANCH   8   9
ATOM      9  C   UNL     1      45.374  57.398  29.697  1.00  0.00     0.027 C 
BRANCH   9  10
ATOM     10  C   UNL     1      46.633  57.699  28.927  1.00  0.00    -0.035 C 
ATOM     11  C   UNL     1      47.616  58.441  29.446  1.00  0.00     0.004 C 
ENDBRANCH   9  10
ENDBRANCH   8   9
ENDBRANCH   7   8
ENDBRANCH   1   7
TORSDOF 7
ENDMDL
MODEL 6
REMARK VINA RESULT:    -3.032     12.513     14.031
REMARK INTER + INTRA:          -4.706
REMARK INTER:                  -4.011
REMARK INTRA:                  -0.695
REMARK UNBOUND:                -0.433
REMARK SMILES C=CCCCCCCC(=O)[O-]
REMARK SMILES IDX 6 1 7 2 8 3 9 4 10 5 11 6 5 7 4 8 3 9 2 10 1 11
REMARK H PARENT
REMARK Flexibility Score: inf
ROOT
ATOM      1  C   UNL     1      45.888  69.451  30.709  1.00  0.00     0.000 C 
ENDROOT
BRANCH   1   2
ATOM      2  C   UNL     1      47.049  69.034  31.622  1.00  0.00     0.006 C 
BRANCH   2   3
ATOM      3  C   UNL     1      46.742  69.287  33.105  1.00  0.00     0.053 C 
BRANCH   3   4
ATOM      4  C   UNL     1      45.971  68.157  33.714  1.00  0.00     0.041 C 
ATOM      5  O   UNL     1      46.579  67.179  34.224  1.00  0.00    -0.550 OA
ATOM      6  O   UNL     1      44.583  68.200  33.748  1.00  0.00    -0.550 OA
ENDBRANCH   3   4
ENDBRANCH   2   3
ENDBRANCH   1   2
BRANCH   1   7
ATOM      7  C   UNL     1      45.892  70.965  30.469  1.00  0.00     0.000 C 
BRANCH   7   8
ATOM      8  C   UNL     1      44.466  71.494  30.261  1.00  0.00     0.004 C 
BRANCH   8   9
ATOM      9  C   UNL     1      44.011  72.400  31.412  1.00  0.00     0.027 C 
BRANCH   9  10
ATOM     10  C   UNL     1      43.524  71.596  32.588  1.00  0.00    -0.035 C 
ATOM     11  C   UNL     1      44.055  71.737  33.806  1.00  0.00     0.004 C 
ENDBRANCH   9  10
ENDBRANCH   8   9
ENDBRANCH   7   8
ENDBRANCH   1   7
TORSDOF 7
ENDMDL
MODEL 7
REMARK VINA RESULT:    -2.995     12.797     14.073
REMARK INTER + INTRA:          -4.653
REMARK INTER:                  -3.977
REMARK INTRA:                  -0.676
REMARK UNBOUND:                -0.433
REMARK SMILES C=CCCCCCCC(=O)[O-]
REMARK SMILES IDX 6 1 7 2 8 3 9 4 10 5 11 6 5 7 4 8 3 9 2 10 1 11
REMARK H PARENT
REMARK Flexibility Score: inf
ROOT
ATOM      1  C   UNL     1      43.231  71.681  32.868  1.00  0.00     0.000 C 
ENDROOT
BRANCH   1   2
ATOM      2  C   UNL     1      43.637  71.117  34.236  1.00  0.00     0.006 C 
BRANCH   2   3
ATOM      3  C   UNL     1      44.850  70.180  34.142  1.00  0.00     0.053 C 
BRANCH   3   4
ATOM      4  C   UNL     1      44.460  68.746  34.330  1.00  0.00     0.041 C 
ATOM      5  O   UNL     1      44.943  67.856  33.581  1.00  0.00    -0.550 OA
ATOM      6  O   UNL     1      43.591  68.389  35.352  1.00  0.00    -0.550 OA
ENDBRANCH   3   4
ENDBRANCH   2   3
ENDBRANCH   1   2
BRANCH   1   7
ATOM      7  C   UNL     1      44.464  72.089  32.053  1.00  0.00     0.000 C 
BRANCH   7   8
ATOM      8  C   UNL     1      44.313  71.676  30.582  1.00  0.00     0.004 C 
BRANCH   8   9
ATOM      9  C   UNL     1      45.596  71.047  30.023  1.00  0.00     0.027 C 
BRANCH   9  10
ATOM     10  C   UNL     1      45.850  69.688  30.621  1.00  0.00    -0.035 C 
ATOM     11  C   UNL     1      47.065  69.315  31.033  1.00  0.00     0.004 C 
ENDBRANCH   9  10
ENDBRANCH   8   9
ENDBRANCH   7   8
ENDBRANCH   1   7
TORSDOF 7
ENDMDL
MODEL 8
REMARK VINA RESULT:    -2.977     13.090     14.718
REMARK INTER + INTRA:          -4.629
REMARK INTER:                  -3.918
REMARK INTRA:                  -0.711
REMARK UNBOUND:                -0.433
REMARK SMILES C=CCCCCCCC(=O)[O-]
REMARK SMILES IDX 6 1 7 2 8 3 9 4 10 5 11 6 5 7 4 8 3 9 2 10 1 11
REMARK H PARENT
REMARK Flexibility Score: inf
ROOT
ATOM      1  C   UNL     1      44.146  71.690  30.723  1.00  0.00     0.000 C 
ENDROOT
BRANCH   1   2
ATOM      2  C   UNL     1      45.389  71.247  29.940  1.00  0.00     0.006 C 
BRANCH   2   3
ATOM      3  C   UNL     1      46.585  70.960  30.860  1.00  0.00     0.053 C 
BRANCH   3   4
ATOM      4  C   UNL     1      46.870  69.493  30.960  1.00  0.00     0.041 C 
ATOM      5  O   UNL     1      45.984  68.654  30.650  1.00  0.00    -0.550 OA
ATOM      6  O   UNL     1      48.124  69.054  31.363  1.00  0.00    -0.550 OA
ENDBRANCH   3   4
ENDBRANCH   2   3
ENDBRANCH   1   2
BRANCH   1   7
ATOM      7  C   UNL     1      44.510  72.074  32.162  1.00  0.00     0.000 C 
BRANCH   7   8
ATOM      8  C   UNL     1      43.277  72.021  33.075  1.00  0.00     0.004 C 
BRANCH   8   9
ATOM      9  C   UNL     1      43.364  70.883  34.099  1.00  0.00     0.027 C 
BRANCH   9  10
ATOM     10  C   UNL     1      44.644  70.103  33.951  1.00  0.00    -0.035 C 
ATOM     11  C   UNL     1      44.660  68.767  33.956  1.00  0.00     0.004 C 
ENDBRANCH   9  10
ENDBRANCH   8   9
ENDBRANCH   7   8
ENDBRANCH   1   7
TORSDOF 7
ENDMDL
MODEL 9
REMARK VINA RESULT:    -2.909     12.415     13.695
REMARK INTER + INTRA:          -4.533
REMARK INTER:                  -3.887
REMARK INTRA:                  -0.646
REMARK UNBOUND:                -0.433
REMARK SMILES C=CCCCCCCC(=O)[O-]
REMARK SMILES IDX 6 1 7 2 8 3 9 4 10 5 11 6 5 7 4 8 3 9 2 10 1 11
REMARK H PARENT
REMARK Flexibility Score: inf
ROOT
ATOM      1  C   UNL     1      47.006  68.652  32.088  1.00  0.00     0.000 C 
ENDROOT
BRANCH   1   2
ATOM      2  C   UNL     1      46.267  69.173  33.328  1.00  0.00     0.006 C 
BRANCH   2   3
ATOM      3  C   UNL     1      44.949  68.425  33.576  1.00  0.00     0.053 C 
BRANCH   3   4
ATOM      4  C   UNL     1      44.273  68.890  34.828  1.00  0.00     0.041 C 
ATOM      5  O   UNL     1      43.801  70.056  34.898  1.00  0.00    -0.550 OA
ATOM      6  O   UNL     1      44.135  68.026  35.907  1.00  0.00    -0.550 OA
ENDBRANCH   3   4
ENDBRANCH   2   3
ENDBRANCH   1   2
BRANCH   1   7
ATOM      7  C   UNL     1      46.341  69.151  30.800  1.00  0.00     0.000 C 
BRANCH   7   8
ATOM      8  C   UNL     1      46.390  70.683  30.713  1.00  0.00     0.004 C 
BRANCH   8   9
ATOM      9  C   UNL     1      45.228  71.253  29.889  1.00  0.00     0.027 C 
BRANCH   9  10
ATOM     10  C   UNL     1      44.070  71.648  30.767  1.00  0.00    -0.035 C 
ATOM     11  C   UNL     1      44.247  72.053  32.028  1.00  0.00     0.004 C 
ENDBRANCH   9  10
ENDBRANCH   8   9
ENDBRANCH   7   8
ENDBRANCH   1   7
TORSDOF 7
ENDMDL
