MODEL 1
REMARK VINA RESULT:    -3.708      0.000      0.000
REMARK INTER + INTRA:          -6.934
REMARK INTER:                  -5.875
REMARK INTRA:                  -1.058
REMARK UNBOUND:                -1.058
REMARK SMILES CCCCCCCCCCCC(=O)[O-]
REMARK SMILES IDX 7 1 8 2 9 3 10 4 11 5 12 6 13 7 14 8 6 9 5 10 4 11 3 12 2 13
REMARK SMILES IDX 1 14
REMARK H PARENT
REMARK Flexibility Score: inf
ROOT
ATOM      1  C   UNL     1      26.383 -13.552  -0.332  1.00  0.00     0.000 C 
ENDROOT
BRANCH   1   2
ATOM      2  C   UNL     1      27.217 -13.997  -1.545  1.00  0.00     0.000 C 
BRANCH   2   3
ATOM      3  C   UNL     1      28.048 -15.276  -1.328  1.00  0.00     0.000 C 
BRANCH   3   4
ATOM      4  C   UNL     1      28.423 -15.532   0.147  1.00  0.00     0.006 C 
BRANCH   4   5
ATOM      5  C   UNL     1      29.850 -15.072   0.474  1.00  0.00     0.053 C 
BRANCH   5   6
ATOM      6  C   UNL     1      29.826 -13.762   1.193  1.00  0.00     0.041 C 
ATOM      7  O   UNL     1      30.699 -12.888   0.948  1.00  0.00    -0.550 OA
ATOM      8  O   UNL     1      28.869 -13.522   2.171  1.00  0.00    -0.550 OA
ENDBRANCH   5   6
ENDBRANCH   4   5
ENDBRANCH   3   4
ENDBRANCH   2   3
ENDBRANCH   1   2
BRANCH   1   9
ATOM      9  C   UNL     1      25.016 -12.974  -0.730  1.00  0.00     0.000 C 
BRANCH   9  10
ATOM     10  C   UNL     1      24.183 -14.013  -1.490  1.00  0.00    -0.000 C 
BRANCH  10  11
ATOM     11  C   UNL     1      23.813 -13.507  -2.889  1.00  0.00    -0.000 C 
BRANCH  11  12
ATOM     12  C   UNL     1      24.081 -14.583  -3.951  1.00  0.00    -0.000 C 
BRANCH  12  13
ATOM     13  C   UNL     1      24.012 -16.007  -3.378  1.00  0.00    -0.003 C 
ATOM     14  C   UNL     1      25.221 -16.859  -3.766  1.00  0.00     0.004 C 
ENDBRANCH  12  13
ENDBRANCH  11  12
ENDBRANCH  10  11
ENDBRANCH   9  10
ENDBRANCH   1   9
TORSDOF 10
ENDMDL
MODEL 2
REMARK VINA RESULT:    -3.670      1.183      2.930
REMARK INTER + INTRA:          -6.874
REMARK INTER:                  -5.934
REMARK INTRA:                  -0.940
REMARK UNBOUND:                -1.058
REMARK SMILES CCCCCCCCCCCC(=O)[O-]
REMARK SMILES IDX 7 1 8 2 9 3 10 4 11 5 12 6 13 7 14 8 6 9 5 10 4 11 3 12 2 13
REMARK SMILES IDX 1 14
REMARK H PARENT
REMARK Flexibility Score: inf
ROOT
ATOM      1  C   UNL     1      26.631 -15.800  -3.938  1.00  0.00     0.000 C 
ENDROOT
BRANCH   1   2
ATOM      2  C   UNL     1      27.638 -15.859  -2.777  1.00  0.00     0.000 C 
BRANCH   2   3
ATOM      3  C   UNL     1      27.746 -14.567  -1.944  1.00  0.00     0.000 C 
BRANCH   3   4
ATOM      4  C   UNL     1      27.890 -14.814  -0.428  1.00  0.00     0.006 C 
BRANCH   4   5
ATOM      5  C   UNL     1      27.585 -13.557   0.399  1.00  0.00     0.053 C 
BRANCH   5   6
ATOM      6  C   UNL     1      28.769 -13.174   1.226  1.00  0.00     0.041 C 
ATOM      7  O   UNL     1      29.022 -13.790   2.295  1.00  0.00    -0.550 OA
ATOM      8  O   UNL     1      29.568 -12.104   0.843  1.00  0.00    -0.550 OA
ENDBRANCH   5   6
ENDBRANCH   4   5
ENDBRANCH   3   4
ENDBRANCH   2   3
ENDBRANCH   1   2
BRANCH   1   9
ATOM      9  C   UNL     1      25.558 -16.896  -3.851  1.00  0.00     0.000 C 
BRANCH   9  10
ATOM     10  C   UNL     1      24.154 -16.300  -4.008  1.00  0.00    -0.000 C 
BRANCH  10  11
ATOM     11  C   UNL     1      23.248 -16.708  -2.840  1.00  0.00    -0.000 C 
BRANCH  11  12
ATOM     12  C   UNL     1      22.923 -15.501  -1.949  1.00  0.00    -0.000 C 
BRANCH  12  13
ATOM     13  C   UNL     1      23.631 -14.218  -2.412  1.00  0.00    -0.003 C 
ATOM     14  C   UNL     1      24.369 -13.509  -1.277  1.00  0.00     0.004 C 
ENDBRANCH  12  13
ENDBRANCH  11  12
ENDBRANCH  10  11
ENDBRANCH   9  10
ENDBRANCH   1   9
TORSDOF 10
ENDMDL
MODEL 3
REMARK VINA RESULT:    -3.609      1.827      3.524
REMARK INTER + INTRA:          -6.778
REMARK INTER:                  -5.606
REMARK INTRA:                  -1.172
REMARK UNBOUND:                -1.058
REMARK SMILES CCCCCCCCCCCC(=O)[O-]
REMARK SMILES IDX 7 1 8 2 9 3 10 4 11 5 12 6 13 7 14 8 6 9 5 10 4 11 3 12 2 13
REMARK SMILES IDX 1 14
REMARK H PARENT
REMARK Flexibility Score: inf
ROOT
ATOM      1  C   UNL     1      24.811 -15.734  -4.027  1.00  0.00     0.000 C 
ENDROOT
BRANCH   1   2
ATOM      2  C   UNL     1      26.145 -16.450  -3.757  1.00  0.00     0.000 C 
BRANCH   2   3
ATOM      3  C   UNL     1      27.403 -15.612  -4.055  1.00  0.00     0.000 C 
BRANCH   3   4
ATOM      4  C   UNL     1      28.677 -16.131  -3.355  1.00  0.00     0.006 C 
BRANCH   4   5
ATOM      5  C   UNL     1      28.411 -16.566  -1.908  1.00  0.00     0.053 C 
BRANCH   5   6
ATOM      6  C   UNL     1      29.402 -15.937  -0.982  1.00  0.00     0.041 C 
ATOM      7  O   UNL     1      30.046 -14.916  -1.340  1.00  0.00    -0.550 OA
ATOM      8  O   UNL     1      29.653 -16.507   0.260  1.00  0.00    -0.550 OA
ENDBRANCH   5   6
ENDBRANCH   4   5
ENDBRANCH   3   4
ENDBRANCH   2   3
ENDBRANCH   1   2
BRANCH   1   9
ATOM      9  C   UNL     1      23.660 -16.276  -3.166  1.00  0.00     0.000 C 
BRANCH   9  10
ATOM     10  C   UNL     1      23.226 -15.242  -2.119  1.00  0.00    -0.000 C 
BRANCH  10  11
ATOM     11  C   UNL     1      23.970 -13.916  -2.314  1.00  0.00    -0.000 C 
BRANCH  11  12
ATOM     12  C   UNL     1      24.694 -13.498  -1.026  1.00  0.00    -0.000 C 
BRANCH  12  13
ATOM     13  C   UNL     1      26.220 -13.647  -1.132  1.00  0.00    -0.003 C 
ATOM     14  C   UNL     1      26.923 -13.501   0.217  1.00  0.00     0.004 C 
ENDBRANCH  12  13
ENDBRANCH  11  12
ENDBRANCH  10  11
ENDBRANCH   9  10
ENDBRANCH   1   9
TORSDOF 10
ENDMDL
MODEL 4
REMARK VINA RESULT:    -3.593      3.499      6.788
REMARK INTER + INTRA:          -6.752
REMARK INTER:                  -6.249
REMARK INTRA:                  -0.503
REMARK UNBOUND:                -1.058
REMARK SMILES CCCCCCCCCCCC(=O)[O-]
REMARK SMILES IDX 7 1 8 2 9 3 10 4 11 5 12 6 13 7 14 8 6 9 5 10 4 11 3 12 2 13
REMARK SMILES IDX 1 14
REMARK H PARENT
REMARK Flexibility Score: inf
ROOT
ATOM      1  C   UNL     1      26.848 -13.467  -0.622  1.00  0.00     0.000 C 
ENDROOT
BRANCH   1   2
ATOM      2  C   UNL     1      25.388 -13.070  -0.346  1.00  0.00     0.000 C 
BRANCH   2   3
ATOM      3  C   UNL     1      24.355 -13.687  -1.309  1.00  0.00     0.000 C 
BRANCH   3   4
ATOM      4  C   UNL     1      24.959 -14.169  -2.645  1.00  0.00     0.006 C 
BRANCH   4   5
ATOM      5  C   UNL     1      23.920 -14.858  -3.539  1.00  0.00     0.053 C 
BRANCH   5   6
ATOM      6  C   UNL     1      23.899 -16.330  -3.278  1.00  0.00     0.041 C 
ATOM      7  O   UNL     1      22.986 -16.836  -2.574  1.00  0.00    -0.550 OA
ATOM      8  O   UNL     1      24.915 -17.139  -3.770  1.00  0.00    -0.550 OA
ENDBRANCH   5   6
ENDBRANCH   4   5
ENDBRANCH   3   4
ENDBRANCH   2   3
ENDBRANCH   1   2
BRANCH   1   9
ATOM      9  C   UNL     1      27.577 -13.960   0.637  1.00  0.00     0.000 C 
BRANCH   9  10
ATOM     10  C   UNL     1      29.042 -13.504   0.635  1.00  0.00    -0.000 C 
BRANCH  10  11
ATOM     11  C   UNL     1      29.369 -12.694   1.895  1.00  0.00    -0.000 C 
BRANCH  11  12
ATOM     12  C   UNL     1      30.083 -11.384   1.535  1.00  0.00    -0.000 C 
BRANCH  12  13
ATOM     13  C   UNL     1      30.748 -11.435   0.151  1.00  0.00    -0.003 C 
ATOM     14  C   UNL     1      30.912 -10.051  -0.477  1.00  0.00     0.004 C 
ENDBRANCH  12  13
ENDBRANCH  11  12
ENDBRANCH  10  11
ENDBRANCH   9  10
ENDBRANCH   1   9
TORSDOF 10
ENDMDL
MODEL 5
REMARK VINA RESULT:    -3.576      3.327      5.529
REMARK INTER + INTRA:          -6.725
REMARK INTER:                  -5.637
REMARK INTRA:                  -1.088
REMARK UNBOUND:                -1.058
REMARK SMILES CCCCCCCCCCCC(=O)[O-]
REMARK SMILES IDX 7 1 8 2 9 3 10 4 11 5 12 6 13 7 14 8 6 9 5 10 4 11 3 12 2 13
REMARK SMILES IDX 1 14
REMARK H PARENT
REMARK Flexibility Score: inf
ROOT
ATOM      1  C   UNL     1      27.925 -13.561   0.152  1.00  0.00     0.000 C 
ENDROOT
BRANCH   1   2
ATOM      2  C   UNL     1      26.807 -13.500  -0.903  1.00  0.00     0.000 C 
BRANCH   2   3
ATOM      3  C   UNL     1      25.416 -13.130  -0.354  1.00  0.00     0.000 C 
BRANCH   3   4
ATOM      4  C   UNL     1      24.252 -13.522  -1.289  1.00  0.00     0.006 C 
BRANCH   4   5
ATOM      5  C   UNL     1      24.736 -14.263  -2.543  1.00  0.00     0.053 C 
BRANCH   5   6
ATOM      6  C   UNL     1      23.861 -15.443  -2.824  1.00  0.00     0.041 C 
ATOM      7  O   UNL     1      22.849 -15.666  -2.110  1.00  0.00    -0.550 OA
ATOM      8  O   UNL     1      24.191 -16.325  -3.845  1.00  0.00    -0.550 OA
ENDBRANCH   5   6
ENDBRANCH   4   5
ENDBRANCH   3   4
ENDBRANCH   2   3
ENDBRANCH   1   2
BRANCH   1   9
ATOM      9  C   UNL     1      28.142 -14.977   0.706  1.00  0.00     0.000 C 
BRANCH   9  10
ATOM     10  C   UNL     1      29.537 -15.500   0.338  1.00  0.00    -0.000 C 
BRANCH  10  11
ATOM     11  C   UNL     1      29.727 -15.537  -1.183  1.00  0.00    -0.000 C 
BRANCH  11  12
ATOM     12  C   UNL     1      29.068 -16.785  -1.789  1.00  0.00    -0.000 C 
BRANCH  12  13
ATOM     13  C   UNL     1      27.894 -16.439  -2.719  1.00  0.00    -0.003 C 
ATOM     14  C   UNL     1      28.254 -15.373  -3.753  1.00  0.00     0.004 C 
ENDBRANCH  12  13
ENDBRANCH  11  12
ENDBRANCH  10  11
ENDBRANCH   9  10
ENDBRANCH   1   9
TORSDOF 10
ENDMDL
MODEL 6
REMARK VINA RESULT:    -3.477      2.915      5.893
REMARK INTER + INTRA:          -6.568
REMARK INTER:                  -5.769
REMARK INTRA:                  -0.800
REMARK UNBOUND:                -1.058
REMARK SMILES CCCCCCCCCCCC(=O)[O-]
REMARK SMILES IDX 7 1 8 2 9 3 10 4 11 5 12 6 13 7 14 8 6 9 5 10 4 11 3 12 2 13
REMARK SMILES IDX 1 14
REMARK H PARENT
REMARK Flexibility Score: inf
ROOT
ATOM      1  C   UNL     1      25.061 -13.126  -0.363  1.00  0.00     0.000 C 
ENDROOT
BRANCH   1   2
ATOM      2  C   UNL     1      24.673 -13.520  -1.798  1.00  0.00     0.000 C 
BRANCH   2   3
ATOM      3  C   UNL     1      23.691 -14.702  -1.904  1.00  0.00     0.000 C 
BRANCH   3   4
ATOM      4  C   UNL     1      23.673 -15.375  -3.293  1.00  0.00     0.006 C 
BRANCH   4   5
ATOM      5  C   UNL     1      24.989 -15.174  -4.055  1.00  0.00     0.053 C 
BRANCH   5   6
ATOM      6  C   UNL     1      25.927 -16.307  -3.789  1.00  0.00     0.041 C 
ATOM      7  O   UNL     1      27.170 -16.109  -3.767  1.00  0.00    -0.550 OA
ATOM      8  O   UNL     1      25.432 -17.593  -3.615  1.00  0.00    -0.550 OA
ENDBRANCH   5   6
ENDBRANCH   4   5
ENDBRANCH   3   4
ENDBRANCH   2   3
ENDBRANCH   1   2
BRANCH   1   9
ATOM      9  C   UNL     1      26.548 -13.369  -0.062  1.00  0.00     0.000 C 
BRANCH   9  10
ATOM     10  C   UNL     1      27.299 -13.800  -1.329  1.00  0.00    -0.000 C 
BRANCH  10  11
ATOM     11  C   UNL     1      28.815 -13.790  -1.101  1.00  0.00    -0.000 C 
BRANCH  11  12
ATOM     12  C   UNL     1      29.150 -14.039   0.377  1.00  0.00    -0.000 C 
BRANCH  12  13
ATOM     13  C   UNL     1      30.057 -12.949   0.969  1.00  0.00    -0.003 C 
ATOM     14  C   UNL     1      29.551 -12.424   2.313  1.00  0.00     0.004 C 
ENDBRANCH  12  13
ENDBRANCH  11  12
ENDBRANCH  10  11
ENDBRANCH   9  10
ENDBRANCH   1   9
TORSDOF 10
ENDMDL
MODEL 7
REMARK VINA RESULT:    -3.456      3.231      6.239
REMARK INTER + INTRA:          -6.535
REMARK INTER:                  -5.921
REMARK INTRA:                  -0.613
REMARK UNBOUND:                -1.058
REMARK SMILES CCCCCCCCCCCC(=O)[O-]
REMARK SMILES IDX 7 1 8 2 9 3 10 4 11 5 12 6 13 7 14 8 6 9 5 10 4 11 3 12 2 13
REMARK SMILES IDX 1 14
REMARK H PARENT
REMARK Flexibility Score: inf
ROOT
ATOM      1  C   UNL     1      26.582 -13.879  -1.053  1.00  0.00     0.000 C 
ENDROOT
BRANCH   1   2
ATOM      2  C   UNL     1      25.199 -13.211  -1.141  1.00  0.00     0.000 C 
BRANCH   2   3
ATOM      3  C   UNL     1      24.055 -14.142  -1.583  1.00  0.00     0.000 C 
BRANCH   3   4
ATOM      4  C   UNL     1      23.528 -13.852  -3.005  1.00  0.00     0.006 C 
BRANCH   4   5
ATOM      5  C   UNL     1      24.325 -14.594  -4.085  1.00  0.00     0.053 C 
BRANCH   5   6
ATOM      6  C   UNL     1      24.419 -16.050  -3.759  1.00  0.00     0.041 C 
ATOM      7  O   UNL     1      25.543 -16.591  -3.589  1.00  0.00    -0.550 OA
ATOM      8  O   UNL     1      23.266 -16.823  -3.691  1.00  0.00    -0.550 OA
ENDBRANCH   5   6
ENDBRANCH   4   5
ENDBRANCH   3   4
ENDBRANCH   2   3
ENDBRANCH   1   2
BRANCH   1   9
ATOM      9  C   UNL     1      27.327 -13.534   0.245  1.00  0.00     0.000 C 
BRANCH   9  10
ATOM     10  C   UNL     1      28.094 -14.752   0.775  1.00  0.00    -0.000 C 
BRANCH  10  11
ATOM     11  C   UNL     1      29.523 -14.371   1.179  1.00  0.00    -0.000 C 
BRANCH  11  12
ATOM     12  C   UNL     1      30.552 -15.245   0.447  1.00  0.00    -0.000 C 
BRANCH  12  13
ATOM     13  C   UNL     1      29.980 -16.611   0.037  1.00  0.00    -0.003 C 
ATOM     14  C   UNL     1      30.886 -17.775   0.438  1.00  0.00     0.004 C 
ENDBRANCH  12  13
ENDBRANCH  11  12
ENDBRANCH  10  11
ENDBRANCH   9  10
ENDBRANCH   1   9
TORSDOF 10
ENDMDL
MODEL 8
REMARK VINA RESULT:    -3.431      1.461      2.506
REMARK INTER + INTRA:          -6.495
REMARK INTER:                  -5.561
REMARK INTRA:                  -0.934
REMARK UNBOUND:                -1.058
REMARK SMILES CCCCCCCCCCCC(=O)[O-]
REMARK SMILES IDX 7 1 8 2 9 3 10 4 11 5 12 6 13 7 14 8 6 9 5 10 4 11 3 12 2 13
REMARK SMILES IDX 1 14
REMARK H PARENT
REMARK Flexibility Score: inf
ROOT
ATOM      1  C   UNL     1      28.223 -15.109  -0.976  1.00  0.00     0.000 C 
ENDROOT
BRANCH   1   2
ATOM      2  C   UNL     1      29.741 -14.941  -1.158  1.00  0.00     0.000 C 
BRANCH   2   3
ATOM      3  C   UNL     1      30.213 -13.488  -1.362  1.00  0.00     0.000 C 
BRANCH   3   4
ATOM      4  C   UNL     1      30.839 -12.854  -0.102  1.00  0.00     0.006 C 
BRANCH   4   5
ATOM      5  C   UNL     1      29.852 -11.948   0.646  1.00  0.00     0.053 C 
BRANCH   5   6
ATOM      6  C   UNL     1      29.564 -12.499   2.006  1.00  0.00     0.041 C 
ATOM      7  O   UNL     1      29.944 -11.880   3.034  1.00  0.00    -0.550 OA
ATOM      8  O   UNL     1      28.919 -13.722   2.139  1.00  0.00    -0.550 OA
ENDBRANCH   5   6
ENDBRANCH   4   5
ENDBRANCH   3   4
ENDBRANCH   2   3
ENDBRANCH   1   2
BRANCH   1   9
ATOM      9  C   UNL     1      27.431 -13.867  -1.414  1.00  0.00     0.000 C 
BRANCH   9  10
ATOM     10  C   UNL     1      26.365 -13.503  -0.374  1.00  0.00    -0.000 C 
BRANCH  10  11
ATOM     11  C   UNL     1      25.004 -13.262  -1.039  1.00  0.00    -0.000 C 
BRANCH  11  12
ATOM     12  C   UNL     1      24.853 -14.119  -2.304  1.00  0.00    -0.000 C 
BRANCH  12  13
ATOM     13  C   UNL     1      23.385 -14.437  -2.630  1.00  0.00    -0.003 C 
ATOM     14  C   UNL     1      22.894 -15.717  -1.954  1.00  0.00     0.004 C 
ENDBRANCH  12  13
ENDBRANCH  11  12
ENDBRANCH  10  11
ENDBRANCH   9  10
ENDBRANCH   1   9
TORSDOF 10
ENDMDL
MODEL 9
REMARK VINA RESULT:    -3.396      2.571      3.004
REMARK INTER + INTRA:          -6.440
REMARK INTER:                  -5.585
REMARK INTRA:                  -0.855
REMARK UNBOUND:                -1.058
REMARK SMILES CCCCCCCCCCCC(=O)[O-]
REMARK SMILES IDX 7 1 8 2 9 3 10 4 11 5 12 6 13 7 14 8 6 9 5 10 4 11 3 12 2 13
REMARK SMILES IDX 1 14
REMARK H PARENT
REMARK Flexibility Score: inf
ROOT
ATOM      1  C   UNL     1      27.107 -13.737   0.336  1.00  0.00     0.000 C 
ENDROOT
BRANCH   1   2
ATOM      2  C   UNL     1      28.612 -13.445   0.206  1.00  0.00     0.000 C 
BRANCH   2   3
ATOM      3  C   UNL     1      29.175 -13.563  -1.224  1.00  0.00     0.000 C 
BRANCH   3   4
ATOM      4  C   UNL     1      30.277 -14.633  -1.373  1.00  0.00     0.006 C 
BRANCH   4   5
ATOM      5  C   UNL     1      29.709 -16.058  -1.384  1.00  0.00     0.053 C 
BRANCH   5   6
ATOM      6  C   UNL     1      29.008 -16.332  -2.675  1.00  0.00     0.041 C 
ATOM      7  O   UNL     1      29.636 -16.262  -3.765  1.00  0.00    -0.550 OA
ATOM      8  O   UNL     1      27.649 -16.617  -2.682  1.00  0.00    -0.550 OA
ENDBRANCH   5   6
ENDBRANCH   4   5
ENDBRANCH   3   4
ENDBRANCH   2   3
ENDBRANCH   1   2
BRANCH   1   9
ATOM      9  C   UNL     1      26.371 -13.670  -1.011  1.00  0.00     0.000 C 
BRANCH   9  10
ATOM     10  C   UNL     1      24.939 -13.152  -0.826  1.00  0.00    -0.000 C 
BRANCH  10  11
ATOM     11  C   UNL     1      24.015 -13.682  -1.929  1.00  0.00    -0.000 C 
BRANCH  11  12
ATOM     12  C   UNL     1      24.776 -14.616  -2.881  1.00  0.00    -0.000 C 
BRANCH  12  13
ATOM     13  C   UNL     1      23.860 -15.655  -3.546  1.00  0.00    -0.003 C 
ATOM     14  C   UNL     1      23.072 -16.484  -2.532  1.00  0.00     0.004 C 
ENDBRANCH  12  13
ENDBRANCH  11  12
ENDBRANCH  10  11
ENDBRANCH   9  10
ENDBRANCH   1   9
TORSDOF 10
ENDMDL
