MODEL 1
REMARK VINA RESULT:     7.959      0.000      0.000
REMARK INTER + INTRA:          17.863
REMARK INTER:                  18.196
REMARK INTRA:                  -0.334
REMARK UNBOUND:                -0.334
REMARK SMILES CCCCCCCCCCCCCCCCCCCCCCCC(=O)[O-]
REMARK SMILES IDX 13 1 14 2 15 3 16 4 17 5 18 6 19 7 20 8 21 9 22 10 23 11
REMARK SMILES IDX 24 12 25 13 26 14 12 15 11 16 10 17 9 18 8 19 7 20 6 21 5 22
REMARK SMILES IDX 4 23 3 24 2 25 1 26
REMARK H PARENT
REMARK Flexibility Score: inf
ROOT
ATOM      1  C   UNL     1     -28.511 -20.690 -19.156  1.00  0.00     0.000 C 
ENDROOT
BRANCH   1   2
ATOM      2  C   UNL     1     -28.204 -22.054 -18.513  1.00  0.00     0.000 C 
BRANCH   2   3
ATOM      3  C   UNL     1     -28.422 -22.124 -16.987  1.00  0.00     0.000 C 
BRANCH   3   4
ATOM      4  C   UNL     1     -29.907 -22.085 -16.567  1.00  0.00     0.000 C 
BRANCH   4   5
ATOM      5  C   UNL     1     -30.086 -22.125 -15.039  1.00  0.00     0.000 C 
BRANCH   5   6
ATOM      6  C   UNL     1     -31.431 -21.526 -14.578  1.00  0.00     0.000 C 
BRANCH   6   7
ATOM      7  C   UNL     1     -31.300 -20.492 -13.444  1.00  0.00     0.000 C 
BRANCH   7   8
ATOM      8  C   UNL     1     -30.145 -19.483 -13.602  1.00  0.00     0.000 C 
BRANCH   8   9
ATOM      9  C   UNL     1     -29.219 -19.340 -12.375  1.00  0.00     0.000 C 
BRANCH   9  10
ATOM     10  C   UNL     1     -29.062 -17.909 -11.826  1.00  0.00     0.006 C 
BRANCH  10  11
ATOM     11  C   UNL     1     -30.076 -16.903 -12.400  1.00  0.00     0.053 C 
BRANCH  11  12
ATOM     12  C   UNL     1     -29.890 -15.517 -11.859  1.00  0.00     0.041 C 
ATOM     13  O   UNL     1     -30.850 -14.700 -11.866  1.00  0.00    -0.550 OA
ATOM     14  O   UNL     1     -28.646 -15.113 -11.389  1.00  0.00    -0.550 OA
ENDBRANCH  11  12
ENDBRANCH  10  11
ENDBRANCH   9  10
ENDBRANCH   8   9
ENDBRANCH   7   8
ENDBRANCH   6   7
ENDBRANCH   5   6
ENDBRANCH   4   5
ENDBRANCH   3   4
ENDBRANCH   2   3
ENDBRANCH   1   2
BRANCH   1  15
ATOM     15  C   UNL     1     -28.151 -20.572 -20.650  1.00  0.00     0.000 C 
BRANCH  15  16
ATOM     16  C   UNL     1     -27.559 -21.861 -21.260  1.00  0.00     0.000 C 
BRANCH  16  17
ATOM     17  C   UNL     1     -27.268 -21.717 -22.765  1.00  0.00     0.000 C 
BRANCH  17  18
ATOM     18  C   UNL     1     -28.528 -21.890 -23.628  1.00  0.00    -0.000 C 
BRANCH  18  19
ATOM     19  C   UNL     1     -29.009 -20.562 -24.239  1.00  0.00    -0.000 C 
BRANCH  19  20
ATOM     20  C   UNL     1     -29.309 -20.691 -25.742  1.00  0.00    -0.000 C 
BRANCH  20  21
ATOM     21  C   UNL     1     -30.805 -20.520 -26.057  1.00  0.00    -0.000 C 
BRANCH  21  22
ATOM     22  C   UNL     1     -31.627 -20.061 -24.839  1.00  0.00    -0.000 C 
BRANCH  22  23
ATOM     23  C   UNL     1     -31.836 -21.129 -23.749  1.00  0.00    -0.000 C 
BRANCH  23  24
ATOM     24  C   UNL     1     -32.217 -20.526 -22.385  1.00  0.00    -0.000 C 
BRANCH  24  25
ATOM     25  C   UNL     1     -32.133 -18.991 -22.373  1.00  0.00    -0.003 C 
ATOM     26  C   UNL     1     -33.325 -18.326 -23.060  1.00  0.00     0.004 C 
ENDBRANCH  24  25
ENDBRANCH  23  24
ENDBRANCH  22  23
ENDBRANCH  21  22
ENDBRANCH  20  21
ENDBRANCH  19  20
ENDBRANCH  18  19
ENDBRANCH  17  18
ENDBRANCH  16  17
ENDBRANCH  15  16
ENDBRANCH   1  15
TORSDOF 22
ENDMDL
MODEL 2
REMARK VINA RESULT:     8.179      1.324      2.004
REMARK INTER + INTRA:          18.365
REMARK INTER:                  16.712
REMARK INTRA:                   1.653
REMARK UNBOUND:                -0.334
REMARK SMILES CCCCCCCCCCCCCCCCCCCCCCCC(=O)[O-]
REMARK SMILES IDX 13 1 14 2 15 3 16 4 17 5 18 6 19 7 20 8 21 9 22 10 23 11
REMARK SMILES IDX 24 12 25 13 26 14 12 15 11 16 10 17 9 18 8 19 7 20 6 21 5 22
REMARK SMILES IDX 4 23 3 24 2 25 1 26
REMARK H PARENT
REMARK Flexibility Score: inf
ROOT
ATOM      1  C   UNL     1     -28.235 -19.699 -19.626  1.00  0.00     0.000 C 
ENDROOT
BRANCH   1   2
ATOM      2  C   UNL     1     -27.196 -20.597 -18.933  1.00  0.00     0.000 C 
BRANCH   2   3
ATOM      3  C   UNL     1     -27.779 -21.789 -18.147  1.00  0.00     0.000 C 
BRANCH   3   4
ATOM      4  C   UNL     1     -29.293 -22.000 -18.366  1.00  0.00     0.000 C 
BRANCH   4   5
ATOM      5  C   UNL     1     -30.069 -22.112 -17.041  1.00  0.00     0.000 C 
BRANCH   5   6
ATOM      6  C   UNL     1     -29.146 -22.109 -15.805  1.00  0.00     0.000 C 
BRANCH   6   7
ATOM      7  C   UNL     1     -29.878 -21.824 -14.479  1.00  0.00     0.000 C 
BRANCH   7   8
ATOM      8  C   UNL     1     -31.292 -21.227 -14.622  1.00  0.00     0.000 C 
BRANCH   8   9
ATOM      9  C   UNL     1     -31.620 -20.066 -13.658  1.00  0.00     0.000 C 
BRANCH   9  10
ATOM     10  C   UNL     1     -30.457 -19.098 -13.368  1.00  0.00     0.006 C 
BRANCH  10  11
ATOM     11  C   UNL     1     -29.588 -19.505 -12.164  1.00  0.00     0.053 C 
BRANCH  11  12
ATOM     12  C   UNL     1     -28.961 -18.330 -11.477  1.00  0.00     0.041 C 
ATOM     13  O   UNL     1     -28.666 -17.295 -12.135  1.00  0.00    -0.550 OA
ATOM     14  O   UNL     1     -28.660 -18.392 -10.121  1.00  0.00    -0.550 OA
ENDBRANCH  11  12
ENDBRANCH  10  11
ENDBRANCH   9  10
ENDBRANCH   8   9
ENDBRANCH   7   8
ENDBRANCH   6   7
ENDBRANCH   5   6
ENDBRANCH   4   5
ENDBRANCH   3   4
ENDBRANCH   2   3
ENDBRANCH   1   2
BRANCH   1  15
ATOM     15  C   UNL     1     -29.514 -20.418 -20.100  1.00  0.00     0.000 C 
BRANCH  15  16
ATOM     16  C   UNL     1     -29.290 -21.394 -21.276  1.00  0.00     0.000 C 
BRANCH  16  17
ATOM     17  C   UNL     1     -27.798 -21.589 -21.599  1.00  0.00     0.000 C 
BRANCH  17  18
ATOM     18  C   UNL     1     -27.484 -21.375 -23.088  1.00  0.00    -0.000 C 
BRANCH  18  19
ATOM     19  C   UNL     1     -28.742 -21.440 -23.970  1.00  0.00    -0.000 C 
BRANCH  19  20
ATOM     20  C   UNL     1     -28.876 -20.206 -24.880  1.00  0.00    -0.000 C 
BRANCH  20  21
ATOM     21  C   UNL     1     -30.064 -20.322 -25.851  1.00  0.00    -0.000 C 
BRANCH  21  22
ATOM     22  C   UNL     1     -31.061 -21.425 -25.452  1.00  0.00    -0.000 C 
BRANCH  22  23
ATOM     23  C   UNL     1     -31.610 -21.325 -24.017  1.00  0.00    -0.000 C 
BRANCH  23  24
ATOM     24  C   UNL     1     -32.463 -20.064 -23.789  1.00  0.00    -0.000 C 
BRANCH  24  25
ATOM     25  C   UNL     1     -32.758 -19.811 -22.302  1.00  0.00    -0.003 C 
ATOM     26  C   UNL     1     -32.551 -18.352 -21.895  1.00  0.00     0.004 C 
ENDBRANCH  24  25
ENDBRANCH  23  24
ENDBRANCH  22  23
ENDBRANCH  21  22
ENDBRANCH  20  21
ENDBRANCH  19  20
ENDBRANCH  18  19
ENDBRANCH  17  18
ENDBRANCH  16  17
ENDBRANCH  15  16
ENDBRANCH   1  15
TORSDOF 22
ENDMDL
MODEL 3
REMARK VINA RESULT:     9.365      1.346      2.830
REMARK INTER + INTRA:          21.075
REMARK INTER:                  21.793
REMARK INTRA:                  -0.718
REMARK UNBOUND:                -0.334
REMARK SMILES CCCCCCCCCCCCCCCCCCCCCCCC(=O)[O-]
REMARK SMILES IDX 13 1 14 2 15 3 16 4 17 5 18 6 19 7 20 8 21 9 22 10 23 11
REMARK SMILES IDX 24 12 25 13 26 14 12 15 11 16 10 17 9 18 8 19 7 20 6 21 5 22
REMARK SMILES IDX 4 23 3 24 2 25 1 26
REMARK H PARENT
REMARK Flexibility Score: inf
ROOT
ATOM      1  C   UNL     1     -27.848 -20.327 -21.699  1.00  0.00     0.000 C 
ENDROOT
BRANCH   1   2
ATOM      2  C   UNL     1     -28.156 -21.791 -21.342  1.00  0.00     0.000 C 
BRANCH   2   3
ATOM      3  C   UNL     1     -28.204 -22.103 -19.832  1.00  0.00     0.000 C 
BRANCH   3   4
ATOM      4  C   UNL     1     -27.665 -20.962 -18.942  1.00  0.00     0.000 C 
BRANCH   4   5
ATOM      5  C   UNL     1     -28.487 -20.782 -17.654  1.00  0.00     0.000 C 
BRANCH   5   6
ATOM      6  C   UNL     1     -28.919 -22.124 -17.027  1.00  0.00     0.000 C 
BRANCH   6   7
ATOM      7  C   UNL     1     -30.181 -22.026 -16.148  1.00  0.00     0.000 C 
BRANCH   7   8
ATOM      8  C   UNL     1     -29.924 -21.739 -14.655  1.00  0.00     0.000 C 
BRANCH   8   9
ATOM      9  C   UNL     1     -31.100 -21.090 -13.895  1.00  0.00     0.000 C 
BRANCH   9  10
ATOM     10  C   UNL     1     -30.913 -19.605 -13.528  1.00  0.00     0.006 C 
BRANCH  10  11
ATOM     11  C   UNL     1     -29.459 -19.219 -13.199  1.00  0.00     0.053 C 
BRANCH  11  12
ATOM     12  C   UNL     1     -29.348 -18.376 -11.964  1.00  0.00     0.041 C 
ATOM     13  O   UNL     1     -29.394 -18.913 -10.824  1.00  0.00    -0.550 OA
ATOM     14  O   UNL     1     -29.239 -16.995 -12.070  1.00  0.00    -0.550 OA
ENDBRANCH  11  12
ENDBRANCH  10  11
ENDBRANCH   9  10
ENDBRANCH   8   9
ENDBRANCH   7   8
ENDBRANCH   6   7
ENDBRANCH   5   6
ENDBRANCH   4   5
ENDBRANCH   3   4
ENDBRANCH   2   3
ENDBRANCH   1   2
BRANCH   1  15
ATOM     15  C   UNL     1     -27.272 -20.101 -23.111  1.00  0.00     0.000 C 
BRANCH  15  16
ATOM     16  C   UNL     1     -27.774 -21.111 -24.166  1.00  0.00     0.000 C 
BRANCH  16  17
ATOM     17  C   UNL     1     -29.273 -21.421 -24.013  1.00  0.00     0.000 C 
BRANCH  17  18
ATOM     18  C   UNL     1     -29.892 -21.996 -25.297  1.00  0.00    -0.000 C 
BRANCH  18  19
ATOM     19  C   UNL     1     -30.819 -20.992 -26.003  1.00  0.00    -0.000 C 
BRANCH  19  20
ATOM     20  C   UNL     1     -30.215 -19.578 -26.049  1.00  0.00    -0.000 C 
BRANCH  20  21
ATOM     21  C   UNL     1     -30.584 -18.744 -24.810  1.00  0.00    -0.000 C 
BRANCH  21  22
ATOM     22  C   UNL     1     -31.843 -19.260 -24.091  1.00  0.00    -0.000 C 
BRANCH  22  23
ATOM     23  C   UNL     1     -32.141 -18.599 -22.732  1.00  0.00    -0.000 C 
BRANCH  23  24
ATOM     24  C   UNL     1     -32.461 -19.622 -21.627  1.00  0.00    -0.000 C 
BRANCH  24  25
ATOM     25  C   UNL     1     -32.485 -21.067 -22.148  1.00  0.00    -0.003 C 
ATOM     26  C   UNL     1     -31.364 -21.927 -21.565  1.00  0.00     0.004 C 
ENDBRANCH  24  25
ENDBRANCH  23  24
ENDBRANCH  22  23
ENDBRANCH  21  22
ENDBRANCH  20  21
ENDBRANCH  19  20
ENDBRANCH  18  19
ENDBRANCH  17  18
ENDBRANCH  16  17
ENDBRANCH  15  16
ENDBRANCH   1  15
TORSDOF 22
ENDMDL
MODEL 4
REMARK VINA RESULT:     9.524      1.309      3.154
REMARK INTER + INTRA:          21.440
REMARK INTER:                  21.676
REMARK INTRA:                  -0.236
REMARK UNBOUND:                -0.334
REMARK SMILES CCCCCCCCCCCCCCCCCCCCCCCC(=O)[O-]
REMARK SMILES IDX 13 1 14 2 15 3 16 4 17 5 18 6 19 7 20 8 21 9 22 10 23 11
REMARK SMILES IDX 24 12 25 13 26 14 12 15 11 16 10 17 9 18 8 19 7 20 6 21 5 22
REMARK SMILES IDX 4 23 3 24 2 25 1 26
REMARK H PARENT
REMARK Flexibility Score: inf
ROOT
ATOM      1  C   UNL     1     -29.165 -19.360 -19.420  1.00  0.00     0.000 C 
ENDROOT
BRANCH   1   2
ATOM      2  C   UNL     1     -27.676 -19.745 -19.474  1.00  0.00     0.000 C 
BRANCH   2   3
ATOM      3  C   UNL     1     -27.341 -21.150 -18.934  1.00  0.00     0.000 C 
BRANCH   3   4
ATOM      4  C   UNL     1     -28.580 -21.967 -18.509  1.00  0.00     0.000 C 
BRANCH   4   5
ATOM      5  C   UNL     1     -28.752 -22.023 -16.980  1.00  0.00     0.000 C 
BRANCH   5   6
ATOM      6  C   UNL     1     -30.229 -22.122 -16.548  1.00  0.00     0.000 C 
BRANCH   6   7
ATOM      7  C   UNL     1     -30.445 -22.000 -15.026  1.00  0.00     0.000 C 
BRANCH   7   8
ATOM      8  C   UNL     1     -31.657 -21.148 -14.599  1.00  0.00     0.000 C 
BRANCH   8   9
ATOM      9  C   UNL     1     -31.325 -19.717 -14.126  1.00  0.00     0.000 C 
BRANCH   9  10
ATOM     10  C   UNL     1     -30.357 -19.622 -12.930  1.00  0.00     0.006 C 
BRANCH  10  11
ATOM     11  C   UNL     1     -29.450 -18.378 -12.955  1.00  0.00     0.053 C 
BRANCH  11  12
ATOM     12  C   UNL     1     -29.061 -17.915 -11.583  1.00  0.00     0.041 C 
ATOM     13  O   UNL     1     -28.615 -18.741 -10.740  1.00  0.00    -0.550 OA
ATOM     14  O   UNL     1     -29.231 -16.585 -11.220  1.00  0.00    -0.550 OA
ENDBRANCH  11  12
ENDBRANCH  10  11
ENDBRANCH   9  10
ENDBRANCH   8   9
ENDBRANCH   7   8
ENDBRANCH   6   7
ENDBRANCH   5   6
ENDBRANCH   4   5
ENDBRANCH   3   4
ENDBRANCH   2   3
ENDBRANCH   1   2
BRANCH   1  15
ATOM     15  C   UNL     1     -29.990 -19.746 -20.663  1.00  0.00     0.000 C 
BRANCH  15  16
ATOM     16  C   UNL     1     -30.465 -21.216 -20.673  1.00  0.00     0.000 C 
BRANCH  16  17
ATOM     17  C   UNL     1     -31.296 -21.554 -21.924  1.00  0.00     0.000 C 
BRANCH  17  18
ATOM     18  C   UNL     1     -32.511 -20.628 -22.093  1.00  0.00    -0.000 C 
BRANCH  18  19
ATOM     19  C   UNL     1     -32.166 -19.340 -22.858  1.00  0.00    -0.000 C 
BRANCH  19  20
ATOM     20  C   UNL     1     -32.067 -19.575 -24.375  1.00  0.00    -0.000 C 
BRANCH  20  21
ATOM     21  C   UNL     1     -30.734 -19.075 -24.960  1.00  0.00    -0.000 C 
BRANCH  21  22
ATOM     22  C   UNL     1     -30.067 -20.099 -25.896  1.00  0.00    -0.000 C 
BRANCH  22  23
ATOM     23  C   UNL     1     -30.171 -21.568 -25.443  1.00  0.00    -0.000 C 
BRANCH  23  24
ATOM     24  C   UNL     1     -29.629 -21.796 -24.021  1.00  0.00    -0.000 C 
BRANCH  24  25
ATOM     25  C   UNL     1     -28.093 -21.791 -23.966  1.00  0.00    -0.003 C 
ATOM     26  C   UNL     1     -27.549 -21.398 -22.592  1.00  0.00     0.004 C 
ENDBRANCH  24  25
ENDBRANCH  23  24
ENDBRANCH  22  23
ENDBRANCH  21  22
ENDBRANCH  20  21
ENDBRANCH  19  20
ENDBRANCH  18  19
ENDBRANCH  17  18
ENDBRANCH  16  17
ENDBRANCH  15  16
ENDBRANCH   1  15
TORSDOF 22
ENDMDL
MODEL 5
REMARK VINA RESULT:     9.825      1.070      2.555
REMARK INTER + INTRA:          22.128
REMARK INTER:                  22.765
REMARK INTRA:                  -0.637
REMARK UNBOUND:                -0.334
REMARK SMILES CCCCCCCCCCCCCCCCCCCCCCCC(=O)[O-]
REMARK SMILES IDX 13 1 14 2 15 3 16 4 17 5 18 6 19 7 20 8 21 9 22 10 23 11
REMARK SMILES IDX 24 12 25 13 26 14 12 15 11 16 10 17 9 18 8 19 7 20 6 21 5 22
REMARK SMILES IDX 4 23 3 24 2 25 1 26
REMARK H PARENT
REMARK Flexibility Score: inf
ROOT
ATOM      1  C   UNL     1     -28.126 -19.993 -18.801  1.00  0.00     0.000 C 
ENDROOT
BRANCH   1   2
ATOM      2  C   UNL     1     -27.230 -20.796 -17.843  1.00  0.00     0.000 C 
BRANCH   2   3
ATOM      3  C   UNL     1     -27.833 -22.123 -17.338  1.00  0.00     0.000 C 
BRANCH   3   4
ATOM      4  C   UNL     1     -29.272 -21.988 -16.794  1.00  0.00     0.000 C 
BRANCH   4   5
ATOM      5  C   UNL     1     -29.305 -21.715 -15.280  1.00  0.00     0.000 C 
BRANCH   5   6
ATOM      6  C   UNL     1     -30.739 -21.630 -14.719  1.00  0.00     0.000 C 
BRANCH   6   7
ATOM      7  C   UNL     1     -31.126 -20.231 -14.201  1.00  0.00     0.000 C 
BRANCH   7   8
ATOM      8  C   UNL     1     -29.981 -19.428 -13.551  1.00  0.00     0.000 C 
BRANCH   8   9
ATOM      9  C   UNL     1     -29.627 -19.834 -12.105  1.00  0.00     0.000 C 
BRANCH   9  10
ATOM     10  C   UNL     1     -29.064 -18.705 -11.219  1.00  0.00     0.006 C 
BRANCH  10  11
ATOM     11  C   UNL     1     -28.388 -17.569 -12.006  1.00  0.00     0.053 C 
BRANCH  11  12
ATOM     12  C   UNL     1     -29.111 -16.263 -11.878  1.00  0.00     0.041 C 
ATOM     13  O   UNL     1     -28.484 -15.176 -12.005  1.00  0.00    -0.550 OA
ATOM     14  O   UNL     1     -30.467 -16.242 -11.574  1.00  0.00    -0.550 OA
ENDBRANCH  11  12
ENDBRANCH  10  11
ENDBRANCH   9  10
ENDBRANCH   8   9
ENDBRANCH   7   8
ENDBRANCH   6   7
ENDBRANCH   5   6
ENDBRANCH   4   5
ENDBRANCH   3   4
ENDBRANCH   2   3
ENDBRANCH   1   2
BRANCH   1  15
ATOM     15  C   UNL     1     -28.062 -20.425 -20.280  1.00  0.00     0.000 C 
BRANCH  15  16
ATOM     16  C   UNL     1     -28.630 -21.836 -20.550  1.00  0.00     0.000 C 
BRANCH  16  17
ATOM     17  C   UNL     1     -30.164 -21.880 -20.438  1.00  0.00     0.000 C 
BRANCH  17  18
ATOM     18  C   UNL     1     -30.852 -21.998 -21.808  1.00  0.00    -0.000 C 
BRANCH  18  19
ATOM     19  C   UNL     1     -32.218 -21.291 -21.843  1.00  0.00    -0.000 C 
BRANCH  19  20
ATOM     20  C   UNL     1     -32.128 -19.888 -22.469  1.00  0.00    -0.000 C 
BRANCH  20  21
ATOM     21  C   UNL     1     -31.659 -19.931 -23.934  1.00  0.00    -0.000 C 
BRANCH  21  22
ATOM     22  C   UNL     1     -31.589 -21.360 -24.502  1.00  0.00    -0.000 C 
BRANCH  22  23
ATOM     23  C   UNL     1     -30.551 -21.573 -25.619  1.00  0.00    -0.000 C 
BRANCH  23  24
ATOM     24  C   UNL     1     -29.477 -20.470 -25.656  1.00  0.00    -0.000 C 
BRANCH  24  25
ATOM     25  C   UNL     1     -28.776 -20.282 -24.302  1.00  0.00    -0.003 C 
ATOM     26  C   UNL     1     -28.062 -21.546 -23.822  1.00  0.00     0.004 C 
ENDBRANCH  24  25
ENDBRANCH  23  24
ENDBRANCH  22  23
ENDBRANCH  21  22
ENDBRANCH  20  21
ENDBRANCH  19  20
ENDBRANCH  18  19
ENDBRANCH  17  18
ENDBRANCH  16  17
ENDBRANCH  15  16
ENDBRANCH   1  15
TORSDOF 22
ENDMDL
