MODEL 1
REMARK VINA RESULT:    -4.557      0.000      0.000
REMARK INTER + INTRA:          -5.677
REMARK INTER:                  -5.490
REMARK INTRA:                  -0.187
REMARK UNBOUND:                -0.187
REMARK SMILES [NH3+][C@H](Cc1cnc[nH]1)C(=O)[O-]
REMARK SMILES IDX 3 1 2 2 1 3 9 7 10 8 11 9 4 10 5 11 8 12 6 13 7 14
REMARK H PARENT 1 4 1 5 1 6 8 15
REMARK Flexibility Score: inf
ROOT
ATOM      1  C   UNL     1     -17.231  -7.881  42.865  1.00  0.00     0.127 C 
ENDROOT
BRANCH   1   2
ATOM      2  C   UNL     1     -16.728  -8.813  41.745  1.00  0.00     0.233 C 
BRANCH   2   3
ATOM      3  N   UNL     1     -16.312  -8.032  40.574  1.00  0.00    -0.350 N 
ATOM      4  H   UNL     1     -15.333  -7.687  40.710  1.00  0.00     0.345 HD
ATOM      5  H   UNL     1     -16.937  -7.202  40.460  1.00  0.00     0.345 HD
ATOM      6  H   UNL     1     -16.351  -8.615  39.707  1.00  0.00     0.345 HD
ENDBRANCH   2   3
BRANCH   2   7
ATOM      7  C   UNL     1     -15.590  -9.676  42.228  1.00  0.00     0.099 C 
ATOM      8  O   UNL     1     -14.421  -9.496  41.792  1.00  0.00    -0.544 OA
ATOM      9  O   UNL     1     -15.822 -10.664  43.175  1.00  0.00    -0.544 OA
ENDBRANCH   2   7
ENDBRANCH   1   2
BRANCH   1  10
ATOM     10  C   UNL     1     -18.654  -8.180  43.235  1.00  0.00     0.041 A 
ATOM     11  C   UNL     1     -19.336  -9.352  42.991  1.00  0.00     0.134 A 
ATOM     12  N   UNL     1     -19.497  -7.300  43.796  1.00  0.00    -0.348 N 
ATOM     13  N   UNL     1     -20.610  -9.214  43.411  1.00  0.00    -0.245 NA
ATOM     14  C   UNL     1     -20.670  -7.954  43.896  1.00  0.00     0.196 A 
ATOM     15  H   UNL     1     -19.294  -6.317  44.084  1.00  0.00     0.167 HD
ENDBRANCH   1  10
TORSDOF 4
ENDMDL
MODEL 2
REMARK VINA RESULT:    -4.493      1.717      2.230
REMARK INTER + INTRA:          -5.599
REMARK INTER:                  -5.459
REMARK INTRA:                  -0.141
REMARK UNBOUND:                -0.187
REMARK SMILES [NH3+][C@H](Cc1cnc[nH]1)C(=O)[O-]
REMARK SMILES IDX 3 1 2 2 1 3 9 7 10 8 11 9 4 10 5 11 8 12 6 13 7 14
REMARK H PARENT 1 4 1 5 1 6 8 15
REMARK Flexibility Score: inf
ROOT
ATOM      1  C   UNL     1     -18.644  -8.503  43.760  1.00  0.00     0.127 C 
ENDROOT
BRANCH   1   2
ATOM      2  C   UNL     1     -17.551  -7.702  43.027  1.00  0.00     0.233 C 
BRANCH   2   3
ATOM      3  N   UNL     1     -16.602  -7.127  43.988  1.00  0.00    -0.350 N 
ATOM      4  H   UNL     1     -15.652  -7.070  43.554  1.00  0.00     0.345 HD
ATOM      5  H   UNL     1     -16.538  -7.740  44.833  1.00  0.00     0.345 HD
ATOM      6  H   UNL     1     -16.903  -6.169  44.278  1.00  0.00     0.345 HD
ENDBRANCH   2   3
BRANCH   2   7
ATOM      7  C   UNL     1     -16.823  -8.567  42.029  1.00  0.00     0.099 C 
ATOM      8  O   UNL     1     -16.709  -9.807  42.220  1.00  0.00    -0.544 OA
ATOM      9  O   UNL     1     -16.290  -8.000  40.878  1.00  0.00    -0.544 OA
ENDBRANCH   2   7
ENDBRANCH   1   2
BRANCH   1  10
ATOM     10  C   UNL     1     -20.014  -7.963  43.471  1.00  0.00     0.041 A 
ATOM     11  C   UNL     1     -21.004  -8.584  42.743  1.00  0.00     0.134 A 
ATOM     12  N   UNL     1     -20.441  -6.741  43.823  1.00  0.00    -0.348 N 
ATOM     13  N   UNL     1     -22.064  -7.756  42.646  1.00  0.00    -0.245 NA
ATOM     14  C   UNL     1     -21.685  -6.646  43.317  1.00  0.00     0.196 A 
ATOM     15  H   UNL     1     -19.921  -6.014  44.363  1.00  0.00     0.167 HD
ENDBRANCH   1  10
TORSDOF 4
ENDMDL
MODEL 3
REMARK VINA RESULT:    -4.466      3.039      4.614
REMARK INTER + INTRA:          -5.567
REMARK INTER:                  -5.273
REMARK INTRA:                  -0.294
REMARK UNBOUND:                -0.187
REMARK SMILES [NH3+][C@H](Cc1cnc[nH]1)C(=O)[O-]
REMARK SMILES IDX 3 1 2 2 1 3 9 7 10 8 11 9 4 10 5 11 8 12 6 13 7 14
REMARK H PARENT 1 4 1 5 1 6 8 15
REMARK Flexibility Score: inf
ROOT
ATOM      1  C   UNL     1     -18.253  -7.619  43.194  1.00  0.00     0.127 C 
ENDROOT
BRANCH   1   2
ATOM      2  C   UNL     1     -19.559  -7.931  43.950  1.00  0.00     0.233 C 
BRANCH   2   3
ATOM      3  N   UNL     1     -20.352  -6.709  44.133  1.00  0.00    -0.350 N 
ATOM      4  H   UNL     1     -19.715  -5.898  44.306  1.00  0.00     0.345 HD
ATOM      5  H   UNL     1     -20.979  -6.814  44.963  1.00  0.00     0.345 HD
ATOM      6  H   UNL     1     -20.931  -6.514  43.285  1.00  0.00     0.345 HD
ENDBRANCH   2   3
BRANCH   2   7
ATOM      7  C   UNL     1     -20.369  -8.975  43.224  1.00  0.00     0.099 C 
ATOM      8  O   UNL     1     -20.036 -10.190  43.271  1.00  0.00    -0.544 OA
ATOM      9  O   UNL     1     -21.502  -8.603  42.513  1.00  0.00    -0.544 OA
ENDBRANCH   2   7
ENDBRANCH   1   2
BRANCH   1  10
ATOM     10  C   UNL     1     -17.059  -8.213  43.884  1.00  0.00     0.041 A 
ATOM     11  C   UNL     1     -15.918  -7.544  44.269  1.00  0.00     0.134 A 
ATOM     12  N   UNL     1     -16.906  -9.518  44.154  1.00  0.00    -0.348 N 
ATOM     13  N   UNL     1     -15.048  -8.430  44.795  1.00  0.00    -0.245 NA
ATOM     14  C   UNL     1     -15.684  -9.618  44.710  1.00  0.00     0.196 A 
ATOM     15  H   UNL     1     -17.581 -10.292  43.966  1.00  0.00     0.167 HD
ENDBRANCH   1  10
TORSDOF 4
ENDMDL
MODEL 4
REMARK VINA RESULT:    -4.440      3.379      4.014
REMARK INTER + INTRA:          -5.535
REMARK INTER:                  -5.349
REMARK INTRA:                  -0.186
REMARK UNBOUND:                -0.187
REMARK SMILES [NH3+][C@H](Cc1cnc[nH]1)C(=O)[O-]
REMARK SMILES IDX 3 1 2 2 1 3 9 7 10 8 11 9 4 10 5 11 8 12 6 13 7 14
REMARK H PARENT 1 4 1 5 1 6 8 15
REMARK Flexibility Score: inf
ROOT
ATOM      1  C   UNL     1     -15.903 -10.345  43.408  1.00  0.00     0.127 C 
ENDROOT
BRANCH   1   2
ATOM      2  C   UNL     1     -16.207  -9.367  44.559  1.00  0.00     0.233 C 
BRANCH   2   3
ATOM      3  N   UNL     1     -15.204  -9.496  45.623  1.00  0.00    -0.350 N 
ATOM      4  H   UNL     1     -15.074  -8.574  46.100  1.00  0.00     0.345 HD
ATOM      5  H   UNL     1     -14.285  -9.783  45.213  1.00  0.00     0.345 HD
ATOM      6  H   UNL     1     -15.503 -10.207  46.330  1.00  0.00     0.345 HD
ENDBRANCH   2   3
BRANCH   2   7
ATOM      7  C   UNL     1     -16.258  -7.944  44.062  1.00  0.00     0.099 C 
ATOM      8  O   UNL     1     -15.436  -7.088  44.487  1.00  0.00    -0.544 OA
ATOM      9  O   UNL     1     -17.203  -7.574  43.115  1.00  0.00    -0.544 OA
ENDBRANCH   2   7
ENDBRANCH   1   2
BRANCH   1  10
ATOM     10  C   UNL     1     -17.022 -11.325  43.207  1.00  0.00     0.041 A 
ATOM     11  C   UNL     1     -18.331 -11.168  43.602  1.00  0.00     0.134 A 
ATOM     12  N   UNL     1     -16.877 -12.547  42.672  1.00  0.00    -0.348 N 
ATOM     13  N   UNL     1     -19.018 -12.290  43.305  1.00  0.00    -0.245 NA
ATOM     14  C   UNL     1     -18.101 -13.105  42.739  1.00  0.00     0.196 A 
ATOM     15  H   UNL     1     -16.005 -12.980  42.294  1.00  0.00     0.167 HD
ENDBRANCH   1  10
TORSDOF 4
ENDMDL
MODEL 5
REMARK VINA RESULT:    -4.374      3.343      5.068
REMARK INTER + INTRA:          -5.456
REMARK INTER:                  -5.272
REMARK INTRA:                  -0.184
REMARK UNBOUND:                -0.187
REMARK SMILES [NH3+][C@H](Cc1cnc[nH]1)C(=O)[O-]
REMARK SMILES IDX 3 1 2 2 1 3 9 7 10 8 11 9 4 10 5 11 8 12 6 13 7 14
REMARK H PARENT 1 4 1 5 1 6 8 15
REMARK Flexibility Score: inf
ROOT
ATOM      1  C   UNL     1     -15.743  -9.517  42.140  1.00  0.00     0.127 C 
ENDROOT
BRANCH   1   2
ATOM      2  C   UNL     1     -15.641  -8.058  41.653  1.00  0.00     0.233 C 
BRANCH   2   3
ATOM      3  N   UNL     1     -16.249  -7.915  40.325  1.00  0.00    -0.350 N 
ATOM      4  H   UNL     1     -15.549  -7.514  39.658  1.00  0.00     0.345 HD
ATOM      5  H   UNL     1     -17.063  -7.261  40.375  1.00  0.00     0.345 HD
ATOM      6  H   UNL     1     -16.572  -8.842  39.964  1.00  0.00     0.345 HD
ENDBRANCH   2   3
BRANCH   2   7
ATOM      7  C   UNL     1     -16.295  -7.114  42.630  1.00  0.00     0.099 C 
ATOM      8  O   UNL     1     -16.396  -5.886  42.363  1.00  0.00    -0.544 OA
ATOM      9  O   UNL     1     -16.810  -7.599  43.825  1.00  0.00    -0.544 OA
ENDBRANCH   2   7
ENDBRANCH   1   2
BRANCH   1  10
ATOM     10  C   UNL     1     -14.435 -10.011  42.684  1.00  0.00     0.041 A 
ATOM     11  C   UNL     1     -14.123 -10.216  44.010  1.00  0.00     0.134 A 
ATOM     12  N   UNL     1     -13.342 -10.250  41.943  1.00  0.00    -0.348 N 
ATOM     13  N   UNL     1     -12.833 -10.598  44.103  1.00  0.00    -0.245 NA
ATOM     14  C   UNL     1     -12.392 -10.608  42.826  1.00  0.00     0.196 A 
ATOM     15  H   UNL     1     -13.243 -10.167  40.906  1.00  0.00     0.167 HD
ENDBRANCH   1  10
TORSDOF 4
ENDMDL
MODEL 6
REMARK VINA RESULT:    -4.369      2.043      2.224
REMARK INTER + INTRA:          -5.450
REMARK INTER:                  -5.193
REMARK INTRA:                  -0.257
REMARK UNBOUND:                -0.187
REMARK SMILES [NH3+][C@H](Cc1cnc[nH]1)C(=O)[O-]
REMARK SMILES IDX 3 1 2 2 1 3 9 7 10 8 11 9 4 10 5 11 8 12 6 13 7 14
REMARK H PARENT 1 4 1 5 1 6 8 15
REMARK Flexibility Score: inf
ROOT
ATOM      1  C   UNL     1     -17.469  -9.143  42.634  1.00  0.00     0.127 C 
ENDROOT
BRANCH   1   2
ATOM      2  C   UNL     1     -16.709  -9.927  43.721  1.00  0.00     0.233 C 
BRANCH   2   3
ATOM      3  N   UNL     1     -15.873 -10.971  43.114  1.00  0.00    -0.350 N 
ATOM      4  H   UNL     1     -16.472 -11.621  42.555  1.00  0.00     0.345 HD
ATOM      5  H   UNL     1     -15.399 -11.526  43.862  1.00  0.00     0.345 HD
ATOM      6  H   UNL     1     -15.151 -10.548  42.487  1.00  0.00     0.345 HD
ENDBRANCH   2   3
BRANCH   2   7
ATOM      7  C   UNL     1     -15.863  -9.006  44.562  1.00  0.00     0.099 C 
ATOM      8  O   UNL     1     -15.082  -9.473  45.435  1.00  0.00    -0.544 OA
ATOM      9  O   UNL     1     -15.925  -7.633  44.365  1.00  0.00    -0.544 OA
ENDBRANCH   2   7
ENDBRANCH   1   2
BRANCH   1  10
ATOM     10  C   UNL     1     -18.802  -8.663  43.129  1.00  0.00     0.041 A 
ATOM     11  C   UNL     1     -20.008  -9.317  43.002  1.00  0.00     0.134 A 
ATOM     12  N   UNL     1     -19.018  -7.471  43.705  1.00  0.00    -0.348 N 
ATOM     13  N   UNL     1     -20.985  -8.539  43.511  1.00  0.00    -0.245 NA
ATOM     14  C   UNL     1     -20.344  -7.426  43.930  1.00  0.00     0.196 A 
ATOM     15  H   UNL     1     -18.314  -6.731  43.923  1.00  0.00     0.167 HD
ENDBRANCH   1  10
TORSDOF 4
ENDMDL
MODEL 7
REMARK VINA RESULT:    -4.358      1.888      2.343
REMARK INTER + INTRA:          -5.437
REMARK INTER:                  -5.287
REMARK INTRA:                  -0.150
REMARK UNBOUND:                -0.187
REMARK SMILES [NH3+][C@H](Cc1cnc[nH]1)C(=O)[O-]
REMARK SMILES IDX 3 1 2 2 1 3 9 7 10 8 11 9 4 10 5 11 8 12 6 13 7 14
REMARK H PARENT 1 4 1 5 1 6 8 15
REMARK Flexibility Score: inf
ROOT
ATOM      1  C   UNL     1     -18.733  -7.955  43.741  1.00  0.00     0.127 C 
ENDROOT
BRANCH   1   2
ATOM      2  C   UNL     1     -18.277  -9.159  42.894  1.00  0.00     0.233 C 
BRANCH   2   3
ATOM      3  N   UNL     1     -17.315  -8.733  41.869  1.00  0.00    -0.350 N 
ATOM      4  H   UNL     1     -16.632  -9.504  41.685  1.00  0.00     0.345 HD
ATOM      5  H   UNL     1     -16.783  -7.899  42.207  1.00  0.00     0.345 HD
ATOM      6  H   UNL     1     -17.806  -8.492  40.978  1.00  0.00     0.345 HD
ENDBRANCH   2   3
BRANCH   2   7
ATOM      7  C   UNL     1     -17.672 -10.234  43.761  1.00  0.00     0.099 C 
ATOM      8  O   UNL     1     -18.280 -11.321  43.950  1.00  0.00    -0.544 OA
ATOM      9  O   UNL     1     -16.426 -10.037  44.343  1.00  0.00    -0.544 OA
ENDBRANCH   2   7
ENDBRANCH   1   2
BRANCH   1  10
ATOM     10  C   UNL     1     -20.175  -7.622  43.495  1.00  0.00     0.041 A 
ATOM     11  C   UNL     1     -21.128  -8.454  42.949  1.00  0.00     0.134 A 
ATOM     12  N   UNL     1     -20.726  -6.417  43.706  1.00  0.00    -0.348 N 
ATOM     13  N   UNL     1     -22.286  -7.774  42.828  1.00  0.00    -0.245 NA
ATOM     14  C   UNL     1     -22.003  -6.540  43.299  1.00  0.00     0.196 A 
ATOM     15  H   UNL     1     -20.264  -5.563  44.092  1.00  0.00     0.167 HD
ENDBRANCH   1  10
TORSDOF 4
ENDMDL
MODEL 8
REMARK VINA RESULT:    -4.307      3.574      4.072
REMARK INTER + INTRA:          -5.375
REMARK INTER:                  -5.225
REMARK INTRA:                  -0.151
REMARK UNBOUND:                -0.187
REMARK SMILES [NH3+][C@H](Cc1cnc[nH]1)C(=O)[O-]
REMARK SMILES IDX 3 1 2 2 1 3 9 7 10 8 11 9 4 10 5 11 8 12 6 13 7 14
REMARK H PARENT 1 4 1 5 1 6 8 15
REMARK Flexibility Score: inf
ROOT
ATOM      1  C   UNL     1     -16.820 -10.608  42.645  1.00  0.00     0.127 C 
ENDROOT
BRANCH   1   2
ATOM      2  C   UNL     1     -15.412 -10.569  43.271  1.00  0.00     0.233 C 
BRANCH   2   3
ATOM      3  N   UNL     1     -14.398 -10.310  42.242  1.00  0.00    -0.350 N 
ATOM      4  H   UNL     1     -14.371  -9.287  42.023  1.00  0.00     0.345 HD
ATOM      5  H   UNL     1     -14.643 -10.824  41.365  1.00  0.00     0.345 HD
ATOM      6  H   UNL     1     -13.453 -10.615  42.569  1.00  0.00     0.345 HD
ENDBRANCH   2   3
BRANCH   2   7
ATOM      7  C   UNL     1     -15.331  -9.526  44.357  1.00  0.00     0.099 C 
ATOM      8  O   UNL     1     -16.214  -8.632  44.453  1.00  0.00    -0.544 OA
ATOM      9  O   UNL     1     -14.288  -9.558  45.273  1.00  0.00    -0.544 OA
ENDBRANCH   2   7
ENDBRANCH   1   2
BRANCH   1  10
ATOM     10  C   UNL     1     -17.497 -11.924  42.891  1.00  0.00     0.041 A 
ATOM     11  C   UNL     1     -18.590 -12.146  43.700  1.00  0.00     0.134 A 
ATOM     12  N   UNL     1     -17.074 -13.102  42.407  1.00  0.00    -0.348 N 
ATOM     13  N   UNL     1     -18.863 -13.467  43.716  1.00  0.00    -0.245 NA
ATOM     14  C   UNL     1     -17.922 -14.015  42.917  1.00  0.00     0.196 A 
ATOM     15  H   UNL     1     -16.258 -13.277  41.779  1.00  0.00     0.167 HD
ENDBRANCH   1  10
TORSDOF 4
ENDMDL
MODEL 9
REMARK VINA RESULT:    -4.281      5.337      6.153
REMARK INTER + INTRA:          -5.343
REMARK INTER:                  -5.181
REMARK INTRA:                  -0.163
REMARK UNBOUND:                -0.187
REMARK SMILES [NH3+][C@H](Cc1cnc[nH]1)C(=O)[O-]
REMARK SMILES IDX 3 1 2 2 1 3 9 7 10 8 11 9 4 10 5 11 8 12 6 13 7 14
REMARK H PARENT 1 4 1 5 1 6 8 15
REMARK Flexibility Score: inf
ROOT
ATOM      1  C   UNL     1     -19.493 -13.875  42.586  1.00  0.00     0.127 C 
ENDROOT
BRANCH   1   2
ATOM      2  C   UNL     1     -18.094 -13.457  43.079  1.00  0.00     0.233 C 
BRANCH   2   3
ATOM      3  N   UNL     1     -17.053 -14.013  42.205  1.00  0.00    -0.350 N 
ATOM      4  H   UNL     1     -16.346 -13.274  41.985  1.00  0.00     0.345 HD
ATOM      5  H   UNL     1     -17.479 -14.334  41.305  1.00  0.00     0.345 HD
ATOM      6  H   UNL     1     -16.574 -14.819  42.667  1.00  0.00     0.345 HD
ENDBRANCH   2   3
BRANCH   2   7
ATOM      7  C   UNL     1     -17.970 -11.956  43.147  1.00  0.00     0.099 C 
ATOM      8  O   UNL     1     -18.861 -11.266  43.712  1.00  0.00    -0.544 OA
ATOM      9  O   UNL     1     -16.858 -11.326  42.604  1.00  0.00    -0.544 OA
ENDBRANCH   2   7
ENDBRANCH   1   2
BRANCH   1  10
ATOM     10  C   UNL     1     -20.125 -14.880  43.504  1.00  0.00     0.041 A 
ATOM     11  C   UNL     1     -20.766 -16.041  43.133  1.00  0.00     0.134 A 
ATOM     12  N   UNL     1     -20.221 -14.742  44.835  1.00  0.00    -0.348 N 
ATOM     13  N   UNL     1     -21.257 -16.643  44.235  1.00  0.00    -0.245 NA
ATOM     14  C   UNL     1     -20.905 -15.825  45.250  1.00  0.00     0.196 A 
ATOM     15  H   UNL     1     -19.856 -13.961  45.424  1.00  0.00     0.167 HD
ENDBRANCH   1  10
TORSDOF 4
ENDMDL
