MODEL 1
REMARK VINA RESULT:    -4.672      0.000      0.000
REMARK INTER + INTRA:          -7.273
REMARK INTER:                  -6.310
REMARK INTRA:                  -0.962
REMARK UNBOUND:                -0.962
REMARK SMILES CC(=O)CCC=C(C)CCC=C(C)C
REMARK SMILES IDX 7 1 6 2 8 3 9 4 10 5 11 6 13 7 12 8 14 9 5 10 4 11 2 12 3 13
REMARK SMILES IDX 1 14
REMARK H PARENT
REMARK Flexibility Score: inf
ROOT
ATOM      1  C   UNL     1      55.002  17.872  -2.128  1.00  0.00    -0.077 C 
ATOM      2  C   UNL     1      55.052  17.361  -3.379  1.00  0.00    -0.028 C 
ATOM      3  C   UNL     1      55.126  19.357  -1.869  1.00  0.00     0.039 C 
ENDROOT
BRANCH   1   4
ATOM      4  C   UNL     1      54.789  16.934  -0.961  1.00  0.00     0.034 C 
BRANCH   4   5
ATOM      5  C   UNL     1      54.424  15.528  -1.452  1.00  0.00     0.032 C 
BRANCH   5   6
ATOM      6  C   UNL     1      55.382  14.494  -0.914  1.00  0.00    -0.028 C 
ATOM      7  C   UNL     1      57.023  12.669  -1.066  1.00  0.00     0.039 C 
ATOM      8  C   UNL     1      56.094  13.667  -1.708  1.00  0.00    -0.080 C 
ATOM      9  C   UNL     1      55.977  13.722  -3.213  1.00  0.00     0.039 C 
ENDBRANCH   5   6
ENDBRANCH   4   5
ENDBRANCH   1   4
BRANCH   2  10
ATOM     10  C   UNL     1      55.317  18.170  -4.627  1.00  0.00     0.035 C 
BRANCH  10  11
ATOM     11  C   UNL     1      54.065  18.296  -5.507  1.00  0.00     0.079 C 
BRANCH  11  12
ATOM     12  C   UNL     1      53.336  19.592  -5.266  1.00  0.00     0.130 C 
ATOM     13  O   UNL     1      53.660  20.596  -5.881  1.00  0.00    -0.300 OA
ATOM     14  C   UNL     1      52.240  19.666  -4.247  1.00  0.00     0.087 C 
ENDBRANCH  11  12
ENDBRANCH  10  11
ENDBRANCH   2  10
TORSDOF 6
ENDMDL
MODEL 2
REMARK VINA RESULT:    -4.485      1.732      2.596
REMARK INTER + INTRA:          -7.021
REMARK INTER:                  -6.094
REMARK INTRA:                  -0.927
REMARK UNBOUND:                -0.962
REMARK SMILES CC(=O)CCC=C(C)CCC=C(C)C
REMARK SMILES IDX 7 1 6 2 8 3 9 4 10 5 11 6 13 7 12 8 14 9 5 10 4 11 2 12 3 13
REMARK SMILES IDX 1 14
REMARK H PARENT
REMARK Flexibility Score: inf
ROOT
ATOM      1  C   UNL     1      54.713  19.004  -3.755  1.00  0.00    -0.077 C 
ATOM      2  C   UNL     1      53.478  19.318  -4.208  1.00  0.00    -0.028 C 
ATOM      3  C   UNL     1      55.918  18.992  -4.669  1.00  0.00     0.039 C 
ENDROOT
BRANCH   1   4
ATOM      4  C   UNL     1      54.896  18.681  -2.289  1.00  0.00     0.034 C 
BRANCH   4   5
ATOM      5  C   UNL     1      54.116  17.417  -1.908  1.00  0.00     0.032 C 
BRANCH   5   6
ATOM      6  C   UNL     1      54.993  16.191  -1.975  1.00  0.00    -0.028 C 
ATOM      7  C   UNL     1      55.888  14.130  -2.977  1.00  0.00     0.039 C 
ATOM      8  C   UNL     1      54.970  15.325  -3.011  1.00  0.00    -0.080 C 
ATOM      9  C   UNL     1      54.049  15.529  -4.191  1.00  0.00     0.039 C 
ENDBRANCH   5   6
ENDBRANCH   4   5
ENDBRANCH   1   4
BRANCH   2  10
ATOM     10  C   UNL     1      53.141  19.603  -5.652  1.00  0.00     0.035 C 
BRANCH  10  11
ATOM     11  C   UNL     1      52.997  21.108  -5.923  1.00  0.00     0.079 C 
BRANCH  11  12
ATOM     12  C   UNL     1      51.569  21.492  -6.212  1.00  0.00     0.130 C 
ATOM     13  O   UNL     1      51.245  21.823  -7.343  1.00  0.00    -0.300 OA
ATOM     14  C   UNL     1      50.551  21.508  -5.113  1.00  0.00     0.087 C 
ENDBRANCH  11  12
ENDBRANCH  10  11
ENDBRANCH   2  10
TORSDOF 6
ENDMDL
MODEL 3
REMARK VINA RESULT:    -4.461      2.743      6.171
REMARK INTER + INTRA:          -6.988
REMARK INTER:                  -5.972
REMARK INTRA:                  -1.016
REMARK UNBOUND:                -0.962
REMARK SMILES CC(=O)CCC=C(C)CCC=C(C)C
REMARK SMILES IDX 7 1 6 2 8 3 9 4 10 5 11 6 13 7 12 8 14 9 5 10 4 11 2 12 3 13
REMARK SMILES IDX 1 14
REMARK H PARENT
REMARK Flexibility Score: inf
ROOT
ATOM      1  C   UNL     1      55.149  17.813  -3.148  1.00  0.00    -0.077 C 
ATOM      2  C   UNL     1      55.167  16.599  -3.744  1.00  0.00    -0.028 C 
ATOM      3  C   UNL     1      54.699  17.990  -1.715  1.00  0.00     0.039 C 
ENDROOT
BRANCH   1   4
ATOM      4  C   UNL     1      55.615  19.021  -3.930  1.00  0.00     0.034 C 
BRANCH   4   5
ATOM      5  C   UNL     1      55.053  18.996  -5.356  1.00  0.00     0.032 C 
BRANCH   5   6
ATOM      6  C   UNL     1      53.780  19.801  -5.459  1.00  0.00    -0.028 C 
ATOM      7  C   UNL     1      51.366  20.140  -5.782  1.00  0.00     0.039 C 
ATOM      8  C   UNL     1      52.574  19.244  -5.699  1.00  0.00    -0.080 C 
ATOM      9  C   UNL     1      52.416  17.754  -5.885  1.00  0.00     0.039 C 
ENDBRANCH   5   6
ENDBRANCH   4   5
ENDBRANCH   1   4
BRANCH   2  10
ATOM     10  C   UNL     1      54.677  15.322  -3.105  1.00  0.00     0.035 C 
BRANCH  10  11
ATOM     11  C   UNL     1      55.765  14.239  -3.075  1.00  0.00     0.079 C 
BRANCH  11  12
ATOM     12  C   UNL     1      56.086  13.804  -1.668  1.00  0.00     0.130 C 
ATOM     13  O   UNL     1      56.779  12.816  -1.480  1.00  0.00    -0.300 OA
ATOM     14  C   UNL     1      55.529  14.555  -0.497  1.00  0.00     0.087 C 
ENDBRANCH  11  12
ENDBRANCH  10  11
ENDBRANCH   2  10
TORSDOF 6
ENDMDL
MODEL 4
REMARK VINA RESULT:    -4.439      1.124      1.806
REMARK INTER + INTRA:          -6.959
REMARK INTER:                  -5.812
REMARK INTRA:                  -1.147
REMARK UNBOUND:                -0.962
REMARK SMILES CC(=O)CCC=C(C)CCC=C(C)C
REMARK SMILES IDX 7 1 6 2 8 3 9 4 10 5 11 6 13 7 12 8 14 9 5 10 4 11 2 12 3 13
REMARK SMILES IDX 1 14
REMARK H PARENT
REMARK Flexibility Score: inf
ROOT
ATOM      1  C   UNL     1      54.546  18.175  -1.630  1.00  0.00    -0.077 C 
ATOM      2  C   UNL     1      53.302  18.113  -2.158  1.00  0.00    -0.028 C 
ATOM      3  C   UNL     1      55.410  19.407  -1.772  1.00  0.00     0.039 C 
ENDROOT
BRANCH   1   4
ATOM      4  C   UNL     1      55.074  16.988  -0.854  1.00  0.00     0.034 C 
BRANCH   4   5
ATOM      5  C   UNL     1      54.259  15.728  -1.167  1.00  0.00     0.032 C 
BRANCH   5   6
ATOM      6  C   UNL     1      55.140  14.623  -1.696  1.00  0.00    -0.028 C 
ATOM      7  C   UNL     1      56.182  13.227  -3.433  1.00  0.00     0.039 C 
ATOM      8  C   UNL     1      55.275  14.355  -3.012  1.00  0.00    -0.080 C 
ATOM      9  C   UNL     1      54.541  15.157  -4.061  1.00  0.00     0.039 C 
ENDBRANCH   5   6
ENDBRANCH   4   5
ENDBRANCH   1   4
BRANCH   2  10
ATOM     10  C   UNL     1      52.673  19.196  -3.002  1.00  0.00     0.035 C 
BRANCH  10  11
ATOM     11  C   UNL     1      52.657  18.826  -4.493  1.00  0.00     0.079 C 
BRANCH  11  12
ATOM     12  C   UNL     1      53.820  19.432  -5.234  1.00  0.00     0.130 C 
ATOM     13  O   UNL     1      53.683  20.499  -5.813  1.00  0.00    -0.300 OA
ATOM     14  C   UNL     1      55.134  18.715  -5.299  1.00  0.00     0.087 C 
ENDBRANCH  11  12
ENDBRANCH  10  11
ENDBRANCH   2  10
TORSDOF 6
ENDMDL
MODEL 5
REMARK VINA RESULT:    -4.354      3.149      5.956
REMARK INTER + INTRA:          -6.843
REMARK INTER:                  -5.902
REMARK INTRA:                  -0.942
REMARK UNBOUND:                -0.962
REMARK SMILES CC(=O)CCC=C(C)CCC=C(C)C
REMARK SMILES IDX 7 1 6 2 8 3 9 4 10 5 11 6 13 7 12 8 14 9 5 10 4 11 2 12 3 13
REMARK SMILES IDX 1 14
REMARK H PARENT
REMARK Flexibility Score: inf
ROOT
ATOM      1  C   UNL     1      54.475  15.989  -2.114  1.00  0.00    -0.077 C 
ATOM      2  C   UNL     1      55.514  15.391  -2.740  1.00  0.00    -0.028 C 
ATOM      3  C   UNL     1      53.094  15.375  -2.099  1.00  0.00     0.039 C 
ENDROOT
BRANCH   1   4
ATOM      4  C   UNL     1      54.710  17.296  -1.389  1.00  0.00     0.034 C 
BRANCH   4   5
ATOM      5  C   UNL     1      54.282  18.485  -2.258  1.00  0.00     0.032 C 
BRANCH   5   6
ATOM      6  C   UNL     1      55.434  19.006  -3.081  1.00  0.00    -0.028 C 
ATOM      7  C   UNL     1      56.732  19.371  -5.138  1.00  0.00     0.039 C 
ATOM      8  C   UNL     1      55.539  18.807  -4.411  1.00  0.00    -0.080 C 
ATOM      9  C   UNL     1      54.492  18.033  -5.178  1.00  0.00     0.039 C 
ENDBRANCH   5   6
ENDBRANCH   4   5
ENDBRANCH   1   4
BRANCH   2  10
ATOM     10  C   UNL     1      55.412  14.120  -3.549  1.00  0.00     0.035 C 
BRANCH  10  11
ATOM     11  C   UNL     1      56.201  12.966  -2.910  1.00  0.00     0.079 C 
BRANCH  11  12
ATOM     12  C   UNL     1      55.744  11.624  -3.420  1.00  0.00     0.130 C 
ATOM     13  O   UNL     1      56.564  10.817  -3.829  1.00  0.00    -0.300 OA
ATOM     14  C   UNL     1      54.284  11.286  -3.463  1.00  0.00     0.087 C 
ENDBRANCH  11  12
ENDBRANCH  10  11
ENDBRANCH   2  10
TORSDOF 6
ENDMDL
MODEL 6
REMARK VINA RESULT:    -4.282      1.999      3.361
REMARK INTER + INTRA:          -6.747
REMARK INTER:                  -5.261
REMARK INTRA:                  -1.486
REMARK UNBOUND:                -0.962
REMARK SMILES CC(=O)CCC=C(C)CCC=C(C)C
REMARK SMILES IDX 7 1 6 2 8 3 9 4 10 5 11 6 13 7 12 8 14 9 5 10 4 11 2 12 3 13
REMARK SMILES IDX 1 14
REMARK H PARENT
REMARK Flexibility Score: inf
ROOT
ATOM      1  C   UNL     1      55.082  17.850  -2.170  1.00  0.00    -0.077 C 
ATOM      2  C   UNL     1      55.049  17.325  -3.416  1.00  0.00    -0.028 C 
ATOM      3  C   UNL     1      55.168  19.341  -1.936  1.00  0.00     0.039 C 
ENDROOT
BRANCH   1   4
ATOM      4  C   UNL     1      55.004  16.919  -0.980  1.00  0.00     0.034 C 
BRANCH   4   5
ATOM      5  C   UNL     1      53.642  16.216  -0.927  1.00  0.00     0.032 C 
BRANCH   5   6
ATOM      6  C   UNL     1      52.528  17.199  -0.658  1.00  0.00    -0.028 C 
ATOM      7  C   UNL     1      50.439  18.402  -1.142  1.00  0.00     0.039 C 
ATOM      8  C   UNL     1      51.499  17.396  -1.508  1.00  0.00    -0.080 C 
ATOM      9  C   UNL     1      51.393  16.635  -2.809  1.00  0.00     0.039 C 
ENDBRANCH   5   6
ENDBRANCH   4   5
ENDBRANCH   1   4
BRANCH   2  10
ATOM     10  C   UNL     1      55.177  18.127  -4.689  1.00  0.00     0.035 C 
BRANCH  10  11
ATOM     11  C   UNL     1      53.826  18.303  -5.397  1.00  0.00     0.079 C 
BRANCH  11  12
ATOM     12  C   UNL     1      53.271  19.691  -5.212  1.00  0.00     0.130 C 
ATOM     13  O   UNL     1      53.691  20.611  -5.898  1.00  0.00    -0.300 OA
ATOM     14  C   UNL     1      52.233  19.960  -4.164  1.00  0.00     0.087 C 
ENDBRANCH  11  12
ENDBRANCH  10  11
ENDBRANCH   2  10
TORSDOF 6
ENDMDL
MODEL 7
REMARK VINA RESULT:    -4.267      2.226      6.089
REMARK INTER + INTRA:          -6.726
REMARK INTER:                  -5.834
REMARK INTRA:                  -0.892
REMARK UNBOUND:                -0.962
REMARK SMILES CC(=O)CCC=C(C)CCC=C(C)C
REMARK SMILES IDX 7 1 6 2 8 3 9 4 10 5 11 6 13 7 12 8 14 9 5 10 4 11 2 12 3 13
REMARK SMILES IDX 1 14
REMARK H PARENT
REMARK Flexibility Score: inf
ROOT
ATOM      1  C   UNL     1      55.197  18.353  -3.237  1.00  0.00    -0.077 C 
ATOM      2  C   UNL     1      55.140  17.003  -3.170  1.00  0.00    -0.028 C 
ATOM      3  C   UNL     1      55.113  19.216  -1.999  1.00  0.00     0.039 C 
ENDROOT
BRANCH   1   4
ATOM      4  C   UNL     1      55.377  19.013  -4.586  1.00  0.00     0.034 C 
BRANCH   4   5
ATOM      5  C   UNL     1      54.117  18.849  -5.444  1.00  0.00     0.032 C 
BRANCH   5   6
ATOM      6  C   UNL     1      53.277  20.102  -5.431  1.00  0.00    -0.028 C 
ATOM      7  C   UNL     1      51.419  21.544  -4.713  1.00  0.00     0.039 C 
ATOM      8  C   UNL     1      52.187  20.250  -4.648  1.00  0.00    -0.080 C 
ATOM      9  C   UNL     1      51.727  19.151  -3.720  1.00  0.00     0.039 C 
ENDBRANCH   5   6
ENDBRANCH   4   5
ENDBRANCH   1   4
BRANCH   2  10
ATOM     10  C   UNL     1      54.905  16.217  -1.902  1.00  0.00     0.035 C 
BRANCH  10  11
ATOM     11  C   UNL     1      53.975  15.016  -2.134  1.00  0.00     0.079 C 
BRANCH  11  12
ATOM     12  C   UNL     1      54.579  14.013  -3.081  1.00  0.00     0.130 C 
ATOM     13  O   UNL     1      53.909  13.560  -3.997  1.00  0.00    -0.300 OA
ATOM     14  C   UNL     1      55.986  13.536  -2.885  1.00  0.00     0.087 C 
ENDBRANCH  11  12
ENDBRANCH  10  11
ENDBRANCH   2  10
TORSDOF 6
ENDMDL
MODEL 8
REMARK VINA RESULT:    -4.264      2.773      5.933
REMARK INTER + INTRA:          -6.722
REMARK INTER:                  -5.541
REMARK INTRA:                  -1.182
REMARK UNBOUND:                -0.962
REMARK SMILES CC(=O)CCC=C(C)CCC=C(C)C
REMARK SMILES IDX 7 1 6 2 8 3 9 4 10 5 11 6 13 7 12 8 14 9 5 10 4 11 2 12 3 13
REMARK SMILES IDX 1 14
REMARK H PARENT
REMARK Flexibility Score: inf
ROOT
ATOM      1  C   UNL     1      55.159  18.243  -3.262  1.00  0.00    -0.077 C 
ATOM      2  C   UNL     1      55.091  16.892  -3.250  1.00  0.00    -0.028 C 
ATOM      3  C   UNL     1      55.094  19.054  -1.988  1.00  0.00     0.039 C 
ENDROOT
BRANCH   1   4
ATOM      4  C   UNL     1      55.331  18.958  -4.584  1.00  0.00     0.034 C 
BRANCH   4   5
ATOM      5  C   UNL     1      54.091  18.773  -5.467  1.00  0.00     0.032 C 
BRANCH   5   6
ATOM      6  C   UNL     1      53.254  20.027  -5.506  1.00  0.00    -0.028 C 
ATOM      7  C   UNL     1      51.373  21.484  -4.883  1.00  0.00     0.039 C 
ATOM      8  C   UNL     1      52.135  20.189  -4.768  1.00  0.00    -0.080 C 
ATOM      9  C   UNL     1      51.639  19.107  -3.839  1.00  0.00     0.039 C 
ENDBRANCH   5   6
ENDBRANCH   4   5
ENDBRANCH   1   4
BRANCH   2  10
ATOM     10  C   UNL     1      54.863  16.055  -2.014  1.00  0.00     0.035 C 
BRANCH  10  11
ATOM     11  C   UNL     1      53.372  15.765  -1.783  1.00  0.00     0.079 C 
BRANCH  11  12
ATOM     12  C   UNL     1      52.890  16.320  -0.469  1.00  0.00     0.130 C 
ATOM     13  O   UNL     1      53.201  15.769   0.576  1.00  0.00    -0.300 OA
ATOM     14  C   UNL     1      51.997  17.524  -0.436  1.00  0.00     0.087 C 
ENDBRANCH  11  12
ENDBRANCH  10  11
ENDBRANCH   2  10
TORSDOF 6
ENDMDL
MODEL 9
REMARK VINA RESULT:    -4.227      2.014      3.236
REMARK INTER + INTRA:          -6.672
REMARK INTER:                  -5.357
REMARK INTRA:                  -1.316
REMARK UNBOUND:                -0.962
REMARK SMILES CC(=O)CCC=C(C)CCC=C(C)C
REMARK SMILES IDX 7 1 6 2 8 3 9 4 10 5 11 6 13 7 12 8 14 9 5 10 4 11 2 12 3 13
REMARK SMILES IDX 1 14
REMARK H PARENT
REMARK Flexibility Score: inf
ROOT
ATOM      1  C   UNL     1      55.050  16.773  -2.776  1.00  0.00    -0.077 C 
ATOM      2  C   UNL     1      55.411  17.440  -3.896  1.00  0.00    -0.028 C 
ATOM      3  C   UNL     1      54.475  17.487  -1.574  1.00  0.00     0.039 C 
ENDROOT
BRANCH   1   4
ATOM      4  C   UNL     1      55.204  15.268  -2.736  1.00  0.00     0.034 C 
BRANCH   4   5
ATOM      5  C   UNL     1      54.472  14.616  -3.915  1.00  0.00     0.032 C 
BRANCH   5   6
ATOM      6  C   UNL     1      52.981  14.835  -3.824  1.00  0.00    -0.028 C 
ATOM      7  C   UNL     1      50.782  15.617  -4.599  1.00  0.00     0.039 C 
ATOM      8  C   UNL     1      52.267  15.450  -4.790  1.00  0.00    -0.080 C 
ATOM      9  C   UNL     1      52.923  15.970  -6.048  1.00  0.00     0.039 C 
ENDBRANCH   5   6
ENDBRANCH   4   5
ENDBRANCH   1   4
BRANCH   2  10
ATOM     10  C   UNL     1      55.368  18.941  -4.052  1.00  0.00     0.035 C 
BRANCH  10  11
ATOM     11  C   UNL     1      54.743  19.363  -5.390  1.00  0.00     0.079 C 
BRANCH  11  12
ATOM     12  C   UNL     1      53.337  19.875  -5.216  1.00  0.00     0.130 C 
ATOM     13  O   UNL     1      52.939  20.806  -5.900  1.00  0.00    -0.300 OA
ATOM     14  C   UNL     1      52.433  19.275  -4.182  1.00  0.00     0.087 C 
ENDBRANCH  11  12
ENDBRANCH  10  11
ENDBRANCH   2  10
TORSDOF 6
ENDMDL
