MODEL 1
REMARK VINA RESULT:    -4.070      0.000      0.000
REMARK INTER + INTRA:          -8.642
REMARK INTER:                  -7.401
REMARK INTRA:                  -1.241
REMARK UNBOUND:                -1.241
REMARK SMILES CCCCCCCCCCCCCCCC(=O)[O-]
REMARK SMILES IDX 9 1 10 2 11 3 12 4 13 5 14 6 15 7 16 8 17 9 18 10 8 11 7 12
REMARK SMILES IDX 6 13 5 14 4 15 3 16 2 17 1 18
REMARK H PARENT
REMARK Flexibility Score: inf
ROOT
ATOM      1  C   UNL     1     136.195 143.642 142.070  1.00  0.00     0.000 C 
ENDROOT
BRANCH   1   2
ATOM      2  C   UNL     1     136.653 144.487 143.272  1.00  0.00     0.000 C 
BRANCH   2   3
ATOM      3  C   UNL     1     136.913 143.635 144.526  1.00  0.00     0.000 C 
BRANCH   3   4
ATOM      4  C   UNL     1     138.059 142.632 144.331  1.00  0.00     0.000 C 
BRANCH   4   5
ATOM      5  C   UNL     1     138.656 142.212 145.679  1.00  0.00     0.000 C 
BRANCH   5   6
ATOM      6  C   UNL     1     137.683 142.503 146.828  1.00  0.00     0.006 C 
BRANCH   6   7
ATOM      7  C   UNL     1     138.379 143.262 147.961  1.00  0.00     0.053 C 
BRANCH   7   8
ATOM      8  C   UNL     1     139.678 142.606 148.309  1.00  0.00     0.041 C 
ATOM      9  O   UNL     1     139.694 141.428 148.751  1.00  0.00    -0.550 OA
ATOM     10  O   UNL     1     140.867 143.314 148.192  1.00  0.00    -0.550 OA
ENDBRANCH   7   8
ENDBRANCH   6   7
ENDBRANCH   5   6
ENDBRANCH   4   5
ENDBRANCH   3   4
ENDBRANCH   2   3
ENDBRANCH   1   2
BRANCH   1  11
ATOM     11  C   UNL     1     134.935 144.206 141.394  1.00  0.00     0.000 C 
BRANCH  11  12
ATOM     12  C   UNL     1     133.874 144.659 142.411  1.00  0.00    -0.000 C 
BRANCH  12  13
ATOM     13  C   UNL     1     132.875 145.664 141.813  1.00  0.00    -0.000 C 
BRANCH  13  14
ATOM     14  C   UNL     1     133.560 146.752 140.972  1.00  0.00    -0.000 C 
BRANCH  14  15
ATOM     15  C   UNL     1     133.668 148.067 141.761  1.00  0.00    -0.000 C 
BRANCH  15  16
ATOM     16  C   UNL     1     135.104 148.364 142.221  1.00  0.00    -0.000 C 
BRANCH  16  17
ATOM     17  C   UNL     1     135.376 147.889 143.656  1.00  0.00    -0.003 C 
ATOM     18  C   UNL     1     135.629 149.072 144.587  1.00  0.00     0.004 C 
ENDBRANCH  16  17
ENDBRANCH  15  16
ENDBRANCH  14  15
ENDBRANCH  13  14
ENDBRANCH  12  13
ENDBRANCH  11  12
ENDBRANCH   1  11
TORSDOF 14
ENDMDL
MODEL 2
REMARK VINA RESULT:    -3.965      3.262      7.403
REMARK INTER + INTRA:          -8.452
REMARK INTER:                  -7.117
REMARK INTRA:                  -1.335
REMARK UNBOUND:                -1.241
REMARK SMILES CCCCCCCCCCCCCCCC(=O)[O-]
REMARK SMILES IDX 9 1 10 2 11 3 12 4 13 5 14 6 15 7 16 8 17 9 18 10 8 11 7 12
REMARK SMILES IDX 6 13 5 14 4 15 3 16 2 17 1 18
REMARK H PARENT
REMARK Flexibility Score: inf
ROOT
ATOM      1  C   UNL     1     138.267 142.372 142.769  1.00  0.00     0.000 C 
ENDROOT
BRANCH   1   2
ATOM      2  C   UNL     1     137.607 143.293 143.812  1.00  0.00     0.000 C 
BRANCH   2   3
ATOM      3  C   UNL     1     136.986 144.549 143.179  1.00  0.00     0.000 C 
BRANCH   3   4
ATOM      4  C   UNL     1     135.698 144.242 142.401  1.00  0.00     0.000 C 
BRANCH   4   5
ATOM      5  C   UNL     1     134.628 145.308 142.669  1.00  0.00     0.000 C 
BRANCH   5   6
ATOM      6  C   UNL     1     135.184 146.439 143.542  1.00  0.00     0.006 C 
BRANCH   6   7
ATOM      7  C   UNL     1     134.908 147.807 142.912  1.00  0.00     0.053 C 
BRANCH   7   8
ATOM      8  C   UNL     1     136.139 148.656 142.946  1.00  0.00     0.041 C 
ATOM      9  O   UNL     1     137.181 148.238 143.514  1.00  0.00    -0.550 OA
ATOM     10  O   UNL     1     136.120 149.931 142.395  1.00  0.00    -0.550 OA
ENDBRANCH   7   8
ENDBRANCH   6   7
ENDBRANCH   5   6
ENDBRANCH   4   5
ENDBRANCH   3   4
ENDBRANCH   2   3
ENDBRANCH   1   2
BRANCH   1  11
ATOM     11  C   UNL     1     139.470 141.601 143.336  1.00  0.00     0.000 C 
BRANCH  11  12
ATOM     12  C   UNL     1     139.455 141.532 144.873  1.00  0.00    -0.000 C 
BRANCH  12  13
ATOM     13  C   UNL     1     140.796 141.953 145.495  1.00  0.00    -0.000 C 
BRANCH  13  14
ATOM     14  C   UNL     1     140.763 143.379 146.067  1.00  0.00    -0.000 C 
BRANCH  14  15
ATOM     15  C   UNL     1     140.527 143.355 147.585  1.00  0.00    -0.000 C 
BRANCH  15  16
ATOM     16  C   UNL     1     139.077 143.699 147.963  1.00  0.00    -0.000 C 
BRANCH  16  17
ATOM     17  C   UNL     1     138.224 142.450 148.228  1.00  0.00    -0.003 C 
ATOM     18  C   UNL     1     139.082 141.296 148.736  1.00  0.00     0.004 C 
ENDBRANCH  16  17
ENDBRANCH  15  16
ENDBRANCH  14  15
ENDBRANCH  13  14
ENDBRANCH  12  13
ENDBRANCH  11  12
ENDBRANCH   1  11
TORSDOF 14
ENDMDL
MODEL 3
REMARK VINA RESULT:    -3.874      3.263      7.525
REMARK INTER + INTRA:          -8.286
REMARK INTER:                  -6.821
REMARK INTRA:                  -1.464
REMARK UNBOUND:                -1.241
REMARK SMILES CCCCCCCCCCCCCCCC(=O)[O-]
REMARK SMILES IDX 9 1 10 2 11 3 12 4 13 5 14 6 15 7 16 8 17 9 18 10 8 11 7 12
REMARK SMILES IDX 6 13 5 14 4 15 3 16 2 17 1 18
REMARK H PARENT
REMARK Flexibility Score: inf
ROOT
ATOM      1  C   UNL     1     137.306 143.426 144.321  1.00  0.00     0.000 C 
ENDROOT
BRANCH   1   2
ATOM      2  C   UNL     1     136.347 144.375 143.580  1.00  0.00     0.000 C 
BRANCH   2   3
ATOM      3  C   UNL     1     136.417 144.208 142.053  1.00  0.00     0.000 C 
BRANCH   3   4
ATOM      4  C   UNL     1     135.054 143.868 141.433  1.00  0.00     0.000 C 
BRANCH   4   5
ATOM      5  C   UNL     1     133.967 144.824 141.938  1.00  0.00     0.000 C 
BRANCH   5   6
ATOM      6  C   UNL     1     134.029 146.167 141.201  1.00  0.00     0.006 C 
BRANCH   6   7
ATOM      7  C   UNL     1     133.569 147.314 142.106  1.00  0.00     0.053 C 
BRANCH   7   8
ATOM      8  C   UNL     1     134.749 148.064 142.638  1.00  0.00     0.041 C 
ATOM      9  O   UNL     1     135.337 148.912 141.918  1.00  0.00    -0.550 OA
ATOM     10  O   UNL     1     135.230 147.791 143.912  1.00  0.00    -0.550 OA
ENDBRANCH   7   8
ENDBRANCH   6   7
ENDBRANCH   5   6
ENDBRANCH   4   5
ENDBRANCH   3   4
ENDBRANCH   2   3
ENDBRANCH   1   2
BRANCH   1  11
ATOM     11  C   UNL     1     138.103 142.523 143.366  1.00  0.00     0.000 C 
BRANCH  11  12
ATOM     12  C   UNL     1     138.328 141.113 143.937  1.00  0.00    -0.000 C 
BRANCH  12  13
ATOM     13  C   UNL     1     139.442 141.077 144.996  1.00  0.00    -0.000 C 
BRANCH  13  14
ATOM     14  C   UNL     1     139.148 140.089 146.136  1.00  0.00    -0.000 C 
BRANCH  14  15
ATOM     15  C   UNL     1     139.034 140.824 147.481  1.00  0.00    -0.000 C 
BRANCH  15  16
ATOM     16  C   UNL     1     139.774 142.171 147.483  1.00  0.00    -0.000 C 
BRANCH  16  17
ATOM     17  C   UNL     1     138.873 143.340 147.908  1.00  0.00    -0.003 C 
ATOM     18  C   UNL     1     137.414 142.903 147.997  1.00  0.00     0.004 C 
ENDBRANCH  16  17
ENDBRANCH  15  16
ENDBRANCH  14  15
ENDBRANCH  13  14
ENDBRANCH  12  13
ENDBRANCH  11  12
ENDBRANCH   1  11
TORSDOF 14
ENDMDL
MODEL 4
REMARK VINA RESULT:    -3.866      3.750      7.547
REMARK INTER + INTRA:          -8.272
REMARK INTER:                  -6.803
REMARK INTRA:                  -1.469
REMARK UNBOUND:                -1.241
REMARK SMILES CCCCCCCCCCCCCCCC(=O)[O-]
REMARK SMILES IDX 9 1 10 2 11 3 12 4 13 5 14 6 15 7 16 8 17 9 18 10 8 11 7 12
REMARK SMILES IDX 6 13 5 14 4 15 3 16 2 17 1 18
REMARK H PARENT
REMARK Flexibility Score: inf
ROOT
ATOM      1  C   UNL     1     139.021 140.674 143.945  1.00  0.00     0.000 C 
ENDROOT
BRANCH   1   2
ATOM      2  C   UNL     1     137.791 141.546 143.635  1.00  0.00     0.000 C 
BRANCH   2   3
ATOM      3  C   UNL     1     137.774 142.044 142.180  1.00  0.00     0.000 C 
BRANCH   3   4
ATOM      4  C   UNL     1     137.618 143.569 142.080  1.00  0.00     0.000 C 
BRANCH   4   5
ATOM      5  C   UNL     1     136.931 144.133 143.329  1.00  0.00     0.000 C 
BRANCH   5   6
ATOM      6  C   UNL     1     135.553 144.712 142.986  1.00  0.00     0.006 C 
BRANCH   6   7
ATOM      7  C   UNL     1     135.498 146.214 143.279  1.00  0.00     0.053 C 
BRANCH   7   8
ATOM      8  C   UNL     1     134.435 146.868 142.455  1.00  0.00     0.041 C 
ATOM      9  O   UNL     1     134.093 148.056 142.690  1.00  0.00    -0.550 OA
ATOM     10  O   UNL     1     133.785 146.149 141.459  1.00  0.00    -0.550 OA
ENDBRANCH   7   8
ENDBRANCH   6   7
ENDBRANCH   5   6
ENDBRANCH   4   5
ENDBRANCH   3   4
ENDBRANCH   2   3
ENDBRANCH   1   2
BRANCH   1  11
ATOM     11  C   UNL     1     140.326 141.486 143.993  1.00  0.00     0.000 C 
BRANCH  11  12
ATOM     12  C   UNL     1     141.039 141.374 145.351  1.00  0.00    -0.000 C 
BRANCH  12  13
ATOM     13  C   UNL     1     140.249 140.530 146.365  1.00  0.00    -0.000 C 
BRANCH  13  14
ATOM     14  C   UNL     1     140.052 141.246 147.710  1.00  0.00    -0.000 C 
BRANCH  14  15
ATOM     15  C   UNL     1     140.299 142.756 147.566  1.00  0.00    -0.000 C 
BRANCH  15  16
ATOM     16  C   UNL     1     139.105 143.599 148.043  1.00  0.00    -0.000 C 
BRANCH  16  17
ATOM     17  C   UNL     1     137.806 142.786 148.133  1.00  0.00    -0.003 C 
ATOM     18  C   UNL     1     137.006 142.885 146.837  1.00  0.00     0.004 C 
ENDBRANCH  16  17
ENDBRANCH  15  16
ENDBRANCH  14  15
ENDBRANCH  13  14
ENDBRANCH  12  13
ENDBRANCH  11  12
ENDBRANCH   1  11
TORSDOF 14
ENDMDL
MODEL 5
REMARK VINA RESULT:    -3.856      1.591      3.049
REMARK INTER + INTRA:          -8.254
REMARK INTER:                  -6.950
REMARK INTRA:                  -1.304
REMARK UNBOUND:                -1.241
REMARK SMILES CCCCCCCCCCCCCCCC(=O)[O-]
REMARK SMILES IDX 9 1 10 2 11 3 12 4 13 5 14 6 15 7 16 8 17 9 18 10 8 11 7 12
REMARK SMILES IDX 6 13 5 14 4 15 3 16 2 17 1 18
REMARK H PARENT
REMARK Flexibility Score: inf
ROOT
ATOM      1  C   UNL     1     138.847 142.207 143.980  1.00  0.00     0.000 C 
ENDROOT
BRANCH   1   2
ATOM      2  C   UNL     1     138.940 140.848 144.696  1.00  0.00     0.000 C 
BRANCH   2   3
ATOM      3  C   UNL     1     140.376 140.506 145.128  1.00  0.00     0.000 C 
BRANCH   3   4
ATOM      4  C   UNL     1     140.453 140.004 146.577  1.00  0.00     0.000 C 
BRANCH   4   5
ATOM      5  C   UNL     1     139.187 140.380 147.356  1.00  0.00     0.000 C 
BRANCH   5   6
ATOM      6  C   UNL     1     139.489 141.444 148.419  1.00  0.00     0.006 C 
BRANCH   6   7
ATOM      7  C   UNL     1     138.871 142.792 148.040  1.00  0.00     0.053 C 
BRANCH   7   8
ATOM      8  C   UNL     1     139.940 143.781 147.700  1.00  0.00     0.041 C 
ATOM      9  O   UNL     1     140.669 143.604 146.690  1.00  0.00    -0.550 OA
ATOM     10  O   UNL     1     140.167 144.873 148.529  1.00  0.00    -0.550 OA
ENDBRANCH   7   8
ENDBRANCH   6   7
ENDBRANCH   5   6
ENDBRANCH   4   5
ENDBRANCH   3   4
ENDBRANCH   2   3
ENDBRANCH   1   2
BRANCH   1  11
ATOM     11  C   UNL     1     137.399 142.700 143.829  1.00  0.00     0.000 C 
BRANCH  11  12
ATOM     12  C   UNL     1     137.292 143.952 142.943  1.00  0.00    -0.000 C 
BRANCH  12  13
ATOM     13  C   UNL     1     136.196 143.824 141.872  1.00  0.00    -0.000 C 
BRANCH  13  14
ATOM     14  C   UNL     1     135.138 144.935 141.969  1.00  0.00    -0.000 C 
BRANCH  14  15
ATOM     15  C   UNL     1     135.320 145.752 143.258  1.00  0.00    -0.000 C 
BRANCH  15  16
ATOM     16  C   UNL     1     134.981 147.239 143.067  1.00  0.00    -0.000 C 
BRANCH  16  17
ATOM     17  C   UNL     1     135.887 148.162 143.895  1.00  0.00    -0.003 C 
ATOM     18  C   UNL     1     137.253 148.328 143.233  1.00  0.00     0.004 C 
ENDBRANCH  16  17
ENDBRANCH  15  16
ENDBRANCH  14  15
ENDBRANCH  13  14
ENDBRANCH  12  13
ENDBRANCH  11  12
ENDBRANCH   1  11
TORSDOF 14
ENDMDL
MODEL 6
REMARK VINA RESULT:    -3.821     11.033     14.039
REMARK INTER + INTRA:          -8.190
REMARK INTER:                  -5.645
REMARK INTRA:                  -2.545
REMARK UNBOUND:                -1.241
REMARK SMILES CCCCCCCCCCCCCCCC(=O)[O-]
REMARK SMILES IDX 9 1 10 2 11 3 12 4 13 5 14 6 15 7 16 8 17 9 18 10 8 11 7 12
REMARK SMILES IDX 6 13 5 14 4 15 3 16 2 17 1 18
REMARK H PARENT
REMARK Flexibility Score: inf
ROOT
ATOM      1  C   UNL     1     147.866 134.899 149.670  1.00  0.00     0.000 C 
ENDROOT
BRANCH   1   2
ATOM      2  C   UNL     1     148.163 134.737 148.168  1.00  0.00     0.000 C 
BRANCH   2   3
ATOM      3  C   UNL     1     146.910 134.372 147.355  1.00  0.00     0.000 C 
BRANCH   3   4
ATOM      4  C   UNL     1     145.623 134.449 148.189  1.00  0.00     0.000 C 
BRANCH   4   5
ATOM      5  C   UNL     1     144.564 135.307 147.486  1.00  0.00     0.000 C 
BRANCH   5   6
ATOM      6  C   UNL     1     144.032 136.401 148.420  1.00  0.00     0.006 C 
BRANCH   6   7
ATOM      7  C   UNL     1     144.349 136.078 149.883  1.00  0.00     0.053 C 
BRANCH   7   8
ATOM      8  C   UNL     1     143.120 135.600 150.591  1.00  0.00     0.041 C 
ATOM      9  O   UNL     1     142.109 135.244 149.932  1.00  0.00    -0.550 OA
ATOM     10  O   UNL     1     143.074 135.598 151.979  1.00  0.00    -0.550 OA
ENDBRANCH   7   8
ENDBRANCH   6   7
ENDBRANCH   5   6
ENDBRANCH   4   5
ENDBRANCH   3   4
ENDBRANCH   2   3
ENDBRANCH   1   2
BRANCH   1  11
ATOM     11  C   UNL     1     148.313 136.264 150.219  1.00  0.00     0.000 C 
BRANCH  11  12
ATOM     12  C   UNL     1     147.658 137.441 149.476  1.00  0.00    -0.000 C 
BRANCH  12  13
ATOM     13  C   UNL     1     148.692 138.380 148.832  1.00  0.00    -0.000 C 
BRANCH  13  14
ATOM     14  C   UNL     1     148.297 138.813 147.412  1.00  0.00    -0.000 C 
BRANCH  14  15
ATOM     15  C   UNL     1     147.041 138.064 146.941  1.00  0.00    -0.000 C 
BRANCH  15  16
ATOM     16  C   UNL     1     147.022 137.838 145.421  1.00  0.00    -0.000 C 
BRANCH  16  17
ATOM     17  C   UNL     1     145.632 138.061 144.807  1.00  0.00    -0.003 C 
ATOM     18  C   UNL     1     144.758 138.913 145.723  1.00  0.00     0.004 C 
ENDBRANCH  16  17
ENDBRANCH  15  16
ENDBRANCH  14  15
ENDBRANCH  13  14
ENDBRANCH  12  13
ENDBRANCH  11  12
ENDBRANCH   1  11
TORSDOF 14
ENDMDL
MODEL 7
REMARK VINA RESULT:    -3.772     12.549     14.863
REMARK INTER + INTRA:          -8.101
REMARK INTER:                  -5.683
REMARK INTRA:                  -2.418
REMARK UNBOUND:                -1.241
REMARK SMILES CCCCCCCCCCCCCCCC(=O)[O-]
REMARK SMILES IDX 9 1 10 2 11 3 12 4 13 5 14 6 15 7 16 8 17 9 18 10 8 11 7 12
REMARK SMILES IDX 6 13 5 14 4 15 3 16 2 17 1 18
REMARK H PARENT
REMARK Flexibility Score: inf
ROOT
ATOM      1  C   UNL     1     148.419 134.783 149.194  1.00  0.00     0.000 C 
ENDROOT
BRANCH   1   2
ATOM      2  C   UNL     1     148.722 135.877 150.233  1.00  0.00     0.000 C 
BRANCH   2   3
ATOM      3  C   UNL     1     149.132 137.210 149.583  1.00  0.00     0.000 C 
BRANCH   3   4
ATOM      4  C   UNL     1     147.925 138.090 149.228  1.00  0.00     0.000 C 
BRANCH   4   5
ATOM      5  C   UNL     1     147.906 138.419 147.731  1.00  0.00     0.000 C 
BRANCH   5   6
ATOM      6  C   UNL     1     148.988 137.632 146.980  1.00  0.00     0.006 C 
BRANCH   6   7
ATOM      7  C   UNL     1     148.663 137.536 145.487  1.00  0.00     0.053 C 
BRANCH   7   8
ATOM      8  C   UNL     1     149.629 138.351 144.688  1.00  0.00     0.041 C 
ATOM      9  O   UNL     1     150.303 139.257 145.243  1.00  0.00    -0.550 OA
ATOM     10  O   UNL     1     149.747 138.146 143.319  1.00  0.00    -0.550 OA
ENDBRANCH   7   8
ENDBRANCH   6   7
ENDBRANCH   5   6
ENDBRANCH   4   5
ENDBRANCH   3   4
ENDBRANCH   2   3
ENDBRANCH   1   2
BRANCH   1  11
ATOM     11  C   UNL     1     146.921 134.446 149.107  1.00  0.00     0.000 C 
BRANCH  11  12
ATOM     12  C   UNL     1     146.423 134.343 147.656  1.00  0.00    -0.000 C 
BRANCH  12  13
ATOM     13  C   UNL     1     145.759 135.640 147.167  1.00  0.00    -0.000 C 
BRANCH  13  14
ATOM     14  C   UNL     1     144.393 135.892 147.824  1.00  0.00    -0.000 C 
BRANCH  14  15
ATOM     15  C   UNL     1     144.329 137.305 148.426  1.00  0.00    -0.000 C 
BRANCH  15  16
ATOM     16  C   UNL     1     144.461 137.301 149.958  1.00  0.00    -0.000 C 
BRANCH  16  17
ATOM     17  C   UNL     1     143.713 136.131 150.613  1.00  0.00    -0.003 C 
ATOM     18  C   UNL     1     144.551 135.494 151.718  1.00  0.00     0.004 C 
ENDBRANCH  16  17
ENDBRANCH  15  16
ENDBRANCH  14  15
ENDBRANCH  13  14
ENDBRANCH  12  13
ENDBRANCH  11  12
ENDBRANCH   1  11
TORSDOF 14
ENDMDL
MODEL 8
REMARK VINA RESULT:    -3.759     11.325     14.528
REMARK INTER + INTRA:          -8.077
REMARK INTER:                  -5.627
REMARK INTRA:                  -2.450
REMARK UNBOUND:                -1.241
REMARK SMILES CCCCCCCCCCCCCCCC(=O)[O-]
REMARK SMILES IDX 9 1 10 2 11 3 12 4 13 5 14 6 15 7 16 8 17 9 18 10 8 11 7 12
REMARK SMILES IDX 6 13 5 14 4 15 3 16 2 17 1 18
REMARK H PARENT
REMARK Flexibility Score: inf
ROOT
ATOM      1  C   UNL     1     148.301 134.849 149.153  1.00  0.00     0.000 C 
ENDROOT
BRANCH   1   2
ATOM      2  C   UNL     1     149.140 135.861 149.953  1.00  0.00     0.000 C 
BRANCH   2   3
ATOM      3  C   UNL     1     149.421 137.150 149.163  1.00  0.00     0.000 C 
BRANCH   3   4
ATOM      4  C   UNL     1     148.168 138.020 148.987  1.00  0.00     0.000 C 
BRANCH   4   5
ATOM      5  C   UNL     1     148.027 138.492 147.536  1.00  0.00     0.000 C 
BRANCH   5   6
ATOM      6  C   UNL     1     148.203 137.325 146.556  1.00  0.00     0.006 C 
BRANCH   6   7
ATOM      7  C   UNL     1     148.621 137.827 145.171  1.00  0.00     0.053 C 
BRANCH   7   8
ATOM      8  C   UNL     1     150.070 137.547 144.929  1.00  0.00     0.041 C 
ATOM      9  O   UNL     1     150.418 136.755 144.015  1.00  0.00    -0.550 OA
ATOM     10  O   UNL     1     151.036 138.122 145.746  1.00  0.00    -0.550 OA
ENDBRANCH   7   8
ENDBRANCH   6   7
ENDBRANCH   5   6
ENDBRANCH   4   5
ENDBRANCH   3   4
ENDBRANCH   2   3
ENDBRANCH   1   2
BRANCH   1  11
ATOM     11  C   UNL     1     147.028 134.414 149.898  1.00  0.00     0.000 C 
BRANCH  11  12
ATOM     12  C   UNL     1     145.745 134.754 149.121  1.00  0.00    -0.000 C 
BRANCH  12  13
ATOM     13  C   UNL     1     145.123 136.088 149.566  1.00  0.00    -0.000 C 
BRANCH  13  14
ATOM     14  C   UNL     1     144.599 136.922 148.386  1.00  0.00    -0.000 C 
BRANCH  14  15
ATOM     15  C   UNL     1     144.693 136.130 147.073  1.00  0.00    -0.000 C 
BRANCH  15  16
ATOM     16  C   UNL     1     144.736 137.040 145.835  1.00  0.00    -0.000 C 
BRANCH  16  17
ATOM     17  C   UNL     1     144.465 138.513 146.175  1.00  0.00    -0.003 C 
ATOM     18  C   UNL     1     145.081 139.440 145.130  1.00  0.00     0.004 C 
ENDBRANCH  16  17
ENDBRANCH  15  16
ENDBRANCH  14  15
ENDBRANCH  13  14
ENDBRANCH  12  13
ENDBRANCH  11  12
ENDBRANCH   1  11
TORSDOF 14
ENDMDL
MODEL 9
REMARK VINA RESULT:    -3.694     11.289     14.449
REMARK INTER + INTRA:          -7.959
REMARK INTER:                  -5.827
REMARK INTRA:                  -2.132
REMARK UNBOUND:                -1.241
REMARK SMILES CCCCCCCCCCCCCCCC(=O)[O-]
REMARK SMILES IDX 9 1 10 2 11 3 12 4 13 5 14 6 15 7 16 8 17 9 18 10 8 11 7 12
REMARK SMILES IDX 6 13 5 14 4 15 3 16 2 17 1 18
REMARK H PARENT
REMARK Flexibility Score: inf
ROOT
ATOM      1  C   UNL     1     148.151 136.592 149.839  1.00  0.00     0.000 C 
ENDROOT
BRANCH   1   2
ATOM      2  C   UNL     1     147.840 137.802 148.939  1.00  0.00     0.000 C 
BRANCH   2   3
ATOM      3  C   UNL     1     147.579 137.398 147.478  1.00  0.00     0.000 C 
BRANCH   3   4
ATOM      4  C   UNL     1     147.381 138.610 146.557  1.00  0.00     0.000 C 
BRANCH   4   5
ATOM      5  C   UNL     1     146.048 138.516 145.804  1.00  0.00     0.000 C 
BRANCH   5   6
ATOM      6  C   UNL     1     145.686 139.857 145.154  1.00  0.00     0.006 C 
BRANCH   6   7
ATOM      7  C   UNL     1     146.667 140.207 144.032  1.00  0.00     0.053 C 
BRANCH   7   8
ATOM      8  C   UNL     1     146.546 139.229 142.906  1.00  0.00     0.041 C 
ATOM      9  O   UNL     1     147.536 138.531 142.564  1.00  0.00    -0.550 OA
ATOM     10  O   UNL     1     145.353 139.125 142.202  1.00  0.00    -0.550 OA
ENDBRANCH   7   8
ENDBRANCH   6   7
ENDBRANCH   5   6
ENDBRANCH   4   5
ENDBRANCH   3   4
ENDBRANCH   2   3
ENDBRANCH   1   2
BRANCH   1  11
ATOM     11  C   UNL     1     147.906 135.249 149.132  1.00  0.00     0.000 C 
BRANCH  11  12
ATOM     12  C   UNL     1     146.815 134.411 149.820  1.00  0.00    -0.000 C 
BRANCH  12  13
ATOM     13  C   UNL     1     146.720 134.693 151.329  1.00  0.00    -0.000 C 
BRANCH  13  14
ATOM     14  C   UNL     1     145.293 135.045 151.778  1.00  0.00    -0.000 C 
BRANCH  14  15
ATOM     15  C   UNL     1     144.422 135.438 150.575  1.00  0.00    -0.000 C 
BRANCH  15  16
ATOM     16  C   UNL     1     144.268 136.961 150.429  1.00  0.00    -0.000 C 
BRANCH  16  17
ATOM     17  C   UNL     1     144.217 137.412 148.962  1.00  0.00    -0.003 C 
ATOM     18  C   UNL     1     144.082 136.215 148.024  1.00  0.00     0.004 C 
ENDBRANCH  16  17
ENDBRANCH  15  16
ENDBRANCH  14  15
ENDBRANCH  13  14
ENDBRANCH  12  13
ENDBRANCH  11  12
ENDBRANCH   1  11
TORSDOF 14
ENDMDL
