MODEL 1
REMARK VINA RESULT:    -6.452      0.000      0.000
REMARK INTER + INTRA:          -8.090
REMARK INTER:                  -7.772
REMARK INTRA:                  -0.318
REMARK UNBOUND:                -0.318
REMARK SMILES Oc1cc(O)c2c(c1)O[C@H](c1ccc(O)c(O)c1)[C@@H](O)C2
REMARK SMILES IDX 21 1 19 2 10 3 9 4 7 5 8 6 2 7 3 8 4 9 6 10 20 11 11 13
REMARK SMILES IDX 18 14 12 15 16 16 13 17 14 18 17 19 15 21 5 23 1 25
REMARK H PARENT 20 12 17 20 15 22 5 24 1 26
REMARK Flexibility Score: inf
ROOT
ATOM      1  C   UNL     1      -5.004 -13.242   4.788  1.00  0.00     0.079 C 
ATOM      2  C   UNL     1      -5.231 -14.210   3.615  1.00  0.00     0.164 C 
ATOM      3  C   UNL     1      -5.787 -15.547   4.148  1.00  0.00     0.232 C 
ATOM      4  O   UNL     1      -4.907 -16.089   5.135  1.00  0.00    -0.482 OA
ATOM      5  C   UNL     1      -4.211 -15.284   6.044  1.00  0.00     0.131 A 
ATOM      6  C   UNL     1      -3.498 -15.885   7.085  1.00  0.00     0.093 A 
ATOM      7  C   UNL     1      -2.795 -15.096   8.005  1.00  0.00     0.122 A 
ATOM      8  C   UNL     1      -2.810 -13.705   7.883  1.00  0.00     0.092 A 
ATOM      9  C   UNL     1      -3.518 -13.090   6.839  1.00  0.00     0.126 A 
ATOM     10  C   UNL     1      -4.208 -13.882   5.901  1.00  0.00     0.039 A 
ENDROOT
BRANCH   2  11
ATOM     11  O   UNL     1      -6.138 -13.626   2.715  1.00  0.00    -0.389 OA
ATOM     12  H   UNL     1      -6.861 -14.290   2.561  1.00  0.00     0.211 HD
ENDBRANCH   2  11
BRANCH   3  13
ATOM     13  C   UNL     1      -5.967 -16.550   3.032  1.00  0.00    -0.001 A 
ATOM     14  C   UNL     1      -7.162 -17.282   2.922  1.00  0.00     0.057 A 
ATOM     15  C   UNL     1      -4.963 -16.728   2.064  1.00  0.00     0.012 A 
ATOM     16  C   UNL     1      -7.343 -18.192   1.871  1.00  0.00     0.157 A 
ATOM     17  C   UNL     1      -5.144 -17.635   1.018  1.00  0.00     0.050 A 
ATOM     18  C   UNL     1      -6.332 -18.371   0.918  1.00  0.00     0.157 A 
BRANCH  16  19
ATOM     19  O   UNL     1      -8.526 -18.921   1.766  1.00  0.00    -0.504 OA
ATOM     20  H   UNL     1      -8.520 -19.928   1.647  1.00  0.00     0.293 HD
ENDBRANCH  16  19
BRANCH  18  21
ATOM     21  O   UNL     1      -6.517 -19.277  -0.125  1.00  0.00    -0.504 OA
ATOM     22  H   UNL     1      -7.443 -19.571  -0.412  1.00  0.00     0.293 HD
ENDBRANCH  18  21
ENDBRANCH   3  13
BRANCH   9  23
ATOM     23  O   UNL     1      -3.539 -11.700   6.734  1.00  0.00    -0.507 OA
ATOM     24  H   UNL     1      -3.684 -11.237   5.845  1.00  0.00     0.293 HD
ENDBRANCH   9  23
BRANCH   7  25
ATOM     25  O   UNL     1      -2.083 -15.688   9.047  1.00  0.00    -0.508 OA
ATOM     26  H   UNL     1      -2.352 -15.555  10.015  1.00  0.00     0.293 HD
ENDBRANCH   7  25
TORSDOF 6
ENDMDL
MODEL 2
REMARK VINA RESULT:    -6.008      1.848      7.043
REMARK INTER + INTRA:          -7.555
REMARK INTER:                  -7.177
REMARK INTRA:                  -0.377
REMARK UNBOUND:                -0.318
REMARK SMILES Oc1cc(O)c2c(c1)O[C@H](c1ccc(O)c(O)c1)[C@@H](O)C2
REMARK SMILES IDX 21 1 19 2 10 3 9 4 7 5 8 6 2 7 3 8 4 9 6 10 20 11 11 13
REMARK SMILES IDX 18 14 12 15 16 16 13 17 14 18 17 19 15 21 5 23 1 25
REMARK H PARENT 20 12 17 20 15 22 5 24 1 26
REMARK Flexibility Score: inf
ROOT
ATOM      1  C   UNL     1      -4.263 -13.267   4.813  1.00  0.00     0.079 C 
ATOM      2  C   UNL     1      -3.875 -13.313   6.299  1.00  0.00     0.164 C 
ATOM      3  C   UNL     1      -3.239 -14.680   6.626  1.00  0.00     0.232 C 
ATOM      4  O   UNL     1      -4.130 -15.738   6.265  1.00  0.00    -0.482 OA
ATOM      5  C   UNL     1      -4.952 -15.674   5.135  1.00  0.00     0.131 A 
ATOM      6  C   UNL     1      -5.677 -16.806   4.750  1.00  0.00     0.093 A 
ATOM      7  C   UNL     1      -6.505 -16.763   3.622  1.00  0.00     0.122 A 
ATOM      8  C   UNL     1      -6.606 -15.585   2.877  1.00  0.00     0.092 A 
ATOM      9  C   UNL     1      -5.888 -14.441   3.257  1.00  0.00     0.126 A 
ATOM     10  C   UNL     1      -5.070 -14.476   4.403  1.00  0.00     0.039 A 
ENDROOT
BRANCH   2  11
ATOM     11  O   UNL     1      -2.966 -12.274   6.563  1.00  0.00    -0.389 OA
ATOM     12  H   UNL     1      -3.370 -11.439   6.207  1.00  0.00     0.211 HD
ENDBRANCH   2  11
BRANCH   3  13
ATOM     13  C   UNL     1      -2.899 -14.791   8.094  1.00  0.00    -0.001 A 
ATOM     14  C   UNL     1      -3.921 -14.869   9.056  1.00  0.00     0.057 A 
ATOM     15  C   UNL     1      -1.558 -14.867   8.511  1.00  0.00     0.012 A 
ATOM     16  C   UNL     1      -3.607 -15.001  10.416  1.00  0.00     0.157 A 
ATOM     17  C   UNL     1      -1.247 -14.998   9.866  1.00  0.00     0.050 A 
ATOM     18  C   UNL     1      -2.269 -15.064  10.823  1.00  0.00     0.157 A 
BRANCH  16  19
ATOM     19  O   UNL     1      -4.622 -15.073  11.369  1.00  0.00    -0.504 OA
ATOM     20  H   UNL     1      -5.252 -15.865  11.415  1.00  0.00     0.293 HD
ENDBRANCH  16  19
BRANCH  18  21
ATOM     21  O   UNL     1      -1.962 -15.195  12.176  1.00  0.00    -0.504 OA
ATOM     22  H   UNL     1      -1.700 -16.089  12.575  1.00  0.00     0.293 HD
ENDBRANCH  18  21
ENDBRANCH   3  13
BRANCH   9  23
ATOM     23  O   UNL     1      -5.984 -13.274   2.499  1.00  0.00    -0.507 OA
ATOM     24  H   UNL     1      -6.168 -12.375   2.929  1.00  0.00     0.293 HD
ENDBRANCH   9  23
BRANCH   7  25
ATOM     25  O   UNL     1      -7.228 -17.888   3.230  1.00  0.00    -0.508 OA
ATOM     26  H   UNL     1      -8.239 -17.915   3.288  1.00  0.00     0.293 HD
ENDBRANCH   7  25
TORSDOF 6
ENDMDL
MODEL 3
REMARK VINA RESULT:    -5.887      1.755      7.224
REMARK INTER + INTRA:          -7.409
REMARK INTER:                  -7.035
REMARK INTRA:                  -0.374
REMARK UNBOUND:                -0.318
REMARK SMILES Oc1cc(O)c2c(c1)O[C@H](c1ccc(O)c(O)c1)[C@@H](O)C2
REMARK SMILES IDX 21 1 19 2 10 3 9 4 7 5 8 6 2 7 3 8 4 9 6 10 20 11 11 13
REMARK SMILES IDX 18 14 12 15 16 16 13 17 14 18 17 19 15 21 5 23 1 25
REMARK H PARENT 20 12 17 20 15 22 5 24 1 26
REMARK Flexibility Score: inf
ROOT
ATOM      1  C   UNL     1      -4.294 -13.302   4.816  1.00  0.00     0.079 C 
ATOM      2  C   UNL     1      -3.909 -13.387   6.301  1.00  0.00     0.164 C 
ATOM      3  C   UNL     1      -3.275 -14.762   6.594  1.00  0.00     0.232 C 
ATOM      4  O   UNL     1      -4.165 -15.809   6.204  1.00  0.00    -0.482 OA
ATOM      5  C   UNL     1      -4.985 -15.716   5.074  1.00  0.00     0.131 A 
ATOM      6  C   UNL     1      -5.709 -16.838   4.658  1.00  0.00     0.093 A 
ATOM      7  C   UNL     1      -6.535 -16.765   3.529  1.00  0.00     0.122 A 
ATOM      8  C   UNL     1      -6.633 -15.568   2.815  1.00  0.00     0.092 A 
ATOM      9  C   UNL     1      -5.916 -14.434   3.226  1.00  0.00     0.126 A 
ATOM     10  C   UNL     1      -5.100 -14.500   4.373  1.00  0.00     0.039 A 
ENDROOT
BRANCH   2  11
ATOM     11  O   UNL     1      -3.000 -12.356   6.594  1.00  0.00    -0.389 OA
ATOM     12  H   UNL     1      -3.524 -11.613   6.995  1.00  0.00     0.211 HD
ENDBRANCH   2  11
BRANCH   3  13
ATOM     13  C   UNL     1      -2.937 -14.911   8.059  1.00  0.00    -0.001 A 
ATOM     14  C   UNL     1      -1.601 -15.062   8.468  1.00  0.00     0.057 A 
ATOM     15  C   UNL     1      -3.949 -14.850   9.034  1.00  0.00     0.012 A 
ATOM     16  C   UNL     1      -1.282 -15.170   9.829  1.00  0.00     0.157 A 
ATOM     17  C   UNL     1      -3.631 -14.959  10.389  1.00  0.00     0.050 A 
ATOM     18  C   UNL     1      -2.299 -15.121  10.792  1.00  0.00     0.157 A 
BRANCH  16  19
ATOM     19  O   UNL     1       0.043 -15.326  10.233  1.00  0.00    -0.504 OA
ATOM     20  H   UNL     1       0.308 -16.017  10.926  1.00  0.00     0.293 HD
ENDBRANCH  16  19
BRANCH  18  21
ATOM     21  O   UNL     1      -1.977 -15.230  12.144  1.00  0.00    -0.504 OA
ATOM     22  H   UNL     1      -2.585 -15.712  12.795  1.00  0.00     0.293 HD
ENDBRANCH  18  21
ENDBRANCH   3  13
BRANCH   9  23
ATOM     23  O   UNL     1      -6.009 -13.248   2.499  1.00  0.00    -0.507 OA
ATOM     24  H   UNL     1      -5.995 -13.244   1.486  1.00  0.00     0.293 HD
ENDBRANCH   9  23
BRANCH   7  25
ATOM     25  O   UNL     1      -7.257 -17.879   3.107  1.00  0.00    -0.508 OA
ATOM     26  H   UNL     1      -8.256 -17.832   2.944  1.00  0.00     0.293 HD
ENDBRANCH   7  25
TORSDOF 6
ENDMDL
MODEL 4
REMARK VINA RESULT:    -5.680      9.763     10.713
REMARK INTER + INTRA:          -7.160
REMARK INTER:                  -7.060
REMARK INTRA:                  -0.099
REMARK UNBOUND:                -0.318
REMARK SMILES Oc1cc(O)c2c(c1)O[C@H](c1ccc(O)c(O)c1)[C@@H](O)C2
REMARK SMILES IDX 21 1 19 2 10 3 9 4 7 5 8 6 2 7 3 8 4 9 6 10 20 11 11 13
REMARK SMILES IDX 18 14 12 15 16 16 13 17 14 18 17 19 15 21 5 23 1 25
REMARK H PARENT 20 12 17 20 15 22 5 24 1 26
REMARK Flexibility Score: inf
ROOT
ATOM      1  C   UNL     1     -11.453 -10.593  11.231  1.00  0.00     0.079 C 
ATOM      2  C   UNL     1     -12.448 -11.754  11.074  1.00  0.00     0.164 C 
ATOM      3  C   UNL     1     -12.334 -12.701  12.286  1.00  0.00     0.232 C 
ATOM      4  O   UNL     1     -10.987 -13.157  12.431  1.00  0.00    -0.482 OA
ATOM      5  C   UNL     1      -9.884 -12.341  12.158  1.00  0.00     0.131 A 
ATOM      6  C   UNL     1      -8.601 -12.795  12.476  1.00  0.00     0.093 A 
ATOM      7  C   UNL     1      -7.484 -11.993  12.210  1.00  0.00     0.122 A 
ATOM      8  C   UNL     1      -7.654 -10.734  11.627  1.00  0.00     0.092 A 
ATOM      9  C   UNL     1      -8.936 -10.271  11.298  1.00  0.00     0.126 A 
ATOM     10  C   UNL     1     -10.059 -11.084  11.546  1.00  0.00     0.039 A 
ENDROOT
BRANCH   2  11
ATOM     11  O   UNL     1     -13.748 -11.227  10.984  1.00  0.00    -0.389 OA
ATOM     12  H   UNL     1     -13.902 -10.694  11.808  1.00  0.00     0.211 HD
ENDBRANCH   2  11
BRANCH   3  13
ATOM     13  C   UNL     1     -13.253 -13.891  12.143  1.00  0.00    -0.001 A 
ATOM     14  C   UNL     1     -12.736 -15.148  11.785  1.00  0.00     0.057 A 
ATOM     15  C   UNL     1     -14.628 -13.767  12.412  1.00  0.00     0.012 A 
ATOM     16  C   UNL     1     -13.583 -16.261  11.680  1.00  0.00     0.157 A 
ATOM     17  C   UNL     1     -15.471 -14.875  12.306  1.00  0.00     0.050 A 
ATOM     18  C   UNL     1     -14.953 -16.125  11.939  1.00  0.00     0.157 A 
BRANCH  16  19
ATOM     19  O   UNL     1     -13.070 -17.506  11.320  1.00  0.00    -0.504 OA
ATOM     20  H   UNL     1     -12.093 -17.736  11.458  1.00  0.00     0.293 HD
ENDBRANCH  16  19
BRANCH  18  21
ATOM     21  O   UNL     1     -15.791 -17.233  11.832  1.00  0.00    -0.504 OA
ATOM     22  H   UNL     1     -15.421 -18.177  11.819  1.00  0.00     0.293 HD
ENDBRANCH  18  21
ENDBRANCH   3  13
BRANCH   9  23
ATOM     23  O   UNL     1      -9.097  -9.007  10.730  1.00  0.00    -0.507 OA
ATOM     24  H   UNL     1      -9.735  -8.325  11.124  1.00  0.00     0.293 HD
ENDBRANCH   9  23
BRANCH   7  25
ATOM     25  O   UNL     1      -6.201 -12.436  12.526  1.00  0.00    -0.508 OA
ATOM     26  H   UNL     1      -5.967 -13.422  12.529  1.00  0.00     0.293 HD
ENDBRANCH   7  25
TORSDOF 6
ENDMDL
MODEL 5
REMARK VINA RESULT:    -5.661      1.783      3.067
REMARK INTER + INTRA:          -7.137
REMARK INTER:                  -6.757
REMARK INTRA:                  -0.380
REMARK UNBOUND:                -0.318
REMARK SMILES Oc1cc(O)c2c(c1)O[C@H](c1ccc(O)c(O)c1)[C@@H](O)C2
REMARK SMILES IDX 21 1 19 2 10 3 9 4 7 5 8 6 2 7 3 8 4 9 6 10 20 11 11 13
REMARK SMILES IDX 18 14 12 15 16 16 13 17 14 18 17 19 15 21 5 23 1 25
REMARK H PARENT 20 12 17 20 15 22 5 24 1 26
REMARK Flexibility Score: inf
ROOT
ATOM      1  C   UNL     1      -2.222 -17.034   5.010  1.00  0.00     0.079 C 
ATOM      2  C   UNL     1      -3.323 -17.732   4.196  1.00  0.00     0.164 C 
ATOM      3  C   UNL     1      -3.629 -16.911   2.926  1.00  0.00     0.232 C 
ATOM      4  O   UNL     1      -3.981 -15.571   3.278  1.00  0.00    -0.482 OA
ATOM      5  C   UNL     1      -3.382 -14.892   4.344  1.00  0.00     0.131 A 
ATOM      6  C   UNL     1      -3.654 -13.534   4.531  1.00  0.00     0.093 A 
ATOM      7  C   UNL     1      -3.064 -12.836   5.593  1.00  0.00     0.122 A 
ATOM      8  C   UNL     1      -2.198 -13.500   6.466  1.00  0.00     0.092 A 
ATOM      9  C   UNL     1      -1.921 -14.864   6.291  1.00  0.00     0.126 A 
ATOM     10  C   UNL     1      -2.530 -15.573   5.237  1.00  0.00     0.039 A 
ENDROOT
BRANCH   2  11
ATOM     11  O   UNL     1      -2.884 -19.022   3.852  1.00  0.00    -0.389 OA
ATOM     12  H   UNL     1      -3.630 -19.462   3.366  1.00  0.00     0.211 HD
ENDBRANCH   2  11
BRANCH   3  13
ATOM     13  C   UNL     1      -4.751 -17.531   2.127  1.00  0.00    -0.001 A 
ATOM     14  C   UNL     1      -6.044 -17.620   2.670  1.00  0.00     0.057 A 
ATOM     15  C   UNL     1      -4.527 -17.981   0.814  1.00  0.00     0.012 A 
ATOM     16  C   UNL     1      -7.094 -18.168   1.920  1.00  0.00     0.157 A 
ATOM     17  C   UNL     1      -5.572 -18.528   0.067  1.00  0.00     0.050 A 
ATOM     18  C   UNL     1      -6.858 -18.625   0.617  1.00  0.00     0.157 A 
BRANCH  16  19
ATOM     19  O   UNL     1      -8.375 -18.261   2.462  1.00  0.00    -0.504 OA
ATOM     20  H   UNL     1      -9.162 -17.774   2.049  1.00  0.00     0.293 HD
ENDBRANCH  16  19
BRANCH  18  21
ATOM     21  O   UNL     1      -7.905 -19.170  -0.125  1.00  0.00    -0.504 OA
ATOM     22  H   UNL     1      -8.743 -19.521   0.322  1.00  0.00     0.293 HD
ENDBRANCH  18  21
ENDBRANCH   3  13
BRANCH   9  23
ATOM     23  O   UNL     1      -1.045 -15.515   7.159  1.00  0.00    -0.507 OA
ATOM     24  H   UNL     1      -0.639 -15.041   7.958  1.00  0.00     0.293 HD
ENDBRANCH   9  23
BRANCH   7  25
ATOM     25  O   UNL     1      -3.328 -11.482   5.784  1.00  0.00    -0.508 OA
ATOM     26  H   UNL     1      -3.407 -10.841   5.003  1.00  0.00     0.293 HD
ENDBRANCH   7  25
TORSDOF 6
ENDMDL
MODEL 6
REMARK VINA RESULT:    -5.640      2.577      4.531
REMARK INTER + INTRA:          -7.112
REMARK INTER:                  -6.739
REMARK INTRA:                  -0.373
REMARK UNBOUND:                -0.318
REMARK SMILES Oc1cc(O)c2c(c1)O[C@H](c1ccc(O)c(O)c1)[C@@H](O)C2
REMARK SMILES IDX 21 1 19 2 10 3 9 4 7 5 8 6 2 7 3 8 4 9 6 10 20 11 11 13
REMARK SMILES IDX 18 14 12 15 16 16 13 17 14 18 17 19 15 21 5 23 1 25
REMARK H PARENT 20 12 17 20 15 22 5 24 1 26
REMARK Flexibility Score: inf
ROOT
ATOM      1  C   UNL     1      -0.885 -15.239   7.411  1.00  0.00     0.079 C 
ATOM      2  C   UNL     1      -2.022 -15.515   6.415  1.00  0.00     0.164 C 
ATOM      3  C   UNL     1      -3.051 -14.367   6.471  1.00  0.00     0.232 C 
ATOM      4  O   UNL     1      -3.529 -14.197   7.807  1.00  0.00    -0.482 OA
ATOM      5  C   UNL     1      -2.707 -14.369   8.926  1.00  0.00     0.131 A 
ATOM      6  C   UNL     1      -3.194 -14.029  10.192  1.00  0.00     0.093 A 
ATOM      7  C   UNL     1      -2.388 -14.193  11.325  1.00  0.00     0.122 A 
ATOM      8  C   UNL     1      -1.091 -14.696  11.189  1.00  0.00     0.092 A 
ATOM      9  C   UNL     1      -0.593 -15.045   9.925  1.00  0.00     0.126 A 
ATOM     10  C   UNL     1      -1.410 -14.900   8.786  1.00  0.00     0.039 A 
ENDROOT
BRANCH   2  11
ATOM     11  O   UNL     1      -1.478 -15.623   5.124  1.00  0.00    -0.389 OA
ATOM     12  H   UNL     1      -1.272 -16.584   4.976  1.00  0.00     0.211 HD
ENDBRANCH   2  11
BRANCH   3  13
ATOM     13  C   UNL     1      -4.219 -14.630   5.550  1.00  0.00    -0.001 A 
ATOM     14  C   UNL     1      -4.451 -13.796   4.442  1.00  0.00     0.057 A 
ATOM     15  C   UNL     1      -5.057 -15.739   5.759  1.00  0.00     0.012 A 
ATOM     16  C   UNL     1      -5.517 -14.055   3.569  1.00  0.00     0.157 A 
ATOM     17  C   UNL     1      -6.119 -15.996   4.889  1.00  0.00     0.050 A 
ATOM     18  C   UNL     1      -6.353 -15.155   3.793  1.00  0.00     0.157 A 
BRANCH  16  19
ATOM     19  O   UNL     1      -5.749 -13.223   2.474  1.00  0.00    -0.504 OA
ATOM     20  H   UNL     1      -5.747 -12.213   2.566  1.00  0.00     0.293 HD
ENDBRANCH  16  19
BRANCH  18  21
ATOM     21  O   UNL     1      -7.412 -15.408   2.922  1.00  0.00    -0.504 OA
ATOM     22  H   UNL     1      -7.744 -16.350   2.753  1.00  0.00     0.293 HD
ENDBRANCH  18  21
ENDBRANCH   3  13
BRANCH   9  23
ATOM     23  O   UNL     1       0.708 -15.531   9.797  1.00  0.00    -0.507 OA
ATOM     24  H   UNL     1       1.027 -16.337  10.322  1.00  0.00     0.293 HD
ENDBRANCH   9  23
BRANCH   7  25
ATOM     25  O   UNL     1      -2.865 -13.855  12.590  1.00  0.00    -0.508 OA
ATOM     26  H   UNL     1      -3.759 -14.192  12.926  1.00  0.00     0.293 HD
ENDBRANCH   7  25
TORSDOF 6
ENDMDL
MODEL 7
REMARK VINA RESULT:    -5.580      1.872      7.151
REMARK INTER + INTRA:          -7.040
REMARK INTER:                  -6.702
REMARK INTRA:                  -0.338
REMARK UNBOUND:                -0.318
REMARK SMILES Oc1cc(O)c2c(c1)O[C@H](c1ccc(O)c(O)c1)[C@@H](O)C2
REMARK SMILES IDX 21 1 19 2 10 3 9 4 7 5 8 6 2 7 3 8 4 9 6 10 20 11 11 13
REMARK SMILES IDX 18 14 12 15 16 16 13 17 14 18 17 19 15 21 5 23 1 25
REMARK H PARENT 20 12 17 20 15 22 5 24 1 26
REMARK Flexibility Score: inf
ROOT
ATOM      1  C   UNL     1      -2.896 -16.733   3.724  1.00  0.00     0.079 C 
ATOM      2  C   UNL     1      -2.703 -15.339   4.342  1.00  0.00     0.164 C 
ATOM      3  C   UNL     1      -3.694 -15.147   5.508  1.00  0.00     0.232 C 
ATOM      4  O   UNL     1      -5.034 -15.360   5.058  1.00  0.00    -0.482 OA
ATOM      5  C   UNL     1      -5.360 -16.327   4.101  1.00  0.00     0.131 A 
ATOM      6  C   UNL     1      -6.704 -16.594   3.827  1.00  0.00     0.093 A 
ATOM      7  C   UNL     1      -7.051 -17.559   2.873  1.00  0.00     0.122 A 
ATOM      8  C   UNL     1      -6.050 -18.258   2.194  1.00  0.00     0.092 A 
ATOM      9  C   UNL     1      -4.697 -17.995   2.457  1.00  0.00     0.126 A 
ATOM     10  C   UNL     1      -4.346 -17.011   3.401  1.00  0.00     0.039 A 
ENDROOT
BRANCH   2  11
ATOM     11  O   UNL     1      -1.380 -15.225   4.799  1.00  0.00    -0.389 OA
ATOM     12  H   UNL     1      -1.253 -15.921   5.496  1.00  0.00     0.211 HD
ENDBRANCH   2  11
BRANCH   3  13
ATOM     13  C   UNL     1      -3.580 -13.764   6.105  1.00  0.00    -0.001 A 
ATOM     14  C   UNL     1      -3.440 -13.600   7.494  1.00  0.00     0.057 A 
ATOM     15  C   UNL     1      -3.561 -12.629   5.276  1.00  0.00     0.012 A 
ATOM     16  C   UNL     1      -3.303 -12.318   8.048  1.00  0.00     0.157 A 
ATOM     17  C   UNL     1      -3.427 -11.353   5.828  1.00  0.00     0.050 A 
ATOM     18  C   UNL     1      -3.299 -11.193   7.214  1.00  0.00     0.157 A 
BRANCH  16  19
ATOM     19  O   UNL     1      -3.171 -12.157   9.426  1.00  0.00    -0.504 OA
ATOM     20  H   UNL     1      -3.078 -11.239   9.845  1.00  0.00     0.293 HD
ENDBRANCH  16  19
BRANCH  18  21
ATOM     21  O   UNL     1      -3.164  -9.922   7.769  1.00  0.00    -0.504 OA
ATOM     22  H   UNL     1      -3.389  -9.087   7.241  1.00  0.00     0.293 HD
ENDBRANCH  18  21
ENDBRANCH   3  13
BRANCH   9  23
ATOM     23  O   UNL     1      -3.704 -18.708   1.785  1.00  0.00    -0.507 OA
ATOM     24  H   UNL     1      -3.508 -19.678   2.002  1.00  0.00     0.293 HD
ENDBRANCH   9  23
BRANCH   7  25
ATOM     25  O   UNL     1      -8.389 -17.832   2.595  1.00  0.00    -0.508 OA
ATOM     26  H   UNL     1      -8.659 -18.423   1.818  1.00  0.00     0.293 HD
ENDBRANCH   7  25
TORSDOF 6
ENDMDL
MODEL 8
REMARK VINA RESULT:    -5.486      5.696      8.869
REMARK INTER + INTRA:          -6.927
REMARK INTER:                  -6.585
REMARK INTRA:                  -0.342
REMARK UNBOUND:                -0.318
REMARK SMILES Oc1cc(O)c2c(c1)O[C@H](c1ccc(O)c(O)c1)[C@@H](O)C2
REMARK SMILES IDX 21 1 19 2 10 3 9 4 7 5 8 6 2 7 3 8 4 9 6 10 20 11 11 13
REMARK SMILES IDX 18 14 12 15 16 16 13 17 14 18 17 19 15 21 5 23 1 25
REMARK H PARENT 20 12 17 20 15 22 5 24 1 26
REMARK Flexibility Score: inf
ROOT
ATOM      1  C   UNL     1      -2.741 -14.026  12.199  1.00  0.00     0.079 C 
ATOM      2  C   UNL     1      -4.028 -13.205  12.377  1.00  0.00     0.164 C 
ATOM      3  C   UNL     1      -5.216 -13.958  11.743  1.00  0.00     0.232 C 
ATOM      4  O   UNL     1      -4.942 -14.246  10.371  1.00  0.00    -0.482 OA
ATOM      5  C   UNL     1      -3.662 -14.580   9.914  1.00  0.00     0.131 A 
ATOM      6  C   UNL     1      -3.496 -15.008   8.593  1.00  0.00     0.093 A 
ATOM      7  C   UNL     1      -2.223 -15.347   8.117  1.00  0.00     0.122 A 
ATOM      8  C   UNL     1      -1.117 -15.259   8.966  1.00  0.00     0.092 A 
ATOM      9  C   UNL     1      -1.270 -14.826  10.292  1.00  0.00     0.126 A 
ATOM     10  C   UNL     1      -2.546 -14.465  10.766  1.00  0.00     0.039 A 
ENDROOT
BRANCH   2  11
ATOM     11  O   UNL     1      -4.251 -13.004  13.749  1.00  0.00    -0.389 OA
ATOM     12  H   UNL     1      -4.420 -12.033  13.876  1.00  0.00     0.211 HD
ENDBRANCH   2  11
BRANCH   3  13
ATOM     13  C   UNL     1      -6.492 -13.155  11.842  1.00  0.00    -0.001 A 
ATOM     14  C   UNL     1      -7.660 -13.741  12.360  1.00  0.00     0.057 A 
ATOM     15  C   UNL     1      -6.513 -11.801  11.466  1.00  0.00     0.012 A 
ATOM     16  C   UNL     1      -8.838 -12.989  12.481  1.00  0.00     0.157 A 
ATOM     17  C   UNL     1      -7.686 -11.053  11.585  1.00  0.00     0.050 A 
ATOM     18  C   UNL     1      -8.853 -11.644  12.091  1.00  0.00     0.157 A 
BRANCH  16  19
ATOM     19  O   UNL     1      -9.997 -13.573  12.989  1.00  0.00    -0.504 OA
ATOM     20  H   UNL     1     -10.285 -14.505  12.715  1.00  0.00     0.293 HD
ENDBRANCH  16  19
BRANCH  18  21
ATOM     21  O   UNL     1     -10.026 -10.902  12.212  1.00  0.00    -0.504 OA
ATOM     22  H   UNL     1     -10.404 -10.654  13.119  1.00  0.00     0.293 HD
ENDBRANCH  18  21
ENDBRANCH   3  13
BRANCH   9  23
ATOM     23  O   UNL     1      -0.162 -14.755  11.136  1.00  0.00    -0.507 OA
ATOM     24  H   UNL     1       0.103 -13.891  11.592  1.00  0.00     0.293 HD
ENDBRANCH   9  23
BRANCH   7  25
ATOM     25  O   UNL     1      -2.049 -15.777   6.803  1.00  0.00    -0.508 OA
ATOM     26  H   UNL     1      -2.178 -15.149   6.019  1.00  0.00     0.293 HD
ENDBRANCH   7  25
TORSDOF 6
ENDMDL
MODEL 9
REMARK VINA RESULT:    -5.334      3.083      7.814
REMARK INTER + INTRA:          -6.743
REMARK INTER:                  -6.404
REMARK INTRA:                  -0.340
REMARK UNBOUND:                -0.318
REMARK SMILES Oc1cc(O)c2c(c1)O[C@H](c1ccc(O)c(O)c1)[C@@H](O)C2
REMARK SMILES IDX 21 1 19 2 10 3 9 4 7 5 8 6 2 7 3 8 4 9 6 10 20 11 11 13
REMARK SMILES IDX 18 14 12 15 16 16 13 17 14 18 17 19 15 21 5 23 1 25
REMARK H PARENT 20 12 17 20 15 22 5 24 1 26
REMARK Flexibility Score: inf
ROOT
ATOM      1  C   UNL     1      -1.927 -15.656   5.602  1.00  0.00     0.079 C 
ATOM      2  C   UNL     1      -1.914 -15.102   7.035  1.00  0.00     0.164 C 
ATOM      3  C   UNL     1      -3.334 -15.182   7.635  1.00  0.00     0.232 C 
ATOM      4  O   UNL     1      -4.264 -14.495   6.796  1.00  0.00    -0.482 OA
ATOM      5  C   UNL     1      -4.163 -14.501   5.400  1.00  0.00     0.131 A 
ATOM      6  C   UNL     1      -5.195 -13.947   4.636  1.00  0.00     0.093 A 
ATOM      7  C   UNL     1      -5.113 -13.943   3.238  1.00  0.00     0.122 A 
ATOM      8  C   UNL     1      -3.997 -14.497   2.605  1.00  0.00     0.092 A 
ATOM      9  C   UNL     1      -2.953 -15.051   3.361  1.00  0.00     0.126 A 
ATOM     10  C   UNL     1      -3.024 -15.037   4.768  1.00  0.00     0.039 A 
ENDROOT
BRANCH   2  11
ATOM     11  O   UNL     1      -1.013 -15.856   7.805  1.00  0.00    -0.389 OA
ATOM     12  H   UNL     1      -1.038 -15.485   8.726  1.00  0.00     0.211 HD
ENDBRANCH   2  11
BRANCH   3  13
ATOM     13  C   UNL     1      -3.378 -14.590   9.024  1.00  0.00    -0.001 A 
ATOM     14  C   UNL     1      -2.816 -13.326   9.274  1.00  0.00     0.057 A 
ATOM     15  C   UNL     1      -4.026 -15.270  10.069  1.00  0.00     0.012 A 
ATOM     16  C   UNL     1      -2.882 -12.761  10.556  1.00  0.00     0.157 A 
ATOM     17  C   UNL     1      -4.090 -14.708  11.345  1.00  0.00     0.050 A 
ATOM     18  C   UNL     1      -3.518 -13.452  11.594  1.00  0.00     0.157 A 
BRANCH  16  19
ATOM     19  O   UNL     1      -2.318 -11.510  10.804  1.00  0.00    -0.504 OA
ATOM     20  H   UNL     1      -1.315 -11.389  10.892  1.00  0.00     0.293 HD
ENDBRANCH  16  19
BRANCH  18  21
ATOM     21  O   UNL     1      -3.581 -12.887  12.866  1.00  0.00    -0.504 OA
ATOM     22  H   UNL     1      -4.466 -12.635  13.290  1.00  0.00     0.293 HD
ENDBRANCH  18  21
ENDBRANCH   3  13
BRANCH   9  23
ATOM     23  O   UNL     1      -1.850 -15.614   2.720  1.00  0.00    -0.507 OA
ATOM     24  H   UNL     1      -1.093 -16.040   3.242  1.00  0.00     0.293 HD
ENDBRANCH   9  23
BRANCH   7  25
ATOM     25  O   UNL     1      -6.138 -13.396   2.470  1.00  0.00    -0.508 OA
ATOM     26  H   UNL     1      -5.951 -12.708   1.749  1.00  0.00     0.293 HD
ENDBRANCH   7  25
TORSDOF 6
ENDMDL
