MODEL 1
REMARK VINA RESULT:    -3.183      0.000      0.000
REMARK INTER + INTRA:          -5.184
REMARK INTER:                  -4.486
REMARK INTRA:                  -0.698
REMARK UNBOUND:                -0.698
REMARK SMILES CCCCCCCCC(=O)[O-]
REMARK SMILES IDX 6 1 7 2 8 3 9 4 10 5 11 6 5 7 4 8 3 9 2 10 1 11
REMARK H PARENT
REMARK Flexibility Score: inf
ROOT
ATOM      1  C   UNL     1      -0.605 -10.602  39.849  1.00  0.00     0.000 C 
ENDROOT
BRANCH   1   2
ATOM      2  C   UNL     1      -1.503 -10.491  41.086  1.00  0.00     0.006 C 
BRANCH   2   3
ATOM      3  C   UNL     1      -2.303 -11.779  41.302  1.00  0.00     0.053 C 
BRANCH   3   4
ATOM      4  C   UNL     1      -1.652 -12.630  42.347  1.00  0.00     0.041 C 
ATOM      5  O   UNL     1      -2.087 -13.787  42.583  1.00  0.00    -0.550 OA
ATOM      6  O   UNL     1      -0.534 -12.163  43.026  1.00  0.00    -0.550 OA
ENDBRANCH   3   4
ENDBRANCH   2   3
ENDBRANCH   1   2
BRANCH   1   7
ATOM      7  C   UNL     1      -0.359  -9.225  39.221  1.00  0.00     0.000 C 
BRANCH   7   8
ATOM      8  C   UNL     1      -1.314  -8.175  39.807  1.00  0.00    -0.000 C 
BRANCH   8   9
ATOM      9  C   UNL     1      -2.407  -7.737  38.815  1.00  0.00    -0.000 C 
BRANCH   9  10
ATOM     10  C   UNL     1      -3.812  -8.285  39.117  1.00  0.00    -0.003 C 
ATOM     11  C   UNL     1      -4.074  -9.646  38.472  1.00  0.00     0.004 C 
ENDBRANCH   9  10
ENDBRANCH   8   9
ENDBRANCH   7   8
ENDBRANCH   1   7
TORSDOF 7
ENDMDL
MODEL 2
REMARK VINA RESULT:    -3.090      1.162      2.433
REMARK INTER + INTRA:          -5.052
REMARK INTER:                  -4.535
REMARK INTRA:                  -0.517
REMARK UNBOUND:                -0.698
REMARK SMILES CCCCCCCCC(=O)[O-]
REMARK SMILES IDX 6 1 7 2 8 3 9 4 10 5 11 6 5 7 4 8 3 9 2 10 1 11
REMARK H PARENT
REMARK Flexibility Score: inf
ROOT
ATOM      1  C   UNL     1      -3.392  -9.551  40.923  1.00  0.00     0.000 C 
ENDROOT
BRANCH   1   2
ATOM      2  C   UNL     1      -1.959  -9.780  41.420  1.00  0.00     0.006 C 
BRANCH   2   3
ATOM      3  C   UNL     1      -1.455 -11.170  41.021  1.00  0.00     0.053 C 
BRANCH   3   4
ATOM      4  C   UNL     1      -1.341 -12.051  42.225  1.00  0.00     0.041 C 
ATOM      5  O   UNL     1      -0.546 -11.753  43.154  1.00  0.00    -0.550 OA
ATOM      6  O   UNL     1      -2.149 -13.174  42.344  1.00  0.00    -0.550 OA
ENDBRANCH   3   4
ENDBRANCH   2   3
ENDBRANCH   1   2
BRANCH   1   7
ATOM      7  C   UNL     1      -3.406  -8.661  39.675  1.00  0.00     0.000 C 
BRANCH   7   8
ATOM      8  C   UNL     1      -2.048  -7.973  39.474  1.00  0.00    -0.000 C 
BRANCH   8   9
ATOM      9  C   UNL     1      -1.797  -7.555  38.014  1.00  0.00    -0.000 C 
BRANCH   9  10
ATOM     10  C   UNL     1      -0.650  -8.303  37.314  1.00  0.00    -0.003 C 
ATOM     11  C   UNL     1       0.019  -9.346  38.210  1.00  0.00     0.004 C 
ENDBRANCH   9  10
ENDBRANCH   8   9
ENDBRANCH   7   8
ENDBRANCH   1   7
TORSDOF 7
ENDMDL
MODEL 3
REMARK VINA RESULT:    -3.086      2.976      5.865
REMARK INTER + INTRA:          -5.047
REMARK INTER:                  -4.717
REMARK INTRA:                  -0.330
REMARK UNBOUND:                -0.698
REMARK SMILES CCCCCCCCC(=O)[O-]
REMARK SMILES IDX 6 1 7 2 8 3 9 4 10 5 11 6 5 7 4 8 3 9 2 10 1 11
REMARK H PARENT
REMARK Flexibility Score: inf
ROOT
ATOM      1  C   UNL     1      -0.954 -11.555  42.580  1.00  0.00     0.000 C 
ENDROOT
BRANCH   1   2
ATOM      2  C   UNL     1      -1.481 -11.085  41.218  1.00  0.00     0.006 C 
BRANCH   2   3
ATOM      3  C   UNL     1      -2.198  -9.738  41.343  1.00  0.00     0.053 C 
BRANCH   3   4
ATOM      4  C   UNL     1      -1.856  -8.853  40.186  1.00  0.00     0.041 C 
ATOM      5  O   UNL     1      -2.729  -8.097  39.686  1.00  0.00    -0.550 OA
ATOM      6  O   UNL     1      -0.558  -8.828  39.690  1.00  0.00    -0.550 OA
ENDBRANCH   3   4
ENDBRANCH   2   3
ENDBRANCH   1   2
BRANCH   1   7
ATOM      7  C   UNL     1      -1.299 -13.029  42.824  1.00  0.00     0.000 C 
BRANCH   7   8
ATOM      8  C   UNL     1      -2.613 -13.410  42.126  1.00  0.00    -0.000 C 
BRANCH   8   9
ATOM      9  C   UNL     1      -3.017 -14.876  42.366  1.00  0.00    -0.000 C 
BRANCH   9  10
ATOM     10  C   UNL     1      -2.496 -15.483  43.680  1.00  0.00    -0.003 C 
ATOM     11  C   UNL     1      -1.802 -16.831  43.481  1.00  0.00     0.004 C 
ENDBRANCH   9  10
ENDBRANCH   8   9
ENDBRANCH   7   8
ENDBRANCH   1   7
TORSDOF 7
ENDMDL
MODEL 4
REMARK VINA RESULT:    -3.066      1.207      2.581
REMARK INTER + INTRA:          -5.018
REMARK INTER:                  -4.325
REMARK INTRA:                  -0.694
REMARK UNBOUND:                -0.698
REMARK SMILES CCCCCCCCC(=O)[O-]
REMARK SMILES IDX 6 1 7 2 8 3 9 4 10 5 11 6 5 7 4 8 3 9 2 10 1 11
REMARK H PARENT
REMARK Flexibility Score: inf
ROOT
ATOM      1  C   UNL     1      -3.704  -9.234  40.141  1.00  0.00     0.000 C 
ENDROOT
BRANCH   1   2
ATOM      2  C   UNL     1      -3.120  -9.672  41.490  1.00  0.00     0.006 C 
BRANCH   2   3
ATOM      3  C   UNL     1      -3.440 -11.142  41.775  1.00  0.00     0.053 C 
BRANCH   3   4
ATOM      4  C   UNL     1      -2.198 -11.882  42.162  1.00  0.00     0.041 C 
ATOM      5  O   UNL     1      -1.172 -11.251  42.528  1.00  0.00    -0.550 OA
ATOM      6  O   UNL     1      -2.190 -13.272  42.167  1.00  0.00    -0.550 OA
ENDBRANCH   3   4
ENDBRANCH   2   3
ENDBRANCH   1   2
BRANCH   1   7
ATOM      7  C   UNL     1      -2.762  -8.261  39.424  1.00  0.00     0.000 C 
BRANCH   7   8
ATOM      8  C   UNL     1      -1.392  -8.208  40.117  1.00  0.00    -0.000 C 
BRANCH   8   9
ATOM      9  C   UNL     1      -0.265  -8.821  39.268  1.00  0.00    -0.000 C 
BRANCH   9  10
ATOM     10  C   UNL     1      -0.281 -10.357  39.183  1.00  0.00    -0.003 C 
ATOM     11  C   UNL     1      -0.622 -10.876  37.786  1.00  0.00     0.004 C 
ENDBRANCH   9  10
ENDBRANCH   8   9
ENDBRANCH   7   8
ENDBRANCH   1   7
TORSDOF 7
ENDMDL
MODEL 5
REMARK VINA RESULT:    -3.036      1.166      2.615
REMARK INTER + INTRA:          -4.977
REMARK INTER:                  -4.434
REMARK INTRA:                  -0.543
REMARK UNBOUND:                -0.698
REMARK SMILES CCCCCCCCC(=O)[O-]
REMARK SMILES IDX 6 1 7 2 8 3 9 4 10 5 11 6 5 7 4 8 3 9 2 10 1 11
REMARK H PARENT
REMARK Flexibility Score: inf
ROOT
ATOM      1  C   UNL     1      -4.298  -9.734  41.338  1.00  0.00     0.000 C 
ENDROOT
BRANCH   1   2
ATOM      2  C   UNL     1      -3.599 -10.746  42.254  1.00  0.00     0.006 C 
BRANCH   2   3
ATOM      3  C   UNL     1      -2.171 -11.024  41.777  1.00  0.00     0.053 C 
BRANCH   3   4
ATOM      4  C   UNL     1      -1.695 -12.346  42.290  1.00  0.00     0.041 C 
ATOM      5  O   UNL     1      -0.628 -12.422  42.953  1.00  0.00    -0.550 OA
ATOM      6  O   UNL     1      -2.457 -13.489  42.077  1.00  0.00    -0.550 OA
ENDBRANCH   3   4
ENDBRANCH   2   3
ENDBRANCH   1   2
BRANCH   1   7
ATOM      7  C   UNL     1      -3.640  -9.698  39.954  1.00  0.00     0.000 C 
BRANCH   7   8
ATOM      8  C   UNL     1      -3.689  -8.283  39.357  1.00  0.00    -0.000 C 
BRANCH   8   9
ATOM      9  C   UNL     1      -2.306  -7.768  38.920  1.00  0.00    -0.000 C 
BRANCH   9  10
ATOM     10  C   UNL     1      -1.145  -8.166  39.847  1.00  0.00    -0.003 C 
ATOM     11  C   UNL     1      -0.130  -9.088  39.173  1.00  0.00     0.004 C 
ENDBRANCH   9  10
ENDBRANCH   8   9
ENDBRANCH   7   8
ENDBRANCH   1   7
TORSDOF 7
ENDMDL
MODEL 6
REMARK VINA RESULT:    -3.026      3.073      6.115
REMARK INTER + INTRA:          -4.963
REMARK INTER:                  -4.368
REMARK INTRA:                  -0.594
REMARK UNBOUND:                -0.698
REMARK SMILES CCCCCCCCC(=O)[O-]
REMARK SMILES IDX 6 1 7 2 8 3 9 4 10 5 11 6 5 7 4 8 3 9 2 10 1 11
REMARK H PARENT
REMARK Flexibility Score: inf
ROOT
ATOM      1  C   UNL     1      -3.378 -13.657  41.199  1.00  0.00     0.000 C 
ENDROOT
BRANCH   1   2
ATOM      2  C   UNL     1      -3.573 -12.138  41.121  1.00  0.00     0.006 C 
BRANCH   2   3
ATOM      3  C   UNL     1      -2.818 -11.428  42.247  1.00  0.00     0.053 C 
BRANCH   3   4
ATOM      4  C   UNL     1      -1.342 -11.491  42.009  1.00  0.00     0.041 C 
ATOM      5  O   UNL     1      -0.580 -11.980  42.883  1.00  0.00    -0.550 OA
ATOM      6  O   UNL     1      -0.814 -11.054  40.801  1.00  0.00    -0.550 OA
ENDBRANCH   3   4
ENDBRANCH   2   3
ENDBRANCH   1   2
BRANCH   1   7
ATOM      7  C   UNL     1      -4.426 -14.301  42.114  1.00  0.00     0.000 C 
BRANCH   7   8
ATOM      8  C   UNL     1      -3.788 -14.796  43.420  1.00  0.00    -0.000 C 
BRANCH   8   9
ATOM      9  C   UNL     1      -2.299 -15.152  43.263  1.00  0.00    -0.000 C 
BRANCH   9  10
ATOM     10  C   UNL     1      -1.936 -16.599  43.641  1.00  0.00    -0.003 C 
ATOM     11  C   UNL     1      -3.124 -17.556  43.554  1.00  0.00     0.004 C 
ENDBRANCH   9  10
ENDBRANCH   8   9
ENDBRANCH   7   8
ENDBRANCH   1   7
TORSDOF 7
ENDMDL
MODEL 7
REMARK VINA RESULT:    -2.975      2.486      4.756
REMARK INTER + INTRA:          -4.891
REMARK INTER:                  -4.219
REMARK INTRA:                  -0.672
REMARK UNBOUND:                -0.698
REMARK SMILES CCCCCCCCC(=O)[O-]
REMARK SMILES IDX 6 1 7 2 8 3 9 4 10 5 11 6 5 7 4 8 3 9 2 10 1 11
REMARK H PARENT
REMARK Flexibility Score: inf
ROOT
ATOM      1  C   UNL     1      -3.664  -9.649  40.064  1.00  0.00     0.000 C 
ENDROOT
BRANCH   1   2
ATOM      2  C   UNL     1      -2.883  -8.387  39.678  1.00  0.00     0.006 C 
BRANCH   2   3
ATOM      3  C   UNL     1      -1.434  -8.467  40.166  1.00  0.00     0.053 C 
BRANCH   3   4
ATOM      4  C   UNL     1      -0.600  -9.252  39.204  1.00  0.00     0.041 C 
ATOM      5  O   UNL     1      -0.267  -8.752  38.099  1.00  0.00    -0.550 OA
ATOM      6  O   UNL     1      -0.147 -10.520  39.550  1.00  0.00    -0.550 OA
ENDBRANCH   3   4
ENDBRANCH   2   3
ENDBRANCH   1   2
BRANCH   1   7
ATOM      7  C   UNL     1      -3.948  -9.681  41.571  1.00  0.00     0.000 C 
BRANCH   7   8
ATOM      8  C   UNL     1      -3.973 -11.124  42.096  1.00  0.00    -0.000 C 
BRANCH   8   9
ATOM      9  C   UNL     1      -2.993 -12.050  41.354  1.00  0.00    -0.000 C 
BRANCH   9  10
ATOM     10  C   UNL     1      -1.942 -12.730  42.249  1.00  0.00    -0.003 C 
ATOM     11  C   UNL     1      -0.863 -11.766  42.742  1.00  0.00     0.004 C 
ENDBRANCH   9  10
ENDBRANCH   8   9
ENDBRANCH   7   8
ENDBRANCH   1   7
TORSDOF 7
ENDMDL
MODEL 8
REMARK VINA RESULT:    -2.973      2.133      3.445
REMARK INTER + INTRA:          -4.887
REMARK INTER:                  -4.546
REMARK INTRA:                  -0.341
REMARK UNBOUND:                -0.698
REMARK SMILES CCCCCCCCC(=O)[O-]
REMARK SMILES IDX 6 1 7 2 8 3 9 4 10 5 11 6 5 7 4 8 3 9 2 10 1 11
REMARK H PARENT
REMARK Flexibility Score: inf
ROOT
ATOM      1  C   UNL     1      -2.786 -12.549  41.539  1.00  0.00     0.000 C 
ENDROOT
BRANCH   1   2
ATOM      2  C   UNL     1      -3.202 -13.641  42.532  1.00  0.00     0.006 C 
BRANCH   2   3
ATOM      3  C   UNL     1      -1.991 -14.461  42.985  1.00  0.00     0.053 C 
BRANCH   3   4
ATOM      4  C   UNL     1      -2.434 -15.728  43.645  1.00  0.00     0.041 C 
ATOM      5  O   UNL     1      -1.621 -16.675  43.809  1.00  0.00    -0.550 OA
ATOM      6  O   UNL     1      -3.733 -15.845  44.124  1.00  0.00    -0.550 OA
ENDBRANCH   3   4
ENDBRANCH   2   3
ENDBRANCH   1   2
BRANCH   1   7
ATOM      7  C   UNL     1      -1.556 -11.784  42.044  1.00  0.00     0.000 C 
BRANCH   7   8
ATOM      8  C   UNL     1      -1.698 -10.278  41.779  1.00  0.00    -0.000 C 
BRANCH   8   9
ATOM      9  C   UNL     1      -3.036  -9.908  41.115  1.00  0.00    -0.000 C 
BRANCH   9  10
ATOM     10  C   UNL     1      -2.927  -8.902  39.956  1.00  0.00    -0.003 C 
ATOM     11  C   UNL     1      -1.593  -8.156  39.935  1.00  0.00     0.004 C 
ENDBRANCH   9  10
ENDBRANCH   8   9
ENDBRANCH   7   8
ENDBRANCH   1   7
TORSDOF 7
ENDMDL
MODEL 9
REMARK VINA RESULT:    -2.935      3.249      4.904
REMARK INTER + INTRA:          -4.834
REMARK INTER:                  -4.288
REMARK INTRA:                  -0.546
REMARK UNBOUND:                -0.698
REMARK SMILES CCCCCCCCC(=O)[O-]
REMARK SMILES IDX 6 1 7 2 8 3 9 4 10 5 11 6 5 7 4 8 3 9 2 10 1 11
REMARK H PARENT
REMARK Flexibility Score: inf
ROOT
ATOM      1  C   UNL     1      -1.368 -10.738  40.939  1.00  0.00     0.000 C 
ENDROOT
BRANCH   1   2
ATOM      2  C   UNL     1      -1.757  -9.275  41.183  1.00  0.00     0.006 C 
BRANCH   2   3
ATOM      3  C   UNL     1      -1.331  -8.390  40.008  1.00  0.00     0.053 C 
BRANCH   3   4
ATOM      4  C   UNL     1      -2.529  -7.928  39.239  1.00  0.00     0.041 C 
ATOM      5  O   UNL     1      -2.386  -7.209  38.216  1.00  0.00    -0.550 OA
ATOM      6  O   UNL     1      -3.801  -8.334  39.624  1.00  0.00    -0.550 OA
ENDBRANCH   3   4
ENDBRANCH   2   3
ENDBRANCH   1   2
BRANCH   1   7
ATOM      7  C   UNL     1      -1.493 -11.563  42.226  1.00  0.00     0.000 C 
BRANCH   7   8
ATOM      8  C   UNL     1      -2.559 -12.659  42.076  1.00  0.00    -0.000 C 
BRANCH   8   9
ATOM      9  C   UNL     1      -3.956 -12.098  41.756  1.00  0.00    -0.000 C 
BRANCH   9  10
ATOM     10  C   UNL     1      -4.644 -11.372  42.925  1.00  0.00    -0.003 C 
ATOM     11  C   UNL     1      -5.099  -9.957  42.565  1.00  0.00     0.004 C 
ENDBRANCH   9  10
ENDBRANCH   8   9
ENDBRANCH   7   8
ENDBRANCH   1   7
TORSDOF 7
ENDMDL
