MODEL 1
REMARK VINA RESULT:    -1.000      0.000      0.000
REMARK INTER + INTRA:          -1.196
REMARK INTER:                  -1.146
REMARK INTRA:                  -0.051
REMARK UNBOUND:                -0.051
REMARK SMILES CC(C)[C@@H]([NH3+])C(=O)[O-]
REMARK SMILES IDX 4 1 5 2 6 6 7 7 8 8 2 9 1 10 3 11
REMARK H PARENT 5 3 5 4 5 5
REMARK Flexibility Score: inf
ROOT
ATOM      1  C   UNL     1       2.346  -0.168  -7.048  1.00  0.00     0.230 C 
ENDROOT
BRANCH   1   2
ATOM      2  N   UNL     1       3.783  -0.306  -6.769  1.00  0.00    -0.350 N 
ATOM      3  H   UNL     1       3.999  -1.259  -6.396  1.00  0.00     0.345 HD
ATOM      4  H   UNL     1       4.336  -0.151  -7.645  1.00  0.00     0.345 HD
ATOM      5  H   UNL     1       4.090   0.419  -6.081  1.00  0.00     0.345 HD
ENDBRANCH   1   2
BRANCH   1   6
ATOM      6  C   UNL     1       1.760   0.892  -6.148  1.00  0.00     0.099 C 
ATOM      7  O   UNL     1       0.612   1.359  -6.374  1.00  0.00    -0.544 OA
ATOM      8  O   UNL     1       2.485   1.354  -5.055  1.00  0.00    -0.544 OA
ENDBRANCH   1   6
BRANCH   1   9
ATOM      9  C   UNL     1       2.074   0.165  -8.547  1.00  0.00     0.047 C 
ATOM     10  C   UNL     1       3.379   0.326  -9.345  1.00  0.00     0.014 C 
ATOM     11  C   UNL     1       1.212  -0.924  -9.212  1.00  0.00     0.014 C 
ENDBRANCH   1   9
TORSDOF 3
ENDMDL
MODEL 2
REMARK VINA RESULT:    -0.996      2.568      3.521
REMARK INTER + INTRA:          -1.192
REMARK INTER:                  -1.138
REMARK INTRA:                  -0.054
REMARK UNBOUND:                -0.051
REMARK SMILES CC(C)[C@@H]([NH3+])C(=O)[O-]
REMARK SMILES IDX 4 1 5 2 6 6 7 7 8 8 2 9 1 10 3 11
REMARK H PARENT 5 3 5 4 5 5
REMARK Flexibility Score: inf
ROOT
ATOM      1  C   UNL     1       2.368   0.245  -8.637  1.00  0.00     0.230 C 
ENDROOT
BRANCH   1   2
ATOM      2  N   UNL     1       3.827   0.348  -8.792  1.00  0.00    -0.350 N 
ATOM      3  H   UNL     1       4.124   1.349  -8.856  1.00  0.00     0.345 HD
ATOM      4  H   UNL     1       4.308  -0.097  -7.975  1.00  0.00     0.345 HD
ATOM      5  H   UNL     1       4.137  -0.166  -9.648  1.00  0.00     0.345 HD
ENDBRANCH   1   2
BRANCH   1   6
ATOM      6  C   UNL     1       1.837  -0.809  -9.577  1.00  0.00     0.099 C 
ATOM      7  O   UNL     1       0.724  -1.357  -9.359  1.00  0.00    -0.544 OA
ATOM      8  O   UNL     1       2.573  -1.174 -10.698  1.00  0.00    -0.544 OA
ENDBRANCH   1   6
BRANCH   1   9
ATOM      9  C   UNL     1       1.961  -0.068  -7.164  1.00  0.00     0.047 C 
ATOM     10  C   UNL     1       3.189  -0.285  -6.264  1.00  0.00     0.014 C 
ATOM     11  C   UNL     1       1.097   1.061  -6.573  1.00  0.00     0.014 C 
ENDBRANCH   1   9
TORSDOF 3
ENDMDL
MODEL 3
REMARK VINA RESULT:    -0.932      0.069      1.147
REMARK INTER + INTRA:          -1.119
REMARK INTER:                  -1.070
REMARK INTRA:                  -0.049
REMARK UNBOUND:                -0.051
REMARK SMILES CC(C)[C@@H]([NH3+])C(=O)[O-]
REMARK SMILES IDX 4 1 5 2 6 6 7 7 8 8 2 9 1 10 3 11
REMARK H PARENT 5 3 5 4 5 5
REMARK Flexibility Score: inf
ROOT
ATOM      1  C   UNL     1       2.399  -0.184  -7.024  1.00  0.00     0.230 C 
ENDROOT
BRANCH   1   2
ATOM      2  N   UNL     1       3.835  -0.326  -6.742  1.00  0.00    -0.350 N 
ATOM      3  H   UNL     1       4.042  -1.267  -6.336  1.00  0.00     0.345 HD
ATOM      4  H   UNL     1       4.388  -0.206  -7.623  1.00  0.00     0.345 HD
ATOM      5  H   UNL     1       4.149   0.419  -6.079  1.00  0.00     0.345 HD
ENDBRANCH   1   2
BRANCH   1   6
ATOM      6  C   UNL     1       1.811   0.868  -6.116  1.00  0.00     0.099 C 
ATOM      7  O   UNL     1       2.465   1.298  -5.129  1.00  0.00    -0.544 OA
ATOM      8  O   UNL     1       0.542   1.375  -6.371  1.00  0.00    -0.544 OA
ENDBRANCH   1   6
BRANCH   1   9
ATOM      9  C   UNL     1       2.132   0.163  -8.522  1.00  0.00     0.047 C 
ATOM     10  C   UNL     1       3.441   0.329  -9.313  1.00  0.00     0.014 C 
ATOM     11  C   UNL     1       1.269  -0.917  -9.198  1.00  0.00     0.014 C 
ENDBRANCH   1   9
TORSDOF 3
ENDMDL
MODEL 4
REMARK VINA RESULT:    -0.242      1.712      2.206
REMARK INTER + INTRA:          -0.328
REMARK INTER:                  -0.976
REMARK INTRA:                   0.647
REMARK UNBOUND:                -0.051
REMARK SMILES CC(C)[C@@H]([NH3+])C(=O)[O-]
REMARK SMILES IDX 4 1 5 2 6 6 7 7 8 8 2 9 1 10 3 11
REMARK H PARENT 5 3 5 4 5 5
REMARK Flexibility Score: inf
ROOT
ATOM      1  C   UNL     1       1.689   0.056  -8.717  1.00  0.00     0.230 C 
ENDROOT
BRANCH   1   2
ATOM      2  N   UNL     1       1.289  -1.322  -9.038  1.00  0.00    -0.350 N 
ATOM      3  H   UNL     1       0.486  -1.329  -9.708  1.00  0.00     0.345 HD
ATOM      4  H   UNL     1       2.093  -1.840  -9.466  1.00  0.00     0.345 HD
ATOM      5  H   UNL     1       1.024  -1.835  -8.166  1.00  0.00     0.345 HD
ENDBRANCH   1   2
BRANCH   1   6
ATOM      6  C   UNL     1       1.870   0.191  -7.225  1.00  0.00     0.099 C 
ATOM      7  O   UNL     1       2.664  -0.568  -6.607  1.00  0.00    -0.544 OA
ATOM      8  O   UNL     1       1.166   1.163  -6.525  1.00  0.00    -0.544 OA
ENDBRANCH   1   6
BRANCH   1   9
ATOM      9  C   UNL     1       2.987   0.476  -9.474  1.00  0.00     0.047 C 
ATOM     10  C   UNL     1       4.228   0.399  -8.570  1.00  0.00     0.014 C 
ATOM     11  C   UNL     1       3.215  -0.402 -10.718  1.00  0.00     0.014 C 
ENDBRANCH   1   9
TORSDOF 3
ENDMDL
MODEL 5
REMARK VINA RESULT:     0.427      2.860      3.803
REMARK INTER + INTRA:           0.438
REMARK INTER:                   0.491
REMARK INTRA:                  -0.053
REMARK UNBOUND:                -0.051
REMARK SMILES CC(C)[C@@H]([NH3+])C(=O)[O-]
REMARK SMILES IDX 4 1 5 2 6 6 7 7 8 8 2 9 1 10 3 11
REMARK H PARENT 5 3 5 4 5 5
REMARK Flexibility Score: inf
ROOT
ATOM      1  C   UNL     1       2.284  -0.589  -8.349  1.00  0.00     0.230 C 
ENDROOT
BRANCH   1   2
ATOM      2  N   UNL     1       0.942  -0.872  -8.879  1.00  0.00    -0.350 N 
ATOM      3  H   UNL     1       0.275  -0.105  -8.632  1.00  0.00     0.345 HD
ATOM      4  H   UNL     1       0.979  -0.966  -9.922  1.00  0.00     0.345 HD
ATOM      5  H   UNL     1       0.588  -1.781  -8.502  1.00  0.00     0.345 HD
ENDBRANCH   1   2
BRANCH   1   6
ATOM      6  C   UNL     1       3.167  -0.085  -9.463  1.00  0.00     0.099 C 
ATOM      7  O   UNL     1       4.173   0.631  -9.207  1.00  0.00    -0.544 OA
ATOM      8  O   UNL     1       2.880  -0.416 -10.782  1.00  0.00    -0.544 OA
ENDBRANCH   1   6
BRANCH   1   9
ATOM      9  C   UNL     1       2.239   0.432  -7.170  1.00  0.00     0.047 C 
ATOM     10  C   UNL     1       0.798   0.832  -6.813  1.00  0.00     0.014 C 
ATOM     11  C   UNL     1       2.928  -0.135  -5.916  1.00  0.00     0.014 C 
ENDBRANCH   1   9
TORSDOF 3
ENDMDL
MODEL 6
REMARK VINA RESULT:     0.572      6.079      7.040
REMARK INTER + INTRA:           0.605
REMARK INTER:                   0.442
REMARK INTRA:                   0.163
REMARK UNBOUND:                -0.051
REMARK SMILES CC(C)[C@@H]([NH3+])C(=O)[O-]
REMARK SMILES IDX 4 1 5 2 6 6 7 7 8 8 2 9 1 10 3 11
REMARK H PARENT 5 3 5 4 5 5
REMARK Flexibility Score: inf
ROOT
ATOM      1  C   UNL     1      -1.667  -4.621 -10.659  1.00  0.00     0.230 C 
ENDROOT
BRANCH   1   2
ATOM      2  N   UNL     1      -0.969  -5.396  -9.622  1.00  0.00    -0.350 N 
ATOM      3  H   UNL     1      -1.574  -6.172  -9.268  1.00  0.00     0.345 HD
ATOM      4  H   UNL     1      -0.086  -5.804 -10.011  1.00  0.00     0.345 HD
ATOM      5  H   UNL     1      -0.695  -4.773  -8.828  1.00  0.00     0.345 HD
ENDBRANCH   1   2
BRANCH   1   6
ATOM      6  C   UNL     1      -1.160  -3.200 -10.650  1.00  0.00     0.099 C 
ATOM      7  O   UNL     1      -1.925  -2.248 -10.960  1.00  0.00    -0.544 OA
ATOM      8  O   UNL     1       0.155  -2.934 -10.288  1.00  0.00    -0.544 OA
ENDBRANCH   1   6
BRANCH   1   9
ATOM      9  C   UNL     1      -1.501  -5.261 -12.072  1.00  0.00     0.047 C 
ATOM     10  C   UNL     1      -0.313  -4.655 -12.839  1.00  0.00     0.014 C 
ATOM     11  C   UNL     1      -1.312  -6.785 -11.975  1.00  0.00     0.014 C 
ENDBRANCH   1   9
TORSDOF 3
ENDMDL
MODEL 7
REMARK VINA RESULT:     0.700      2.404      3.355
REMARK INTER + INTRA:           0.752
REMARK INTER:                   0.130
REMARK INTRA:                   0.622
REMARK UNBOUND:                -0.051
REMARK SMILES CC(C)[C@@H]([NH3+])C(=O)[O-]
REMARK SMILES IDX 4 1 5 2 6 6 7 7 8 8 2 9 1 10 3 11
REMARK H PARENT 5 3 5 4 5 5
REMARK Flexibility Score: inf
ROOT
ATOM      1  C   UNL     1       1.710  -0.069  -7.152  1.00  0.00     0.230 C 
ENDROOT
BRANCH   1   2
ATOM      2  N   UNL     1       1.167   1.249  -6.791  1.00  0.00    -0.350 N 
ATOM      3  H   UNL     1       0.772   1.730  -7.631  1.00  0.00     0.345 HD
ATOM      4  H   UNL     1       0.412   1.142  -6.073  1.00  0.00     0.345 HD
ATOM      5  H   UNL     1       1.914   1.843  -6.364  1.00  0.00     0.345 HD
ENDBRANCH   1   2
BRANCH   1   6
ATOM      6  C   UNL     1       1.963  -0.117  -8.639  1.00  0.00     0.099 C 
ATOM      7  O   UNL     1       2.717   0.731  -9.186  1.00  0.00    -0.544 OA
ATOM      8  O   UNL     1       1.369  -1.107  -9.413  1.00  0.00    -0.544 OA
ENDBRANCH   1   6
BRANCH   1   9
ATOM      9  C   UNL     1       3.010  -0.400  -6.357  1.00  0.00     0.047 C 
ATOM     10  C   UNL     1       4.258  -0.359  -7.255  1.00  0.00     0.014 C 
ATOM     11  C   UNL     1       3.206   0.572  -5.180  1.00  0.00     0.014 C 
ENDBRANCH   1   9
TORSDOF 3
ENDMDL
MODEL 8
REMARK VINA RESULT:     1.006      2.241      2.837
REMARK INTER + INTRA:           1.103
REMARK INTER:                   1.131
REMARK INTRA:                  -0.028
REMARK UNBOUND:                -0.051
REMARK SMILES CC(C)[C@@H]([NH3+])C(=O)[O-]
REMARK SMILES IDX 4 1 5 2 6 6 7 7 8 8 2 9 1 10 3 11
REMARK H PARENT 5 3 5 4 5 5
REMARK Flexibility Score: inf
ROOT
ATOM      1  C   UNL     1       2.381   0.339  -8.337  1.00  0.00     0.230 C 
ENDROOT
BRANCH   1   2
ATOM      2  N   UNL     1       1.469   0.705  -7.243  1.00  0.00    -0.350 N 
ATOM      3  H   UNL     1       0.628   1.205  -7.612  1.00  0.00     0.345 HD
ATOM      4  H   UNL     1       1.156  -0.155  -6.733  1.00  0.00     0.345 HD
ATOM      5  H   UNL     1       1.962   1.311  -6.549  1.00  0.00     0.345 HD
ENDBRANCH   1   2
BRANCH   1   6
ATOM      6  C   UNL     1       3.766   0.116  -7.783  1.00  0.00     0.099 C 
ATOM      7  O   UNL     1       3.922  -0.362  -6.627  1.00  0.00    -0.544 OA
ATOM      8  O   UNL     1       4.881   0.429  -8.551  1.00  0.00    -0.544 OA
ENDBRANCH   1   6
BRANCH   1   9
ATOM      9  C   UNL     1       1.883  -0.920  -9.112  1.00  0.00     0.047 C 
ATOM     10  C   UNL     1       0.348  -0.995  -9.158  1.00  0.00     0.014 C 
ATOM     11  C   UNL     1       2.430  -0.941 -10.551  1.00  0.00     0.014 C 
ENDBRANCH   1   9
TORSDOF 3
ENDMDL
MODEL 9
REMARK VINA RESULT:     1.083      4.731      5.924
REMARK INTER + INTRA:           1.191
REMARK INTER:                   1.174
REMARK INTRA:                   0.017
REMARK UNBOUND:                -0.051
REMARK SMILES CC(C)[C@@H]([NH3+])C(=O)[O-]
REMARK SMILES IDX 4 1 5 2 6 6 7 7 8 8 2 9 1 10 3 11
REMARK H PARENT 5 3 5 4 5 5
REMARK Flexibility Score: inf
ROOT
ATOM      1  C   UNL     1      -0.775  -2.710 -10.578  1.00  0.00     0.230 C 
ENDROOT
BRANCH   1   2
ATOM      2  N   UNL     1      -1.616  -2.477  -9.395  1.00  0.00    -0.350 N 
ATOM      3  H   UNL     1      -2.614  -2.331  -9.672  1.00  0.00     0.345 HD
ATOM      4  H   UNL     1      -1.560  -3.297  -8.746  1.00  0.00     0.345 HD
ATOM      5  H   UNL     1      -1.273  -1.643  -8.866  1.00  0.00     0.345 HD
ENDBRANCH   1   2
BRANCH   1   6
ATOM      6  C   UNL     1       0.620  -2.202 -10.310  1.00  0.00     0.099 C 
ATOM      7  O   UNL     1       1.589  -2.594 -11.014  1.00  0.00    -0.544 OA
ATOM      8  O   UNL     1       0.841  -1.287  -9.288  1.00  0.00    -0.544 OA
ENDBRANCH   1   6
BRANCH   1   9
ATOM      9  C   UNL     1      -0.748  -4.216 -10.985  1.00  0.00     0.047 C 
ATOM     10  C   UNL     1      -1.912  -5.000 -10.356  1.00  0.00     0.014 C 
ATOM     11  C   UNL     1      -0.801  -4.381 -12.515  1.00  0.00     0.014 C 
ENDBRANCH   1   9
TORSDOF 3
ENDMDL
