MODEL 1
REMARK VINA RESULT:    -5.499      0.000      0.000
REMARK INTER + INTRA:          -5.499
REMARK INTER:                  -5.499
REMARK INTRA:                   0.000
REMARK UNBOUND:                 0.000
REMARK SMILES CC(C)=C1CC[C@@H](C)CC1=O
REMARK SMILES IDX 8 1 7 2 6 3 5 4 4 5 2 6 1 7 3 8 10 9 11 10 9 11
REMARK H PARENT
REMARK Flexibility Score: inf
ROOT
ATOM      1  C   UNL     1      -0.894  26.773  29.243  1.00  0.00     0.008 C 
ATOM      2  C   UNL     1      -2.207  27.404  28.769  1.00  0.00    -0.006 C 
ATOM      3  C   UNL     1      -1.928  28.619  27.868  1.00  0.00     0.008 C 
ATOM      4  C   UNL     1      -3.229  29.202  27.301  1.00  0.00     0.039 C 
ATOM      5  C   UNL     1      -4.256  29.501  28.385  1.00  0.00    -0.006 C 
ATOM      6  C   UNL     1      -5.139  30.536  28.260  1.00  0.00    -0.070 C 
ATOM      7  C   UNL     1      -6.125  30.877  29.354  1.00  0.00     0.039 C 
ATOM      8  C   UNL     1      -5.145  31.417  27.032  1.00  0.00     0.039 C 
ATOM      9  C   UNL     1      -4.311  28.534  29.521  1.00  0.00     0.159 C 
ATOM     10  O   UNL     1      -5.394  28.284  30.117  1.00  0.00    -0.295 OA
ATOM     11  C   UNL     1      -3.065  27.828  29.970  1.00  0.00     0.084 C 
ENDROOT
TORSDOF 0
ENDMDL
MODEL 2
REMARK VINA RESULT:    -5.187      2.006      3.264
REMARK INTER + INTRA:          -5.187
REMARK INTER:                  -5.187
REMARK INTRA:                   0.000
REMARK UNBOUND:                 0.000
REMARK SMILES CC(C)=C1CC[C@@H](C)CC1=O
REMARK SMILES IDX 8 1 7 2 6 3 5 4 4 5 2 6 1 7 3 8 10 9 11 10 9 11
REMARK H PARENT
REMARK Flexibility Score: inf
ROOT
ATOM      1  C   UNL     1       0.557  25.108  27.889  1.00  0.00     0.008 C 
ATOM      2  C   UNL     1      -0.233  26.367  28.260  1.00  0.00    -0.006 C 
ATOM      3  C   UNL     1      -0.507  26.408  29.772  1.00  0.00     0.008 C 
ATOM      4  C   UNL     1      -1.208  27.711  30.177  1.00  0.00     0.039 C 
ATOM      5  C   UNL     1      -2.456  27.984  29.349  1.00  0.00    -0.006 C 
ATOM      6  C   UNL     1      -3.530  28.641  29.880  1.00  0.00    -0.070 C 
ATOM      7  C   UNL     1      -4.796  28.867  29.086  1.00  0.00     0.039 C 
ATOM      8  C   UNL     1      -3.517  29.140  31.306  1.00  0.00     0.039 C 
ATOM      9  C   UNL     1      -2.386  27.597  27.909  1.00  0.00     0.159 C 
ATOM     10  O   UNL     1      -3.006  28.248  27.024  1.00  0.00    -0.295 OA
ATOM     11  C   UNL     1      -1.559  26.418  27.486  1.00  0.00     0.084 C 
ENDROOT
TORSDOF 0
ENDMDL
MODEL 3
REMARK VINA RESULT:    -4.894      1.635      4.561
REMARK INTER + INTRA:          -4.894
REMARK INTER:                  -4.894
REMARK INTRA:                   0.000
REMARK UNBOUND:                 0.000
REMARK SMILES CC(C)=C1CC[C@@H](C)CC1=O
REMARK SMILES IDX 8 1 7 2 6 3 5 4 4 5 2 6 1 7 3 8 10 9 11 10 9 11
REMARK H PARENT
REMARK Flexibility Score: inf
ROOT
ATOM      1  C   UNL     1      -5.760  32.478  27.369  1.00  0.00     0.008 C 
ATOM      2  C   UNL     1      -5.348  31.014  27.556  1.00  0.00    -0.006 C 
ATOM      3  C   UNL     1      -5.880  30.468  28.891  1.00  0.00     0.008 C 
ATOM      4  C   UNL     1      -5.565  28.975  29.049  1.00  0.00     0.039 C 
ATOM      5  C   UNL     1      -4.089  28.665  28.837  1.00  0.00    -0.006 C 
ATOM      6  C   UNL     1      -3.475  27.644  29.506  1.00  0.00    -0.070 C 
ATOM      7  C   UNL     1      -1.999  27.362  29.346  1.00  0.00     0.039 C 
ATOM      8  C   UNL     1      -4.240  26.768  30.471  1.00  0.00     0.039 C 
ATOM      9  C   UNL     1      -3.397  29.461  27.780  1.00  0.00     0.159 C 
ATOM     10  O   UNL     1      -2.457  28.968  27.098  1.00  0.00    -0.295 OA
ATOM     11  C   UNL     1      -3.820  30.874  27.505  1.00  0.00     0.084 C 
ENDROOT
TORSDOF 0
ENDMDL
MODEL 4
REMARK VINA RESULT:    -4.777      1.642      4.730
REMARK INTER + INTRA:          -4.777
REMARK INTER:                  -4.777
REMARK INTRA:                   0.000
REMARK UNBOUND:                 0.000
REMARK SMILES CC(C)=C1CC[C@@H](C)CC1=O
REMARK SMILES IDX 8 1 7 2 6 3 5 4 4 5 2 6 1 7 3 8 10 9 11 10 9 11
REMARK H PARENT
REMARK Flexibility Score: inf
ROOT
ATOM      1  C   UNL     1      -5.907  30.532  28.618  1.00  0.00     0.008 C 
ATOM      2  C   UNL     1      -4.980  29.319  28.748  1.00  0.00    -0.006 C 
ATOM      3  C   UNL     1      -4.438  29.204  30.182  1.00  0.00     0.008 C 
ATOM      4  C   UNL     1      -3.589  27.938  30.357  1.00  0.00     0.039 C 
ATOM      5  C   UNL     1      -2.493  27.819  29.306  1.00  0.00    -0.006 C 
ATOM      6  C   UNL     1      -1.299  27.219  29.590  1.00  0.00    -0.070 C 
ATOM      7  C   UNL     1      -0.184  27.146  28.573  1.00  0.00     0.039 C 
ATOM      8  C   UNL     1      -1.024  26.630  30.954  1.00  0.00     0.039 C 
ATOM      9  C   UNL     1      -2.846  28.291  27.934  1.00  0.00     0.159 C 
ATOM     10  O   UNL     1      -2.352  27.750  26.908  1.00  0.00    -0.295 OA
ATOM     11  C   UNL     1      -3.814  29.424  27.754  1.00  0.00     0.084 C 
ENDROOT
TORSDOF 0
ENDMDL
MODEL 5
REMARK VINA RESULT:    -4.774      1.342      4.214
REMARK INTER + INTRA:          -4.774
REMARK INTER:                  -4.774
REMARK INTRA:                   0.000
REMARK UNBOUND:                 0.000
REMARK SMILES CC(C)=C1CC[C@@H](C)CC1=O
REMARK SMILES IDX 8 1 7 2 6 3 5 4 4 5 2 6 1 7 3 8 10 9 11 10 9 11
REMARK H PARENT
REMARK Flexibility Score: inf
ROOT
ATOM      1  C   UNL     1      -6.123  30.503  28.297  1.00  0.00     0.008 C 
ATOM      2  C   UNL     1      -4.687  30.055  28.590  1.00  0.00    -0.006 C 
ATOM      3  C   UNL     1      -4.189  29.088  27.504  1.00  0.00     0.008 C 
ATOM      4  C   UNL     1      -2.720  28.708  27.727  1.00  0.00     0.039 C 
ATOM      5  C   UNL     1      -2.456  28.192  29.134  1.00  0.00    -0.006 C 
ATOM      6  C   UNL     1      -1.495  27.252  29.378  1.00  0.00    -0.070 C 
ATOM      7  C   UNL     1      -1.263  26.691  30.762  1.00  0.00     0.039 C 
ATOM      8  C   UNL     1      -0.640  26.699  28.262  1.00  0.00     0.039 C 
ATOM      9  C   UNL     1      -3.225  28.855  30.230  1.00  0.00     0.159 C 
ATOM     10  O   UNL     1      -2.735  28.991  31.384  1.00  0.00    -0.295 OA
ATOM     11  C   UNL     1      -4.605  29.383  29.968  1.00  0.00     0.084 C 
ENDROOT
TORSDOF 0
ENDMDL
MODEL 6
REMARK VINA RESULT:    -4.578      1.147      4.091
REMARK INTER + INTRA:          -4.578
REMARK INTER:                  -4.578
REMARK INTRA:                   0.000
REMARK UNBOUND:                 0.000
REMARK SMILES CC(C)=C1CC[C@@H](C)CC1=O
REMARK SMILES IDX 8 1 7 2 6 3 5 4 4 5 2 6 1 7 3 8 10 9 11 10 9 11
REMARK H PARENT
REMARK Flexibility Score: inf
ROOT
ATOM      1  C   UNL     1      -5.750  32.615  26.841  1.00  0.00     0.008 C 
ATOM      2  C   UNL     1      -5.099  31.613  27.800  1.00  0.00    -0.006 C 
ATOM      3  C   UNL     1      -3.898  30.925  27.131  1.00  0.00     0.008 C 
ATOM      4  C   UNL     1      -3.172  29.994  28.110  1.00  0.00     0.039 C 
ATOM      5  C   UNL     1      -4.113  29.004  28.781  1.00  0.00    -0.006 C 
ATOM      6  C   UNL     1      -3.691  27.756  29.144  1.00  0.00    -0.070 C 
ATOM      7  C   UNL     1      -4.630  26.745  29.759  1.00  0.00     0.039 C 
ATOM      8  C   UNL     1      -2.265  27.313  28.909  1.00  0.00     0.039 C 
ATOM      9  C   UNL     1      -5.474  29.518  29.118  1.00  0.00     0.159 C 
ATOM     10  O   UNL     1      -6.101  29.099  30.129  1.00  0.00    -0.295 OA
ATOM     11  C   UNL     1      -6.120  30.560  28.253  1.00  0.00     0.084 C 
ENDROOT
TORSDOF 0
ENDMDL
MODEL 7
REMARK VINA RESULT:    -4.472      1.721      2.583
REMARK INTER + INTRA:          -4.472
REMARK INTER:                  -4.472
REMARK INTRA:                   0.000
REMARK UNBOUND:                 0.000
REMARK SMILES CC(C)=C1CC[C@@H](C)CC1=O
REMARK SMILES IDX 8 1 7 2 6 3 5 4 4 5 2 6 1 7 3 8 10 9 11 10 9 11
REMARK H PARENT
REMARK Flexibility Score: inf
ROOT
ATOM      1  C   UNL     1      -1.116  25.625  27.500  1.00  0.00     0.008 C 
ATOM      2  C   UNL     1      -1.844  26.787  28.182  1.00  0.00    -0.006 C 
ATOM      3  C   UNL     1      -3.127  26.292  28.871  1.00  0.00     0.008 C 
ATOM      4  C   UNL     1      -3.816  27.423  29.645  1.00  0.00     0.039 C 
ATOM      5  C   UNL     1      -4.053  28.658  28.787  1.00  0.00    -0.006 C 
ATOM      6  C   UNL     1      -5.132  29.471  28.995  1.00  0.00    -0.070 C 
ATOM      7  C   UNL     1      -5.408  30.667  28.114  1.00  0.00     0.039 C 
ATOM      8  C   UNL     1      -6.125  29.187  30.098  1.00  0.00     0.039 C 
ATOM      9  C   UNL     1      -2.985  28.983  27.796  1.00  0.00     0.159 C 
ATOM     10  O   UNL     1      -2.726  30.176  27.479  1.00  0.00    -0.295 OA
ATOM     11  C   UNL     1      -2.188  27.881  27.161  1.00  0.00     0.084 C 
ENDROOT
TORSDOF 0
ENDMDL
MODEL 8
REMARK VINA RESULT:    -4.471      2.329      2.894
REMARK INTER + INTRA:          -4.471
REMARK INTER:                  -4.471
REMARK INTRA:                   0.000
REMARK UNBOUND:                 0.000
REMARK SMILES CC(C)=C1CC[C@@H](C)CC1=O
REMARK SMILES IDX 8 1 7 2 6 3 5 4 4 5 2 6 1 7 3 8 10 9 11 10 9 11
REMARK H PARENT
REMARK Flexibility Score: inf
ROOT
ATOM      1  C   UNL     1       0.588  25.559  27.804  1.00  0.00     0.008 C 
ATOM      2  C   UNL     1      -0.671  25.964  28.579  1.00  0.00    -0.006 C 
ATOM      3  C   UNL     1      -1.885  26.036  27.638  1.00  0.00     0.008 C 
ATOM      4  C   UNL     1      -3.173  26.340  28.414  1.00  0.00     0.039 C 
ATOM      5  C   UNL     1      -3.045  27.572  29.299  1.00  0.00    -0.006 C 
ATOM      6  C   UNL     1      -4.118  28.379  29.552  1.00  0.00    -0.070 C 
ATOM      7  C   UNL     1      -3.990  29.635  30.383  1.00  0.00     0.039 C 
ATOM      8  C   UNL     1      -5.482  28.073  28.977  1.00  0.00     0.039 C 
ATOM      9  C   UNL     1      -1.720  27.772  29.957  1.00  0.00     0.159 C 
ATOM     10  O   UNL     1      -1.627  28.313  31.093  1.00  0.00    -0.295 OA
ATOM     11  C   UNL     1      -0.464  27.318  29.273  1.00  0.00     0.084 C 
ENDROOT
TORSDOF 0
ENDMDL
MODEL 9
REMARK VINA RESULT:    -3.812     20.014     21.198
REMARK INTER + INTRA:          -3.812
REMARK INTER:                  -3.812
REMARK INTRA:                   0.000
REMARK UNBOUND:                 0.000
REMARK SMILES CC(C)=C1CC[C@@H](C)CC1=O
REMARK SMILES IDX 8 1 7 2 6 3 5 4 4 5 2 6 1 7 3 8 10 9 11 10 9 11
REMARK H PARENT
REMARK Flexibility Score: inf
ROOT
ATOM      1  C   UNL     1      12.615  37.643  35.438  1.00  0.00     0.008 C 
ATOM      2  C   UNL     1      12.322  37.212  36.879  1.00  0.00    -0.006 C 
ATOM      3  C   UNL     1      11.120  37.988  37.441  1.00  0.00     0.008 C 
ATOM      4  C   UNL     1      10.749  37.498  38.847  1.00  0.00     0.039 C 
ATOM      5  C   UNL     1      11.938  37.494  39.797  1.00  0.00    -0.006 C 
ATOM      6  C   UNL     1      11.780  37.727  41.134  1.00  0.00    -0.070 C 
ATOM      7  C   UNL     1      12.959  37.781  42.077  1.00  0.00     0.039 C 
ATOM      8  C   UNL     1      10.414  37.981  41.728  1.00  0.00     0.039 C 
ATOM      9  C   UNL     1      13.252  37.109  39.201  1.00  0.00     0.159 C 
ATOM     10  O   UNL     1      14.125  36.500  39.878  1.00  0.00    -0.295 OA
ATOM     11  C   UNL     1      13.553  37.437  37.768  1.00  0.00     0.084 C 
ENDROOT
TORSDOF 0
ENDMDL
