MODEL 1
REMARK VINA RESULT:    -4.181      0.000      0.000
REMARK INTER + INTRA:          -6.024
REMARK INTER:                  -5.647
REMARK INTRA:                  -0.377
REMARK UNBOUND:                -0.377
REMARK SMILES C[C@H](O)[C@@H](O)[C@@H](O)[C@@H](O)C=O
REMARK SMILES IDX 4 1 2 2 1 3 3 4 6 6 8 7 10 8 11 9 9 10 7 12 5 14
REMARK H PARENT 3 5 9 11 7 13 5 15
REMARK Flexibility Score: inf
ROOT
ATOM      1  C   UNL     1      82.462  -5.916 -14.418  1.00  0.00     0.174 C 
ENDROOT
BRANCH   1   2
ATOM      2  C   UNL     1      83.625  -6.147 -15.425  1.00  0.00     0.142 C 
ATOM      3  C   UNL     1      83.545  -5.241 -16.657  1.00  0.00     0.041 C 
BRANCH   2   4
ATOM      4  O   UNL     1      83.670  -7.487 -15.841  1.00  0.00    -0.391 OA
ATOM      5  H   UNL     1      83.641  -8.045 -15.020  1.00  0.00     0.211 HD
ENDBRANCH   2   4
ENDBRANCH   1   2
BRANCH   1   6
ATOM      6  C   UNL     1      82.779  -4.857 -13.323  1.00  0.00     0.181 C 
BRANCH   6   7
ATOM      7  C   UNL     1      81.859  -3.608 -13.405  1.00  0.00     0.209 C 
BRANCH   7   8
ATOM      8  C   UNL     1      82.099  -2.782 -14.640  1.00  0.00     0.258 C 
ATOM      9  O   UNL     1      83.146  -2.174 -14.795  1.00  0.00    -0.300 OA
ENDBRANCH   7   8
BRANCH   7  10
ATOM     10  O   UNL     1      82.039  -2.798 -12.273  1.00  0.00    -0.383 OA
ATOM     11  H   UNL     1      83.019  -2.714 -12.131  1.00  0.00     0.211 HD
ENDBRANCH   7  10
ENDBRANCH   6   7
BRANCH   6  12
ATOM     12  O   UNL     1      84.134  -4.478 -13.331  1.00  0.00    -0.387 OA
ATOM     13  H   UNL     1      84.464  -4.545 -14.265  1.00  0.00     0.211 HD
ENDBRANCH   6  12
ENDBRANCH   1   6
BRANCH   1  14
ATOM     14  O   UNL     1      82.131  -7.135 -13.799  1.00  0.00    -0.388 OA
ATOM     15  H   UNL     1      81.142  -7.215 -13.826  1.00  0.00     0.211 HD
ENDBRANCH   1  14
TORSDOF 8
ENDMDL
MODEL 2
REMARK VINA RESULT:    -4.025      2.049      2.995
REMARK INTER + INTRA:          -5.814
REMARK INTER:                  -5.325
REMARK INTRA:                  -0.489
REMARK UNBOUND:                -0.377
REMARK SMILES C[C@H](O)[C@@H](O)[C@@H](O)[C@@H](O)C=O
REMARK SMILES IDX 4 1 2 2 1 3 3 4 6 6 8 7 10 8 11 9 9 10 7 12 5 14
REMARK H PARENT 3 5 9 11 7 13 5 15
REMARK Flexibility Score: inf
ROOT
ATOM      1  C   UNL     1      82.961  -6.396 -15.351  1.00  0.00     0.174 C 
ENDROOT
BRANCH   1   2
ATOM      2  C   UNL     1      83.709  -6.470 -13.989  1.00  0.00     0.142 C 
ATOM      3  C   UNL     1      84.368  -5.146 -13.592  1.00  0.00     0.041 C 
BRANCH   2   4
ATOM      4  O   UNL     1      84.682  -7.482 -14.005  1.00  0.00    -0.391 OA
ATOM      5  H   UNL     1      85.517  -7.084 -13.641  1.00  0.00     0.211 HD
ENDBRANCH   2   4
ENDBRANCH   1   2
BRANCH   1   6
ATOM      6  C   UNL     1      81.413  -6.305 -15.214  1.00  0.00     0.181 C 
BRANCH   6   7
ATOM      7  C   UNL     1      80.892  -4.842 -15.203  1.00  0.00     0.209 C 
BRANCH   7   8
ATOM      8  C   UNL     1      80.292  -4.442 -13.882  1.00  0.00     0.258 C 
ATOM      9  O   UNL     1      80.975  -4.387 -12.872  1.00  0.00    -0.300 OA
ENDBRANCH   7   8
BRANCH   7  10
ATOM     10  O   UNL     1      79.934  -4.661 -16.213  1.00  0.00    -0.383 OA
ATOM     11  H   UNL     1      79.932  -3.694 -16.440  1.00  0.00     0.211 HD
ENDBRANCH   7  10
ENDBRANCH   6   7
BRANCH   6  12
ATOM     12  O   UNL     1      80.940  -7.011 -14.092  1.00  0.00    -0.387 OA
ATOM     13  H   UNL     1      81.135  -6.468 -13.285  1.00  0.00     0.211 HD
ENDBRANCH   6  12
ENDBRANCH   1   6
BRANCH   1  14
ATOM     14  O   UNL     1      83.290  -7.522 -16.127  1.00  0.00    -0.388 OA
ATOM     15  H   UNL     1      82.524  -7.691 -16.735  1.00  0.00     0.211 HD
ENDBRANCH   1  14
TORSDOF 8
ENDMDL
MODEL 3
REMARK VINA RESULT:    -3.990      1.186      2.045
REMARK INTER + INTRA:          -5.767
REMARK INTER:                  -5.072
REMARK INTRA:                  -0.695
REMARK UNBOUND:                -0.377
REMARK SMILES C[C@H](O)[C@@H](O)[C@@H](O)[C@@H](O)C=O
REMARK SMILES IDX 4 1 2 2 1 3 3 4 6 6 8 7 10 8 11 9 9 10 7 12 5 14
REMARK H PARENT 3 5 9 11 7 13 5 15
REMARK Flexibility Score: inf
ROOT
ATOM      1  C   UNL     1      83.063  -5.025 -13.459  1.00  0.00     0.174 C 
ENDROOT
BRANCH   1   2
ATOM      2  C   UNL     1      83.201  -6.517 -13.877  1.00  0.00     0.142 C 
ATOM      3  C   UNL     1      83.766  -6.698 -15.289  1.00  0.00     0.041 C 
BRANCH   2   4
ATOM      4  O   UNL     1      81.966  -7.180 -13.787  1.00  0.00    -0.391 OA
ATOM      5  H   UNL     1      81.387  -6.630 -13.197  1.00  0.00     0.211 HD
ENDBRANCH   2   4
ENDBRANCH   1   2
BRANCH   1   6
ATOM      6  C   UNL     1      82.242  -4.164 -14.462  1.00  0.00     0.181 C 
BRANCH   6   7
ATOM      7  C   UNL     1      81.954  -2.732 -13.935  1.00  0.00     0.209 C 
BRANCH   7   8
ATOM      8  C   UNL     1      82.832  -1.686 -14.566  1.00  0.00     0.258 C 
ATOM      9  O   UNL     1      83.997  -1.925 -14.839  1.00  0.00    -0.300 OA
ENDBRANCH   7   8
BRANCH   7  10
ATOM     10  O   UNL     1      82.121  -2.687 -12.542  1.00  0.00    -0.383 OA
ATOM     11  H   UNL     1      81.939  -1.752 -12.259  1.00  0.00     0.211 HD
ENDBRANCH   7  10
ENDBRANCH   6   7
BRANCH   6  12
ATOM     12  O   UNL     1      81.048  -4.802 -14.850  1.00  0.00    -0.387 OA
ATOM     13  H   UNL     1      80.554  -5.052 -14.027  1.00  0.00     0.211 HD
ENDBRANCH   6  12
ENDBRANCH   1   6
BRANCH   1  14
ATOM     14  O   UNL     1      84.343  -4.462 -13.308  1.00  0.00    -0.388 OA
ATOM     15  H   UNL     1      84.762  -4.446 -14.207  1.00  0.00     0.211 HD
ENDBRANCH   1  14
TORSDOF 8
ENDMDL
MODEL 4
REMARK VINA RESULT:    -3.955      1.817      2.912
REMARK INTER + INTRA:          -5.719
REMARK INTER:                  -5.018
REMARK INTRA:                  -0.701
REMARK UNBOUND:                -0.377
REMARK SMILES C[C@H](O)[C@@H](O)[C@@H](O)[C@@H](O)C=O
REMARK SMILES IDX 4 1 2 2 1 3 3 4 6 6 8 7 10 8 11 9 9 10 7 12 5 14
REMARK H PARENT 3 5 9 11 7 13 5 15
REMARK Flexibility Score: inf
ROOT
ATOM      1  C   UNL     1      81.621  -5.724 -15.745  1.00  0.00     0.174 C 
ENDROOT
BRANCH   1   2
ATOM      2  C   UNL     1      82.492  -4.723 -16.556  1.00  0.00     0.142 C 
ATOM      3  C   UNL     1      81.704  -3.972 -17.633  1.00  0.00     0.041 C 
BRANCH   2   4
ATOM      4  O   UNL     1      83.581  -5.376 -17.155  1.00  0.00    -0.391 OA
ATOM      5  H   UNL     1      84.404  -5.007 -16.738  1.00  0.00     0.211 HD
ENDBRANCH   2   4
ENDBRANCH   1   2
BRANCH   1   6
ATOM      6  C   UNL     1      81.886  -5.689 -14.211  1.00  0.00     0.181 C 
BRANCH   6   7
ATOM      7  C   UNL     1      83.306  -5.173 -13.854  1.00  0.00     0.209 C 
BRANCH   7   8
ATOM      8  C   UNL     1      84.331  -6.273 -13.786  1.00  0.00     0.258 C 
ATOM      9  O   UNL     1      84.370  -7.149 -14.635  1.00  0.00    -0.300 OA
ENDBRANCH   7   8
BRANCH   7  10
ATOM     10  O   UNL     1      83.281  -4.497 -12.624  1.00  0.00    -0.383 OA
ATOM     11  H   UNL     1      83.545  -5.154 -11.927  1.00  0.00     0.211 HD
ENDBRANCH   7  10
ENDBRANCH   6   7
BRANCH   6  12
ATOM     12  O   UNL     1      81.642  -6.936 -13.606  1.00  0.00    -0.387 OA
ATOM     13  H   UNL     1      80.965  -7.414 -14.152  1.00  0.00     0.211 HD
ENDBRANCH   6  12
ENDBRANCH   1   6
BRANCH   1  14
ATOM     14  O   UNL     1      81.841  -7.028 -16.222  1.00  0.00    -0.388 OA
ATOM     15  H   UNL     1      82.569  -6.974 -16.893  1.00  0.00     0.211 HD
ENDBRANCH   1  14
TORSDOF 8
ENDMDL
MODEL 5
REMARK VINA RESULT:    -3.864      1.689      2.359
REMARK INTER + INTRA:          -5.596
REMARK INTER:                  -4.788
REMARK INTRA:                  -0.808
REMARK UNBOUND:                -0.377
REMARK SMILES C[C@H](O)[C@@H](O)[C@@H](O)[C@@H](O)C=O
REMARK SMILES IDX 4 1 2 2 1 3 3 4 6 6 8 7 10 8 11 9 9 10 7 12 5 14
REMARK H PARENT 3 5 9 11 7 13 5 15
REMARK Flexibility Score: inf
ROOT
ATOM      1  C   UNL     1      81.959  -5.134 -13.894  1.00  0.00     0.174 C 
ENDROOT
BRANCH   1   2
ATOM      2  C   UNL     1      83.490  -5.248 -14.143  1.00  0.00     0.142 C 
ATOM      3  C   UNL     1      83.997  -6.693 -14.124  1.00  0.00     0.041 C 
BRANCH   2   4
ATOM      4  O   UNL     1      84.209  -4.495 -13.202  1.00  0.00    -0.391 OA
ATOM      5  H   UNL     1      83.800  -3.590 -13.184  1.00  0.00     0.211 HD
ENDBRANCH   2   4
ENDBRANCH   1   2
BRANCH   1   6
ATOM      6  C   UNL     1      81.449  -3.668 -13.765  1.00  0.00     0.181 C 
BRANCH   6   7
ATOM      7  C   UNL     1      81.708  -2.824 -15.043  1.00  0.00     0.209 C 
BRANCH   7   8
ATOM      8  C   UNL     1      82.617  -1.650 -14.797  1.00  0.00     0.258 C 
ATOM      9  O   UNL     1      83.819  -1.807 -14.648  1.00  0.00    -0.300 OA
ENDBRANCH   7   8
BRANCH   7  10
ATOM     10  O   UNL     1      80.493  -2.357 -15.568  1.00  0.00    -0.383 OA
ATOM     11  H   UNL     1      79.867  -2.256 -14.804  1.00  0.00     0.211 HD
ENDBRANCH   7  10
ENDBRANCH   6   7
BRANCH   6  12
ATOM     12  O   UNL     1      81.974  -3.026 -12.628  1.00  0.00    -0.387 OA
ATOM     13  H   UNL     1      81.421  -3.287 -11.847  1.00  0.00     0.211 HD
ENDBRANCH   6  12
ENDBRANCH   1   6
BRANCH   1  14
ATOM     14  O   UNL     1      81.620  -5.844 -12.728  1.00  0.00    -0.388 OA
ATOM     15  H   UNL     1      82.323  -5.650 -12.055  1.00  0.00     0.211 HD
ENDBRANCH   1  14
TORSDOF 8
ENDMDL
MODEL 6
REMARK VINA RESULT:    -3.831      1.932      3.749
REMARK INTER + INTRA:          -5.551
REMARK INTER:                  -4.966
REMARK INTRA:                  -0.585
REMARK UNBOUND:                -0.377
REMARK SMILES C[C@H](O)[C@@H](O)[C@@H](O)[C@@H](O)C=O
REMARK SMILES IDX 4 1 2 2 1 3 3 4 6 6 8 7 10 8 11 9 9 10 7 12 5 14
REMARK H PARENT 3 5 9 11 7 13 5 15
REMARK Flexibility Score: inf
ROOT
ATOM      1  C   UNL     1      83.196  -5.211 -14.380  1.00  0.00     0.174 C 
ENDROOT
BRANCH   1   2
ATOM      2  C   UNL     1      81.844  -5.761 -13.840  1.00  0.00     0.142 C 
ATOM      3  C   UNL     1      81.242  -4.896 -12.729  1.00  0.00     0.041 C 
BRANCH   2   4
ATOM      4  O   UNL     1      81.988  -7.076 -13.372  1.00  0.00    -0.391 OA
ATOM      5  H   UNL     1      81.081  -7.482 -13.368  1.00  0.00     0.211 HD
ENDBRANCH   2   4
ENDBRANCH   1   2
BRANCH   1   6
ATOM      6  C   UNL     1      83.632  -5.835 -15.737  1.00  0.00     0.181 C 
BRANCH   6   7
ATOM      7  C   UNL     1      83.692  -4.795 -16.889  1.00  0.00     0.209 C 
BRANCH   7   8
ATOM      8  C   UNL     1      82.355  -4.173 -17.190  1.00  0.00     0.258 C 
ATOM      9  O   UNL     1      81.383  -4.867 -17.442  1.00  0.00    -0.300 OA
ENDBRANCH   7   8
BRANCH   7  10
ATOM     10  O   UNL     1      84.189  -5.394 -18.057  1.00  0.00    -0.383 OA
ATOM     11  H   UNL     1      83.423  -5.490 -18.682  1.00  0.00     0.211 HD
ENDBRANCH   7  10
ENDBRANCH   6   7
BRANCH   6  12
ATOM     12  O   UNL     1      82.826  -6.931 -16.097  1.00  0.00    -0.387 OA
ATOM     13  H   UNL     1      82.918  -7.070 -17.075  1.00  0.00     0.211 HD
ENDBRANCH   6  12
ENDBRANCH   1   6
BRANCH   1  14
ATOM     14  O   UNL     1      84.205  -5.431 -13.425  1.00  0.00    -0.388 OA
ATOM     15  H   UNL     1      83.928  -4.962 -12.595  1.00  0.00     0.211 HD
ENDBRANCH   1  14
TORSDOF 8
ENDMDL
MODEL 7
REMARK VINA RESULT:    -3.760      1.371      4.003
REMARK INTER + INTRA:          -5.456
REMARK INTER:                  -4.657
REMARK INTRA:                  -0.799
REMARK UNBOUND:                -0.377
REMARK SMILES C[C@H](O)[C@@H](O)[C@@H](O)[C@@H](O)C=O
REMARK SMILES IDX 4 1 2 2 1 3 3 4 6 6 8 7 10 8 11 9 9 10 7 12 5 14
REMARK H PARENT 3 5 9 11 7 13 5 15
REMARK Flexibility Score: inf
ROOT
ATOM      1  C   UNL     1      83.614  -3.204 -14.873  1.00  0.00     0.174 C 
ENDROOT
BRANCH   1   2
ATOM      2  C   UNL     1      82.330  -2.480 -14.375  1.00  0.00     0.142 C 
ATOM      3  C   UNL     1      82.263  -1.011 -14.802  1.00  0.00     0.041 C 
BRANCH   2   4
ATOM      4  O   UNL     1      82.221  -2.558 -12.977  1.00  0.00    -0.391 OA
ATOM      5  H   UNL     1      83.114  -2.334 -12.605  1.00  0.00     0.211 HD
ENDBRANCH   2   4
ENDBRANCH   1   2
BRANCH   1   6
ATOM      6  C   UNL     1      83.706  -4.695 -14.433  1.00  0.00     0.181 C 
BRANCH   6   7
ATOM      7  C   UNL     1      82.504  -5.546 -14.924  1.00  0.00     0.209 C 
BRANCH   7   8
ATOM      8  C   UNL     1      81.654  -6.068 -13.797  1.00  0.00     0.258 C 
ATOM      9  O   UNL     1      81.044  -5.305 -13.065  1.00  0.00    -0.300 OA
ENDBRANCH   7   8
BRANCH   7  10
ATOM     10  O   UNL     1      82.959  -6.630 -15.691  1.00  0.00    -0.383 OA
ATOM     11  H   UNL     1      82.164  -7.185 -15.909  1.00  0.00     0.211 HD
ENDBRANCH   7  10
ENDBRANCH   6   7
BRANCH   6  12
ATOM     12  O   UNL     1      83.874  -4.824 -13.042  1.00  0.00    -0.387 OA
ATOM     13  H   UNL     1      83.247  -4.196 -12.599  1.00  0.00     0.211 HD
ENDBRANCH   6  12
ENDBRANCH   1   6
BRANCH   1  14
ATOM     14  O   UNL     1      84.749  -2.515 -14.410  1.00  0.00    -0.388 OA
ATOM     15  H   UNL     1      84.437  -1.638 -14.067  1.00  0.00     0.211 HD
ENDBRANCH   1  14
TORSDOF 8
ENDMDL
MODEL 8
REMARK VINA RESULT:    -3.759      1.696      2.181
REMARK INTER + INTRA:          -5.455
REMARK INTER:                  -5.118
REMARK INTRA:                  -0.337
REMARK UNBOUND:                -0.377
REMARK SMILES C[C@H](O)[C@@H](O)[C@@H](O)[C@@H](O)C=O
REMARK SMILES IDX 4 1 2 2 1 3 3 4 6 6 8 7 10 8 11 9 9 10 7 12 5 14
REMARK H PARENT 3 5 9 11 7 13 5 15
REMARK Flexibility Score: inf
ROOT
ATOM      1  C   UNL     1      82.464  -6.037 -15.223  1.00  0.00     0.174 C 
ENDROOT
BRANCH   1   2
ATOM      2  C   UNL     1      83.377  -6.350 -14.003  1.00  0.00     0.142 C 
ATOM      3  C   UNL     1      84.160  -5.130 -13.508  1.00  0.00     0.041 C 
BRANCH   2   4
ATOM      4  O   UNL     1      84.278  -7.384 -14.302  1.00  0.00    -0.391 OA
ATOM      5  H   UNL     1      85.177  -7.076 -14.012  1.00  0.00     0.211 HD
ENDBRANCH   2   4
ENDBRANCH   1   2
BRANCH   1   6
ATOM      6  C   UNL     1      81.003  -5.662 -14.837  1.00  0.00     0.181 C 
BRANCH   6   7
ATOM      7  C   UNL     1      80.757  -4.128 -14.823  1.00  0.00     0.209 C 
BRANCH   7   8
ATOM      8  C   UNL     1      81.751  -3.366 -15.657  1.00  0.00     0.258 C 
ATOM      9  O   UNL     1      82.439  -2.485 -15.165  1.00  0.00    -0.300 OA
ENDBRANCH   7   8
BRANCH   7  10
ATOM     10  O   UNL     1      80.799  -3.643 -13.507  1.00  0.00    -0.383 OA
ATOM     11  H   UNL     1      80.200  -4.222 -12.966  1.00  0.00     0.211 HD
ENDBRANCH   7  10
ENDBRANCH   6   7
BRANCH   6  12
ATOM     12  O   UNL     1      80.617  -6.239 -13.613  1.00  0.00    -0.387 OA
ATOM     13  H   UNL     1      79.929  -6.929 -13.804  1.00  0.00     0.211 HD
ENDBRANCH   6  12
ENDBRANCH   1   6
BRANCH   1  14
ATOM     14  O   UNL     1      82.442  -7.147 -16.087  1.00  0.00    -0.388 OA
ATOM     15  H   UNL     1      81.766  -7.780 -15.730  1.00  0.00     0.211 HD
ENDBRANCH   1  14
TORSDOF 8
ENDMDL
MODEL 9
REMARK VINA RESULT:    -3.740      1.573      2.648
REMARK INTER + INTRA:          -5.428
REMARK INTER:                  -4.884
REMARK INTRA:                  -0.545
REMARK UNBOUND:                -0.377
REMARK SMILES C[C@H](O)[C@@H](O)[C@@H](O)[C@@H](O)C=O
REMARK SMILES IDX 4 1 2 2 1 3 3 4 6 6 8 7 10 8 11 9 9 10 7 12 5 14
REMARK H PARENT 3 5 9 11 7 13 5 15
REMARK Flexibility Score: inf
ROOT
ATOM      1  C   UNL     1      82.699  -4.800 -13.162  1.00  0.00     0.174 C 
ENDROOT
BRANCH   1   2
ATOM      2  C   UNL     1      82.052  -5.942 -13.996  1.00  0.00     0.142 C 
ATOM      3  C   UNL     1      80.542  -5.771 -14.184  1.00  0.00     0.041 C 
BRANCH   2   4
ATOM      4  O   UNL     1      82.304  -7.194 -13.413  1.00  0.00    -0.391 OA
ATOM      5  H   UNL     1      82.775  -7.740 -14.096  1.00  0.00     0.211 HD
ENDBRANCH   2   4
ENDBRANCH   1   2
BRANCH   1   6
ATOM      6  C   UNL     1      82.264  -3.372 -13.605  1.00  0.00     0.181 C 
BRANCH   6   7
ATOM      7  C   UNL     1      83.297  -2.690 -14.543  1.00  0.00     0.209 C 
BRANCH   7   8
ATOM      8  C   UNL     1      82.986  -1.241 -14.804  1.00  0.00     0.258 C 
ATOM      9  O   UNL     1      83.244  -0.383 -13.975  1.00  0.00    -0.300 OA
ENDBRANCH   7   8
BRANCH   7  10
ATOM     10  O   UNL     1      83.362  -3.370 -15.769  1.00  0.00    -0.383 OA
ATOM     11  H   UNL     1      82.859  -2.825 -16.429  1.00  0.00     0.211 HD
ENDBRANCH   7  10
ENDBRANCH   6   7
BRANCH   6  12
ATOM     12  O   UNL     1      81.967  -2.546 -12.505  1.00  0.00    -0.387 OA
ATOM     13  H   UNL     1      81.205  -1.962 -12.758  1.00  0.00     0.211 HD
ENDBRANCH   6  12
ENDBRANCH   1   6
BRANCH   1  14
ATOM     14  O   UNL     1      84.100  -4.900 -13.238  1.00  0.00    -0.388 OA
ATOM     15  H   UNL     1      84.333  -4.982 -14.199  1.00  0.00     0.211 HD
ENDBRANCH   1  14
TORSDOF 8
ENDMDL
