MODEL 1
REMARK VINA RESULT:    -2.626      0.000      0.000
REMARK INTER + INTRA:          -2.626
REMARK INTER:                  -2.626
REMARK INTRA:                   0.000
REMARK UNBOUND:                 0.000
REMARK SMILES CC(=O)[O-]
REMARK SMILES IDX 1 1 2 2 3 3 4 4
REMARK H PARENT
REMARK Flexibility Score: inf
ROOT
ATOM      1  C   UNL     1      12.737  12.283   2.171  1.00  0.00     0.063 C 
ATOM      2  C   UNL     1      11.397  12.680   2.691  1.00  0.00     0.038 C 
ATOM      3  O   UNL     1      11.305  13.530   3.615  1.00  0.00    -0.550 OA
ATOM      4  O   UNL     1      10.246  12.152   2.122  1.00  0.00    -0.550 OA
ENDROOT
TORSDOF 0
ENDMDL
MODEL 2
REMARK VINA RESULT:    -2.573     14.078     14.564
REMARK INTER + INTRA:          -2.573
REMARK INTER:                  -2.573
REMARK INTRA:                   0.000
REMARK UNBOUND:                 0.000
REMARK SMILES CC(=O)[O-]
REMARK SMILES IDX 1 1 2 2 3 3 4 4
REMARK H PARENT
REMARK Flexibility Score: inf
ROOT
ATOM      1  C   UNL     1      24.006   8.572   5.725  1.00  0.00     0.063 C 
ATOM      2  C   UNL     1      24.349   7.147   5.995  1.00  0.00     0.038 C 
ATOM      3  O   UNL     1      23.524   6.399   6.583  1.00  0.00    -0.550 OA
ATOM      4  O   UNL     1      25.558   6.626   5.552  1.00  0.00    -0.550 OA
ENDROOT
TORSDOF 0
ENDMDL
MODEL 3
REMARK VINA RESULT:    -2.512     13.412     13.848
REMARK INTER + INTRA:          -2.512
REMARK INTER:                  -2.512
REMARK INTRA:                   0.000
REMARK UNBOUND:                 0.000
REMARK SMILES CC(=O)[O-]
REMARK SMILES IDX 1 1 2 2 3 3 4 4
REMARK H PARENT
REMARK Flexibility Score: inf
ROOT
ATOM      1  C   UNL     1      25.355   7.496   5.769  1.00  0.00     0.063 C 
ATOM      2  C   UNL     1      23.944   7.976   5.788  1.00  0.00     0.038 C 
ATOM      3  O   UNL     1      23.016   7.195   6.127  1.00  0.00    -0.550 OA
ATOM      4  O   UNL     1      23.655   9.300   5.485  1.00  0.00    -0.550 OA
ENDROOT
TORSDOF 0
ENDMDL
MODEL 4
REMARK VINA RESULT:    -2.411     10.481     10.842
REMARK INTER + INTRA:          -2.411
REMARK INTER:                  -2.411
REMARK INTRA:                   0.000
REMARK UNBOUND:                 0.000
REMARK SMILES CC(=O)[O-]
REMARK SMILES IDX 1 1 2 2 3 3 4 4
REMARK H PARENT
REMARK Flexibility Score: inf
ROOT
ATOM      1  C   UNL     1      18.097  16.904   8.127  1.00  0.00     0.063 C 
ATOM      2  C   UNL     1      18.247  18.154   8.925  1.00  0.00     0.038 C 
ATOM      3  O   UNL     1      18.902  19.124   8.463  1.00  0.00    -0.550 OA
ATOM      4  O   UNL     1      17.618  18.272  10.158  1.00  0.00    -0.550 OA
ENDROOT
TORSDOF 0
ENDMDL
MODEL 5
REMARK VINA RESULT:    -2.332     10.110     10.687
REMARK INTER + INTRA:          -2.332
REMARK INTER:                  -2.332
REMARK INTRA:                   0.000
REMARK UNBOUND:                 0.000
REMARK SMILES CC(=O)[O-]
REMARK SMILES IDX 1 1 2 2 3 3 4 4
REMARK H PARENT
REMARK Flexibility Score: inf
ROOT
ATOM      1  C   UNL     1      17.748  18.459   9.655  1.00  0.00     0.063 C 
ATOM      2  C   UNL     1      18.488  17.815   8.532  1.00  0.00     0.038 C 
ATOM      3  O   UNL     1      19.472  18.398   8.008  1.00  0.00    -0.550 OA
ATOM      4  O   UNL     1      18.126  16.547   8.097  1.00  0.00    -0.550 OA
ENDROOT
TORSDOF 0
ENDMDL
MODEL 6
REMARK VINA RESULT:    -2.329     10.313     10.966
REMARK INTER + INTRA:          -2.329
REMARK INTER:                  -2.329
REMARK INTRA:                   0.000
REMARK UNBOUND:                 0.000
REMARK SMILES CC(=O)[O-]
REMARK SMILES IDX 1 1 2 2 3 3 4 4
REMARK H PARENT
REMARK Flexibility Score: inf
ROOT
ATOM      1  C   UNL     1      19.387  18.911   8.632  1.00  0.00     0.063 C 
ATOM      2  C   UNL     1      18.255  18.026   9.034  1.00  0.00     0.038 C 
ATOM      3  O   UNL     1      17.912  17.067   8.295  1.00  0.00    -0.550 OA
ATOM      4  O   UNL     1      17.613  18.225  10.249  1.00  0.00    -0.550 OA
ENDROOT
TORSDOF 0
ENDMDL
MODEL 7
REMARK VINA RESULT:    -2.329      9.282      9.509
REMARK INTER + INTRA:          -2.329
REMARK INTER:                  -2.329
REMARK INTRA:                   0.000
REMARK UNBOUND:                 0.000
REMARK SMILES CC(=O)[O-]
REMARK SMILES IDX 1 1 2 2 3 3 4 4
REMARK H PARENT
REMARK Flexibility Score: inf
ROOT
ATOM      1  C   UNL     1      18.153  17.361   8.403  1.00  0.00     0.063 C 
ATOM      2  C   UNL     1      18.530  16.336   7.387  1.00  0.00     0.038 C 
ATOM      3  O   UNL     1      18.565  15.118   7.703  1.00  0.00    -0.550 OA
ATOM      4  O   UNL     1      18.790  16.718   6.078  1.00  0.00    -0.550 OA
ENDROOT
TORSDOF 0
ENDMDL
MODEL 8
REMARK VINA RESULT:    -2.201     10.338     10.756
REMARK INTER + INTRA:          -2.201
REMARK INTER:                  -2.201
REMARK INTRA:                   0.000
REMARK UNBOUND:                 0.000
REMARK SMILES CC(=O)[O-]
REMARK SMILES IDX 1 1 2 2 3 3 4 4
REMARK H PARENT
REMARK Flexibility Score: inf
ROOT
ATOM      1  C   UNL     1      16.083   2.210  -1.375  1.00  0.00     0.063 C 
ATOM      2  C   UNL     1      15.432   3.535  -1.167  1.00  0.00     0.038 C 
ATOM      3  O   UNL     1      15.665   4.195  -0.121  1.00  0.00    -0.550 OA
ATOM      4  O   UNL     1      14.610   4.069  -2.150  1.00  0.00    -0.550 OA
ENDROOT
TORSDOF 0
ENDMDL
MODEL 9
REMARK VINA RESULT:    -2.159     17.146     17.370
REMARK INTER + INTRA:          -2.159
REMARK INTER:                  -2.159
REMARK INTRA:                   0.000
REMARK UNBOUND:                 0.000
REMARK SMILES CC(=O)[O-]
REMARK SMILES IDX 1 1 2 2 3 3 4 4
REMARK H PARENT
REMARK Flexibility Score: inf
ROOT
ATOM      1  C   UNL     1      23.973  15.790  14.390  1.00  0.00     0.063 C 
ATOM      2  C   UNL     1      24.186  14.326  14.208  1.00  0.00     0.038 C 
ATOM      3  O   UNL     1      23.873  13.523  15.125  1.00  0.00    -0.550 OA
ATOM      4  O   UNL     1      24.681  13.839  13.005  1.00  0.00    -0.550 OA
ENDROOT
TORSDOF 0
ENDMDL
