MODEL 1
REMARK VINA RESULT:    -2.242      0.000      0.000
REMARK INTER + INTRA:          -2.242
REMARK INTER:                  -2.242
REMARK INTRA:                   0.000
REMARK UNBOUND:                 0.000
REMARK SMILES CC(=O)[O-]
REMARK SMILES IDX 1 1 2 2 3 3 4 4
REMARK H PARENT
REMARK Flexibility Score: inf
ROOT
ATOM      1  C   UNL     1     -16.803  15.385   5.808  1.00  0.00     0.063 C 
ATOM      2  C   UNL     1     -16.414  14.082   6.421  1.00  0.00     0.038 C 
ATOM      3  O   UNL     1     -16.292  13.057   5.702  1.00  0.00    -0.550 OA
ATOM      4  O   UNL     1     -16.238  13.985   7.796  1.00  0.00    -0.550 OA
ENDROOT
TORSDOF 0
ENDMDL
MODEL 2
REMARK VINA RESULT:    -2.241      1.457      2.104
REMARK INTER + INTRA:          -2.241
REMARK INTER:                  -2.241
REMARK INTRA:                   0.000
REMARK UNBOUND:                 0.000
REMARK SMILES CC(=O)[O-]
REMARK SMILES IDX 1 1 2 2 3 3 4 4
REMARK H PARENT
REMARK Flexibility Score: inf
ROOT
ATOM      1  C   UNL     1     -16.449  14.382   7.565  1.00  0.00     0.063 C 
ATOM      2  C   UNL     1     -16.546  14.466   6.079  1.00  0.00     0.038 C 
ATOM      3  O   UNL     1     -16.914  15.537   5.529  1.00  0.00    -0.550 OA
ATOM      4  O   UNL     1     -16.281  13.347   5.299  1.00  0.00    -0.550 OA
ENDROOT
TORSDOF 0
ENDMDL
MODEL 3
REMARK VINA RESULT:    -1.993     10.426     10.954
REMARK INTER + INTRA:          -1.993
REMARK INTER:                  -1.993
REMARK INTRA:                   0.000
REMARK UNBOUND:                 0.000
REMARK SMILES CC(=O)[O-]
REMARK SMILES IDX 1 1 2 2 3 3 4 4
REMARK H PARENT
REMARK Flexibility Score: inf
ROOT
ATOM      1  C   UNL     1     -12.645  21.124  14.708  1.00  0.00     0.063 C 
ATOM      2  C   UNL     1     -13.926  21.401  13.996  1.00  0.00     0.038 C 
ATOM      3  O   UNL     1     -14.059  21.081  12.786  1.00  0.00    -0.550 OA
ATOM      4  O   UNL     1     -14.958  22.061  14.651  1.00  0.00    -0.550 OA
ENDROOT
TORSDOF 0
ENDMDL
MODEL 4
REMARK VINA RESULT:    -1.989     16.331     16.846
REMARK INTER + INTRA:          -1.989
REMARK INTER:                  -1.989
REMARK INTRA:                   0.000
REMARK UNBOUND:                 0.000
REMARK SMILES CC(=O)[O-]
REMARK SMILES IDX 1 1 2 2 3 3 4 4
REMARK H PARENT
REMARK Flexibility Score: inf
ROOT
ATOM      1  C   UNL     1     -10.240  28.551   9.610  1.00  0.00     0.063 C 
ATOM      2  C   UNL     1      -9.187  29.073   8.693  1.00  0.00     0.038 C 
ATOM      3  O   UNL     1      -8.961  30.309   8.629  1.00  0.00    -0.550 OA
ATOM      4  O   UNL     1      -8.488  28.201   7.867  1.00  0.00    -0.550 OA
ENDROOT
TORSDOF 0
ENDMDL
MODEL 5
REMARK VINA RESULT:    -1.926     16.223     16.638
REMARK INTER + INTRA:          -1.926
REMARK INTER:                  -1.926
REMARK INTRA:                   0.000
REMARK UNBOUND:                 0.000
REMARK SMILES CC(=O)[O-]
REMARK SMILES IDX 1 1 2 2 3 3 4 4
REMARK H PARENT
REMARK Flexibility Score: inf
ROOT
ATOM      1  C   UNL     1      -9.231  30.399   8.551  1.00  0.00     0.063 C 
ATOM      2  C   UNL     1      -9.231  28.910   8.634  1.00  0.00     0.038 C 
ATOM      3  O   UNL     1      -8.474  28.235   7.888  1.00  0.00    -0.550 OA
ATOM      4  O   UNL     1     -10.106  28.261   9.496  1.00  0.00    -0.550 OA
ENDROOT
TORSDOF 0
ENDMDL
MODEL 6
REMARK VINA RESULT:    -1.759      6.653      7.231
REMARK INTER + INTRA:          -1.759
REMARK INTER:                  -1.759
REMARK INTRA:                   0.000
REMARK UNBOUND:                 0.000
REMARK SMILES CC(=O)[O-]
REMARK SMILES IDX 1 1 2 2 3 3 4 4
REMARK H PARENT
REMARK Flexibility Score: inf
ROOT
ATOM      1  C   UNL     1     -13.803  12.992  13.931  1.00  0.00     0.063 C 
ATOM      2  C   UNL     1     -13.920  12.162  12.698  1.00  0.00     0.038 C 
ATOM      3  O   UNL     1     -12.980  11.397  12.358  1.00  0.00    -0.550 OA
ATOM      4  O   UNL     1     -15.046  12.269  11.891  1.00  0.00    -0.550 OA
ENDROOT
TORSDOF 0
ENDMDL
MODEL 7
REMARK VINA RESULT:    -1.705     16.222     16.392
REMARK INTER + INTRA:          -1.705
REMARK INTER:                  -1.705
REMARK INTRA:                   0.000
REMARK UNBOUND:                 0.000
REMARK SMILES CC(=O)[O-]
REMARK SMILES IDX 1 1 2 2 3 3 4 4
REMARK H PARENT
REMARK Flexibility Score: inf
ROOT
ATOM      1  C   UNL     1      -9.239  29.006   8.702  1.00  0.00     0.063 C 
ATOM      2  C   UNL     1     -10.405  28.922   9.627  1.00  0.00     0.038 C 
ATOM      3  O   UNL     1     -10.283  28.369  10.751  1.00  0.00    -0.550 OA
ATOM      4  O   UNL     1     -11.645  29.408   9.231  1.00  0.00    -0.550 OA
ENDROOT
TORSDOF 0
ENDMDL
MODEL 8
REMARK VINA RESULT:    -1.700     13.353     13.850
REMARK INTER + INTRA:          -1.700
REMARK INTER:                  -1.700
REMARK INTRA:                   0.000
REMARK UNBOUND:                 0.000
REMARK SMILES CC(=O)[O-]
REMARK SMILES IDX 1 1 2 2 3 3 4 4
REMARK H PARENT
REMARK Flexibility Score: inf
ROOT
ATOM      1  C   UNL     1     -16.858  26.928   9.362  1.00  0.00     0.063 C 
ATOM      2  C   UNL     1     -16.169  27.692   8.282  1.00  0.00     0.038 C 
ATOM      3  O   UNL     1     -15.296  28.550   8.573  1.00  0.00    -0.550 OA
ATOM      4  O   UNL     1     -16.526  27.496   6.954  1.00  0.00    -0.550 OA
ENDROOT
TORSDOF 0
ENDMDL
MODEL 9
REMARK VINA RESULT:    -1.652     15.506     15.573
REMARK INTER + INTRA:          -1.652
REMARK INTER:                  -1.652
REMARK INTRA:                   0.000
REMARK UNBOUND:                 0.000
REMARK SMILES CC(=O)[O-]
REMARK SMILES IDX 1 1 2 2 3 3 4 4
REMARK H PARENT
REMARK Flexibility Score: inf
ROOT
ATOM      1  C   UNL     1      -1.416  11.516   4.092  1.00  0.00     0.063 C 
ATOM      2  C   UNL     1      -1.103  12.622   5.043  1.00  0.00     0.038 C 
ATOM      3  O   UNL     1      -1.124  13.817   4.651  1.00  0.00    -0.550 OA
ATOM      4  O   UNL     1      -0.736  12.332   6.351  1.00  0.00    -0.550 OA
ENDROOT
TORSDOF 0
ENDMDL
