MODEL 1
REMARK VINA RESULT:    -1.243      0.000      0.000
REMARK INTER + INTRA:          -1.604
REMARK INTER:                  -1.461
REMARK INTRA:                  -0.143
REMARK UNBOUND:                -0.143
REMARK SMILES O=C([O-])CCC(=O)[O-]
REMARK SMILES IDX 4 1 2 2 1 3 3 4 5 5 6 6 7 7 8 8
REMARK H PARENT
REMARK Flexibility Score: inf
ROOT
ATOM      1  C   UNL     1     -13.108 -21.276  83.981  1.00  0.00     0.059 C 
ENDROOT
BRANCH   1   2
ATOM      2  C   UNL     1     -13.416 -21.635  82.562  1.00  0.00     0.042 C 
ATOM      3  O   UNL     1     -12.896 -22.657  82.041  1.00  0.00    -0.550 OA
ATOM      4  O   UNL     1     -14.240 -20.817  81.800  1.00  0.00    -0.550 OA
ENDBRANCH   1   2
BRANCH   1   5
ATOM      5  C   UNL     1     -13.155 -22.519  84.870  1.00  0.00     0.059 C 
BRANCH   5   6
ATOM      6  C   UNL     1     -14.572 -22.914  85.142  1.00  0.00     0.042 C 
ATOM      7  O   UNL     1     -15.045 -23.965  84.635  1.00  0.00    -0.550 OA
ATOM      8  O   UNL     1     -15.357 -22.147  85.994  1.00  0.00    -0.550 OA
ENDBRANCH   5   6
ENDBRANCH   1   5
TORSDOF 3
ENDMDL
MODEL 2
REMARK VINA RESULT:    -1.201      1.284      2.069
REMARK INTER + INTRA:          -1.555
REMARK INTER:                  -1.508
REMARK INTRA:                  -0.047
REMARK UNBOUND:                -0.143
REMARK SMILES O=C([O-])CCC(=O)[O-]
REMARK SMILES IDX 4 1 2 2 1 3 3 4 5 5 6 6 7 7 8 8
REMARK H PARENT
REMARK Flexibility Score: inf
ROOT
ATOM      1  C   UNL     1     -12.932 -21.520  82.553  1.00  0.00     0.059 C 
ENDROOT
BRANCH   1   2
ATOM      2  C   UNL     1     -13.596 -20.484  81.703  1.00  0.00     0.042 C 
ATOM      3  O   UNL     1     -14.797 -20.627  81.352  1.00  0.00    -0.550 OA
ATOM      4  O   UNL     1     -12.875 -19.383  81.257  1.00  0.00    -0.550 OA
ENDBRANCH   1   2
BRANCH   1   5
ATOM      5  C   UNL     1     -13.182 -21.236  84.035  1.00  0.00     0.059 C 
BRANCH   5   6
ATOM      6  C   UNL     1     -13.627 -22.479  84.738  1.00  0.00     0.042 C 
ATOM      7  O   UNL     1     -14.426 -22.405  85.708  1.00  0.00    -0.550 OA
ATOM      8  O   UNL     1     -13.197 -23.722  84.293  1.00  0.00    -0.550 OA
ENDBRANCH   5   6
ENDBRANCH   1   5
TORSDOF 3
ENDMDL
MODEL 3
REMARK VINA RESULT:    -1.178      2.181      3.134
REMARK INTER + INTRA:          -1.528
REMARK INTER:                  -1.344
REMARK INTRA:                  -0.184
REMARK UNBOUND:                -0.143
REMARK SMILES O=C([O-])CCC(=O)[O-]
REMARK SMILES IDX 4 1 2 2 1 3 3 4 5 5 6 6 7 7 8 8
REMARK H PARENT
REMARK Flexibility Score: inf
ROOT
ATOM      1  C   UNL     1     -15.351 -22.414  85.943  1.00  0.00     0.059 C 
ENDROOT
BRANCH   1   2
ATOM      2  C   UNL     1     -13.992 -22.511  85.325  1.00  0.00     0.042 C 
ATOM      3  O   UNL     1     -13.646 -21.700  84.426  1.00  0.00    -0.550 OA
ATOM      4  O   UNL     1     -13.123 -23.524  85.709  1.00  0.00    -0.550 OA
ENDBRANCH   1   2
BRANCH   1   5
ATOM      5  C   UNL     1     -16.148 -23.693  85.682  1.00  0.00     0.059 C 
BRANCH   5   6
ATOM      6  C   UNL     1     -16.400 -23.863  84.217  1.00  0.00     0.042 C 
ATOM      7  O   UNL     1     -16.077 -24.934  83.639  1.00  0.00    -0.550 OA
ATOM      8  O   UNL     1     -17.032 -22.857  83.498  1.00  0.00    -0.550 OA
ENDBRANCH   5   6
ENDBRANCH   1   5
TORSDOF 3
ENDMDL
MODEL 4
REMARK VINA RESULT:    -1.176      1.811      2.377
REMARK INTER + INTRA:          -1.525
REMARK INTER:                  -1.341
REMARK INTRA:                  -0.184
REMARK UNBOUND:                -0.143
REMARK SMILES O=C([O-])CCC(=O)[O-]
REMARK SMILES IDX 4 1 2 2 1 3 3 4 5 5 6 6 7 7 8 8
REMARK H PARENT
REMARK Flexibility Score: inf
ROOT
ATOM      1  C   UNL     1     -14.647 -22.392  83.011  1.00  0.00     0.059 C 
ENDROOT
BRANCH   1   2
ATOM      2  C   UNL     1     -14.630 -23.874  82.811  1.00  0.00     0.042 C 
ATOM      3  O   UNL     1     -13.574 -24.450  82.437  1.00  0.00    -0.550 OA
ATOM      4  O   UNL     1     -15.791 -24.614  82.990  1.00  0.00    -0.550 OA
ENDBRANCH   1   2
BRANCH   1   5
ATOM      5  C   UNL     1     -13.708 -21.995  84.151  1.00  0.00     0.059 C 
BRANCH   5   6
ATOM      6  C   UNL     1     -14.171 -22.593  85.441  1.00  0.00     0.042 C 
ATOM      7  O   UNL     1     -15.271 -22.240  85.944  1.00  0.00    -0.550 OA
ATOM      8  O   UNL     1     -13.412 -23.574  86.067  1.00  0.00    -0.550 OA
ENDBRANCH   5   6
ENDBRANCH   1   5
TORSDOF 3
ENDMDL
MODEL 5
REMARK VINA RESULT:    -1.115      2.110      3.854
REMARK INTER + INTRA:          -1.454
REMARK INTER:                  -1.338
REMARK INTRA:                  -0.116
REMARK UNBOUND:                -0.143
REMARK SMILES O=C([O-])CCC(=O)[O-]
REMARK SMILES IDX 4 1 2 2 1 3 3 4 5 5 6 6 7 7 8 8
REMARK H PARENT
REMARK Flexibility Score: inf
ROOT
ATOM      1  C   UNL     1     -16.075 -22.973  84.692  1.00  0.00     0.059 C 
ENDROOT
BRANCH   1   2
ATOM      2  C   UNL     1     -16.569 -24.333  85.070  1.00  0.00     0.042 C 
ATOM      3  O   UNL     1     -15.783 -25.317  85.059  1.00  0.00    -0.550 OA
ATOM      4  O   UNL     1     -17.907 -24.524  85.389  1.00  0.00    -0.550 OA
ENDBRANCH   1   2
BRANCH   1   5
ATOM      5  C   UNL     1     -15.054 -22.471  85.714  1.00  0.00     0.059 C 
BRANCH   5   6
ATOM      6  C   UNL     1     -13.685 -22.437  85.111  1.00  0.00     0.042 C 
ATOM      7  O   UNL     1     -12.876 -23.379  85.322  1.00  0.00    -0.550 OA
ATOM      8  O   UNL     1     -13.317 -21.388  84.278  1.00  0.00    -0.550 OA
ENDBRANCH   5   6
ENDBRANCH   1   5
TORSDOF 3
ENDMDL
MODEL 6
REMARK VINA RESULT:    -1.107      2.437      4.222
REMARK INTER + INTRA:          -1.444
REMARK INTER:                  -1.409
REMARK INTRA:                  -0.035
REMARK UNBOUND:                -0.143
REMARK SMILES O=C([O-])CCC(=O)[O-]
REMARK SMILES IDX 4 1 2 2 1 3 3 4 5 5 6 6 7 7 8 8
REMARK H PARENT
REMARK Flexibility Score: inf
ROOT
ATOM      1  C   UNL     1     -16.386 -22.826  84.932  1.00  0.00     0.059 C 
ENDROOT
BRANCH   1   2
ATOM      2  C   UNL     1     -17.736 -22.494  85.484  1.00  0.00     0.042 C 
ATOM      3  O   UNL     1     -17.913 -21.422  86.121  1.00  0.00    -0.550 OA
ATOM      4  O   UNL     1     -18.788 -23.388  85.335  1.00  0.00    -0.550 OA
ENDBRANCH   1   2
BRANCH   1   5
ATOM      5  C   UNL     1     -15.300 -22.550  85.974  1.00  0.00     0.059 C 
BRANCH   5   6
ATOM      6  C   UNL     1     -13.948 -22.561  85.335  1.00  0.00     0.042 C 
ATOM      7  O   UNL     1     -13.094 -23.422  85.676  1.00  0.00    -0.550 OA
ATOM      8  O   UNL     1     -13.645 -21.652  84.330  1.00  0.00    -0.550 OA
ENDBRANCH   5   6
ENDBRANCH   1   5
TORSDOF 3
ENDMDL
MODEL 7
REMARK VINA RESULT:    -1.048      1.524      3.966
REMARK INTER + INTRA:          -1.375
REMARK INTER:                  -1.343
REMARK INTRA:                  -0.033
REMARK UNBOUND:                -0.143
REMARK SMILES O=C([O-])CCC(=O)[O-]
REMARK SMILES IDX 4 1 2 2 1 3 3 4 5 5 6 6 7 7 8 8
REMARK H PARENT
REMARK Flexibility Score: inf
ROOT
ATOM      1  C   UNL     1     -13.231 -21.049  83.348  1.00  0.00     0.059 C 
ENDROOT
BRANCH   1   2
ATOM      2  C   UNL     1     -13.458 -22.237  84.229  1.00  0.00     0.042 C 
ATOM      3  O   UNL     1     -12.875 -23.326  83.985  1.00  0.00    -0.550 OA
ATOM      4  O   UNL     1     -14.349 -22.156  85.291  1.00  0.00    -0.550 OA
ENDBRANCH   1   2
BRANCH   1   5
ATOM      5  C   UNL     1     -13.374 -21.439  81.877  1.00  0.00     0.059 C 
BRANCH   5   6
ATOM      6  C   UNL     1     -13.945 -20.304  81.088  1.00  0.00     0.042 C 
ATOM      7  O   UNL     1     -15.188 -20.223  80.904  1.00  0.00    -0.550 OA
ATOM      8  O   UNL     1     -13.110 -19.309  80.595  1.00  0.00    -0.550 OA
ENDBRANCH   5   6
ENDBRANCH   1   5
TORSDOF 3
ENDMDL
MODEL 8
REMARK VINA RESULT:    -0.977      2.357      3.204
REMARK INTER + INTRA:          -1.291
REMARK INTER:                  -1.153
REMARK INTRA:                  -0.138
REMARK UNBOUND:                -0.143
REMARK SMILES O=C([O-])CCC(=O)[O-]
REMARK SMILES IDX 4 1 2 2 1 3 3 4 5 5 6 6 7 7 8 8
REMARK H PARENT
REMARK Flexibility Score: inf
ROOT
ATOM      1  C   UNL     1     -15.316 -22.470  82.355  1.00  0.00     0.059 C 
ENDROOT
BRANCH   1   2
ATOM      2  C   UNL     1     -16.707 -22.736  82.837  1.00  0.00     0.042 C 
ATOM      3  O   UNL     1     -17.634 -21.926  82.573  1.00  0.00    -0.550 OA
ATOM      4  O   UNL     1     -16.971 -23.853  83.619  1.00  0.00    -0.550 OA
ENDBRANCH   1   2
BRANCH   1   5
ATOM      5  C   UNL     1     -14.293 -23.115  83.292  1.00  0.00     0.059 C 
BRANCH   5   6
ATOM      6  C   UNL     1     -13.940 -22.179  84.404  1.00  0.00     0.042 C 
ATOM      7  O   UNL     1     -13.154 -21.218  84.197  1.00  0.00    -0.550 OA
ATOM      8  O   UNL     1     -14.516 -22.340  85.658  1.00  0.00    -0.550 OA
ENDBRANCH   5   6
ENDBRANCH   1   5
TORSDOF 3
ENDMDL
MODEL 9
REMARK VINA RESULT:    -0.941      7.551      8.034
REMARK INTER + INTRA:          -1.249
REMARK INTER:                  -1.205
REMARK INTRA:                  -0.044
REMARK UNBOUND:                -0.143
REMARK SMILES O=C([O-])CCC(=O)[O-]
REMARK SMILES IDX 4 1 2 2 1 3 3 4 5 5 6 6 7 7 8 8
REMARK H PARENT
REMARK Flexibility Score: inf
ROOT
ATOM      1  C   UNL     1     -14.942 -14.176  83.620  1.00  0.00     0.059 C 
ENDROOT
BRANCH   1   2
ATOM      2  C   UNL     1     -13.628 -14.622  84.178  1.00  0.00     0.042 C 
ATOM      3  O   UNL     1     -12.875 -15.372  83.503  1.00  0.00    -0.550 OA
ATOM      4  O   UNL     1     -13.255 -14.248  85.463  1.00  0.00    -0.550 OA
ENDBRANCH   1   2
BRANCH   1   5
ATOM      5  C   UNL     1     -16.031 -14.249  84.691  1.00  0.00     0.059 C 
BRANCH   5   6
ATOM      6  C   UNL     1     -17.252 -14.925  84.151  1.00  0.00     0.042 C 
ATOM      7  O   UNL     1     -18.189 -15.253  84.926  1.00  0.00    -0.550 OA
ATOM      8  O   UNL     1     -17.376 -15.150  82.786  1.00  0.00    -0.550 OA
ENDBRANCH   5   6
ENDBRANCH   1   5
TORSDOF 3
ENDMDL
