MODEL 1
REMARK VINA RESULT:    -3.525      0.000      0.000
REMARK INTER + INTRA:          -5.718
REMARK INTER:                  -5.380
REMARK INTRA:                  -0.338
REMARK UNBOUND:                -0.338
REMARK SMILES CC1=CCC[C@@H](C)C(=O)C[C@H](C(C)C)C(=O)C1
REMARK SMILES IDX 8 1 9 2 6 3 7 4 5 5 4 6 3 7 2 8 1 9 10 11 11 12 15 13 16 14
REMARK SMILES IDX 17 15 12 17 13 18 14 19
REMARK H PARENT
REMARK Flexibility Score: 70.00
ROOT
ATOM      1  C   UNL     1      17.134 122.855  14.172  1.00  0.00     0.136 C 
ATOM      2  O   UNL     1      17.370 122.718  12.982  1.00  0.00    -0.299 OA
ENDROOT
BRANCH   1   3
ATOM      3  C   UNL     1      15.719 122.610  14.672  1.00  0.00     0.053 C 
ATOM      4  C   UNL     1      14.744 123.589  14.008  1.00  0.00     0.016 C 
BRANCH   3   5
ATOM      5  C   UNL     1      15.613 122.688  16.211  1.00  0.00     0.015 C 
BRANCH   5   6
ATOM      6  C   UNL     1      14.962 124.001  16.673  1.00  0.00     0.028 C 
BRANCH   6   7
ATOM      7  C   UNL     1      15.634 124.611  17.879  1.00  0.00    -0.028 C 
ATOM      8  C   UNL     1      16.678 125.480  17.870  1.00  0.00    -0.070 CG0
ATOM      9  C   UNL     1      17.270 125.858  19.206  1.00  0.00     0.039 C 
ATOM     10  G   UNL     1      17.235 126.157  16.618  1.00  0.00     0.000 G0
ENDBRANCH   6   7
ENDBRANCH   5   6
ENDBRANCH   3   5
ENDBRANCH   1   3
BRANCH   1  11
ATOM     11  C   UNL     1      18.233 123.340  15.093  1.00  0.00     0.087 C 
BRANCH  11  12
ATOM     12  C   UNL     1      18.671 124.816  14.860  1.00  0.00     0.066 C 
BRANCH  12  13
ATOM     13  C   UNL     1      18.590 125.622  16.155  1.00  0.00     0.140 C 
ATOM     14  O   UNL     1      19.604 125.884  16.787  1.00  0.00    -0.299 OA
BRANCH  13  15
ATOM     15  C   UNL     1      17.266 126.175  16.621  1.00  0.00     0.106 CG0
ATOM     16  G   UNL     1      16.675 125.483  17.849  1.00  0.00     0.000 G0
ENDBRANCH  13  15
ENDBRANCH  12  13
BRANCH  12  17
ATOM     17  C   UNL     1      20.054 124.982  14.136  1.00  0.00    -0.006 C 
ATOM     18  C   UNL     1      19.935 125.957  12.948  1.00  0.00     0.008 C 
ATOM     19  C   UNL     1      20.627 123.651  13.614  1.00  0.00     0.008 C 
ENDBRANCH  12  17
ENDBRANCH  11  12
ENDBRANCH   1  11
TORSDOF 1
ENDMDL
MODEL 2
REMARK VINA RESULT:    -3.521      9.439     11.680
REMARK INTER + INTRA:          -5.710
REMARK INTER:                  -5.366
REMARK INTRA:                  -0.345
REMARK UNBOUND:                -0.338
REMARK SMILES CC1=CCC[C@@H](C)C(=O)C[C@H](C(C)C)C(=O)C1
REMARK SMILES IDX 8 1 9 2 6 3 7 4 5 5 4 6 3 7 2 8 1 9 10 11 11 12 15 13 16 14
REMARK SMILES IDX 17 15 12 17 13 18 14 19
REMARK H PARENT
REMARK Flexibility Score: 70.00
ROOT
ATOM      1  C   UNL     1      10.842 117.929  17.715  1.00  0.00     0.136 C 
ATOM      2  O   UNL     1      10.426 118.066  16.575  1.00  0.00    -0.299 OA
ENDROOT
BRANCH   1   3
ATOM      3  C   UNL     1      11.966 116.937  17.972  1.00  0.00     0.053 C 
ATOM      4  C   UNL     1      13.202 117.308  17.145  1.00  0.00     0.016 C 
BRANCH   3   5
ATOM      5  C   UNL     1      11.540 115.478  17.700  1.00  0.00     0.015 C 
BRANCH   5   6
ATOM      6  C   UNL     1      11.171 114.739  18.996  1.00  0.00     0.028 C 
BRANCH   6   7
ATOM      7  C   UNL     1      12.085 115.065  20.152  1.00  0.00    -0.028 C 
ATOM      8  C   UNL     1      11.766 115.794  21.253  1.00  0.00    -0.070 CG0
ATOM      9  C   UNL     1      12.882 116.101  22.222  1.00  0.00     0.039 C 
ATOM     10  G   UNL     1      10.353 116.249  21.617  1.00  0.00     0.000 G0
ENDBRANCH   6   7
ENDBRANCH   5   6
ENDBRANCH   3   5
ENDBRANCH   1   3
BRANCH   1  11
ATOM     11  C   UNL     1      10.175 118.689  18.842  1.00  0.00     0.087 C 
BRANCH  11  12
ATOM     12  C   UNL     1       9.307 117.813  19.791  1.00  0.00     0.066 C 
BRANCH  12  13
ATOM     13  C   UNL     1       9.986 117.638  21.149  1.00  0.00     0.140 C 
ATOM     14  O   UNL     1      10.170 118.602  21.878  1.00  0.00    -0.299 OA
BRANCH  13  15
ATOM     15  C   UNL     1      10.358 116.260  21.637  1.00  0.00     0.106 CG0
ATOM     16  G   UNL     1      11.762 115.797  21.252  1.00  0.00     0.000 G0
ENDBRANCH  13  15
ENDBRANCH  12  13
BRANCH  12  17
ATOM     17  C   UNL     1       7.812 118.273  19.923  1.00  0.00    -0.006 C 
ATOM     18  C   UNL     1       6.953 117.672  18.793  1.00  0.00     0.008 C 
ATOM     19  C   UNL     1       7.646 119.803  19.895  1.00  0.00     0.008 C 
ENDBRANCH  12  17
ENDBRANCH  11  12
ENDBRANCH   1  11
TORSDOF 1
ENDMDL
MODEL 3
REMARK VINA RESULT:    -3.514     10.411     12.222
REMARK INTER + INTRA:          -5.700
REMARK INTER:                  -5.322
REMARK INTRA:                  -0.378
REMARK UNBOUND:                -0.338
REMARK SMILES CC1=CCC[C@@H](C)C(=O)C[C@H](C(C)C)C(=O)C1
REMARK SMILES IDX 8 1 9 2 6 3 7 4 5 5 4 6 3 7 2 8 1 9 10 11 11 12 15 13 16 14
REMARK SMILES IDX 17 15 12 17 13 18 14 19
REMARK H PARENT
REMARK Flexibility Score: 70.00
ROOT
ATOM      1  C   UNL     1       8.939 118.888  20.936  1.00  0.00     0.136 C 
ATOM      2  O   UNL     1       8.103 119.110  21.798  1.00  0.00    -0.299 OA
ENDROOT
BRANCH   1   3
ATOM      3  C   UNL     1       8.559 119.086  19.477  1.00  0.00     0.053 C 
ATOM      4  C   UNL     1       7.425 118.130  19.089  1.00  0.00     0.016 C 
BRANCH   3   5
ATOM      5  C   UNL     1       9.764 118.925  18.524  1.00  0.00     0.015 C 
BRANCH   5   6
ATOM      6  C   UNL     1       9.645 117.658  17.662  1.00  0.00     0.028 C 
BRANCH   6   7
ATOM      7  C   UNL     1      10.971 116.989  17.394  1.00  0.00    -0.028 C 
ATOM      8  C   UNL     1      11.610 116.107  18.206  1.00  0.00    -0.070 CG0
ATOM      9  C   UNL     1      12.992 115.665  17.789  1.00  0.00     0.039 C 
ATOM     10  G   UNL     1      11.000 115.475  19.457  1.00  0.00     0.000 G0
ENDBRANCH   6   7
ENDBRANCH   5   6
ENDBRANCH   3   5
ENDBRANCH   1   3
BRANCH   1  11
ATOM     11  C   UNL     1      10.294 118.347  21.341  1.00  0.00     0.087 C 
BRANCH  11  12
ATOM     12  C   UNL     1      10.325 116.816  21.620  1.00  0.00     0.066 C 
BRANCH  12  13
ATOM     13  C   UNL     1      11.388 116.126  20.766  1.00  0.00     0.140 C 
ATOM     14  O   UNL     1      12.541 116.038  21.162  1.00  0.00    -0.299 OA
BRANCH  13  15
ATOM     15  C   UNL     1      11.003 115.471  19.462  1.00  0.00     0.106 CG0
ATOM     16  G   UNL     1      11.630 116.097  18.217  1.00  0.00     0.000 G0
ENDBRANCH  13  15
ENDBRANCH  12  13
BRANCH  12  17
ATOM     17  C   UNL     1      10.431 116.428  23.137  1.00  0.00    -0.006 C 
ATOM     18  C   UNL     1       9.117 115.791  23.632  1.00  0.00     0.008 C 
ATOM     19  C   UNL     1      10.761 117.626  24.047  1.00  0.00     0.008 C 
ENDBRANCH  12  17
ENDBRANCH  11  12
ENDBRANCH   1  11
TORSDOF 1
ENDMDL
MODEL 4
REMARK VINA RESULT:    -3.468      9.675     11.496
REMARK INTER + INTRA:          -5.631
REMARK INTER:                  -5.423
REMARK INTRA:                  -0.208
REMARK UNBOUND:                -0.338
REMARK SMILES CC1=CCC[C@@H](C)C(=O)C[C@H](C(C)C)C(=O)C1
REMARK SMILES IDX 8 1 9 2 6 3 7 4 5 5 4 6 3 7 2 8 1 9 10 11 11 12 15 13 16 14
REMARK SMILES IDX 17 15 12 17 13 18 14 19
REMARK H PARENT
REMARK Flexibility Score: 70.00
ROOT
ATOM      1  C   UNL     1       9.120 117.683  18.894  1.00  0.00     0.136 C 
ATOM      2  O   UNL     1       9.487 118.605  18.182  1.00  0.00    -0.299 OA
ENDROOT
BRANCH   1   3
ATOM      3  C   UNL     1       7.732 117.739  19.512  1.00  0.00     0.053 C 
ATOM      4  C   UNL     1       6.738 118.370  18.530  1.00  0.00     0.016 C 
BRANCH   3   5
ATOM      5  C   UNL     1       7.717 118.485  20.865  1.00  0.00     0.015 C 
BRANCH   5   6
ATOM      6  C   UNL     1       7.934 117.528  22.048  1.00  0.00     0.028 C 
BRANCH   6   7
ATOM      7  C   UNL     1       9.105 117.908  22.919  1.00  0.00    -0.028 C 
ATOM      8  C   UNL     1      10.317 117.295  22.958  1.00  0.00    -0.070 CG0
ATOM      9  C   UNL     1      11.296 117.770  24.004  1.00  0.00     0.039 C 
ATOM     10  G   UNL     1      10.782 116.224  21.972  1.00  0.00     0.000 G0
ENDBRANCH   6   7
ENDBRANCH   5   6
ENDBRANCH   3   5
ENDBRANCH   1   3
BRANCH   1  11
ATOM     11  C   UNL     1      10.085 116.557  19.201  1.00  0.00     0.087 C 
BRANCH  11  12
ATOM     12  C   UNL     1      11.527 117.019  19.564  1.00  0.00     0.066 C 
BRANCH  12  13
ATOM     13  C   UNL     1      11.873 116.651  21.006  1.00  0.00     0.140 C 
ATOM     14  O   UNL     1      13.020 116.767  21.417  1.00  0.00    -0.299 OA
BRANCH  13  15
ATOM     15  C   UNL     1      10.786 116.222  21.960  1.00  0.00     0.106 CG0
ATOM     16  G   UNL     1      10.337 117.296  22.950  1.00  0.00     0.000 G0
ENDBRANCH  13  15
ENDBRANCH  12  13
BRANCH  12  17
ATOM     17  C   UNL     1      12.635 116.569  18.547  1.00  0.00    -0.006 C 
ATOM     18  C   UNL     1      12.790 117.603  17.414  1.00  0.00     0.008 C 
ATOM     19  C   UNL     1      12.351 115.195  17.913  1.00  0.00     0.008 C 
ENDBRANCH  12  17
ENDBRANCH  11  12
ENDBRANCH   1  11
TORSDOF 1
ENDMDL
MODEL 5
REMARK VINA RESULT:    -3.467     12.496     14.619
REMARK INTER + INTRA:          -5.629
REMARK INTER:                  -5.443
REMARK INTRA:                  -0.187
REMARK UNBOUND:                -0.338
REMARK SMILES CC1=CCC[C@@H](C)C(=O)C[C@H](C(C)C)C(=O)C1
REMARK SMILES IDX 8 1 9 2 6 3 7 4 5 5 4 6 3 7 2 8 1 9 10 11 11 12 15 13 16 14
REMARK SMILES IDX 17 15 12 17 13 18 14 19
REMARK H PARENT
REMARK Flexibility Score: 70.00
ROOT
ATOM      1  C   UNL     1      12.354 111.612  21.003  1.00  0.00     0.136 C 
ATOM      2  O   UNL     1      12.471 112.495  21.839  1.00  0.00    -0.299 OA
ENDROOT
BRANCH   1   3
ATOM      3  C   UNL     1      12.703 110.183  21.390  1.00  0.00     0.053 C 
ATOM      4  C   UNL     1      11.533 109.535  22.140  1.00  0.00     0.016 C 
BRANCH   3   5
ATOM      5  C   UNL     1      14.003 110.095  22.217  1.00  0.00     0.015 C 
BRANCH   5   6
ATOM      6  C   UNL     1      15.205 110.680  21.458  1.00  0.00     0.028 C 
BRANCH   6   7
ATOM      7  C   UNL     1      15.563 109.904  20.214  1.00  0.00    -0.028 C 
ATOM      8  C   UNL     1      15.533 110.366  18.937  1.00  0.00    -0.070 CG0
ATOM      9  C   UNL     1      15.810 109.368  17.838  1.00  0.00     0.039 C 
ATOM     10  G   UNL     1      15.320 111.827  18.544  1.00  0.00     0.000 G0
ENDBRANCH   6   7
ENDBRANCH   5   6
ENDBRANCH   3   5
ENDBRANCH   1   3
BRANCH   1  11
ATOM     11  C   UNL     1      11.944 111.980  19.592  1.00  0.00     0.087 C 
BRANCH  11  12
ATOM     12  C   UNL     1      12.934 112.929  18.856  1.00  0.00     0.066 C 
BRANCH  12  13
ATOM     13  C   UNL     1      13.930 112.134  18.013  1.00  0.00     0.140 C 
ATOM     14  O   UNL     1      13.648 111.799  16.871  1.00  0.00    -0.299 OA
BRANCH  13  15
ATOM     15  C   UNL     1      15.305 111.828  18.554  1.00  0.00     0.106 CG0
ATOM     16  G   UNL     1      15.540 110.365  18.925  1.00  0.00     0.000 G0
ENDBRANCH  13  15
ENDBRANCH  12  13
BRANCH  12  17
ATOM     17  C   UNL     1      12.251 114.086  18.044  1.00  0.00    -0.006 C 
ATOM     18  C   UNL     1      13.301 115.098  17.546  1.00  0.00     0.008 C 
ATOM     19  C   UNL     1      11.189 114.849  18.856  1.00  0.00     0.008 C 
ENDBRANCH  12  17
ENDBRANCH  11  12
ENDBRANCH   1  11
TORSDOF 1
ENDMDL
MODEL 6
REMARK VINA RESULT:    -3.407      9.505     11.362
REMARK INTER + INTRA:          -5.537
REMARK INTER:                  -5.076
REMARK INTRA:                  -0.461
REMARK UNBOUND:                -0.338
REMARK SMILES CC1=CCC[C@@H](C)C(=O)C[C@H](C(C)C)C(=O)C1
REMARK SMILES IDX 8 1 9 2 6 3 7 4 5 5 4 6 3 7 2 8 1 9 10 11 11 12 15 13 16 14
REMARK SMILES IDX 17 15 12 17 13 18 14 19
REMARK H PARENT
REMARK Flexibility Score: 70.00
ROOT
ATOM      1  C   UNL     1       9.074 119.186  19.975  1.00  0.00     0.136 C 
ATOM      2  O   UNL     1       9.235 120.220  19.345  1.00  0.00    -0.299 OA
ENDROOT
BRANCH   1   3
ATOM      3  C   UNL     1       8.734 119.274  21.455  1.00  0.00     0.053 C 
ATOM      4  C   UNL     1       7.333 119.866  21.644  1.00  0.00     0.016 C 
BRANCH   3   5
ATOM      5  C   UNL     1       9.783 120.075  22.257  1.00  0.00     0.015 C 
BRANCH   5   6
ATOM      6  C   UNL     1      11.121 119.325  22.356  1.00  0.00     0.028 C 
BRANCH   6   7
ATOM      7  C   UNL     1      11.015 118.000  23.070  1.00  0.00    -0.028 C 
ATOM      8  C   UNL     1      11.334 116.781  22.563  1.00  0.00    -0.070 CG0
ATOM      9  C   UNL     1      11.023 115.577  23.419  1.00  0.00     0.039 C 
ATOM     10  G   UNL     1      12.054 116.552  21.234  1.00  0.00     0.000 G0
ENDBRANCH   6   7
ENDBRANCH   5   6
ENDBRANCH   3   5
ENDBRANCH   1   3
BRANCH   1  11
ATOM     11  C   UNL     1       9.297 117.858  19.285  1.00  0.00     0.087 C 
BRANCH  11  12
ATOM     12  C   UNL     1      10.792 117.456  19.116  1.00  0.00     0.066 C 
BRANCH  12  13
ATOM     13  C   UNL     1      11.156 116.301  20.048  1.00  0.00     0.140 C 
ATOM     14  O   UNL     1      10.775 115.165  19.805  1.00  0.00    -0.299 OA
BRANCH  13  15
ATOM     15  C   UNL     1      12.063 116.540  21.230  1.00  0.00     0.106 CG0
ATOM     16  G   UNL     1      11.342 116.770  22.558  1.00  0.00     0.000 G0
ENDBRANCH  13  15
ENDBRANCH  12  13
BRANCH  12  17
ATOM     17  C   UNL     1      11.237 117.194  17.634  1.00  0.00    -0.006 C 
ATOM     18  C   UNL     1      12.728 117.535  17.443  1.00  0.00     0.008 C 
ATOM     19  C   UNL     1      10.421 118.000  16.606  1.00  0.00     0.008 C 
ENDBRANCH  12  17
ENDBRANCH  11  12
ENDBRANCH   1  11
TORSDOF 1
ENDMDL
MODEL 7
REMARK VINA RESULT:    -3.369     11.524     13.432
REMARK INTER + INTRA:          -5.479
REMARK INTER:                  -4.993
REMARK INTRA:                  -0.486
REMARK UNBOUND:                -0.338
REMARK SMILES CC1=CCC[C@@H](C)C(=O)C[C@H](C(C)C)C(=O)C1
REMARK SMILES IDX 8 1 9 2 6 3 7 4 5 5 4 6 3 7 2 8 1 9 10 11 11 12 15 13 16 14
REMARK SMILES IDX 17 15 12 17 13 18 14 19
REMARK H PARENT
REMARK Flexibility Score: 70.00
ROOT
ATOM      1  C   UNL     1      12.060 112.831  18.194  1.00  0.00     0.136 C 
ATOM      2  O   UNL     1      12.524 112.154  17.288  1.00  0.00    -0.299 OA
ENDROOT
BRANCH   1   3
ATOM      3  C   UNL     1      11.797 114.308  17.947  1.00  0.00     0.053 C 
ATOM      4  C   UNL     1      13.120 115.079  17.880  1.00  0.00     0.016 C 
BRANCH   3   5
ATOM      5  C   UNL     1      10.853 114.926  19.001  1.00  0.00     0.015 C 
BRANCH   5   6
ATOM      6  C   UNL     1      11.619 115.781  20.023  1.00  0.00     0.028 C 
BRANCH   6   7
ATOM      7  C   UNL     1      10.992 115.779  21.396  1.00  0.00    -0.028 C 
ATOM      8  C   UNL     1      11.361 115.008  22.451  1.00  0.00    -0.070 CG0
ATOM      9  C   UNL     1      10.504 115.085  23.692  1.00  0.00     0.039 C 
ATOM     10  G   UNL     1      12.618 114.140  22.499  1.00  0.00     0.000 G0
ENDBRANCH   6   7
ENDBRANCH   5   6
ENDBRANCH   3   5
ENDBRANCH   1   3
BRANCH   1  11
ATOM     11  C   UNL     1      11.840 112.197  19.552  1.00  0.00     0.087 C 
BRANCH  11  12
ATOM     12  C   UNL     1      13.004 112.410  20.564  1.00  0.00     0.066 C 
BRANCH  12  13
ATOM     13  C   UNL     1      12.465 112.744  21.954  1.00  0.00     0.140 C 
ATOM     14  O   UNL     1      11.968 111.872  22.652  1.00  0.00    -0.299 OA
BRANCH  13  15
ATOM     15  C   UNL     1      12.620 114.137  22.512  1.00  0.00     0.106 CG0
ATOM     16  G   UNL     1      11.355 114.994  22.467  1.00  0.00     0.000 G0
ENDBRANCH  13  15
ENDBRANCH  12  13
BRANCH  12  17
ATOM     17  C   UNL     1      14.066 111.256  20.594  1.00  0.00    -0.006 C 
ATOM     18  C   UNL     1      15.256 111.583  19.669  1.00  0.00     0.008 C 
ATOM     19  C   UNL     1      13.489 109.891  20.174  1.00  0.00     0.008 C 
ENDBRANCH  12  17
ENDBRANCH  11  12
ENDBRANCH   1  11
TORSDOF 1
ENDMDL
MODEL 8
REMARK VINA RESULT:    -3.341     10.025     11.440
REMARK INTER + INTRA:          -5.436
REMARK INTER:                  -5.082
REMARK INTRA:                  -0.354
REMARK UNBOUND:                -0.338
REMARK SMILES CC1=CCC[C@@H](C)C(=O)C[C@H](C(C)C)C(=O)C1
REMARK SMILES IDX 8 1 9 2 6 3 7 4 5 5 4 6 3 7 2 8 1 9 10 11 11 12 15 13 16 14
REMARK SMILES IDX 17 15 12 17 13 18 14 19
REMARK H PARENT
REMARK Flexibility Score: 70.00
ROOT
ATOM      1  C   UNL     1       9.019 117.555  18.807  1.00  0.00     0.136 C 
ATOM      2  O   UNL     1       9.327 117.625  17.627  1.00  0.00    -0.299 OA
ENDROOT
BRANCH   1   3
ATOM      3  C   UNL     1       7.957 118.502  19.345  1.00  0.00     0.053 C 
ATOM      4  C   UNL     1       6.664 118.366  18.533  1.00  0.00     0.016 C 
BRANCH   3   5
ATOM      5  C   UNL     1       8.435 119.970  19.378  1.00  0.00     0.015 C 
BRANCH   5   6
ATOM      6  C   UNL     1       9.299 120.263  20.615  1.00  0.00     0.028 C 
BRANCH   6   7
ATOM      7  C   UNL     1       8.648 119.849  21.912  1.00  0.00    -0.028 C 
ATOM      8  C   UNL     1       9.149 118.979  22.827  1.00  0.00    -0.070 CG0
ATOM      9  C   UNL     1       8.259 118.618  23.992  1.00  0.00     0.039 C 
ATOM     10  G   UNL     1      10.567 118.410  22.801  1.00  0.00     0.000 G0
ENDBRANCH   6   7
ENDBRANCH   5   6
ENDBRANCH   3   5
ENDBRANCH   1   3
BRANCH   1  11
ATOM     11  C   UNL     1       9.758 116.589  19.709  1.00  0.00     0.087 C 
BRANCH  11  12
ATOM     12  C   UNL     1      10.953 117.213  20.488  1.00  0.00     0.066 C 
BRANCH  12  13
ATOM     13  C   UNL     1      10.724 117.132  21.996  1.00  0.00     0.140 C 
ATOM     14  O   UNL     1      10.736 116.051  22.568  1.00  0.00    -0.299 OA
BRANCH  13  15
ATOM     15  C   UNL     1      10.565 118.395  22.806  1.00  0.00     0.106 CG0
ATOM     16  G   UNL     1       9.148 118.966  22.839  1.00  0.00     0.000 G0
ENDBRANCH  13  15
ENDBRANCH  12  13
BRANCH  12  17
ATOM     17  C   UNL     1      12.364 116.671  20.066  1.00  0.00    -0.006 C 
ATOM     18  C   UNL     1      13.463 117.706  20.380  1.00  0.00     0.008 C 
ATOM     19  C   UNL     1      12.451 116.311  18.571  1.00  0.00     0.008 C 
ENDBRANCH  12  17
ENDBRANCH  11  12
ENDBRANCH   1  11
TORSDOF 1
ENDMDL
MODEL 9
REMARK VINA RESULT:    -3.217     12.560     14.173
REMARK INTER + INTRA:          -5.247
REMARK INTER:                  -5.108
REMARK INTRA:                  -0.139
REMARK UNBOUND:                -0.338
REMARK SMILES CC1=CCC[C@@H](C)C(=O)C[C@H](C(C)C)C(=O)C1
REMARK SMILES IDX 8 1 9 2 6 3 7 4 5 5 4 6 3 7 2 8 1 9 10 11 11 12 15 13 16 14
REMARK SMILES IDX 17 15 12 17 13 18 14 19
REMARK H PARENT
REMARK Flexibility Score: 70.00
ROOT
ATOM      1  C   UNL     1      13.245 111.877  18.037  1.00  0.00     0.136 C 
ATOM      2  O   UNL     1      14.195 112.457  17.534  1.00  0.00    -0.299 OA
ENDROOT
BRANCH   1   3
ATOM      3  C   UNL     1      11.877 112.541  18.000  1.00  0.00     0.053 C 
ATOM      4  C   UNL     1      11.232 112.351  16.623  1.00  0.00     0.016 C 
BRANCH   3   5
ATOM      5  C   UNL     1      11.935 114.037  18.379  1.00  0.00     0.015 C 
BRANCH   5   6
ATOM      6  C   UNL     1      11.625 114.262  19.867  1.00  0.00     0.028 C 
BRANCH   6   7
ATOM      7  C   UNL     1      12.857 114.298  20.737  1.00  0.00    -0.028 C 
ATOM      8  C   UNL     1      13.345 113.278  21.490  1.00  0.00    -0.070 CG0
ATOM      9  C   UNL     1      14.523 113.584  22.383  1.00  0.00     0.039 C 
ATOM     10  G   UNL     1      12.842 111.836  21.434  1.00  0.00     0.000 G0
ENDBRANCH   6   7
ENDBRANCH   5   6
ENDBRANCH   3   5
ENDBRANCH   1   3
BRANCH   1  11
ATOM     11  C   UNL     1      13.474 110.561  18.748  1.00  0.00     0.087 C 
BRANCH  11  12
ATOM     12  C   UNL     1      14.548 110.609  19.874  1.00  0.00     0.066 C 
BRANCH  12  13
ATOM     13  C   UNL     1      13.896 110.782  21.245  1.00  0.00     0.140 C 
ATOM     14  O   UNL     1      14.278 110.121  22.201  1.00  0.00    -0.299 OA
BRANCH  13  15
ATOM     15  C   UNL     1      12.833 111.832  21.451  1.00  0.00     0.106 CG0
ATOM     16  G   UNL     1      13.347 113.270  21.501  1.00  0.00     0.000 G0
ENDBRANCH  13  15
ENDBRANCH  12  13
BRANCH  12  17
ATOM     17  C   UNL     1      15.582 109.429  19.846  1.00  0.00    -0.006 C 
ATOM     18  C   UNL     1      16.963 109.922  19.370  1.00  0.00     0.008 C 
ATOM     19  C   UNL     1      15.144 108.264  18.938  1.00  0.00     0.008 C 
ENDBRANCH  12  17
ENDBRANCH  11  12
ENDBRANCH   1  11
TORSDOF 1
ENDMDL
