MODEL 1
REMARK VINA RESULT:    -5.286      0.000      0.000
REMARK INTER + INTRA:          -9.314
REMARK INTER:                  -7.759
REMARK INTRA:                  -1.556
REMARK UNBOUND:                -1.556
REMARK SMILES Cc1cc2c(C(C)C)c(O)c(O)c(C=O)c2c(O)c1-c1c(C)cc2c(C(C)C)c(O)c(O)c(C=O)c2c1O
REMARK SMILES IDX 1 1 2 2 3 3 4 4 16 5 13 6 11 7 9 8 5 9 17 10 19 11 20 12
REMARK SMILES IDX 37 13 21 14 36 15 23 16 22 17 24 18 33 19 25 20 31 21 29 22
REMARK SMILES IDX 38 23 34 25 35 26 26 27 27 28 28 29 32 30 30 32 18 34 6 36
REMARK SMILES IDX 7 37 8 38 14 39 15 40 10 41 12 43
REMARK H PARENT 38 24 32 31 30 33 18 35 10 42 12 44
REMARK Flexibility Score: inf
ROOT
ATOM      1  C   UNL     1      67.998  28.118  61.745  1.00  0.00     0.045 C 
ATOM      2  C   UNL     1      68.283  28.713  60.387  1.00  0.00    -0.039 A 
ATOM      3  C   UNL     1      69.572  29.158  60.090  1.00  0.00     0.013 A 
ATOM      4  C   UNL     1      69.887  29.781  58.866  1.00  0.00    -0.006 A 
ATOM      5  C   UNL     1      68.856  29.914  57.884  1.00  0.00     0.039 A 
ATOM      6  C   UNL     1      69.162  30.554  56.650  1.00  0.00     0.072 A 
ATOM      7  C   UNL     1      70.497  30.810  56.313  1.00  0.00     0.169 A 
ATOM      8  C   UNL     1      71.520  30.604  57.244  1.00  0.00     0.162 A 
ATOM      9  C   UNL     1      71.211  30.245  58.581  1.00  0.00     0.008 A 
ATOM     10  C   UNL     1      67.572  29.353  58.145  1.00  0.00     0.132 A 
ATOM     11  C   UNL     1      67.280  28.795  59.407  1.00  0.00     0.031 A 
ENDROOT
BRANCH  11  12
ATOM     12  C   UNL     1      65.926  28.259  59.695  1.00  0.00     0.031 A 
ATOM     13  C   UNL     1      64.920  29.108  60.206  1.00  0.00     0.132 A 
ATOM     14  C   UNL     1      65.645  26.901  59.462  1.00  0.00    -0.039 A 
ATOM     15  C   UNL     1      63.616  28.597  60.474  1.00  0.00     0.039 A 
ATOM     16  C   UNL     1      64.406  26.381  59.837  1.00  0.00     0.013 A 
ATOM     17  C   UNL     1      66.673  25.992  58.832  1.00  0.00     0.045 C 
ATOM     18  C   UNL     1      63.410  27.189  60.428  1.00  0.00    -0.006 A 
ATOM     19  C   UNL     1      62.518  29.442  60.806  1.00  0.00     0.072 A 
ATOM     20  C   UNL     1      62.210  26.624  60.952  1.00  0.00     0.008 A 
ATOM     21  C   UNL     1      61.272  28.878  61.139  1.00  0.00     0.169 A 
ATOM     22  C   UNL     1      61.125  27.481  61.248  1.00  0.00     0.162 A 
BRANCH  13  23
ATOM     23  O   UNL     1      65.224  30.444  60.487  1.00  0.00    -0.507 OA
ATOM     24  H   UNL     1      64.560  31.105  60.874  1.00  0.00     0.293 HD
ENDBRANCH  13  23
BRANCH  19  25
ATOM     25  C   UNL     1      62.588  30.915  60.662  1.00  0.00     0.264 C 
ATOM     26  O   UNL     1      62.291  31.473  59.573  1.00  0.00    -0.298 OA
ENDBRANCH  19  25
BRANCH  20  27
ATOM     27  C   UNL     1      62.090  25.113  61.227  1.00  0.00     0.017 C 
ATOM     28  C   UNL     1      61.088  24.456  60.273  1.00  0.00     0.012 C 
ATOM     29  C   UNL     1      61.773  24.779  62.696  1.00  0.00     0.012 C 
ENDBRANCH  20  27
BRANCH  21  30
ATOM     30  O   UNL     1      60.184  29.741  61.328  1.00  0.00    -0.504 OA
ATOM     31  H   UNL     1      59.419  29.853  60.678  1.00  0.00     0.293 HD
ENDBRANCH  21  30
BRANCH  22  32
ATOM     32  O   UNL     1      59.908  26.919  61.641  1.00  0.00    -0.504 OA
ATOM     33  H   UNL     1      59.172  27.416  62.122  1.00  0.00     0.293 HD
ENDBRANCH  22  32
ENDBRANCH  11  12
BRANCH  10  34
ATOM     34  O   UNL     1      66.606  29.303  57.132  1.00  0.00    -0.507 OA
ATOM     35  H   UNL     1      66.826  29.209  56.148  1.00  0.00     0.293 HD
ENDBRANCH  10  34
BRANCH   9  36
ATOM     36  C   UNL     1      72.296  30.455  59.657  1.00  0.00     0.017 C 
ATOM     37  C   UNL     1      72.032  31.641  60.603  1.00  0.00     0.012 C 
ATOM     38  C   UNL     1      72.656  29.159  60.398  1.00  0.00     0.012 C 
ENDBRANCH   9  36
BRANCH   6  39
ATOM     39  C   UNL     1      68.130  31.037  55.705  1.00  0.00     0.264 C 
ATOM     40  O   UNL     1      67.907  30.427  54.627  1.00  0.00    -0.298 OA
ENDBRANCH   6  39
BRANCH   8  41
ATOM     41  O   UNL     1      72.838  30.776  56.809  1.00  0.00    -0.504 OA
ATOM     42  H   UNL     1      73.252  31.677  56.608  1.00  0.00     0.293 HD
ENDBRANCH   8  41
BRANCH   7  43
ATOM     43  O   UNL     1      70.800  31.298  55.038  1.00  0.00    -0.504 OA
ATOM     44  H   UNL     1      71.742  31.529  54.748  1.00  0.00     0.293 HD
ENDBRANCH   7  43
TORSDOF 11
ENDMDL
MODEL 2
REMARK VINA RESULT:    -5.264      9.834     14.184
REMARK INTER + INTRA:          -9.282
REMARK INTER:                  -7.690
REMARK INTRA:                  -1.592
REMARK UNBOUND:                -1.556
REMARK SMILES Cc1cc2c(C(C)C)c(O)c(O)c(C=O)c2c(O)c1-c1c(C)cc2c(C(C)C)c(O)c(O)c(C=O)c2c1O
REMARK SMILES IDX 1 1 2 2 3 3 4 4 16 5 13 6 11 7 9 8 5 9 17 10 19 11 20 12
REMARK SMILES IDX 37 13 21 14 36 15 23 16 22 17 24 18 33 19 25 20 31 21 29 22
REMARK SMILES IDX 38 23 34 25 35 26 26 27 27 28 28 29 32 30 30 32 18 34 6 36
REMARK SMILES IDX 7 37 8 38 14 39 15 40 10 41 12 43
REMARK H PARENT 38 24 32 31 30 33 18 35 10 42 12 44
REMARK Flexibility Score: inf
ROOT
ATOM      1  C   UNL     1      61.581  22.355  48.240  1.00  0.00     0.045 C 
ATOM      2  C   UNL     1      60.989  21.998  49.582  1.00  0.00    -0.039 A 
ATOM      3  C   UNL     1      60.459  20.723  49.780  1.00  0.00     0.013 A 
ATOM      4  C   UNL     1      59.836  20.350  50.987  1.00  0.00    -0.006 A 
ATOM      5  C   UNL     1      59.792  21.301  52.054  1.00  0.00     0.039 A 
ATOM      6  C   UNL     1      59.152  20.936  53.273  1.00  0.00     0.072 A 
ATOM      7  C   UNL     1      58.808  19.598  53.503  1.00  0.00     0.169 A 
ATOM      8  C   UNL     1      58.926  18.646  52.486  1.00  0.00     0.162 A 
ATOM      9  C   UNL     1      59.284  19.041  51.172  1.00  0.00     0.008 A 
ATOM     10  C   UNL     1      60.437  22.560  51.889  1.00  0.00     0.132 A 
ATOM     11  C   UNL     1      60.993  22.918  50.644  1.00  0.00     0.031 A 
ENDROOT
BRANCH  11  12
ATOM     12  C   UNL     1      61.619  24.252  50.457  1.00  0.00     0.031 A 
ATOM     13  C   UNL     1      60.834  25.354  50.055  1.00  0.00     0.132 A 
ATOM     14  C   UNL     1      62.998  24.417  50.678  1.00  0.00    -0.039 A 
ATOM     15  C   UNL     1      61.431  26.638  49.884  1.00  0.00     0.039 A 
ATOM     16  C   UNL     1      63.598  25.645  50.396  1.00  0.00     0.013 A 
ATOM     17  C   UNL     1      63.844  23.279  51.196  1.00  0.00     0.045 C 
ATOM     18  C   UNL     1      62.851  26.741  49.912  1.00  0.00    -0.006 A 
ATOM     19  C   UNL     1      60.660  27.816  49.668  1.00  0.00     0.072 A 
ATOM     20  C   UNL     1      63.490  27.940  49.476  1.00  0.00     0.008 A 
ATOM     21  C   UNL     1      61.304  29.045  49.426  1.00  0.00     0.169 A 
ATOM     22  C   UNL     1      62.706  29.103  49.295  1.00  0.00     0.162 A 
BRANCH  13  23
ATOM     23  O   UNL     1      59.475  25.169  49.783  1.00  0.00    -0.507 OA
ATOM     24  H   UNL     1      58.964  25.688  49.077  1.00  0.00     0.293 HD
ENDBRANCH  13  23
BRANCH  19  25
ATOM     25  C   UNL     1      59.188  27.836  49.842  1.00  0.00     0.264 C 
ATOM     26  O   UNL     1      58.674  28.073  50.967  1.00  0.00    -0.298 OA
ENDBRANCH  19  25
BRANCH  20  27
ATOM     27  C   UNL     1      64.999  27.978  49.174  1.00  0.00     0.017 C 
ATOM     28  C   UNL     1      65.745  28.847  50.192  1.00  0.00     0.012 C 
ATOM     29  C   UNL     1      65.327  28.396  47.729  1.00  0.00     0.012 C 
ENDBRANCH  20  27
BRANCH  21  30
ATOM     30  O   UNL     1      60.518  30.201  49.352  1.00  0.00    -0.504 OA
ATOM     31  H   UNL     1      60.774  31.040  48.849  1.00  0.00     0.293 HD
ENDBRANCH  21  30
BRANCH  22  32
ATOM     32  O   UNL     1      63.346  30.308  48.992  1.00  0.00    -0.504 OA
ATOM     33  H   UNL     1      62.963  31.225  49.174  1.00  0.00     0.293 HD
ENDBRANCH  22  32
ENDBRANCH  11  12
BRANCH  10  34
ATOM     34  O   UNL     1      60.572  23.431  52.977  1.00  0.00    -0.507 OA
ATOM     35  H   UNL     1      60.949  23.157  53.875  1.00  0.00     0.293 HD
ENDBRANCH  10  34
BRANCH   9  36
ATOM     36  C   UNL     1      58.982  18.068  50.015  1.00  0.00     0.017 C 
ATOM     37  C   UNL     1      59.952  16.875  49.918  1.00  0.00     0.012 C 
ATOM     38  C   UNL     1      57.505  17.650  49.958  1.00  0.00     0.012 C 
ENDBRANCH   9  36
BRANCH   6  39
ATOM     39  C   UNL     1      58.758  21.916  54.310  1.00  0.00     0.264 C 
ATOM     40  O   UNL     1      59.400  22.006  55.389  1.00  0.00    -0.298 OA
ENDBRANCH   6  39
BRANCH   8  41
ATOM     41  O   UNL     1      58.669  17.310  52.814  1.00  0.00    -0.504 OA
ATOM     42  H   UNL     1      58.028  17.023  53.541  1.00  0.00     0.293 HD
ENDBRANCH   8  41
BRANCH   7  43
ATOM     43  O   UNL     1      58.320  19.223  54.759  1.00  0.00    -0.504 OA
ATOM     44  H   UNL     1      58.923  19.053  55.554  1.00  0.00     0.293 HD
ENDBRANCH   7  43
TORSDOF 11
ENDMDL
MODEL 3
REMARK VINA RESULT:    -5.105     10.164     13.892
REMARK INTER + INTRA:          -9.048
REMARK INTER:                  -7.751
REMARK INTRA:                  -1.297
REMARK UNBOUND:                -1.556
REMARK SMILES Cc1cc2c(C(C)C)c(O)c(O)c(C=O)c2c(O)c1-c1c(C)cc2c(C(C)C)c(O)c(O)c(C=O)c2c1O
REMARK SMILES IDX 1 1 2 2 3 3 4 4 16 5 13 6 11 7 9 8 5 9 17 10 19 11 20 12
REMARK SMILES IDX 37 13 21 14 36 15 23 16 22 17 24 18 33 19 25 20 31 21 29 22
REMARK SMILES IDX 38 23 34 25 35 26 26 27 27 28 28 29 32 30 30 32 18 34 6 36
REMARK SMILES IDX 7 37 8 38 14 39 15 40 10 41 12 43
REMARK H PARENT 38 24 32 31 30 33 18 35 10 42 12 44
REMARK Flexibility Score: inf
ROOT
ATOM      1  C   UNL     1      59.764  29.403  52.893  1.00  0.00     0.045 C 
ATOM      2  C   UNL     1      58.617  28.885  52.060  1.00  0.00    -0.039 A 
ATOM      3  C   UNL     1      57.389  29.547  52.097  1.00  0.00     0.013 A 
ATOM      4  C   UNL     1      56.262  29.077  51.394  1.00  0.00    -0.006 A 
ATOM      5  C   UNL     1      56.405  27.908  50.582  1.00  0.00     0.039 A 
ATOM      6  C   UNL     1      55.267  27.419  49.879  1.00  0.00     0.072 A 
ATOM      7  C   UNL     1      54.116  28.210  49.785  1.00  0.00     0.169 A 
ATOM      8  C   UNL     1      54.004  29.398  50.515  1.00  0.00     0.162 A 
ATOM      9  C   UNL     1      55.005  29.760  51.452  1.00  0.00     0.008 A 
ATOM     10  C   UNL     1      57.688  27.303  50.455  1.00  0.00     0.132 A 
ATOM     11  C   UNL     1      58.775  27.766  51.225  1.00  0.00     0.031 A 
ENDROOT
BRANCH  11  12
ATOM     12  C   UNL     1      60.099  27.101  51.131  1.00  0.00     0.031 A 
ATOM     13  C   UNL     1      61.090  27.612  50.265  1.00  0.00     0.132 A 
ATOM     14  C   UNL     1      60.366  25.958  51.904  1.00  0.00    -0.039 A 
ATOM     15  C   UNL     1      62.366  26.982  50.180  1.00  0.00     0.039 A 
ATOM     16  C   UNL     1      61.572  25.276  51.730  1.00  0.00     0.013 A 
ATOM     17  C   UNL     1      59.360  25.444  52.905  1.00  0.00     0.045 C 
ATOM     18  C   UNL     1      62.547  25.717  50.809  1.00  0.00    -0.006 A 
ATOM     19  C   UNL     1      63.459  27.561  49.473  1.00  0.00     0.072 A 
ATOM     20  C   UNL     1      63.703  24.934  50.520  1.00  0.00     0.008 A 
ATOM     21  C   UNL     1      64.672  26.857  49.354  1.00  0.00     0.169 A 
ATOM     22  C   UNL     1      64.785  25.539  49.841  1.00  0.00     0.162 A 
BRANCH  13  23
ATOM     23  O   UNL     1      60.795  28.717  49.458  1.00  0.00    -0.507 OA
ATOM     24  H   UNL     1      61.002  29.676  49.716  1.00  0.00     0.293 HD
ENDBRANCH  13  23
BRANCH  19  25
ATOM     25  C   UNL     1      63.425  28.959  48.982  1.00  0.00     0.264 C 
ATOM     26  O   UNL     1      63.784  29.912  49.722  1.00  0.00    -0.298 OA
ENDBRANCH  19  25
BRANCH  20  27
ATOM     27  C   UNL     1      63.777  23.444  50.906  1.00  0.00     0.017 C 
ATOM     28  C   UNL     1      62.661  22.643  50.227  1.00  0.00     0.012 C 
ATOM     29  C   UNL     1      63.800  23.203  52.426  1.00  0.00     0.012 C 
ENDBRANCH  20  27
BRANCH  21  30
ATOM     30  O   UNL     1      65.763  27.512  48.769  1.00  0.00    -0.504 OA
ATOM     31  H   UNL     1      66.583  27.825  49.271  1.00  0.00     0.293 HD
ENDBRANCH  21  30
BRANCH  22  32
ATOM     32  O   UNL     1      65.966  24.813  49.669  1.00  0.00    -0.504 OA
ATOM     33  H   UNL     1      66.895  25.209  49.694  1.00  0.00     0.293 HD
ENDBRANCH  22  32
ENDBRANCH  11  12
BRANCH  10  34
ATOM     34  O   UNL     1      57.894  26.278  49.524  1.00  0.00    -0.507 OA
ATOM     35  H   UNL     1      58.063  26.437  48.538  1.00  0.00     0.293 HD
ENDBRANCH  10  34
BRANCH   9  36
ATOM     36  C   UNL     1      54.648  30.808  52.525  1.00  0.00     0.017 C 
ATOM     37  C   UNL     1      54.538  30.244  53.954  1.00  0.00     0.012 C 
ATOM     38  C   UNL     1      55.521  32.068  52.439  1.00  0.00     0.012 C 
ENDBRANCH   9  36
BRANCH   6  39
ATOM     39  C   UNL     1      55.199  26.066  49.282  1.00  0.00     0.264 C 
ATOM     40  O   UNL     1      54.347  25.229  49.679  1.00  0.00    -0.298 OA
ENDBRANCH   6  39
BRANCH   8  41
ATOM     41  O   UNL     1      52.875  30.193  50.292  1.00  0.00    -0.504 OA
ATOM     42  H   UNL     1      51.967  29.825  50.044  1.00  0.00     0.293 HD
ENDBRANCH   8  41
BRANCH   7  43
ATOM     43  O   UNL     1      53.061  27.790  48.968  1.00  0.00    -0.504 OA
ATOM     44  H   UNL     1      52.748  28.316  48.161  1.00  0.00     0.293 HD
ENDBRANCH   7  43
TORSDOF 11
ENDMDL
MODEL 4
REMARK VINA RESULT:    -5.095      5.285      9.818
REMARK INTER + INTRA:          -9.033
REMARK INTER:                  -7.542
REMARK INTRA:                  -1.491
REMARK UNBOUND:                -1.556
REMARK SMILES Cc1cc2c(C(C)C)c(O)c(O)c(C=O)c2c(O)c1-c1c(C)cc2c(C(C)C)c(O)c(O)c(C=O)c2c1O
REMARK SMILES IDX 1 1 2 2 3 3 4 4 16 5 13 6 11 7 9 8 5 9 17 10 19 11 20 12
REMARK SMILES IDX 37 13 21 14 36 15 23 16 22 17 24 18 33 19 25 20 31 21 29 22
REMARK SMILES IDX 38 23 34 25 35 26 26 27 27 28 28 29 32 30 30 32 18 34 6 36
REMARK SMILES IDX 7 37 8 38 14 39 15 40 10 41 12 43
REMARK H PARENT 38 24 32 31 30 33 18 35 10 42 12 44
REMARK Flexibility Score: inf
ROOT
ATOM      1  C   UNL     1      63.638  28.504  60.787  1.00  0.00     0.045 C 
ATOM      2  C   UNL     1      62.252  27.910  60.866  1.00  0.00    -0.039 A 
ATOM      3  C   UNL     1      62.082  26.637  61.412  1.00  0.00     0.013 A 
ATOM      4  C   UNL     1      60.825  26.001  61.454  1.00  0.00    -0.006 A 
ATOM      5  C   UNL     1      59.686  26.711  60.963  1.00  0.00     0.039 A 
ATOM      6  C   UNL     1      58.414  26.071  60.990  1.00  0.00     0.072 A 
ATOM      7  C   UNL     1      58.250  24.884  61.715  1.00  0.00     0.169 A 
ATOM      8  C   UNL     1      59.353  24.227  62.268  1.00  0.00     0.162 A 
ATOM      9  C   UNL     1      60.668  24.689  62.005  1.00  0.00     0.008 A 
ATOM     10  C   UNL     1      59.844  28.055  60.515  1.00  0.00     0.132 A 
ATOM     11  C   UNL     1      61.128  28.631  60.429  1.00  0.00     0.031 A 
ENDROOT
BRANCH  11  12
ATOM     12  C   UNL     1      61.298  30.013  59.912  1.00  0.00     0.031 A 
ATOM     13  C   UNL     1      61.671  30.227  58.568  1.00  0.00     0.132 A 
ATOM     14  C   UNL     1      61.089  31.111  60.766  1.00  0.00    -0.039 A 
ATOM     15  C   UNL     1      61.825  31.553  58.067  1.00  0.00     0.039 A 
ATOM     16  C   UNL     1      61.356  32.400  60.304  1.00  0.00     0.013 A 
ATOM     17  C   UNL     1      60.602  30.914  62.180  1.00  0.00     0.045 C 
ATOM     18  C   UNL     1      61.811  32.638  58.989  1.00  0.00    -0.006 A 
ATOM     19  C   UNL     1      62.012  31.830  56.682  1.00  0.00     0.072 A 
ATOM     20  C   UNL     1      62.233  33.936  58.572  1.00  0.00     0.008 A 
ATOM     21  C   UNL     1      62.239  33.151  56.252  1.00  0.00     0.169 A 
ATOM     22  C   UNL     1      62.384  34.193  57.190  1.00  0.00     0.162 A 
BRANCH  13  23
ATOM     23  O   UNL     1      61.931  29.128  57.742  1.00  0.00    -0.507 OA
ATOM     24  H   UNL     1      61.522  29.004  56.822  1.00  0.00     0.293 HD
ENDBRANCH  13  23
BRANCH  19  25
ATOM     25  C   UNL     1      61.821  30.793  55.640  1.00  0.00     0.264 C 
ATOM     26  O   UNL     1      62.805  30.308  55.023  1.00  0.00    -0.298 OA
ENDBRANCH  19  25
BRANCH  20  27
ATOM     27  C   UNL     1      62.551  35.041  59.597  1.00  0.00     0.017 C 
ATOM     28  C   UNL     1      63.618  34.577  60.594  1.00  0.00     0.012 C 
ATOM     29  C   UNL     1      61.305  35.589  60.317  1.00  0.00     0.012 C 
ENDBRANCH  20  27
BRANCH  21  30
ATOM     30  O   UNL     1      62.283  33.401  54.875  1.00  0.00    -0.504 OA
ATOM     31  H   UNL     1      61.579  33.909  54.359  1.00  0.00     0.293 HD
ENDBRANCH  21  30
BRANCH  22  32
ATOM     32  O   UNL     1      62.673  35.495  56.773  1.00  0.00    -0.504 OA
ATOM     33  H   UNL     1      62.751  36.292  57.388  1.00  0.00     0.293 HD
ENDBRANCH  22  32
ENDBRANCH  11  12
BRANCH  10  34
ATOM     34  O   UNL     1      58.721  28.832  60.208  1.00  0.00    -0.507 OA
ATOM     35  H   UNL     1      58.080  28.623  59.453  1.00  0.00     0.293 HD
ENDBRANCH  10  34
BRANCH   9  36
ATOM     36  C   UNL     1      61.840  23.717  62.252  1.00  0.00     0.017 C 
ATOM     37  C   UNL     1      62.191  23.511  63.738  1.00  0.00     0.012 C 
ATOM     38  C   UNL     1      61.694  22.399  61.478  1.00  0.00     0.012 C 
ENDBRANCH   9  36
BRANCH   6  39
ATOM     39  C   UNL     1      57.241  26.557  60.229  1.00  0.00     0.264 C 
ATOM     40  O   UNL     1      56.293  27.146  60.811  1.00  0.00    -0.298 OA
ENDBRANCH   6  39
BRANCH   8  41
ATOM     41  O   UNL     1      59.107  23.107  63.070  1.00  0.00    -0.504 OA
ATOM     42  H   UNL     1      58.574  22.304  62.766  1.00  0.00     0.293 HD
ENDBRANCH   8  41
BRANCH   7  43
ATOM     43  O   UNL     1      56.968  24.344  61.863  1.00  0.00    -0.504 OA
ATOM     44  H   UNL     1      56.675  23.490  61.405  1.00  0.00     0.293 HD
ENDBRANCH   7  43
TORSDOF 11
ENDMDL
MODEL 5
REMARK VINA RESULT:    -5.093      6.215      7.788
REMARK INTER + INTRA:          -9.030
REMARK INTER:                  -7.493
REMARK INTRA:                  -1.538
REMARK UNBOUND:                -1.556
REMARK SMILES Cc1cc2c(C(C)C)c(O)c(O)c(C=O)c2c(O)c1-c1c(C)cc2c(C(C)C)c(O)c(O)c(C=O)c2c1O
REMARK SMILES IDX 1 1 2 2 3 3 4 4 16 5 13 6 11 7 9 8 5 9 17 10 19 11 20 12
REMARK SMILES IDX 37 13 21 14 36 15 23 16 22 17 24 18 33 19 25 20 31 21 29 22
REMARK SMILES IDX 38 23 34 25 35 26 26 27 27 28 28 29 32 30 30 32 18 34 6 36
REMARK SMILES IDX 7 37 8 38 14 39 15 40 10 41 12 43
REMARK H PARENT 38 24 32 31 30 33 18 35 10 42 12 44
REMARK Flexibility Score: inf
ROOT
ATOM      1  C   UNL     1      62.632  29.992  61.410  1.00  0.00     0.045 C 
ATOM      2  C   UNL     1      61.806  30.750  60.398  1.00  0.00    -0.039 A 
ATOM      3  C   UNL     1      62.006  32.122  60.241  1.00  0.00     0.013 A 
ATOM      4  C   UNL     1      61.225  32.897  59.361  1.00  0.00    -0.006 A 
ATOM      5  C   UNL     1      60.229  32.239  58.574  1.00  0.00     0.039 A 
ATOM      6  C   UNL     1      59.427  33.017  57.691  1.00  0.00     0.072 A 
ATOM      7  C   UNL     1      59.782  34.344  57.419  1.00  0.00     0.169 A 
ATOM      8  C   UNL     1      60.810  34.969  58.131  1.00  0.00     0.162 A 
ATOM      9  C   UNL     1      61.432  34.307  59.221  1.00  0.00     0.008 A 
ATOM     10  C   UNL     1      60.108  30.821  58.651  1.00  0.00     0.132 A 
ATOM     11  C   UNL     1      60.865  30.091  59.590  1.00  0.00     0.031 A 
ENDROOT
BRANCH  11  12
ATOM     12  C   UNL     1      60.700  28.620  59.706  1.00  0.00     0.031 A 
ATOM     13  C   UNL     1      59.689  28.082  60.532  1.00  0.00     0.132 A 
ATOM     14  C   UNL     1      61.554  27.760  58.993  1.00  0.00    -0.039 A 
ATOM     15  C   UNL     1      59.522  26.670  60.638  1.00  0.00     0.039 A 
ATOM     16  C   UNL     1      61.463  26.382  59.192  1.00  0.00     0.013 A 
ATOM     17  C   UNL     1      62.582  28.307  58.033  1.00  0.00     0.045 C 
ATOM     18  C   UNL     1      60.517  25.820  60.077  1.00  0.00    -0.006 A 
ATOM     19  C   UNL     1      58.408  26.080  61.301  1.00  0.00     0.072 A 
ATOM     20  C   UNL     1      60.533  24.429  60.396  1.00  0.00     0.008 A 
ATOM     21  C   UNL     1      58.334  24.681  61.444  1.00  0.00     0.169 A 
ATOM     22  C   UNL     1      59.403  23.863  61.029  1.00  0.00     0.162 A 
BRANCH  13  23
ATOM     23  O   UNL     1      58.881  28.944  61.281  1.00  0.00    -0.507 OA
ATOM     24  H   UNL     1      58.610  29.872  60.975  1.00  0.00     0.293 HD
ENDBRANCH  13  23
BRANCH  19  25
ATOM     25  C   UNL     1      57.228  26.875  61.715  1.00  0.00     0.264 C 
ATOM     26  O   UNL     1      56.269  27.070  60.922  1.00  0.00    -0.298 OA
ENDBRANCH  19  25
BRANCH  20  27
ATOM     27  C   UNL     1      61.762  23.553  60.091  1.00  0.00     0.017 C 
ATOM     28  C   UNL     1      63.011  24.088  60.799  1.00  0.00     0.012 C 
ATOM     29  C   UNL     1      62.012  23.347  58.586  1.00  0.00     0.012 C 
ENDBRANCH  20  27
BRANCH  21  30
ATOM     30  O   UNL     1      57.163  24.131  61.981  1.00  0.00    -0.504 OA
ATOM     31  H   UNL     1      56.503  23.567  61.464  1.00  0.00     0.293 HD
ENDBRANCH  21  30
BRANCH  22  32
ATOM     32  O   UNL     1      59.364  22.480  61.227  1.00  0.00    -0.504 OA
ATOM     33  H   UNL     1      60.050  21.828  60.876  1.00  0.00     0.293 HD
ENDBRANCH  22  32
ENDBRANCH  11  12
BRANCH  10  34
ATOM     34  O   UNL     1      59.277  30.136  57.757  1.00  0.00    -0.507 OA
ATOM     35  H   UNL     1      58.547  30.579  57.212  1.00  0.00     0.293 HD
ENDBRANCH  10  34
BRANCH   9  36
ATOM     36  C   UNL     1      62.225  35.162  60.229  1.00  0.00     0.017 C 
ATOM     37  C   UNL     1      63.656  35.512  59.779  1.00  0.00     0.012 C 
ATOM     38  C   UNL     1      61.434  36.380  60.728  1.00  0.00     0.012 C 
ENDBRANCH   9  36
BRANCH   6  39
ATOM     39  C   UNL     1      58.173  32.521  57.081  1.00  0.00     0.264 C 
ATOM     40  O   UNL     1      58.135  32.187  55.868  1.00  0.00    -0.298 OA
ENDBRANCH   6  39
BRANCH   8  41
ATOM     41  O   UNL     1      61.185  36.257  57.734  1.00  0.00    -0.504 OA
ATOM     42  H   UNL     1      60.619  37.081  57.891  1.00  0.00     0.293 HD
ENDBRANCH   8  41
BRANCH   7  43
ATOM     43  O   UNL     1      59.079  35.053  56.438  1.00  0.00    -0.504 OA
ATOM     44  H   UNL     1      58.214  34.719  56.033  1.00  0.00     0.293 HD
ENDBRANCH   7  43
TORSDOF 11
ENDMDL
MODEL 6
REMARK VINA RESULT:    -5.077      8.498     13.181
REMARK INTER + INTRA:          -9.007
REMARK INTER:                  -7.365
REMARK INTRA:                  -1.642
REMARK UNBOUND:                -1.556
REMARK SMILES Cc1cc2c(C(C)C)c(O)c(O)c(C=O)c2c(O)c1-c1c(C)cc2c(C(C)C)c(O)c(O)c(C=O)c2c1O
REMARK SMILES IDX 1 1 2 2 3 3 4 4 16 5 13 6 11 7 9 8 5 9 17 10 19 11 20 12
REMARK SMILES IDX 37 13 21 14 36 15 23 16 22 17 24 18 33 19 25 20 31 21 29 22
REMARK SMILES IDX 38 23 34 25 35 26 26 27 27 28 28 29 32 30 30 32 18 34 6 36
REMARK SMILES IDX 7 37 8 38 14 39 15 40 10 41 12 43
REMARK H PARENT 38 24 32 31 30 33 18 35 10 42 12 44
REMARK Flexibility Score: inf
ROOT
ATOM      1  C   UNL     1      66.320  26.744  49.568  1.00  0.00     0.045 C 
ATOM      2  C   UNL     1      64.821  26.925  49.576  1.00  0.00    -0.039 A 
ATOM      3  C   UNL     1      64.000  25.831  49.855  1.00  0.00     0.013 A 
ATOM      4  C   UNL     1      62.595  25.919  49.814  1.00  0.00    -0.006 A 
ATOM      5  C   UNL     1      62.000  27.186  49.523  1.00  0.00     0.039 A 
ATOM      6  C   UNL     1      60.580  27.280  49.468  1.00  0.00     0.072 A 
ATOM      7  C   UNL     1      59.795  26.221  49.939  1.00  0.00     0.169 A 
ATOM      8  C   UNL     1      60.381  25.005  50.303  1.00  0.00     0.162 A 
ATOM      9  C   UNL     1      61.766  24.784  50.090  1.00  0.00     0.008 A 
ATOM     10  C   UNL     1      62.838  28.325  49.354  1.00  0.00     0.132 A 
ATOM     11  C   UNL     1      64.241  28.182  49.339  1.00  0.00     0.031 A 
ENDROOT
BRANCH  11  12
ATOM     12  C   UNL     1      65.114  29.362  49.111  1.00  0.00     0.031 A 
ATOM     13  C   UNL     1      65.518  30.166  50.198  1.00  0.00     0.132 A 
ATOM     14  C   UNL     1      65.536  29.680  47.808  1.00  0.00    -0.039 A 
ATOM     15  C   UNL     1      66.364  31.294  49.984  1.00  0.00     0.039 A 
ATOM     16  C   UNL     1      66.265  30.850  47.589  1.00  0.00     0.013 A 
ATOM     17  C   UNL     1      65.195  28.787  46.641  1.00  0.00     0.045 C 
ATOM     18  C   UNL     1      66.611  31.718  48.647  1.00  0.00    -0.006 A 
ATOM     19  C   UNL     1      66.954  32.022  51.056  1.00  0.00     0.072 A 
ATOM     20  C   UNL     1      67.216  32.986  48.399  1.00  0.00     0.008 A 
ATOM     21  C   UNL     1      67.716  33.175  50.789  1.00  0.00     0.169 A 
ATOM     22  C   UNL     1      67.818  33.676  49.476  1.00  0.00     0.162 A 
BRANCH  13  23
ATOM     23  O   UNL     1      65.047  29.874  51.483  1.00  0.00    -0.507 OA
ATOM     24  H   UNL     1      64.301  30.386  51.941  1.00  0.00     0.293 HD
ENDBRANCH  13  23
BRANCH  19  25
ATOM     25  C   UNL     1      66.929  31.524  52.452  1.00  0.00     0.264 C 
ATOM     26  O   UNL     1      66.209  32.078  53.323  1.00  0.00    -0.298 OA
ENDBRANCH  19  25
BRANCH  20  27
ATOM     27  C   UNL     1      67.195  33.622  46.997  1.00  0.00     0.017 C 
ATOM     28  C   UNL     1      68.608  33.720  46.414  1.00  0.00     0.012 C 
ATOM     29  C   UNL     1      66.469  34.979  46.948  1.00  0.00     0.012 C 
ENDBRANCH  20  27
BRANCH  21  30
ATOM     30  O   UNL     1      68.389  33.786  51.855  1.00  0.00    -0.504 OA
ATOM     31  H   UNL     1      68.940  34.630  51.780  1.00  0.00     0.293 HD
ENDBRANCH  21  30
BRANCH  22  32
ATOM     32  O   UNL     1      68.520  34.856  49.214  1.00  0.00    -0.504 OA
ATOM     33  H   UNL     1      68.563  35.312  48.314  1.00  0.00     0.293 HD
ENDBRANCH  22  32
ENDBRANCH  11  12
BRANCH  10  34
ATOM     34  O   UNL     1      62.278  29.604  49.257  1.00  0.00    -0.507 OA
ATOM     35  H   UNL     1      61.942  30.135  50.051  1.00  0.00     0.293 HD
ENDBRANCH  10  34
BRANCH   9  36
ATOM     36  C   UNL     1      62.275  23.329  50.088  1.00  0.00     0.017 C 
ATOM     37  C   UNL     1      62.351  22.681  51.483  1.00  0.00     0.012 C 
ATOM     38  C   UNL     1      61.561  22.450  49.052  1.00  0.00     0.012 C 
ENDBRANCH   9  36
BRANCH   6  39
ATOM     39  C   UNL     1      59.863  28.428  48.867  1.00  0.00     0.264 C 
ATOM     40  O   UNL     1      59.272  29.270  49.593  1.00  0.00    -0.298 OA
ENDBRANCH   6  39
BRANCH   8  41
ATOM     41  O   UNL     1      59.553  24.028  50.867  1.00  0.00    -0.504 OA
ATOM     42  H   UNL     1      59.887  23.138  51.213  1.00  0.00     0.293 HD
ENDBRANCH   8  41
BRANCH   7  43
ATOM     43  O   UNL     1      58.408  26.381  50.022  1.00  0.00    -0.504 OA
ATOM     44  H   UNL     1      57.754  25.765  49.555  1.00  0.00     0.293 HD
ENDBRANCH   7  43
TORSDOF 11
ENDMDL
MODEL 7
REMARK VINA RESULT:    -5.050      3.491      7.425
REMARK INTER + INTRA:          -8.967
REMARK INTER:                  -7.332
REMARK INTRA:                  -1.635
REMARK UNBOUND:                -1.556
REMARK SMILES Cc1cc2c(C(C)C)c(O)c(O)c(C=O)c2c(O)c1-c1c(C)cc2c(C(C)C)c(O)c(O)c(C=O)c2c1O
REMARK SMILES IDX 1 1 2 2 3 3 4 4 16 5 13 6 11 7 9 8 5 9 17 10 19 11 20 12
REMARK SMILES IDX 37 13 21 14 36 15 23 16 22 17 24 18 33 19 25 20 31 21 29 22
REMARK SMILES IDX 38 23 34 25 35 26 26 27 27 28 28 29 32 30 30 32 18 34 6 36
REMARK SMILES IDX 7 37 8 38 14 39 15 40 10 41 12 43
REMARK H PARENT 38 24 32 31 30 33 18 35 10 42 12 44
REMARK Flexibility Score: inf
ROOT
ATOM      1  C   UNL     1      62.708  23.927  60.501  1.00  0.00     0.045 C 
ATOM      2  C   UNL     1      62.630  25.432  60.603  1.00  0.00    -0.039 A 
ATOM      3  C   UNL     1      63.766  26.196  60.333  1.00  0.00     0.013 A 
ATOM      4  C   UNL     1      63.776  27.598  60.474  1.00  0.00    -0.006 A 
ATOM      5  C   UNL     1      62.565  28.253  60.861  1.00  0.00     0.039 A 
ATOM      6  C   UNL     1      62.570  29.669  61.017  1.00  0.00     0.072 A 
ATOM      7  C   UNL     1      63.662  30.414  60.554  1.00  0.00     0.169 A 
ATOM      8  C   UNL     1      64.819  29.777  60.098  1.00  0.00     0.162 A 
ATOM      9  C   UNL     1      64.953  28.369  60.206  1.00  0.00     0.008 A 
ATOM     10  C   UNL     1      61.378  27.481  61.022  1.00  0.00     0.132 A 
ATOM     11  C   UNL     1      61.426  26.074  60.935  1.00  0.00     0.031 A 
ENDROOT
BRANCH  11  12
ATOM     12  C   UNL     1      60.199  25.267  61.154  1.00  0.00     0.031 A 
ATOM     13  C   UNL     1      59.330  24.990  60.077  1.00  0.00     0.132 A 
ATOM     14  C   UNL     1      59.901  24.780  62.439  1.00  0.00    -0.039 A 
ATOM     15  C   UNL     1      58.156  24.207  60.283  1.00  0.00     0.039 A 
ATOM     16  C   UNL     1      58.694  24.115  62.659  1.00  0.00     0.013 A 
ATOM     17  C   UNL     1      60.858  24.983  63.589  1.00  0.00     0.045 C 
ATOM     18  C   UNL     1      57.766  23.898  61.617  1.00  0.00    -0.006 A 
ATOM     19  C   UNL     1      57.350  23.739  59.206  1.00  0.00     0.072 A 
ATOM     20  C   UNL     1      56.469  23.362  61.878  1.00  0.00     0.008 A 
ATOM     21  C   UNL     1      56.159  23.037  59.470  1.00  0.00     0.169 A 
ATOM     22  C   UNL     1      55.701  22.880  60.794  1.00  0.00     0.162 A 
BRANCH  13  23
ATOM     23  O   UNL     1      59.605  25.526  58.815  1.00  0.00    -0.507 OA
ATOM     24  H   UNL     1      58.962  26.118  58.300  1.00  0.00     0.293 HD
ENDBRANCH  13  23
BRANCH  19  25
ATOM     25  C   UNL     1      57.797  23.825  57.795  1.00  0.00     0.264 C 
ATOM     26  O   UNL     1      57.263  24.638  56.996  1.00  0.00    -0.298 OA
ENDBRANCH  19  25
BRANCH  20  27
ATOM     27  C   UNL     1      55.889  23.330  63.304  1.00  0.00     0.017 C 
ATOM     28  C   UNL     1      55.740  21.890  63.807  1.00  0.00     0.012 C 
ATOM     29  C   UNL     1      54.573  24.117  63.450  1.00  0.00     0.012 C 
ENDBRANCH  20  27
BRANCH  21  30
ATOM     30  O   UNL     1      55.465  22.479  58.389  1.00  0.00    -0.504 OA
ATOM     31  H   UNL     1      54.538  22.754  58.096  1.00  0.00     0.293 HD
ENDBRANCH  21  30
BRANCH  22  32
ATOM     32  O   UNL     1      54.487  22.240  61.058  1.00  0.00    -0.504 OA
ATOM     33  H   UNL     1      53.844  22.506  61.791  1.00  0.00     0.293 HD
ENDBRANCH  22  32
ENDBRANCH  11  12
BRANCH  10  34
ATOM     34  O   UNL     1      60.146  28.115  61.214  1.00  0.00    -0.507 OA
ATOM     35  H   UNL     1      59.599  28.040  62.063  1.00  0.00     0.293 HD
ENDBRANCH  10  34
BRANCH   9  36
ATOM     36  C   UNL     1      66.368  27.766  60.109  1.00  0.00     0.017 C 
ATOM     37  C   UNL     1      66.980  27.806  58.695  1.00  0.00     0.012 C 
ATOM     38  C   UNL     1      67.318  28.297  61.192  1.00  0.00     0.012 C 
ENDBRANCH   9  36
BRANCH   6  39
ATOM     39  C   UNL     1      61.499  30.414  61.716  1.00  0.00     0.264 C 
ATOM     40  O   UNL     1      60.704  31.151  61.075  1.00  0.00    -0.298 OA
ENDBRANCH   6  39
BRANCH   8  41
ATOM     41  O   UNL     1      65.828  30.577  59.549  1.00  0.00    -0.504 OA
ATOM     42  H   UNL     1      66.713  30.218  59.216  1.00  0.00     0.293 HD
ENDBRANCH   8  41
BRANCH   7  43
ATOM     43  O   UNL     1      63.594  31.811  60.574  1.00  0.00    -0.504 OA
ATOM     44  H   UNL     1      62.951  32.338  59.996  1.00  0.00     0.293 HD
ENDBRANCH   7  43
TORSDOF 11
ENDMDL
MODEL 8
REMARK VINA RESULT:    -5.018      8.855     13.521
REMARK INTER + INTRA:          -8.920
REMARK INTER:                  -7.469
REMARK INTRA:                  -1.451
REMARK UNBOUND:                -1.556
REMARK SMILES Cc1cc2c(C(C)C)c(O)c(O)c(C=O)c2c(O)c1-c1c(C)cc2c(C(C)C)c(O)c(O)c(C=O)c2c1O
REMARK SMILES IDX 1 1 2 2 3 3 4 4 16 5 13 6 11 7 9 8 5 9 17 10 19 11 20 12
REMARK SMILES IDX 37 13 21 14 36 15 23 16 22 17 24 18 33 19 25 20 31 21 29 22
REMARK SMILES IDX 38 23 34 25 35 26 26 27 27 28 28 29 32 30 30 32 18 34 6 36
REMARK SMILES IDX 7 37 8 38 14 39 15 40 10 41 12 43
REMARK H PARENT 38 24 32 31 30 33 18 35 10 42 12 44
REMARK Flexibility Score: inf
ROOT
ATOM      1  C   UNL     1      60.328  27.837  48.920  1.00  0.00     0.045 C 
ATOM      2  C   UNL     1      59.595  28.633  49.972  1.00  0.00    -0.039 A 
ATOM      3  C   UNL     1      58.219  28.459  50.128  1.00  0.00     0.013 A 
ATOM      4  C   UNL     1      57.467  29.218  51.047  1.00  0.00    -0.006 A 
ATOM      5  C   UNL     1      58.153  30.160  51.875  1.00  0.00     0.039 A 
ATOM      6  C   UNL     1      57.399  30.940  52.798  1.00  0.00     0.072 A 
ATOM      7  C   UNL     1      56.065  30.605  53.061  1.00  0.00     0.169 A 
ATOM      8  C   UNL     1      55.412  29.625  52.307  1.00  0.00     0.162 A 
ATOM      9  C   UNL     1      56.053  29.038  51.186  1.00  0.00     0.008 A 
ATOM     10  C   UNL     1      59.573  30.251  51.795  1.00  0.00     0.132 A 
ATOM     11  C   UNL     1      60.280  29.521  50.818  1.00  0.00     0.031 A 
ENDROOT
BRANCH  11  12
ATOM     12  C   UNL     1      61.755  29.656  50.701  1.00  0.00     0.031 A 
ATOM     13  C   UNL     1      62.312  30.679  49.904  1.00  0.00     0.132 A 
ATOM     14  C   UNL     1      62.597  28.761  51.384  1.00  0.00    -0.039 A 
ATOM     15  C   UNL     1      63.727  30.817  49.798  1.00  0.00     0.039 A 
ATOM     16  C   UNL     1      63.976  28.826  51.183  1.00  0.00     0.013 A 
ATOM     17  C   UNL     1      62.030  27.716  52.315  1.00  0.00     0.045 C 
ATOM     18  C   UNL     1      64.556  29.786  50.325  1.00  0.00    -0.006 A 
ATOM     19  C   UNL     1      64.341  31.937  49.167  1.00  0.00     0.072 A 
ATOM     20  C   UNL     1      65.945  29.749  50.000  1.00  0.00     0.008 A 
ATOM     21  C   UNL     1      65.740  31.983  49.020  1.00  0.00     0.169 A 
ATOM     22  C   UNL     1      66.535  30.884  49.400  1.00  0.00     0.162 A 
BRANCH  13  23
ATOM     23  O   UNL     1      61.466  31.529  49.184  1.00  0.00    -0.507 OA
ATOM     24  H   UNL     1      60.628  31.951  49.569  1.00  0.00     0.293 HD
ENDBRANCH  13  23
BRANCH  19  25
ATOM     25  C   UNL     1      63.571  33.147  48.793  1.00  0.00     0.264 C 
ATOM     26  O   UNL     1      63.413  34.091  49.610  1.00  0.00    -0.298 OA
ENDBRANCH  19  25
BRANCH  20  27
ATOM     27  C   UNL     1      66.794  28.491  50.264  1.00  0.00     0.017 C 
ATOM     28  C   UNL     1      66.207  27.269  49.550  1.00  0.00     0.012 C 
ATOM     29  C   UNL     1      67.031  28.211  51.759  1.00  0.00     0.012 C 
ENDBRANCH  20  27
BRANCH  21  30
ATOM     30  O   UNL     1      66.315  33.158  48.518  1.00  0.00    -0.504 OA
ATOM     31  H   UNL     1      66.987  33.193  47.764  1.00  0.00     0.293 HD
ENDBRANCH  21  30
BRANCH  22  32
ATOM     32  O   UNL     1      67.918  30.898  49.197  1.00  0.00    -0.504 OA
ATOM     33  H   UNL     1      68.375  30.661  48.327  1.00  0.00     0.293 HD
ENDBRANCH  22  32
ENDBRANCH  11  12
BRANCH  10  34
ATOM     34  O   UNL     1      60.283  31.024  52.722  1.00  0.00    -0.507 OA
ATOM     35  H   UNL     1      59.908  31.851  53.170  1.00  0.00     0.293 HD
ENDBRANCH  10  34
BRANCH   9  36
ATOM     36  C   UNL     1      55.175  28.313  50.147  1.00  0.00     0.017 C 
ATOM     37  C   UNL     1      54.936  26.821  50.448  1.00  0.00     0.012 C 
ATOM     38  C   UNL     1      53.884  29.077  49.822  1.00  0.00     0.012 C 
ENDBRANCH   9  36
BRANCH   6  39
ATOM     39  C   UNL     1      57.928  32.153  53.462  1.00  0.00     0.264 C 
ATOM     40  O   UNL     1      58.251  32.132  54.678  1.00  0.00    -0.298 OA
ENDBRANCH   6  39
BRANCH   8  41
ATOM     41  O   UNL     1      54.117  29.264  52.693  1.00  0.00    -0.504 OA
ATOM     42  H   UNL     1      53.841  28.318  52.923  1.00  0.00     0.293 HD
ENDBRANCH   8  41
BRANCH   7  43
ATOM     43  O   UNL     1      55.378  31.278  54.077  1.00  0.00    -0.504 OA
ATOM     44  H   UNL     1      55.694  31.293  55.039  1.00  0.00     0.293 HD
ENDBRANCH   7  43
TORSDOF 11
ENDMDL
MODEL 9
REMARK VINA RESULT:    -4.999      8.879     10.666
REMARK INTER + INTRA:          -8.893
REMARK INTER:                  -7.253
REMARK INTRA:                  -1.640
REMARK UNBOUND:                -1.556
REMARK SMILES Cc1cc2c(C(C)C)c(O)c(O)c(C=O)c2c(O)c1-c1c(C)cc2c(C(C)C)c(O)c(O)c(C=O)c2c1O
REMARK SMILES IDX 1 1 2 2 3 3 4 4 16 5 13 6 11 7 9 8 5 9 17 10 19 11 20 12
REMARK SMILES IDX 37 13 21 14 36 15 23 16 22 17 24 18 33 19 25 20 31 21 29 22
REMARK SMILES IDX 38 23 34 25 35 26 26 27 27 28 28 29 32 30 30 32 18 34 6 36
REMARK SMILES IDX 7 37 8 38 14 39 15 40 10 41 12 43
REMARK H PARENT 38 24 32 31 30 33 18 35 10 42 12 44
REMARK Flexibility Score: inf
ROOT
ATOM      1  C   UNL     1      61.560  26.634  49.629  1.00  0.00     0.045 C 
ATOM      2  C   UNL     1      62.178  28.011  49.666  1.00  0.00    -0.039 A 
ATOM      3  C   UNL     1      63.461  28.200  49.151  1.00  0.00     0.013 A 
ATOM      4  C   UNL     1      64.118  29.445  49.215  1.00  0.00    -0.006 A 
ATOM      5  C   UNL     1      63.421  30.555  49.786  1.00  0.00     0.039 A 
ATOM      6  C   UNL     1      64.083  31.814  49.866  1.00  0.00     0.072 A 
ATOM      7  C   UNL     1      65.282  32.013  49.170  1.00  0.00     0.169 A 
ATOM      8  C   UNL     1      65.927  30.944  48.540  1.00  0.00     0.162 A 
ATOM      9  C   UNL     1      65.440  29.621  48.694  1.00  0.00     0.008 A 
ATOM     10  C   UNL     1      62.069  30.386  50.204  1.00  0.00     0.132 A 
ATOM     11  C   UNL     1      61.470  29.110  50.182  1.00  0.00     0.031 A 
ENDROOT
BRANCH  11  12
ATOM     12  C   UNL     1      60.079  28.925  50.667  1.00  0.00     0.031 A 
ATOM     13  C   UNL     1      59.839  28.534  52.002  1.00  0.00     0.132 A 
ATOM     14  C   UNL     1      58.998  29.136  49.793  1.00  0.00    -0.039 A 
ATOM     15  C   UNL     1      58.504  28.365  52.473  1.00  0.00     0.039 A 
ATOM     16  C   UNL     1      57.701  28.856  50.224  1.00  0.00     0.013 A 
ATOM     17  C   UNL     1      59.221  29.642  48.389  1.00  0.00     0.045 C 
ATOM     18  C   UNL     1      57.438  28.383  51.529  1.00  0.00    -0.006 A 
ATOM     19  C   UNL     1      58.199  28.161  53.850  1.00  0.00     0.072 A 
ATOM     20  C   UNL     1      56.135  27.949  51.913  1.00  0.00     0.008 A 
ATOM     21  C   UNL     1      56.871  27.920  54.248  1.00  0.00     0.169 A 
ATOM     22  C   UNL     1      55.850  27.779  53.287  1.00  0.00     0.162 A 
BRANCH  13  23
ATOM     23  O   UNL     1      60.922  28.272  52.848  1.00  0.00    -0.507 OA
ATOM     24  H   UNL     1      61.080  28.751  53.728  1.00  0.00     0.293 HD
ENDBRANCH  13  23
BRANCH  19  25
ATOM     25  C   UNL     1      59.213  28.347  54.915  1.00  0.00     0.264 C 
ATOM     26  O   UNL     1      59.687  27.359  55.535  1.00  0.00    -0.298 OA
ENDBRANCH  19  25
BRANCH  20  27
ATOM     27  C   UNL     1      55.054  27.635  50.861  1.00  0.00     0.017 C 
ATOM     28  C   UNL     1      55.555  26.603  49.846  1.00  0.00     0.012 C 
ATOM     29  C   UNL     1      54.495  28.888  50.162  1.00  0.00     0.012 C 
ENDBRANCH  20  27
BRANCH  21  30
ATOM     30  O   UNL     1      56.592  27.858  55.620  1.00  0.00    -0.504 OA
ATOM     31  H   UNL     1      56.993  27.186  56.259  1.00  0.00     0.293 HD
ENDBRANCH  21  30
BRANCH  22  32
ATOM     32  O   UNL     1      54.542  27.477  53.673  1.00  0.00    -0.504 OA
ATOM     33  H   UNL     1      53.729  27.573  53.080  1.00  0.00     0.293 HD
ENDBRANCH  22  32
ENDBRANCH  11  12
BRANCH  10  34
ATOM     34  O   UNL     1      61.307  31.495  50.589  1.00  0.00    -0.507 OA
ATOM     35  H   UNL     1      60.470  31.799  50.106  1.00  0.00     0.293 HD
ENDBRANCH  10  34
BRANCH   9  36
ATOM     36  C   UNL     1      66.395  28.455  48.367  1.00  0.00     0.017 C 
ATOM     37  C   UNL     1      66.637  27.484  49.538  1.00  0.00     0.012 C 
ATOM     38  C   UNL     1      66.035  27.742  47.055  1.00  0.00     0.012 C 
ENDBRANCH   9  36
BRANCH   6  39
ATOM     39  C   UNL     1      63.607  32.932  50.711  1.00  0.00     0.264 C 
ATOM     40  O   UNL     1      63.051  33.937  50.197  1.00  0.00    -0.298 OA
ENDBRANCH   6  39
BRANCH   8  41
ATOM     41  O   UNL     1      67.062  31.232  47.774  1.00  0.00    -0.504 OA
ATOM     42  H   UNL     1      67.029  31.671  46.863  1.00  0.00     0.293 HD
ENDBRANCH   8  41
BRANCH   7  43
ATOM     43  O   UNL     1      65.846  33.292  49.130  1.00  0.00    -0.504 OA
ATOM     44  H   UNL     1      66.617  33.572  49.724  1.00  0.00     0.293 HD
ENDBRANCH   7  43
TORSDOF 11
ENDMDL
