MODEL 1
REMARK VINA RESULT:    -4.904      0.000      0.000
REMARK INTER + INTRA:          -6.764
REMARK INTER:                  -6.338
REMARK INTRA:                  -0.426
REMARK UNBOUND:                -0.426
REMARK SMILES CO[C@@]1(CO)O[C@H](CO)[C@@H](O)[C@H]1O
REMARK SMILES IDX 3 1 12 2 10 3 7 4 6 5 2 6 1 7 4 8 5 9 13 11 11 13 8 15 9 16
REMARK H PARENT 5 10 13 12 11 14 9 17
REMARK Flexibility Score: inf
ROOT
ATOM      1  C   UNL     1     -11.113   3.559 -19.423  1.00  0.00     0.221 C 
ATOM      2  C   UNL     1     -11.017   2.496 -18.316  1.00  0.00     0.207 C 
ATOM      3  C   UNL     1     -12.452   2.314 -17.886  1.00  0.00     0.180 C 
ATOM      4  C   UNL     1     -13.091   3.665 -18.237  1.00  0.00     0.179 C 
ATOM      5  O   UNL     1     -12.258   4.357 -19.147  1.00  0.00    -0.337 OA
ENDROOT
BRANCH   1   6
ATOM      6  O   UNL     1     -11.196   2.898 -20.689  1.00  0.00    -0.349 OA
ATOM      7  C   UNL     1     -11.649   3.732 -21.736  1.00  0.00     0.198 C 
ENDBRANCH   1   6
BRANCH   1   8
ATOM      8  C   UNL     1      -9.852   4.450 -19.392  1.00  0.00     0.224 C 
BRANCH   8   9
ATOM      9  O   UNL     1      -8.681   3.678 -19.380  1.00  0.00    -0.391 OA
ATOM     10  H   UNL     1      -8.898   2.823 -19.836  1.00  0.00     0.210 HD
ENDBRANCH   8   9
ENDBRANCH   1   8
BRANCH   2  11
ATOM     11  O   UNL     1     -10.456   1.289 -18.769  1.00  0.00    -0.385 OA
ATOM     12  H   UNL     1      -9.533   1.502 -19.065  1.00  0.00     0.211 HD
ENDBRANCH   2  11
BRANCH   3  13
ATOM     13  O   UNL     1     -13.085   1.253 -18.564  1.00  0.00    -0.387 OA
ATOM     14  H   UNL     1     -13.051   1.439 -19.539  1.00  0.00     0.211 HD
ENDBRANCH   3  13
BRANCH   4  15
ATOM     15  C   UNL     1     -13.299   4.543 -16.996  1.00  0.00     0.191 C 
BRANCH  15  16
ATOM     16  O   UNL     1     -13.782   3.767 -15.935  1.00  0.00    -0.394 OA
ATOM     17  H   UNL     1     -12.988   3.520 -15.392  1.00  0.00     0.210 HD
ENDBRANCH  15  16
ENDBRANCH   4  15
TORSDOF 7
ENDMDL
MODEL 2
REMARK VINA RESULT:    -4.864      1.389      3.958
REMARK INTER + INTRA:          -6.711
REMARK INTER:                  -6.334
REMARK INTRA:                  -0.377
REMARK UNBOUND:                -0.426
REMARK SMILES CO[C@@]1(CO)O[C@H](CO)[C@@H](O)[C@H]1O
REMARK SMILES IDX 3 1 12 2 10 3 7 4 6 5 2 6 1 7 4 8 5 9 13 11 11 13 8 15 9 16
REMARK H PARENT 5 10 13 12 11 14 9 17
REMARK Flexibility Score: inf
ROOT
ATOM      1  C   UNL     1     -11.981   2.779 -18.740  1.00  0.00     0.221 C 
ATOM      2  C   UNL     1     -10.526   2.421 -19.082  1.00  0.00     0.207 C 
ATOM      3  C   UNL     1     -10.067   3.597 -19.910  1.00  0.00     0.180 C 
ATOM      4  C   UNL     1     -11.375   4.123 -20.516  1.00  0.00     0.179 C 
ATOM      5  O   UNL     1     -12.471   3.609 -19.785  1.00  0.00    -0.337 OA
ENDROOT
BRANCH   1   6
ATOM      6  O   UNL     1     -12.007   3.427 -17.465  1.00  0.00    -0.349 OA
ATOM      7  C   UNL     1     -13.312   3.663 -16.975  1.00  0.00     0.198 C 
ENDBRANCH   1   6
BRANCH   1   8
ATOM      8  C   UNL     1     -12.826   1.488 -18.674  1.00  0.00     0.224 C 
BRANCH   8   9
ATOM      9  O   UNL     1     -12.052   0.389 -18.276  1.00  0.00    -0.391 OA
ATOM     10  H   UNL     1     -11.226   0.757 -17.864  1.00  0.00     0.210 HD
ENDBRANCH   8   9
ENDBRANCH   1   8
BRANCH   2  11
ATOM     11  O   UNL     1      -9.724   2.251 -17.939  1.00  0.00    -0.385 OA
ATOM     12  H   UNL     1      -9.535   3.162 -17.591  1.00  0.00     0.211 HD
ENDBRANCH   2  11
BRANCH   3  13
ATOM     13  O   UNL     1      -9.425   4.582 -19.134  1.00  0.00    -0.387 OA
ATOM     14  H   UNL     1      -8.831   4.129 -18.480  1.00  0.00     0.211 HD
ENDBRANCH   3  13
BRANCH   4  15
ATOM     15  C   UNL     1     -11.532   3.720 -21.987  1.00  0.00     0.191 C 
BRANCH  15  16
ATOM     16  O   UNL     1     -12.545   4.479 -22.587  1.00  0.00    -0.394 OA
ATOM     17  H   UNL     1     -12.810   3.985 -23.407  1.00  0.00     0.210 HD
ENDBRANCH  15  16
ENDBRANCH   4  15
TORSDOF 7
ENDMDL
MODEL 3
REMARK VINA RESULT:    -4.792      1.397      3.294
REMARK INTER + INTRA:          -6.618
REMARK INTER:                  -6.222
REMARK INTRA:                  -0.396
REMARK UNBOUND:                -0.426
REMARK SMILES CO[C@@]1(CO)O[C@H](CO)[C@@H](O)[C@H]1O
REMARK SMILES IDX 3 1 12 2 10 3 7 4 6 5 2 6 1 7 4 8 5 9 13 11 11 13 8 15 9 16
REMARK H PARENT 5 10 13 12 11 14 9 17
REMARK Flexibility Score: inf
ROOT
ATOM      1  C   UNL     1     -11.083   3.326 -19.482  1.00  0.00     0.221 C 
ATOM      2  C   UNL     1     -12.568   3.495 -19.121  1.00  0.00     0.207 C 
ATOM      3  C   UNL     1     -12.692   2.748 -17.815  1.00  0.00     0.180 C 
ATOM      4  C   UNL     1     -11.560   1.715 -17.900  1.00  0.00     0.179 C 
ATOM      5  O   UNL     1     -10.640   2.107 -18.899  1.00  0.00    -0.337 OA
ENDROOT
BRANCH   1   6
ATOM      6  O   UNL     1     -10.360   4.462 -18.998  1.00  0.00    -0.349 OA
ATOM      7  C   UNL     1      -9.002   4.479 -19.389  1.00  0.00     0.198 C 
ENDBRANCH   1   6
BRANCH   1   8
ATOM      8  C   UNL     1     -10.934   3.242 -21.017  1.00  0.00     0.224 C 
BRANCH   8   9
ATOM      9  O   UNL     1     -11.959   3.940 -21.670  1.00  0.00    -0.391 OA
ATOM     10  H   UNL     1     -12.777   3.382 -21.593  1.00  0.00     0.210 HD
ENDBRANCH   8   9
ENDBRANCH   1   8
BRANCH   2  11
ATOM     11  O   UNL     1     -12.944   4.843 -18.982  1.00  0.00    -0.385 OA
ATOM     12  H   UNL     1     -12.213   5.381 -19.385  1.00  0.00     0.211 HD
ENDBRANCH   2  11
BRANCH   3  13
ATOM     13  O   UNL     1     -12.537   3.593 -16.697  1.00  0.00    -0.387 OA
ATOM     14  H   UNL     1     -13.397   3.620 -16.203  1.00  0.00     0.211 HD
ENDBRANCH   3  13
BRANCH   4  15
ATOM     15  C   UNL     1     -12.084   0.313 -18.236  1.00  0.00     0.191 C 
BRANCH  15  16
ATOM     16  O   UNL     1     -11.029  -0.502 -18.666  1.00  0.00    -0.394 OA
ATOM     17  H   UNL     1     -10.241   0.095 -18.759  1.00  0.00     0.210 HD
ENDBRANCH  15  16
ENDBRANCH   4  15
TORSDOF 7
ENDMDL
MODEL 4
REMARK VINA RESULT:    -4.000      1.734      4.282
REMARK INTER + INTRA:          -5.595
REMARK INTER:                  -5.303
REMARK INTRA:                  -0.292
REMARK UNBOUND:                -0.426
REMARK SMILES CO[C@@]1(CO)O[C@H](CO)[C@@H](O)[C@H]1O
REMARK SMILES IDX 3 1 12 2 10 3 7 4 6 5 2 6 1 7 4 8 5 9 13 11 11 13 8 15 9 16
REMARK H PARENT 5 10 13 12 11 14 9 17
REMARK Flexibility Score: inf
ROOT
ATOM      1  C   UNL     1     -11.290   2.651 -19.551  1.00  0.00     0.221 C 
ATOM      2  C   UNL     1     -11.146   4.143 -19.893  1.00  0.00     0.207 C 
ATOM      3  C   UNL     1     -11.661   4.224 -21.310  1.00  0.00     0.180 C 
ATOM      4  C   UNL     1     -11.403   2.811 -21.851  1.00  0.00     0.179 C 
ATOM      5  O   UNL     1     -11.191   1.925 -20.770  1.00  0.00    -0.337 OA
ENDROOT
BRANCH   1   6
ATOM      6  O   UNL     1     -12.543   2.450 -18.891  1.00  0.00    -0.349 OA
ATOM      7  C   UNL     1     -12.433   1.754 -17.666  1.00  0.00     0.198 C 
ENDBRANCH   1   6
BRANCH   1   8
ATOM      8  C   UNL     1     -10.142   2.226 -18.610  1.00  0.00     0.224 C 
BRANCH   8   9
ATOM      9  O   UNL     1      -9.148   3.213 -18.537  1.00  0.00    -0.391 OA
ATOM     10  H   UNL     1      -8.947   3.344 -17.573  1.00  0.00     0.210 HD
ENDBRANCH   8   9
ENDBRANCH   1   8
BRANCH   2  11
ATOM     11  O   UNL     1     -11.882   4.972 -19.029  1.00  0.00    -0.385 OA
ATOM     12  H   UNL     1     -12.190   5.743 -19.574  1.00  0.00     0.211 HD
ENDBRANCH   2  11
BRANCH   3  13
ATOM     13  O   UNL     1     -13.030   4.555 -21.365  1.00  0.00    -0.387 OA
ATOM     14  H   UNL     1     -13.166   5.206 -22.101  1.00  0.00     0.211 HD
ENDBRANCH   3  13
BRANCH   4  15
ATOM     15  C   UNL     1     -10.179   2.762 -22.774  1.00  0.00     0.191 C 
BRANCH  15  16
ATOM     16  O   UNL     1     -10.279   1.671 -23.647  1.00  0.00    -0.394 OA
ATOM     17  H   UNL     1      -9.350   1.448 -23.916  1.00  0.00     0.210 HD
ENDBRANCH  15  16
ENDBRANCH   4  15
TORSDOF 7
ENDMDL
MODEL 5
REMARK VINA RESULT:    -3.969      1.386      2.670
REMARK INTER + INTRA:          -5.554
REMARK INTER:                  -5.280
REMARK INTRA:                  -0.274
REMARK UNBOUND:                -0.426
REMARK SMILES CO[C@@]1(CO)O[C@H](CO)[C@@H](O)[C@H]1O
REMARK SMILES IDX 3 1 12 2 10 3 7 4 6 5 2 6 1 7 4 8 5 9 13 11 11 13 8 15 9 16
REMARK H PARENT 5 10 13 12 11 14 9 17
REMARK Flexibility Score: inf
ROOT
ATOM      1  C   UNL     1     -11.167   3.204 -20.659  1.00  0.00     0.221 C 
ATOM      2  C   UNL     1     -10.541   4.004 -19.505  1.00  0.00     0.207 C 
ATOM      3  C   UNL     1     -10.571   3.029 -18.353  1.00  0.00     0.180 C 
ATOM      4  C   UNL     1     -11.745   2.108 -18.712  1.00  0.00     0.179 C 
ATOM      5  O   UNL     1     -12.053   2.253 -20.085  1.00  0.00    -0.337 OA
ENDROOT
BRANCH   1   6
ATOM      6  O   UNL     1     -10.118   2.593 -21.416  1.00  0.00    -0.349 OA
ATOM      7  C   UNL     1     -10.336   2.620 -22.812  1.00  0.00     0.198 C 
ENDBRANCH   1   6
BRANCH   1   8
ATOM      8  C   UNL     1     -11.966   4.160 -21.573  1.00  0.00     0.224 C 
BRANCH   8   9
ATOM      9  O   UNL     1     -13.077   4.694 -20.906  1.00  0.00    -0.391 OA
ATOM     10  H   UNL     1     -13.860   4.555 -21.501  1.00  0.00     0.210 HD
ENDBRANCH   8   9
ENDBRANCH   1   8
BRANCH   2  11
ATOM     11  O   UNL     1      -9.231   4.431 -19.786  1.00  0.00    -0.385 OA
ATOM     12  H   UNL     1      -9.094   4.292 -20.759  1.00  0.00     0.211 HD
ENDBRANCH   2  11
BRANCH   3  13
ATOM     13  O   UNL     1      -9.367   2.306 -18.231  1.00  0.00    -0.387 OA
ATOM     14  H   UNL     1      -8.776   2.550 -18.991  1.00  0.00     0.211 HD
ENDBRANCH   3  13
BRANCH   4  15
ATOM     15  C   UNL     1     -13.000   2.427 -17.890  1.00  0.00     0.191 C 
BRANCH  15  16
ATOM     16  O   UNL     1     -12.653   3.170 -16.755  1.00  0.00    -0.394 OA
ATOM     17  H   UNL     1     -13.277   3.943 -16.731  1.00  0.00     0.210 HD
ENDBRANCH  15  16
ENDBRANCH   4  15
TORSDOF 7
ENDMDL
MODEL 6
REMARK VINA RESULT:    -3.879      1.261      2.259
REMARK INTER + INTRA:          -5.438
REMARK INTER:                  -4.983
REMARK INTRA:                  -0.455
REMARK UNBOUND:                -0.426
REMARK SMILES CO[C@@]1(CO)O[C@H](CO)[C@@H](O)[C@H]1O
REMARK SMILES IDX 3 1 12 2 10 3 7 4 6 5 2 6 1 7 4 8 5 9 13 11 11 13 8 15 9 16
REMARK H PARENT 5 10 13 12 11 14 9 17
REMARK Flexibility Score: inf
ROOT
ATOM      1  C   UNL     1     -11.933   3.359 -19.404  1.00  0.00     0.221 C 
ATOM      2  C   UNL     1     -10.624   3.160 -18.622  1.00  0.00     0.207 C 
ATOM      3  C   UNL     1     -10.800   1.799 -17.994  1.00  0.00     0.180 C 
ATOM      4  C   UNL     1     -12.325   1.664 -17.887  1.00  0.00     0.179 C 
ATOM      5  O   UNL     1     -12.942   2.608 -18.740  1.00  0.00    -0.337 OA
ENDROOT
BRANCH   1   6
ATOM      6  O   UNL     1     -11.730   2.935 -20.755  1.00  0.00    -0.349 OA
ATOM      7  C   UNL     1     -11.951   3.954 -21.708  1.00  0.00     0.198 C 
ENDBRANCH   1   6
BRANCH   1   8
ATOM      8  C   UNL     1     -12.318   4.855 -19.390  1.00  0.00     0.224 C 
BRANCH   8   9
ATOM      9  O   UNL     1     -13.426   5.090 -18.564  1.00  0.00    -0.391 OA
ATOM     10  H   UNL     1     -13.567   6.074 -18.549  1.00  0.00     0.210 HD
ENDBRANCH   8   9
ENDBRANCH   1   8
BRANCH   2  11
ATOM     11  O   UNL     1      -9.486   3.205 -19.446  1.00  0.00    -0.385 OA
ATOM     12  H   UNL     1      -9.054   4.084 -19.280  1.00  0.00     0.211 HD
ENDBRANCH   2  11
BRANCH   3  13
ATOM     13  O   UNL     1     -10.245   0.770 -18.781  1.00  0.00    -0.387 OA
ATOM     14  H   UNL     1      -9.461   0.396 -18.301  1.00  0.00     0.211 HD
ENDBRANCH   3  13
BRANCH   4  15
ATOM     15  C   UNL     1     -12.825   1.894 -16.456  1.00  0.00     0.191 C 
BRANCH  15  16
ATOM     16  O   UNL     1     -13.520   3.107 -16.380  1.00  0.00    -0.394 OA
ATOM     17  H   UNL     1     -14.264   2.959 -15.738  1.00  0.00     0.210 HD
ENDBRANCH  15  16
ENDBRANCH   4  15
TORSDOF 7
ENDMDL
MODEL 7
REMARK VINA RESULT:    -3.877      1.478      3.470
REMARK INTER + INTRA:          -5.435
REMARK INTER:                  -5.070
REMARK INTRA:                  -0.365
REMARK UNBOUND:                -0.426
REMARK SMILES CO[C@@]1(CO)O[C@H](CO)[C@@H](O)[C@H]1O
REMARK SMILES IDX 3 1 12 2 10 3 7 4 6 5 2 6 1 7 4 8 5 9 13 11 11 13 8 15 9 16
REMARK H PARENT 5 10 13 12 11 14 9 17
REMARK Flexibility Score: inf
ROOT
ATOM      1  C   UNL     1     -12.621   3.483 -18.224  1.00  0.00     0.221 C 
ATOM      2  C   UNL     1     -11.102   3.323 -18.402  1.00  0.00     0.207 C 
ATOM      3  C   UNL     1     -10.986   2.116 -19.301  1.00  0.00     0.180 C 
ATOM      4  C   UNL     1     -12.275   1.338 -19.003  1.00  0.00     0.179 C 
ATOM      5  O   UNL     1     -13.204   2.194 -18.368  1.00  0.00    -0.337 OA
ENDROOT
BRANCH   1   6
ATOM      6  O   UNL     1     -13.101   4.416 -19.197  1.00  0.00    -0.349 OA
ATOM      7  C   UNL     1     -13.640   5.595 -18.634  1.00  0.00     0.198 C 
ENDBRANCH   1   6
BRANCH   1   8
ATOM      8  C   UNL     1     -12.919   4.023 -16.808  1.00  0.00     0.224 C 
BRANCH   8   9
ATOM      9  O   UNL     1     -13.738   3.143 -16.087  1.00  0.00    -0.391 OA
ATOM     10  H   UNL     1     -13.134   2.492 -15.641  1.00  0.00     0.210 HD
ENDBRANCH   8   9
ENDBRANCH   1   8
BRANCH   2  11
ATOM     11  O   UNL     1     -10.499   4.455 -18.976  1.00  0.00    -0.385 OA
ATOM     12  H   UNL     1     -10.105   4.973 -18.226  1.00  0.00     0.211 HD
ENDBRANCH   2  11
BRANCH   3  13
ATOM     13  O   UNL     1     -10.900   2.469 -20.663  1.00  0.00    -0.387 OA
ATOM     14  H   UNL     1     -11.500   3.243 -20.825  1.00  0.00     0.211 HD
ENDBRANCH   3  13
BRANCH   4  15
ATOM     15  C   UNL     1     -12.020   0.128 -18.096  1.00  0.00     0.191 C 
BRANCH  15  16
ATOM     16  O   UNL     1     -12.355   0.443 -16.772  1.00  0.00    -0.394 OA
ATOM     17  H   UNL     1     -11.502   0.679 -16.322  1.00  0.00     0.210 HD
ENDBRANCH  15  16
ENDBRANCH   4  15
TORSDOF 7
ENDMDL
MODEL 8
REMARK VINA RESULT:    -3.781      1.278      3.939
REMARK INTER + INTRA:          -5.312
REMARK INTER:                  -4.911
REMARK INTRA:                  -0.401
REMARK UNBOUND:                -0.426
REMARK SMILES CO[C@@]1(CO)O[C@H](CO)[C@@H](O)[C@H]1O
REMARK SMILES IDX 3 1 12 2 10 3 7 4 6 5 2 6 1 7 4 8 5 9 13 11 11 13 8 15 9 16
REMARK H PARENT 5 10 13 12 11 14 9 17
REMARK Flexibility Score: inf
ROOT
ATOM      1  C   UNL     1     -12.057   2.698 -18.171  1.00  0.00     0.221 C 
ATOM      2  C   UNL     1     -12.145   4.173 -18.597  1.00  0.00     0.207 C 
ATOM      3  C   UNL     1     -11.262   4.232 -19.820  1.00  0.00     0.180 C 
ATOM      4  C   UNL     1     -10.276   3.079 -19.589  1.00  0.00     0.179 C 
ATOM      5  O   UNL     1     -10.797   2.205 -18.607  1.00  0.00    -0.337 OA
ENDROOT
BRANCH   1   6
ATOM      6  O   UNL     1     -13.156   1.987 -18.749  1.00  0.00    -0.349 OA
ATOM      7  C   UNL     1     -12.957   0.589 -18.811  1.00  0.00     0.198 C 
ENDBRANCH   1   6
BRANCH   1   8
ATOM      8  C   UNL     1     -12.139   2.601 -16.632  1.00  0.00     0.224 C 
BRANCH   8   9
ATOM      9  O   UNL     1     -12.816   3.701 -16.086  1.00  0.00    -0.391 OA
ATOM     10  H   UNL     1     -13.649   3.348 -15.676  1.00  0.00     0.210 HD
ENDBRANCH   8   9
ENDBRANCH   1   8
BRANCH   2  11
ATOM     11  O   UNL     1     -13.460   4.577 -18.890  1.00  0.00    -0.385 OA
ATOM     12  H   UNL     1     -13.913   3.789 -19.288  1.00  0.00     0.211 HD
ENDBRANCH   2  11
BRANCH   3  13
ATOM     13  O   UNL     1     -11.989   4.058 -21.015  1.00  0.00    -0.387 OA
ATOM     14  H   UNL     1     -11.465   3.468 -21.618  1.00  0.00     0.211 HD
ENDBRANCH   3  13
BRANCH   4  15
ATOM     15  C   UNL     1      -8.903   3.580 -19.124  1.00  0.00     0.191 C 
BRANCH  15  16
ATOM     16  O   UNL     1      -8.873   4.980 -19.139  1.00  0.00    -0.394 OA
ATOM     17  H   UNL     1      -8.274   5.234 -19.889  1.00  0.00     0.210 HD
ENDBRANCH  15  16
ENDBRANCH   4  15
TORSDOF 7
ENDMDL
MODEL 9
REMARK VINA RESULT:    -3.594      1.429      3.772
REMARK INTER + INTRA:          -5.070
REMARK INTER:                  -4.782
REMARK INTRA:                  -0.288
REMARK UNBOUND:                -0.426
REMARK SMILES CO[C@@]1(CO)O[C@H](CO)[C@@H](O)[C@H]1O
REMARK SMILES IDX 3 1 12 2 10 3 7 4 6 5 2 6 1 7 4 8 5 9 13 11 11 13 8 15 9 16
REMARK H PARENT 5 10 13 12 11 14 9 17
REMARK Flexibility Score: inf
ROOT
ATOM      1  C   UNL     1     -12.238   3.762 -18.396  1.00  0.00     0.221 C 
ATOM      2  C   UNL     1     -12.340   2.475 -19.231  1.00  0.00     0.207 C 
ATOM      3  C   UNL     1     -10.908   2.006 -19.320  1.00  0.00     0.180 C 
ATOM      4  C   UNL     1     -10.109   3.308 -19.165  1.00  0.00     0.179 C 
ATOM      5  O   UNL     1     -10.944   4.309 -18.615  1.00  0.00    -0.337 OA
ENDROOT
BRANCH   1   6
ATOM      6  O   UNL     1     -12.472   3.438 -17.023  1.00  0.00    -0.349 OA
ATOM      7  C   UNL     1     -13.618   4.063 -16.480  1.00  0.00     0.198 C 
ENDBRANCH   1   6
BRANCH   1   8
ATOM      8  C   UNL     1     -13.306   4.771 -18.873  1.00  0.00     0.224 C 
BRANCH   8   9
ATOM      9  O   UNL     1     -13.328   4.869 -20.271  1.00  0.00    -0.391 OA
ATOM     10  H   UNL     1     -14.050   5.511 -20.500  1.00  0.00     0.210 HD
ENDBRANCH   8   9
ENDBRANCH   1   8
BRANCH   2  11
ATOM     11  O   UNL     1     -13.165   1.505 -18.636  1.00  0.00    -0.385 OA
ATOM     12  H   UNL     1     -13.890   1.316 -19.287  1.00  0.00     0.211 HD
ENDBRANCH   2  11
BRANCH   3  13
ATOM     13  O   UNL     1     -10.584   1.079 -18.309  1.00  0.00    -0.387 OA
ATOM     14  H   UNL     1     -11.213   1.207 -17.552  1.00  0.00     0.211 HD
ENDBRANCH   3  13
BRANCH   4  15
ATOM     15  C   UNL     1      -9.559   3.809 -20.506  1.00  0.00     0.191 C 
BRANCH  15  16
ATOM     16  O   UNL     1     -10.612   4.056 -21.395  1.00  0.00    -0.394 OA
ATOM     17  H   UNL     1     -11.229   4.676 -20.925  1.00  0.00     0.210 HD
ENDBRANCH  15  16
ENDBRANCH   4  15
TORSDOF 7
ENDMDL
