MODEL 1
REMARK VINA RESULT:    -3.810      0.000      0.000
REMARK INTER + INTRA:          -4.317
REMARK INTER:                  -4.255
REMARK INTRA:                  -0.062
REMARK UNBOUND:                -0.062
REMARK SMILES CCCC(=O)[O-]
REMARK SMILES IDX 3 1 4 2 5 3 6 4 2 5 1 6
REMARK H PARENT
REMARK Flexibility Score: inf
ROOT
ATOM      1  C   UNL     1      18.040  -7.869  22.579  1.00  0.00     0.052 C 
ENDROOT
BRANCH   1   2
ATOM      2  C   UNL     1      19.471  -7.794  23.020  1.00  0.00     0.041 C 
ATOM      3  O   UNL     1      19.836  -6.911  23.838  1.00  0.00    -0.550 OA
ATOM      4  O   UNL     1      20.406  -8.679  22.500  1.00  0.00    -0.550 OA
ENDBRANCH   1   2
BRANCH   1   5
ATOM      5  C   UNL     1      17.907  -7.750  21.056  1.00  0.00     0.003 C 
ATOM      6  C   UNL     1      18.552  -6.475  20.514  1.00  0.00     0.004 C 
ENDBRANCH   1   5
TORSDOF 2
ENDMDL
MODEL 2
REMARK VINA RESULT:    -3.555      2.349      3.246
REMARK INTER + INTRA:          -4.033
REMARK INTER:                  -4.013
REMARK INTRA:                  -0.020
REMARK UNBOUND:                -0.062
REMARK SMILES CCCC(=O)[O-]
REMARK SMILES IDX 3 1 4 2 5 3 6 4 2 5 1 6
REMARK H PARENT
REMARK Flexibility Score: inf
ROOT
ATOM      1  C   UNL     1      18.513  -7.894  22.093  1.00  0.00     0.052 C 
ENDROOT
BRANCH   1   2
ATOM      2  C   UNL     1      18.247  -7.125  20.834  1.00  0.00     0.041 C 
ATOM      3  O   UNL     1      17.328  -7.485  20.054  1.00  0.00    -0.550 OA
ATOM      4  O   UNL     1      19.037  -6.030  20.508  1.00  0.00    -0.550 OA
ENDBRANCH   1   2
BRANCH   1   5
ATOM      5  C   UNL     1      19.993  -8.273  22.225  1.00  0.00     0.003 C 
ATOM      6  C   UNL     1      20.520  -8.074  23.646  1.00  0.00     0.004 C 
ENDBRANCH   1   5
TORSDOF 2
ENDMDL
MODEL 3
REMARK VINA RESULT:    -3.470      1.489      2.077
REMARK INTER + INTRA:          -3.938
REMARK INTER:                  -3.982
REMARK INTRA:                   0.044
REMARK UNBOUND:                -0.062
REMARK SMILES CCCC(=O)[O-]
REMARK SMILES IDX 3 1 4 2 5 3 6 4 2 5 1 6
REMARK H PARENT
REMARK Flexibility Score: inf
ROOT
ATOM      1  C   UNL     1      19.223  -8.206  21.814  1.00  0.00     0.052 C 
ENDROOT
BRANCH   1   2
ATOM      2  C   UNL     1      20.413  -7.611  22.504  1.00  0.00     0.041 C 
ATOM      3  O   UNL     1      20.888  -6.513  22.115  1.00  0.00    -0.550 OA
ATOM      4  O   UNL     1      21.019  -8.288  23.555  1.00  0.00    -0.550 OA
ENDBRANCH   1   2
BRANCH   1   5
ATOM      5  C   UNL     1      17.906  -7.722  22.434  1.00  0.00     0.003 C 
ATOM      6  C   UNL     1      17.771  -8.125  23.902  1.00  0.00     0.004 C 
ENDBRANCH   1   5
TORSDOF 2
ENDMDL
MODEL 4
REMARK VINA RESULT:    -3.437      2.207      2.987
REMARK INTER + INTRA:          -3.900
REMARK INTER:                  -3.839
REMARK INTRA:                  -0.061
REMARK UNBOUND:                -0.062
REMARK SMILES CCCC(=O)[O-]
REMARK SMILES IDX 3 1 4 2 5 3 6 4 2 5 1 6
REMARK H PARENT
REMARK Flexibility Score: inf
ROOT
ATOM      1  C   UNL     1      19.424  -8.167  21.801  1.00  0.00     0.052 C 
ENDROOT
BRANCH   1   2
ATOM      2  C   UNL     1      18.684  -7.210  20.916  1.00  0.00     0.041 C 
ATOM      3  O   UNL     1      19.118  -6.041  20.745  1.00  0.00    -0.550 OA
ATOM      4  O   UNL     1      17.498  -7.600  20.307  1.00  0.00    -0.550 OA
ENDBRANCH   1   2
BRANCH   1   5
ATOM      5  C   UNL     1      19.291  -7.789  23.282  1.00  0.00     0.003 C 
ATOM      6  C   UNL     1      17.860  -7.940  23.795  1.00  0.00     0.004 C 
ENDBRANCH   1   5
TORSDOF 2
ENDMDL
MODEL 5
REMARK VINA RESULT:    -2.323     14.222     15.060
REMARK INTER + INTRA:          -2.657
REMARK INTER:                  -2.649
REMARK INTRA:                  -0.008
REMARK UNBOUND:                -0.062
REMARK SMILES CCCC(=O)[O-]
REMARK SMILES IDX 3 1 4 2 5 3 6 4 2 5 1 6
REMARK H PARENT
REMARK Flexibility Score: inf
ROOT
ATOM      1  C   UNL     1      18.157  -7.374   6.578  1.00  0.00     0.052 C 
ENDROOT
BRANCH   1   2
ATOM      2  C   UNL     1      18.875  -7.417   7.893  1.00  0.00     0.041 C 
ATOM      3  O   UNL     1      18.939  -6.387   8.614  1.00  0.00    -0.550 OA
ATOM      4  O   UNL     1      19.502  -8.586   8.306  1.00  0.00    -0.550 OA
ENDBRANCH   1   2
BRANCH   1   5
ATOM      5  C   UNL     1      16.657  -7.110   6.758  1.00  0.00     0.003 C 
ATOM      6  C   UNL     1      15.974  -6.719   5.448  1.00  0.00     0.004 C 
ENDBRANCH   1   5
TORSDOF 2
ENDMDL
MODEL 6
REMARK VINA RESULT:    -2.303     19.309     20.122
REMARK INTER + INTRA:          -2.634
REMARK INTER:                  -2.627
REMARK INTRA:                  -0.008
REMARK UNBOUND:                -0.062
REMARK SMILES CCCC(=O)[O-]
REMARK SMILES IDX 3 1 4 2 5 3 6 4 2 5 1 6
REMARK H PARENT
REMARK Flexibility Score: inf
ROOT
ATOM      1  C   UNL     1       6.736  -8.693   6.369  1.00  0.00     0.052 C 
ENDROOT
BRANCH   1   2
ATOM      2  C   UNL     1       6.570  -7.322   5.785  1.00  0.00     0.041 C 
ATOM      3  O   UNL     1       7.054  -7.052   4.655  1.00  0.00    -0.550 OA
ATOM      4  O   UNL     1       5.910  -6.335   6.505  1.00  0.00    -0.550 OA
ENDBRANCH   1   2
BRANCH   1   5
ATOM      5  C   UNL     1       7.429  -8.648   7.737  1.00  0.00     0.003 C 
ATOM      6  C   UNL     1       7.236  -9.940   8.529  1.00  0.00     0.004 C 
ENDBRANCH   1   5
TORSDOF 2
ENDMDL
MODEL 7
REMARK VINA RESULT:    -2.236     14.599     15.267
REMARK INTER + INTRA:          -2.559
REMARK INTER:                  -2.547
REMARK INTRA:                  -0.011
REMARK UNBOUND:                -0.062
REMARK SMILES CCCC(=O)[O-]
REMARK SMILES IDX 3 1 4 2 5 3 6 4 2 5 1 6
REMARK H PARENT
REMARK Flexibility Score: inf
ROOT
ATOM      1  C   UNL     1      17.555  -7.420   6.358  1.00  0.00     0.052 C 
ENDROOT
BRANCH   1   2
ATOM      2  C   UNL     1      18.644  -7.570   7.377  1.00  0.00     0.041 C 
ATOM      3  O   UNL     1      19.510  -8.474   7.249  1.00  0.00    -0.550 OA
ATOM      4  O   UNL     1      18.681  -6.733   8.485  1.00  0.00    -0.550 OA
ENDBRANCH   1   2
BRANCH   1   5
ATOM      5  C   UNL     1      16.241  -6.952   6.996  1.00  0.00     0.003 C 
ATOM      6  C   UNL     1      15.057  -7.836   6.605  1.00  0.00     0.004 C 
ENDBRANCH   1   5
TORSDOF 2
ENDMDL
MODEL 8
REMARK VINA RESULT:    -2.186     14.625     15.719
REMARK INTER + INTRA:          -2.504
REMARK INTER:                  -2.475
REMARK INTRA:                  -0.029
REMARK UNBOUND:                -0.062
REMARK SMILES CCCC(=O)[O-]
REMARK SMILES IDX 3 1 4 2 5 3 6 4 2 5 1 6
REMARK H PARENT
REMARK Flexibility Score: inf
ROOT
ATOM      1  C   UNL     1      18.809  -7.144   5.998  1.00  0.00     0.052 C 
ENDROOT
BRANCH   1   2
ATOM      2  C   UNL     1      18.979  -7.567   7.425  1.00  0.00     0.041 C 
ATOM      3  O   UNL     1      19.458  -8.698   7.698  1.00  0.00    -0.550 OA
ATOM      4  O   UNL     1      18.575  -6.725   8.454  1.00  0.00    -0.550 OA
ENDBRANCH   1   2
BRANCH   1   5
ATOM      5  C   UNL     1      20.156  -7.034   5.273  1.00  0.00     0.003 C 
ATOM      6  C   UNL     1      20.659  -5.594   5.194  1.00  0.00     0.004 C 
ENDBRANCH   1   5
TORSDOF 2
ENDMDL
MODEL 9
REMARK VINA RESULT:    -2.083     17.872     18.300
REMARK INTER + INTRA:          -2.388
REMARK INTER:                  -2.349
REMARK INTRA:                  -0.040
REMARK UNBOUND:                -0.062
REMARK SMILES CCCC(=O)[O-]
REMARK SMILES IDX 3 1 4 2 5 3 6 4 2 5 1 6
REMARK H PARENT
REMARK Flexibility Score: inf
ROOT
ATOM      1  C   UNL     1      12.332   9.710  21.612  1.00  0.00     0.052 C 
ENDROOT
BRANCH   1   2
ATOM      2  C   UNL     1      13.830   9.681  21.669  1.00  0.00     0.041 C 
ATOM      3  O   UNL     1      14.495   9.328  20.661  1.00  0.00    -0.550 OA
ATOM      4  O   UNL     1      14.488  10.011  22.847  1.00  0.00    -0.550 OA
ENDBRANCH   1   2
BRANCH   1   5
ATOM      5  C   UNL     1      11.714   9.878  23.006  1.00  0.00     0.003 C 
ATOM      6  C   UNL     1      11.274   8.546  23.612  1.00  0.00     0.004 C 
ENDBRANCH   1   5
TORSDOF 2
ENDMDL
