MODEL 1
REMARK VINA RESULT:    -5.856      0.000      0.000
REMARK INTER + INTRA:          -9.283
REMARK INTER:                  -8.938
REMARK INTRA:                  -0.345
REMARK UNBOUND:                -0.345
REMARK SMILES CC1=CCC[C@@H](C)C(=O)C[C@@H](C(C)C)C(=O)C1
REMARK SMILES IDX 8 1 9 2 6 3 7 4 5 5 4 6 3 7 2 8 1 9 10 11 11 12 15 13 16 14
REMARK SMILES IDX 17 15 12 17 13 18 14 19
REMARK H PARENT
REMARK Flexibility Score: 70.00
ROOT
ATOM      1  C   UNL     1      26.866  55.887 139.457  1.00  0.00     0.136 C 
ATOM      2  O   UNL     1      26.746  54.800 138.909  1.00  0.00    -0.299 OA
ENDROOT
BRANCH   1   3
ATOM      3  C   UNL     1      26.044  57.048 138.918  1.00  0.00     0.053 C 
ATOM      4  C   UNL     1      24.537  56.925 139.197  1.00  0.00     0.016 C 
BRANCH   3   5
ATOM      5  C   UNL     1      26.373  57.352 137.439  1.00  0.00     0.015 C 
BRANCH   5   6
ATOM      6  C   UNL     1      27.618  58.237 137.239  1.00  0.00     0.028 C 
BRANCH   6   7
ATOM      7  C   UNL     1      27.622  59.455 138.132  1.00  0.00    -0.028 C 
ATOM      8  C   UNL     1      28.501  59.686 139.139  1.00  0.00    -0.070 CG0
ATOM      9  C   UNL     1      28.399  61.002 139.868  1.00  0.00     0.039 C 
ATOM     10  G   UNL     1      29.553  58.679 139.591  1.00  0.00     0.000 G0
ENDBRANCH   6   7
ENDBRANCH   5   6
ENDBRANCH   3   5
ENDBRANCH   1   3
BRANCH   1  11
ATOM     11  C   UNL     1      27.847  56.000 140.611  1.00  0.00     0.087 C 
BRANCH  11  12
ATOM     12  C   UNL     1      27.895  57.439 141.199  1.00  0.00     0.066 C 
BRANCH  12  13
ATOM     13  C   UNL     1      29.267  58.040 140.936  1.00  0.00     0.140 C 
ATOM     14  O   UNL     1      30.122  58.019 141.812  1.00  0.00    -0.299 OA
BRANCH  13  15
ATOM     15  C   UNL     1      29.570  58.688 139.608  1.00  0.00     0.106 CG0
ATOM     16  G   UNL     1      28.495  59.665 139.146  1.00  0.00     0.000 G0
ENDBRANCH  13  15
ENDBRANCH  12  13
BRANCH  12  17
ATOM     17  C   UNL     1      27.534  57.497 142.720  1.00  0.00    -0.006 C 
ATOM     18  C   UNL     1      26.411  56.511 143.101  1.00  0.00     0.008 C 
ATOM     19  C   UNL     1      27.096  58.917 143.132  1.00  0.00     0.008 C 
ENDBRANCH  12  17
ENDBRANCH  11  12
ENDBRANCH   1  11
TORSDOF 1
ENDMDL
MODEL 2
REMARK VINA RESULT:    -5.427      0.920      1.301
REMARK INTER + INTRA:          -8.627
REMARK INTER:                  -8.387
REMARK INTRA:                  -0.240
REMARK UNBOUND:                -0.345
REMARK SMILES CC1=CCC[C@@H](C)C(=O)C[C@@H](C(C)C)C(=O)C1
REMARK SMILES IDX 8 1 9 2 6 3 7 4 5 5 4 6 3 7 2 8 1 9 10 11 11 12 15 13 16 14
REMARK SMILES IDX 17 15 12 17 13 18 14 19
REMARK H PARENT
REMARK Flexibility Score: 70.00
ROOT
ATOM      1  C   UNL     1      26.743  56.123 139.892  1.00  0.00     0.136 C 
ATOM      2  O   UNL     1      26.655  55.037 139.334  1.00  0.00    -0.299 OA
ENDROOT
BRANCH   1   3
ATOM      3  C   UNL     1      25.899  57.267 139.351  1.00  0.00     0.053 C 
ATOM      4  C   UNL     1      24.386  57.002 139.400  1.00  0.00     0.016 C 
BRANCH   3   5
ATOM      5  C   UNL     1      26.395  57.748 137.968  1.00  0.00     0.015 C 
BRANCH   5   6
ATOM      6  C   UNL     1      27.304  58.991 138.021  1.00  0.00     0.028 C 
BRANCH   6   7
ATOM      7  C   UNL     1      28.758  58.647 138.241  1.00  0.00    -0.028 C 
ATOM      8  C   UNL     1      29.427  58.777 139.413  1.00  0.00    -0.070 CG0
ATOM      9  C   UNL     1      30.857  58.300 139.459  1.00  0.00     0.039 C 
ATOM     10  G   UNL     1      28.825  59.406 140.664  1.00  0.00     0.000 G0
ENDBRANCH   6   7
ENDBRANCH   5   6
ENDBRANCH   3   5
ENDBRANCH   1   3
BRANCH   1  11
ATOM     11  C   UNL     1      27.705  56.251 141.059  1.00  0.00     0.087 C 
BRANCH  11  12
ATOM     12  C   UNL     1      27.441  57.533 141.898  1.00  0.00     0.066 C 
BRANCH  12  13
ATOM     13  C   UNL     1      28.662  58.438 141.825  1.00  0.00     0.140 C 
ATOM     14  O   UNL     1      29.505  58.401 142.711  1.00  0.00    -0.299 OA
BRANCH  13  15
ATOM     15  C   UNL     1      28.825  59.402 140.676  1.00  0.00     0.106 CG0
ATOM     16  G   UNL     1      29.426  58.768 139.427  1.00  0.00     0.000 G0
ENDBRANCH  13  15
ENDBRANCH  12  13
BRANCH  12  17
ATOM     17  C   UNL     1      27.049  57.232 143.382  1.00  0.00    -0.006 C 
ATOM     18  C   UNL     1      25.858  56.258 143.493  1.00  0.00     0.008 C 
ATOM     19  C   UNL     1      26.691  58.529 144.135  1.00  0.00     0.008 C 
ENDBRANCH  12  17
ENDBRANCH  11  12
ENDBRANCH   1  11
TORSDOF 1
ENDMDL
MODEL 3
REMARK VINA RESULT:    -5.242      1.897      4.008
REMARK INTER + INTRA:          -8.345
REMARK INTER:                  -8.008
REMARK INTRA:                  -0.337
REMARK UNBOUND:                -0.345
REMARK SMILES CC1=CCC[C@@H](C)C(=O)C[C@@H](C(C)C)C(=O)C1
REMARK SMILES IDX 8 1 9 2 6 3 7 4 5 5 4 6 3 7 2 8 1 9 10 11 11 12 15 13 16 14
REMARK SMILES IDX 17 15 12 17 13 18 14 19
REMARK H PARENT
REMARK Flexibility Score: 70.00
ROOT
ATOM      1  C   UNL     1      26.282  57.437 142.201  1.00  0.00     0.136 C 
ATOM      2  O   UNL     1      25.634  56.580 142.787  1.00  0.00    -0.299 OA
ENDROOT
BRANCH   1   3
ATOM      3  C   UNL     1      27.217  58.308 143.027  1.00  0.00     0.053 C 
ATOM      4  C   UNL     1      27.149  59.802 142.674  1.00  0.00     0.016 C 
BRANCH   3   5
ATOM      5  C   UNL     1      28.656  57.746 143.054  1.00  0.00     0.015 C 
BRANCH   5   6
ATOM      6  C   UNL     1      29.708  58.677 142.422  1.00  0.00     0.028 C 
BRANCH   6   7
ATOM      7  C   UNL     1      30.476  58.019 141.300  1.00  0.00    -0.028 C 
ATOM      8  C   UNL     1      30.156  58.088 139.984  1.00  0.00    -0.070 CG0
ATOM      9  C   UNL     1      31.095  57.434 139.001  1.00  0.00     0.039 C 
ATOM     10  G   UNL     1      28.891  58.755 139.456  1.00  0.00     0.000 G0
ENDBRANCH   6   7
ENDBRANCH   5   6
ENDBRANCH   3   5
ENDBRANCH   1   3
BRANCH   1  11
ATOM     11  C   UNL     1      26.081  57.584 140.703  1.00  0.00     0.087 C 
BRANCH  11  12
ATOM     12  C   UNL     1      27.158  56.813 139.889  1.00  0.00     0.066 C 
BRANCH  12  13
ATOM     13  C   UNL     1      27.840  57.775 138.927  1.00  0.00     0.140 C 
ATOM     14  O   UNL     1      27.570  57.740 137.734  1.00  0.00    -0.299 OA
BRANCH  13  15
ATOM     15  C   UNL     1      28.869  58.753 139.435  1.00  0.00     0.106 CG0
ATOM     16  G   UNL     1      30.136  58.089 139.964  1.00  0.00     0.000 G0
ENDBRANCH  13  15
ENDBRANCH  12  13
BRANCH  12  17
ATOM     17  C   UNL     1      26.589  55.567 139.134  1.00  0.00    -0.006 C 
ATOM     18  C   UNL     1      25.142  55.233 139.550  1.00  0.00     0.008 C 
ATOM     19  C   UNL     1      27.466  54.323 139.378  1.00  0.00     0.008 C 
ENDBRANCH  12  17
ENDBRANCH  11  12
ENDBRANCH   1  11
TORSDOF 1
ENDMDL
MODEL 4
REMARK VINA RESULT:    -5.034      2.013      4.903
REMARK INTER + INTRA:          -8.027
REMARK INTER:                  -8.078
REMARK INTRA:                   0.050
REMARK UNBOUND:                -0.345
REMARK SMILES CC1=CCC[C@@H](C)C(=O)C[C@@H](C(C)C)C(=O)C1
REMARK SMILES IDX 8 1 9 2 6 3 7 4 5 5 4 6 3 7 2 8 1 9 10 11 11 12 15 13 16 14
REMARK SMILES IDX 17 15 12 17 13 18 14 19
REMARK H PARENT
REMARK Flexibility Score: 70.00
ROOT
ATOM      1  C   UNL     1      27.775  59.728 141.179  1.00  0.00     0.136 C 
ATOM      2  O   UNL     1      26.771  60.425 141.137  1.00  0.00    -0.299 OA
ENDROOT
BRANCH   1   3
ATOM      3  C   UNL     1      28.244  59.243 142.543  1.00  0.00     0.053 C 
ATOM      4  C   UNL     1      29.612  58.542 142.517  1.00  0.00     0.016 C 
BRANCH   3   5
ATOM      5  C   UNL     1      27.151  58.432 143.276  1.00  0.00     0.015 C 
BRANCH   5   6
ATOM      6  C   UNL     1      27.042  56.965 142.820  1.00  0.00     0.028 C 
BRANCH   6   7
ATOM      7  C   UNL     1      25.973  56.752 141.774  1.00  0.00    -0.028 C 
ATOM      8  C   UNL     1      26.169  56.194 140.554  1.00  0.00    -0.070 CG0
ATOM      9  C   UNL     1      24.959  55.988 139.677  1.00  0.00     0.039 C 
ATOM     10  G   UNL     1      27.540  55.802 140.014  1.00  0.00     0.000 G0
ENDBRANCH   6   7
ENDBRANCH   5   6
ENDBRANCH   3   5
ENDBRANCH   1   3
BRANCH   1  11
ATOM     11  C   UNL     1      28.490  59.424 139.875  1.00  0.00     0.087 C 
BRANCH  11  12
ATOM     12  C   UNL     1      27.833  58.241 139.108  1.00  0.00     0.066 C 
BRANCH  12  13
ATOM     13  C   UNL     1      28.438  56.934 139.596  1.00  0.00     0.140 C 
ATOM     14  O   UNL     1      29.654  56.803 139.647  1.00  0.00    -0.299 OA
BRANCH  13  15
ATOM     15  C   UNL     1      27.543  55.785 139.992  1.00  0.00     0.106 CG0
ATOM     16  G   UNL     1      26.193  56.225 140.546  1.00  0.00     0.000 G0
ENDBRANCH  13  15
ENDBRANCH  12  13
BRANCH  12  17
ATOM     17  C   UNL     1      27.948  58.372 137.553  1.00  0.00    -0.006 C 
ATOM     18  C   UNL     1      28.094  59.836 137.092  1.00  0.00     0.008 C 
ATOM     19  C   UNL     1      26.718  57.760 136.854  1.00  0.00     0.008 C 
ENDBRANCH  12  17
ENDBRANCH  11  12
ENDBRANCH   1  11
TORSDOF 1
ENDMDL
MODEL 5
REMARK VINA RESULT:    -4.913      1.929      4.086
REMARK INTER + INTRA:          -7.843
REMARK INTER:                  -7.344
REMARK INTRA:                  -0.499
REMARK UNBOUND:                -0.345
REMARK SMILES CC1=CCC[C@@H](C)C(=O)C[C@@H](C(C)C)C(=O)C1
REMARK SMILES IDX 8 1 9 2 6 3 7 4 5 5 4 6 3 7 2 8 1 9 10 11 11 12 15 13 16 14
REMARK SMILES IDX 17 15 12 17 13 18 14 19
REMARK H PARENT
REMARK Flexibility Score: 70.00
ROOT
ATOM      1  C   UNL     1      28.689  59.788 141.223  1.00  0.00     0.136 C 
ATOM      2  O   UNL     1      28.945  60.958 140.973  1.00  0.00    -0.299 OA
ENDROOT
BRANCH   1   3
ATOM      3  C   UNL     1      29.856  58.838 141.445  1.00  0.00     0.053 C 
ATOM      4  C   UNL     1      30.767  59.235 142.618  1.00  0.00     0.016 C 
BRANCH   3   5
ATOM      5  C   UNL     1      30.628  58.556 140.136  1.00  0.00     0.015 C 
BRANCH   5   6
ATOM      6  C   UNL     1      30.217  57.250 139.431  1.00  0.00     0.028 C 
BRANCH   6   7
ATOM      7  C   UNL     1      29.164  57.462 138.368  1.00  0.00    -0.028 C 
ATOM      8  C   UNL     1      27.864  57.088 138.465  1.00  0.00    -0.070 CG0
ATOM      9  C   UNL     1      26.942  57.462 137.332  1.00  0.00     0.039 C 
ATOM     10  G   UNL     1      27.301  56.285 139.633  1.00  0.00     0.000 G0
ENDBRANCH   6   7
ENDBRANCH   5   6
ENDBRANCH   3   5
ENDBRANCH   1   3
BRANCH   1  11
ATOM     11  C   UNL     1      27.230  59.369 141.265  1.00  0.00     0.087 C 
BRANCH  11  12
ATOM     12  C   UNL     1      27.058  57.887 141.705  1.00  0.00     0.066 C 
BRANCH  12  13
ATOM     13  C   UNL     1      26.426  57.099 140.568  1.00  0.00     0.140 C 
ATOM     14  O   UNL     1      25.212  57.113 140.416  1.00  0.00    -0.299 OA
BRANCH  13  15
ATOM     15  C   UNL     1      27.288  56.277 139.643  1.00  0.00     0.106 CG0
ATOM     16  G   UNL     1      27.852  57.069 138.468  1.00  0.00     0.000 G0
ENDBRANCH  13  15
ENDBRANCH  12  13
BRANCH  12  17
ATOM     17  C   UNL     1      26.240  57.726 143.029  1.00  0.00    -0.006 C 
ATOM     18  C   UNL     1      26.768  58.625 144.165  1.00  0.00     0.008 C 
ATOM     19  C   UNL     1      26.259  56.263 143.516  1.00  0.00     0.008 C 
ENDBRANCH  12  17
ENDBRANCH  11  12
ENDBRANCH   1  11
TORSDOF 1
ENDMDL
MODEL 6
REMARK VINA RESULT:    -4.828      1.812      2.870
REMARK INTER + INTRA:          -7.713
REMARK INTER:                  -7.583
REMARK INTRA:                  -0.130
REMARK UNBOUND:                -0.345
REMARK SMILES CC1=CCC[C@@H](C)C(=O)C[C@@H](C(C)C)C(=O)C1
REMARK SMILES IDX 8 1 9 2 6 3 7 4 5 5 4 6 3 7 2 8 1 9 10 11 11 12 15 13 16 14
REMARK SMILES IDX 17 15 12 17 13 18 14 19
REMARK H PARENT
REMARK Flexibility Score: 70.00
ROOT
ATOM      1  C   UNL     1      27.499  57.184 141.970  1.00  0.00     0.136 C 
ATOM      2  O   UNL     1      27.039  57.694 142.982  1.00  0.00    -0.299 OA
ENDROOT
BRANCH   1   3
ATOM      3  C   UNL     1      26.557  56.368 141.097  1.00  0.00     0.053 C 
ATOM      4  C   UNL     1      27.267  55.315 140.231  1.00  0.00     0.016 C 
BRANCH   3   5
ATOM      5  C   UNL     1      25.585  57.267 140.299  1.00  0.00     0.015 C 
BRANCH   5   6
ATOM      6  C   UNL     1      25.836  57.275 138.780  1.00  0.00     0.028 C 
BRANCH   6   7
ATOM      7  C   UNL     1      26.453  58.565 138.293  1.00  0.00    -0.028 C 
ATOM      8  C   UNL     1      27.765  58.748 138.005  1.00  0.00    -0.070 CG0
ATOM      9  C   UNL     1      28.178  60.088 137.449  1.00  0.00     0.039 C 
ATOM     10  G   UNL     1      28.839  57.693 138.246  1.00  0.00     0.000 G0
ENDBRANCH   6   7
ENDBRANCH   5   6
ENDBRANCH   3   5
ENDBRANCH   1   3
BRANCH   1  11
ATOM     11  C   UNL     1      28.977  57.378 141.680  1.00  0.00     0.087 C 
BRANCH  11  12
ATOM     12  C   UNL     1      29.231  58.565 140.708  1.00  0.00     0.066 C 
BRANCH  12  13
ATOM     13  C   UNL     1      29.782  58.026 139.396  1.00  0.00     0.140 C 
ATOM     14  O   UNL     1      30.989  57.882 139.253  1.00  0.00    -0.299 OA
BRANCH  13  15
ATOM     15  C   UNL     1      28.847  57.695 138.260  1.00  0.00     0.106 CG0
ATOM     16  G   UNL     1      27.777  58.755 138.021  1.00  0.00     0.000 G0
ENDBRANCH  13  15
ENDBRANCH  12  13
BRANCH  12  17
ATOM     17  C   UNL     1      30.171  59.664 141.307  1.00  0.00    -0.006 C 
ATOM     18  C   UNL     1      30.868  59.204 142.603  1.00  0.00     0.008 C 
ATOM     19  C   UNL     1      29.387  60.958 141.606  1.00  0.00     0.008 C 
ENDBRANCH  12  17
ENDBRANCH  11  12
ENDBRANCH   1  11
TORSDOF 1
ENDMDL
MODEL 7
REMARK VINA RESULT:    -4.729      2.031      4.023
REMARK INTER + INTRA:          -7.563
REMARK INTER:                  -7.791
REMARK INTRA:                   0.228
REMARK UNBOUND:                -0.345
REMARK SMILES CC1=CCC[C@@H](C)C(=O)C[C@@H](C(C)C)C(=O)C1
REMARK SMILES IDX 8 1 9 2 6 3 7 4 5 5 4 6 3 7 2 8 1 9 10 11 11 12 15 13 16 14
REMARK SMILES IDX 17 15 12 17 13 18 14 19
REMARK H PARENT
REMARK Flexibility Score: 70.00
ROOT
ATOM      1  C   UNL     1      25.643  57.290 139.229  1.00  0.00     0.136 C 
ATOM      2  O   UNL     1      24.801  56.935 138.416  1.00  0.00    -0.299 OA
ENDROOT
BRANCH   1   3
ATOM      3  C   UNL     1      26.293  56.217 140.090  1.00  0.00     0.053 C 
ATOM      4  C   UNL     1      26.679  54.946 139.316  1.00  0.00     0.016 C 
BRANCH   3   5
ATOM      5  C   UNL     1      25.479  55.933 141.373  1.00  0.00     0.015 C 
BRANCH   5   6
ATOM      6  C   UNL     1      25.980  56.687 142.618  1.00  0.00     0.028 C 
BRANCH   6   7
ATOM      7  C   UNL     1      27.474  56.905 142.612  1.00  0.00    -0.028 C 
ATOM      8  C   UNL     1      28.092  58.111 142.672  1.00  0.00    -0.070 CG0
ATOM      9  C   UNL     1      29.599  58.122 142.740  1.00  0.00     0.039 C 
ATOM     10  G   UNL     1      27.350  59.443 142.639  1.00  0.00     0.000 G0
ENDBRANCH   6   7
ENDBRANCH   5   6
ENDBRANCH   3   5
ENDBRANCH   1   3
BRANCH   1  11
ATOM     11  C   UNL     1      25.952  58.772 139.337  1.00  0.00     0.087 C 
BRANCH  11  12
ATOM     12  C   UNL     1      27.323  59.036 140.023  1.00  0.00     0.066 C 
BRANCH  12  13
ATOM     13  C   UNL     1      27.115  59.960 141.213  1.00  0.00     0.140 C 
ATOM     14  O   UNL     1      26.784  61.124 141.034  1.00  0.00    -0.299 OA
BRANCH  13  15
ATOM     15  C   UNL     1      27.344  59.453 142.615  1.00  0.00     0.106 CG0
ATOM     16  G   UNL     1      28.081  58.120 142.671  1.00  0.00     0.000 G0
ENDBRANCH  13  15
ENDBRANCH  12  13
BRANCH  12  17
ATOM     17  C   UNL     1      28.403  59.607 139.045  1.00  0.00    -0.006 C 
ATOM     18  C   UNL     1      28.080  59.311 137.567  1.00  0.00     0.008 C 
ATOM     19  C   UNL     1      29.798  59.032 139.365  1.00  0.00     0.008 C 
ENDBRANCH  12  17
ENDBRANCH  11  12
ENDBRANCH   1  11
TORSDOF 1
ENDMDL
MODEL 8
REMARK VINA RESULT:    -4.707      1.603      3.265
REMARK INTER + INTRA:          -7.528
REMARK INTER:                  -7.910
REMARK INTRA:                   0.381
REMARK UNBOUND:                -0.345
REMARK SMILES CC1=CCC[C@@H](C)C(=O)C[C@@H](C(C)C)C(=O)C1
REMARK SMILES IDX 8 1 9 2 6 3 7 4 5 5 4 6 3 7 2 8 1 9 10 11 11 12 15 13 16 14
REMARK SMILES IDX 17 15 12 17 13 18 14 19
REMARK H PARENT
REMARK Flexibility Score: 70.00
ROOT
ATOM      1  C   UNL     1      27.275  58.151 137.629  1.00  0.00     0.136 C 
ATOM      2  O   UNL     1      28.186  57.625 137.004  1.00  0.00    -0.299 OA
ENDROOT
BRANCH   1   3
ATOM      3  C   UNL     1      27.226  59.671 137.666  1.00  0.00     0.053 C 
ATOM      4  C   UNL     1      28.272  60.349 136.766  1.00  0.00     0.016 C 
BRANCH   3   5
ATOM      5  C   UNL     1      27.216  60.214 139.113  1.00  0.00     0.015 C 
BRANCH   5   6
ATOM      6  C   UNL     1      28.602  60.252 139.783  1.00  0.00     0.028 C 
BRANCH   6   7
ATOM      7  C   UNL     1      28.616  59.592 141.141  1.00  0.00    -0.028 C 
ATOM      8  C   UNL     1      28.937  58.296 141.381  1.00  0.00    -0.070 CG0
ATOM      9  C   UNL     1      28.976  57.839 142.818  1.00  0.00     0.039 C 
ATOM     10  G   UNL     1      29.221  57.279 140.281  1.00  0.00     0.000 G0
ENDBRANCH   6   7
ENDBRANCH   5   6
ENDBRANCH   3   5
ENDBRANCH   1   3
BRANCH   1  11
ATOM     11  C   UNL     1      26.284  57.249 138.343  1.00  0.00     0.087 C 
BRANCH  11  12
ATOM     12  C   UNL     1      26.666  57.022 139.833  1.00  0.00     0.066 C 
BRANCH  12  13
ATOM     13  C   UNL     1      28.059  56.416 139.904  1.00  0.00     0.140 C 
ATOM     14  O   UNL     1      28.221  55.225 139.674  1.00  0.00    -0.299 OA
BRANCH  13  15
ATOM     15  C   UNL     1      29.241  57.273 140.284  1.00  0.00     0.106 CG0
ATOM     16  G   UNL     1      28.930  58.293 141.373  1.00  0.00     0.000 G0
ENDBRANCH  13  15
ENDBRANCH  12  13
BRANCH  12  17
ATOM     17  C   UNL     1      25.628  56.146 140.610  1.00  0.00    -0.006 C 
ATOM     18  C   UNL     1      24.211  56.232 140.008  1.00  0.00     0.008 C 
ATOM     19  C   UNL     1      25.554  56.561 142.094  1.00  0.00     0.008 C 
ENDBRANCH  12  17
ENDBRANCH  11  12
ENDBRANCH   1  11
TORSDOF 1
ENDMDL
MODEL 9
REMARK VINA RESULT:    -4.675      2.085      3.914
REMARK INTER + INTRA:          -7.480
REMARK INTER:                  -7.396
REMARK INTRA:                  -0.084
REMARK UNBOUND:                -0.345
REMARK SMILES CC1=CCC[C@@H](C)C(=O)C[C@@H](C(C)C)C(=O)C1
REMARK SMILES IDX 8 1 9 2 6 3 7 4 5 5 4 6 3 7 2 8 1 9 10 11 11 12 15 13 16 14
REMARK SMILES IDX 17 15 12 17 13 18 14 19
REMARK H PARENT
REMARK Flexibility Score: 70.00
ROOT
ATOM      1  C   UNL     1      28.572  57.936 139.333  1.00  0.00     0.136 C 
ATOM      2  O   UNL     1      29.763  58.171 139.182  1.00  0.00    -0.299 OA
ENDROOT
BRANCH   1   3
ATOM      3  C   UNL     1      27.576  58.954 138.797  1.00  0.00     0.053 C 
ATOM      4  C   UNL     1      27.806  59.335 137.326  1.00  0.00     0.016 C 
BRANCH   3   5
ATOM      5  C   UNL     1      27.437  60.175 139.735  1.00  0.00     0.015 C 
BRANCH   5   6
ATOM      6  C   UNL     1      28.273  60.078 141.025  1.00  0.00     0.028 C 
BRANCH   6   7
ATOM      7  C   UNL     1      27.427  60.095 142.276  1.00  0.00    -0.028 C 
ATOM      8  C   UNL     1      27.240  59.043 143.112  1.00  0.00    -0.070 CG0
ATOM      9  C   UNL     1      26.426  59.278 144.360  1.00  0.00     0.039 C 
ATOM     10  G   UNL     1      27.774  57.642 142.839  1.00  0.00     0.000 G0
ENDBRANCH   6   7
ENDBRANCH   5   6
ENDBRANCH   3   5
ENDBRANCH   1   3
BRANCH   1  11
ATOM     11  C   UNL     1      28.181  56.665 140.065  1.00  0.00     0.087 C 
BRANCH  11  12
ATOM     12  C   UNL     1      26.731  56.732 140.621  1.00  0.00     0.066 C 
BRANCH  12  13
ATOM     13  C   UNL     1      26.779  56.750 142.141  1.00  0.00     0.140 C 
ATOM     14  O   UNL     1      25.997  56.063 142.786  1.00  0.00    -0.299 OA
BRANCH  13  15
ATOM     15  C   UNL     1      27.769  57.633 142.859  1.00  0.00     0.106 CG0
ATOM     16  G   UNL     1      27.250  59.042 143.124  1.00  0.00     0.000 G0
ENDBRANCH  13  15
ENDBRANCH  12  13
BRANCH  12  17
ATOM     17  C   UNL     1      25.814  55.577 140.098  1.00  0.00    -0.006 C 
ATOM     18  C   UNL     1      26.394  54.879 138.851  1.00  0.00     0.008 C 
ATOM     19  C   UNL     1      24.405  56.101 139.752  1.00  0.00     0.008 C 
ENDBRANCH  12  17
ENDBRANCH  11  12
ENDBRANCH   1  11
TORSDOF 1
ENDMDL
