MODEL 1
REMARK VINA RESULT:    -4.557      0.000      0.000
REMARK INTER + INTRA:          -6.150
REMARK INTER:                  -5.623
REMARK INTRA:                  -0.527
REMARK UNBOUND:                -0.527
REMARK SMILES COc1ccc(-c2cc3cc(O)c(OC)cc3o2)c(O)c1
REMARK SMILES IDX 7 1 8 2 9 3 10 4 11 5 13 6 16 7 17 8 18 9 6 10 3 11 21 12
REMARK SMILES IDX 4 13 19 14 5 15 2 16 1 17 20 18 12 20 14 22 15 23
REMARK H PARENT 20 19 12 21
REMARK Flexibility Score: inf
ROOT
ATOM      1  C   UNL     1      58.445  42.750 123.694  1.00  0.00     0.139 A 
ATOM      2  C   UNL     1      59.116  41.527 123.624  1.00  0.00     0.060 A 
ATOM      3  C   UNL     1      58.120  40.600 123.434  1.00  0.00     0.025 A 
ATOM      4  C   UNL     1      58.177  39.218 123.295  1.00  0.00     0.062 A 
ATOM      5  C   UNL     1      56.964  38.522 123.106  1.00  0.00     0.158 A 
ATOM      6  C   UNL     1      55.732  39.223 123.063  1.00  0.00     0.164 A 
ATOM      7  C   UNL     1      55.720  40.633 123.211  1.00  0.00     0.098 A 
ATOM      8  C   UNL     1      56.937  41.282 123.393  1.00  0.00     0.138 A 
ATOM      9  O   UNL     1      57.143  42.567 123.547  1.00  0.00    -0.456 OA
ENDROOT
BRANCH   1  10
ATOM     10  C   UNL     1      59.082  44.074 123.871  1.00  0.00     0.059 A 
ATOM     11  C   UNL     1      60.237  46.646 124.056  1.00  0.00     0.122 A 
ATOM     12  C   UNL     1      59.296  46.221 125.000  1.00  0.00     0.093 A 
ATOM     13  C   UNL     1      60.610  45.772 123.022  1.00  0.00     0.047 A 
ATOM     14  C   UNL     1      58.729  44.944 124.932  1.00  0.00     0.130 A 
ATOM     15  C   UNL     1      60.038  44.501 122.932  1.00  0.00     0.020 A 
BRANCH  11  16
ATOM     16  O   UNL     1      60.775  47.934 124.184  1.00  0.00    -0.497 OA
ATOM     17  C   UNL     1      61.125  48.541 125.425  1.00  0.00     0.278 C 
ENDBRANCH  11  16
BRANCH  14  18
ATOM     18  O   UNL     1      57.849  44.568 125.949  1.00  0.00    -0.507 OA
ATOM     19  H   UNL     1      58.084  43.902 126.671  1.00  0.00     0.293 HD
ENDBRANCH  14  18
ENDBRANCH   1  10
BRANCH   5  20
ATOM     20  O   UNL     1      56.969  37.137 122.962  1.00  0.00    -0.504 OA
ATOM     21  H   UNL     1      56.993  36.520 123.765  1.00  0.00     0.293 HD
ENDBRANCH   5  20
BRANCH   6  22
ATOM     22  O   UNL     1      54.552  38.487 122.876  1.00  0.00    -0.493 OA
ATOM     23  C   UNL     1      53.755  37.964 123.932  1.00  0.00     0.278 C 
ENDBRANCH   6  22
TORSDOF 5
ENDMDL
MODEL 2
REMARK VINA RESULT:    -4.408     15.897     16.753
REMARK INTER + INTRA:          -5.966
REMARK INTER:                  -5.347
REMARK INTRA:                  -0.619
REMARK UNBOUND:                -0.527
REMARK SMILES COc1ccc(-c2cc3cc(O)c(OC)cc3o2)c(O)c1
REMARK SMILES IDX 7 1 8 2 9 3 10 4 11 5 13 6 16 7 17 8 18 9 6 10 3 11 21 12
REMARK SMILES IDX 4 13 19 14 5 15 2 16 1 17 20 18 12 20 14 22 15 23
REMARK H PARENT 20 19 12 21
REMARK Flexibility Score: inf
ROOT
ATOM      1  C   UNL     1      48.766  37.172 135.651  1.00  0.00     0.139 A 
ATOM      2  C   UNL     1      48.351  36.460 134.523  1.00  0.00     0.060 A 
ATOM      3  C   UNL     1      47.197  37.092 134.124  1.00  0.00     0.025 A 
ATOM      4  C   UNL     1      46.337  36.831 133.064  1.00  0.00     0.062 A 
ATOM      5  C   UNL     1      45.213  37.670 132.905  1.00  0.00     0.158 A 
ATOM      6  C   UNL     1      44.981  38.741 133.805  1.00  0.00     0.164 A 
ATOM      7  C   UNL     1      45.885  38.970 134.872  1.00  0.00     0.098 A 
ATOM      8  C   UNL     1      46.981  38.122 134.996  1.00  0.00     0.138 A 
ATOM      9  O   UNL     1      47.926  38.162 135.902  1.00  0.00    -0.456 OA
ENDROOT
BRANCH   1  10
ATOM     10  C   UNL     1      49.985  36.895 136.445  1.00  0.00     0.059 A 
ATOM     11  C   UNL     1      52.396  36.475 137.855  1.00  0.00     0.122 A 
ATOM     12  C   UNL     1      51.279  37.012 138.503  1.00  0.00     0.093 A 
ATOM     13  C   UNL     1      52.299  36.135 136.495  1.00  0.00     0.047 A 
ATOM     14  C   UNL     1      50.073  37.209 137.823  1.00  0.00     0.130 A 
ATOM     15  C   UNL     1      51.106  36.344 135.800  1.00  0.00     0.020 A 
BRANCH  11  16
ATOM     16  O   UNL     1      53.573  36.293 138.594  1.00  0.00    -0.497 OA
ATOM     17  C   UNL     1      54.838  35.966 138.025  1.00  0.00     0.278 C 
ENDBRANCH  11  16
BRANCH  14  18
ATOM     18  O   UNL     1      48.984  37.685 138.556  1.00  0.00    -0.507 OA
ATOM     19  H   UNL     1      48.959  38.598 138.989  1.00  0.00     0.293 HD
ENDBRANCH  14  18
ENDBRANCH   1  10
BRANCH   5  20
ATOM     20  O   UNL     1      44.321  37.449 131.858  1.00  0.00    -0.504 OA
ATOM     21  H   UNL     1      44.643  37.308 130.908  1.00  0.00     0.293 HD
ENDBRANCH   5  20
BRANCH   6  22
ATOM     22  O   UNL     1      43.849  39.546 133.605  1.00  0.00    -0.493 OA
ATOM     23  C   UNL     1      42.661  39.470 134.386  1.00  0.00     0.278 C 
ENDBRANCH   6  22
TORSDOF 5
ENDMDL
MODEL 3
REMARK VINA RESULT:    -4.361     15.329     16.662
REMARK INTER + INTRA:          -5.908
REMARK INTER:                  -5.500
REMARK INTRA:                  -0.408
REMARK UNBOUND:                -0.527
REMARK SMILES COc1ccc(-c2cc3cc(O)c(OC)cc3o2)c(O)c1
REMARK SMILES IDX 7 1 8 2 9 3 10 4 11 5 13 6 16 7 17 8 18 9 6 10 3 11 21 12
REMARK SMILES IDX 4 13 19 14 5 15 2 16 1 17 20 18 12 20 14 22 15 23
REMARK H PARENT 20 19 12 21
REMARK Flexibility Score: inf
ROOT
ATOM      1  C   UNL     1      48.882  37.765 135.842  1.00  0.00     0.139 A 
ATOM      2  C   UNL     1      48.033  38.855 136.040  1.00  0.00     0.060 A 
ATOM      3  C   UNL     1      46.969  38.617 135.202  1.00  0.00     0.025 A 
ATOM      4  C   UNL     1      45.815  39.354 134.964  1.00  0.00     0.062 A 
ATOM      5  C   UNL     1      44.886  38.845 134.033  1.00  0.00     0.158 A 
ATOM      6  C   UNL     1      45.135  37.618 133.366  1.00  0.00     0.164 A 
ATOM      7  C   UNL     1      46.325  36.899 133.640  1.00  0.00     0.098 A 
ATOM      8  C   UNL     1      47.215  37.433 134.565  1.00  0.00     0.138 A 
ATOM      9  O   UNL     1      48.361  36.932 134.957  1.00  0.00    -0.456 OA
ENDROOT
BRANCH   1  10
ATOM     10  C   UNL     1      50.170  37.538 136.537  1.00  0.00     0.059 A 
ATOM     11  C   UNL     1      52.660  37.273 137.843  1.00  0.00     0.122 A 
ATOM     12  C   UNL     1      51.473  36.957 138.510  1.00  0.00     0.093 A 
ATOM     13  C   UNL     1      52.600  37.711 136.510  1.00  0.00     0.047 A 
ATOM     14  C   UNL     1      50.233  37.067 137.870  1.00  0.00     0.130 A 
ATOM     15  C   UNL     1      51.368  37.843 135.866  1.00  0.00     0.020 A 
BRANCH  11  16
ATOM     16  O   UNL     1      53.871  37.134 138.536  1.00  0.00    -0.497 OA
ATOM     17  C   UNL     1      54.904  36.222 138.177  1.00  0.00     0.278 C 
ENDBRANCH  11  16
BRANCH  14  18
ATOM     18  O   UNL     1      49.098  36.667 138.580  1.00  0.00    -0.507 OA
ATOM     19  H   UNL     1      49.128  36.040 139.371  1.00  0.00     0.293 HD
ENDBRANCH  14  18
ENDBRANCH   1  10
BRANCH   5  20
ATOM     20  O   UNL     1      43.714  39.547 133.760  1.00  0.00    -0.504 OA
ATOM     21  H   UNL     1      43.550  40.471 134.141  1.00  0.00     0.293 HD
ENDBRANCH   5  20
BRANCH   6  22
ATOM     22  O   UNL     1      44.182  37.153 132.447  1.00  0.00    -0.493 OA
ATOM     23  C   UNL     1      43.363  36.006 132.649  1.00  0.00     0.278 C 
ENDBRANCH   6  22
TORSDOF 5
ENDMDL
MODEL 4
REMARK VINA RESULT:    -4.318      1.656      2.036
REMARK INTER + INTRA:          -5.855
REMARK INTER:                  -5.305
REMARK INTRA:                  -0.550
REMARK UNBOUND:                -0.527
REMARK SMILES COc1ccc(-c2cc3cc(O)c(OC)cc3o2)c(O)c1
REMARK SMILES IDX 7 1 8 2 9 3 10 4 11 5 13 6 16 7 17 8 18 9 6 10 3 11 21 12
REMARK SMILES IDX 4 13 19 14 5 15 2 16 1 17 20 18 12 20 14 22 15 23
REMARK H PARENT 20 19 12 21
REMARK Flexibility Score: inf
ROOT
ATOM      1  C   UNL     1      58.487  42.510 124.721  1.00  0.00     0.139 A 
ATOM      2  C   UNL     1      58.112  41.906 123.519  1.00  0.00     0.060 A 
ATOM      3  C   UNL     1      57.901  40.588 123.849  1.00  0.00     0.025 A 
ATOM      4  C   UNL     1      57.515  39.505 123.068  1.00  0.00     0.062 A 
ATOM      5  C   UNL     1      57.378  38.251 123.701  1.00  0.00     0.158 A 
ATOM      6  C   UNL     1      57.630  38.114 125.090  1.00  0.00     0.164 A 
ATOM      7  C   UNL     1      58.023  39.246 125.847  1.00  0.00     0.098 A 
ATOM      8  C   UNL     1      58.146  40.465 125.188  1.00  0.00     0.138 A 
ATOM      9  O   UNL     1      58.493  41.620 125.699  1.00  0.00    -0.456 OA
ENDROOT
BRANCH   1  10
ATOM     10  C   UNL     1      58.805  43.945 124.902  1.00  0.00     0.059 A 
ATOM     11  C   UNL     1      59.381  46.704 125.079  1.00  0.00     0.122 A 
ATOM     12  C   UNL     1      58.329  46.151 125.815  1.00  0.00     0.093 A 
ATOM     13  C   UNL     1      60.157  45.867 124.260  1.00  0.00     0.047 A 
ATOM     14  C   UNL     1      58.042  44.783 125.751  1.00  0.00     0.130 A 
ATOM     15  C   UNL     1      59.870  44.504 124.173  1.00  0.00     0.020 A 
BRANCH  11  16
ATOM     16  O   UNL     1      59.623  48.081 125.192  1.00  0.00    -0.497 OA
ATOM     17  C   UNL     1      60.540  48.806 124.379  1.00  0.00     0.278 C 
ENDBRANCH  11  16
BRANCH  14  18
ATOM     18  O   UNL     1      57.020  44.295 126.567  1.00  0.00    -0.507 OA
ATOM     19  H   UNL     1      56.079  44.663 126.564  1.00  0.00     0.293 HD
ENDBRANCH  14  18
ENDBRANCH   1  10
BRANCH   5  20
ATOM     20  O   UNL     1      56.993  37.135 122.962  1.00  0.00    -0.504 OA
ATOM     21  H   UNL     1      56.709  37.214 121.992  1.00  0.00     0.293 HD
ENDBRANCH   5  20
BRANCH   6  22
ATOM     22  O   UNL     1      57.481  36.846 125.673  1.00  0.00    -0.493 OA
ATOM     23  C   UNL     1      56.284  36.379 126.284  1.00  0.00     0.278 C 
ENDBRANCH   6  22
TORSDOF 5
ENDMDL
MODEL 5
REMARK VINA RESULT:    -4.296     16.190     17.398
REMARK INTER + INTRA:          -5.828
REMARK INTER:                  -5.215
REMARK INTRA:                  -0.613
REMARK UNBOUND:                -0.527
REMARK SMILES COc1ccc(-c2cc3cc(O)c(OC)cc3o2)c(O)c1
REMARK SMILES IDX 7 1 8 2 9 3 10 4 11 5 13 6 16 7 17 8 18 9 6 10 3 11 21 12
REMARK SMILES IDX 4 13 19 14 5 15 2 16 1 17 20 18 12 20 14 22 15 23
REMARK H PARENT 20 19 12 21
REMARK Flexibility Score: inf
ROOT
ATOM      1  C   UNL     1      47.118  38.117 135.268  1.00  0.00     0.139 A 
ATOM      2  C   UNL     1      46.675  39.436 135.390  1.00  0.00     0.060 A 
ATOM      3  C   UNL     1      45.493  39.466 134.687  1.00  0.00     0.025 A 
ATOM      4  C   UNL     1      44.601  40.506 134.452  1.00  0.00     0.062 A 
ATOM      5  C   UNL     1      43.452  40.227 133.682  1.00  0.00     0.158 A 
ATOM      6  C   UNL     1      43.227  38.925 133.169  1.00  0.00     0.164 A 
ATOM      7  C   UNL     1      44.165  37.895 133.433  1.00  0.00     0.098 A 
ATOM      8  C   UNL     1      45.284  38.208 134.197  1.00  0.00     0.138 A 
ATOM      9  O   UNL     1      46.260  37.409 134.552  1.00  0.00    -0.456 OA
ENDROOT
BRANCH   1  10
ATOM     10  C   UNL     1      48.350  37.563 135.873  1.00  0.00     0.059 A 
ATOM     11  C   UNL     1      50.609  36.468 137.169  1.00  0.00     0.122 A 
ATOM     12  C   UNL     1      50.146  35.922 135.968  1.00  0.00     0.093 A 
ATOM     13  C   UNL     1      49.944  37.577 137.716  1.00  0.00     0.047 A 
ATOM     14  C   UNL     1      49.039  36.464 135.305  1.00  0.00     0.130 A 
ATOM     15  C   UNL     1      48.827  38.117 137.075  1.00  0.00     0.020 A 
BRANCH  11  16
ATOM     16  O   UNL     1      51.728  35.885 137.779  1.00  0.00    -0.497 OA
ATOM     17  C   UNL     1      52.951  36.568 138.039  1.00  0.00     0.278 C 
ENDBRANCH  11  16
BRANCH  14  18
ATOM     18  O   UNL     1      48.680  35.906 134.076  1.00  0.00    -0.507 OA
ATOM     19  H   UNL     1      47.865  35.324 133.945  1.00  0.00     0.293 HD
ENDBRANCH  14  18
ENDBRANCH   1  10
BRANCH   5  20
ATOM     20  O   UNL     1      42.527  41.236 133.418  1.00  0.00    -0.504 OA
ATOM     21  H   UNL     1      42.822  42.174 133.174  1.00  0.00     0.293 HD
ENDBRANCH   5  20
BRANCH   6  22
ATOM     22  O   UNL     1      42.071  38.698 132.407  1.00  0.00    -0.493 OA
ATOM     23  C   UNL     1      40.958  37.927 132.846  1.00  0.00     0.278 C 
ENDBRANCH   6  22
TORSDOF 5
ENDMDL
MODEL 6
REMARK VINA RESULT:    -4.126      4.044     10.143
REMARK INTER + INTRA:          -5.618
REMARK INTER:                  -5.028
REMARK INTRA:                  -0.589
REMARK UNBOUND:                -0.527
REMARK SMILES COc1ccc(-c2cc3cc(O)c(OC)cc3o2)c(O)c1
REMARK SMILES IDX 7 1 8 2 9 3 10 4 11 5 13 6 16 7 17 8 18 9 6 10 3 11 21 12
REMARK SMILES IDX 4 13 19 14 5 15 2 16 1 17 20 18 12 20 14 22 15 23
REMARK H PARENT 20 19 12 21
REMARK Flexibility Score: inf
ROOT
ATOM      1  C   UNL     1      51.857  37.877 123.254  1.00  0.00     0.139 A 
ATOM      2  C   UNL     1      52.826  36.871 123.287  1.00  0.00     0.060 A 
ATOM      3  C   UNL     1      54.022  37.549 123.285  1.00  0.00     0.025 A 
ATOM      4  C   UNL     1      55.332  37.083 123.307  1.00  0.00     0.062 A 
ATOM      5  C   UNL     1      56.372  38.036 123.300  1.00  0.00     0.158 A 
ATOM      6  C   UNL     1      56.076  39.423 123.271  1.00  0.00     0.164 A 
ATOM      7  C   UNL     1      54.726  39.853 123.250  1.00  0.00     0.098 A 
ATOM      8  C   UNL     1      53.729  38.883 123.258  1.00  0.00     0.138 A 
ATOM      9  O   UNL     1      52.432  39.067 123.242  1.00  0.00    -0.456 OA
ENDROOT
BRANCH   1  10
ATOM     10  C   UNL     1      50.392  37.662 123.265  1.00  0.00     0.059 A 
ATOM     11  C   UNL     1      47.613  37.190 123.444  1.00  0.00     0.122 A 
ATOM     12  C   UNL     1      48.101  38.485 123.248  1.00  0.00     0.093 A 
ATOM     13  C   UNL     1      48.523  36.124 123.537  1.00  0.00     0.047 A 
ATOM     14  C   UNL     1      49.474  38.733 123.139  1.00  0.00     0.130 A 
ATOM     15  C   UNL     1      49.896  36.359 123.449  1.00  0.00     0.020 A 
BRANCH  11  16
ATOM     16  O   UNL     1      46.226  37.006 123.536  1.00  0.00    -0.497 OA
ATOM     17  C   UNL     1      45.560  36.462 124.671  1.00  0.00     0.278 C 
ENDBRANCH  11  16
BRANCH  14  18
ATOM     18  O   UNL     1      49.879  40.043 122.875  1.00  0.00    -0.507 OA
ATOM     19  H   UNL     1      50.058  40.395 121.945  1.00  0.00     0.293 HD
ENDBRANCH  14  18
ENDBRANCH   1  10
BRANCH   5  20
ATOM     20  O   UNL     1      57.701  37.620 123.321  1.00  0.00    -0.504 OA
ATOM     21  H   UNL     1      58.379  38.042 123.944  1.00  0.00     0.293 HD
ENDBRANCH   5  20
BRANCH   6  22
ATOM     22  O   UNL     1      57.145  40.333 123.264  1.00  0.00    -0.493 OA
ATOM     23  C   UNL     1      57.196  41.518 124.051  1.00  0.00     0.278 C 
ENDBRANCH   6  22
TORSDOF 5
ENDMDL
MODEL 7
REMARK VINA RESULT:    -4.084      1.640      7.667
REMARK INTER + INTRA:          -5.566
REMARK INTER:                  -4.975
REMARK INTRA:                  -0.591
REMARK UNBOUND:                -0.527
REMARK SMILES COc1ccc(-c2cc3cc(O)c(OC)cc3o2)c(O)c1
REMARK SMILES IDX 7 1 8 2 9 3 10 4 11 5 13 6 16 7 17 8 18 9 6 10 3 11 21 12
REMARK SMILES IDX 4 13 19 14 5 15 2 16 1 17 20 18 12 20 14 22 15 23
REMARK H PARENT 20 19 12 21
REMARK Flexibility Score: inf
ROOT
ATOM      1  C   UNL     1      58.314  43.216 124.355  1.00  0.00     0.139 A 
ATOM      2  C   UNL     1      59.209  44.077 123.715  1.00  0.00     0.060 A 
ATOM      3  C   UNL     1      59.178  45.225 124.471  1.00  0.00     0.025 A 
ATOM      4  C   UNL     1      59.856  46.429 124.323  1.00  0.00     0.062 A 
ATOM      5  C   UNL     1      59.616  47.443 125.275  1.00  0.00     0.158 A 
ATOM      6  C   UNL     1      58.709  47.226 126.343  1.00  0.00     0.164 A 
ATOM      7  C   UNL     1      58.038  45.982 126.454  1.00  0.00     0.098 A 
ATOM      8  C   UNL     1      58.303  45.008 125.497  1.00  0.00     0.138 A 
ATOM      9  O   UNL     1      57.794  43.803 125.420  1.00  0.00    -0.456 OA
ENDROOT
BRANCH   1  10
ATOM     10  C   UNL     1      58.005  41.829 123.938  1.00  0.00     0.059 A 
ATOM     11  C   UNL     1      57.513  39.129 123.272  1.00  0.00     0.122 A 
ATOM     12  C   UNL     1      56.457  39.977 123.618  1.00  0.00     0.093 A 
ATOM     13  C   UNL     1      58.821  39.640 123.247  1.00  0.00     0.047 A 
ATOM     14  C   UNL     1      56.683  41.322 123.933  1.00  0.00     0.130 A 
ATOM     15  C   UNL     1      59.062  40.975 123.578  1.00  0.00     0.020 A 
BRANCH  11  16
ATOM     16  O   UNL     1      57.220  37.793 122.958  1.00  0.00    -0.497 OA
ATOM     17  C   UNL     1      56.047  37.106 123.383  1.00  0.00     0.278 C 
ENDBRANCH  11  16
BRANCH  14  18
ATOM     18  O   UNL     1      55.570  42.122 124.201  1.00  0.00    -0.507 OA
ATOM     19  H   UNL     1      54.630  41.884 123.917  1.00  0.00     0.293 HD
ENDBRANCH  14  18
ENDBRANCH   1  10
BRANCH   5  20
ATOM     20  O   UNL     1      60.271  48.668 125.171  1.00  0.00    -0.504 OA
ATOM     21  H   UNL     1      61.228  48.730 124.845  1.00  0.00     0.293 HD
ENDBRANCH   5  20
BRANCH   6  22
ATOM     22  O   UNL     1      58.502  48.266 127.264  1.00  0.00    -0.493 OA
ATOM     23  C   UNL     1      57.340  48.401 128.075  1.00  0.00     0.278 C 
ENDBRANCH   6  22
TORSDOF 5
ENDMDL
MODEL 8
REMARK VINA RESULT:    -4.032      2.211      8.444
REMARK INTER + INTRA:          -5.502
REMARK INTER:                  -4.888
REMARK INTRA:                  -0.614
REMARK UNBOUND:                -0.527
REMARK SMILES COc1ccc(-c2cc3cc(O)c(OC)cc3o2)c(O)c1
REMARK SMILES IDX 7 1 8 2 9 3 10 4 11 5 13 6 16 7 17 8 18 9 6 10 3 11 21 12
REMARK SMILES IDX 4 13 19 14 5 15 2 16 1 17 20 18 12 20 14 22 15 23
REMARK H PARENT 20 19 12 21
REMARK Flexibility Score: inf
ROOT
ATOM      1  C   UNL     1      55.346  39.161 123.366  1.00  0.00     0.139 A 
ATOM      2  C   UNL     1      56.655  38.691 123.244  1.00  0.00     0.060 A 
ATOM      3  C   UNL     1      57.434  39.820 123.328  1.00  0.00     0.025 A 
ATOM      4  C   UNL     1      58.814  39.981 123.269  1.00  0.00     0.062 A 
ATOM      5  C   UNL     1      59.332  41.287 123.390  1.00  0.00     0.158 A 
ATOM      6  C   UNL     1      58.462  42.393 123.565  1.00  0.00     0.164 A 
ATOM      7  C   UNL     1      57.061  42.183 123.619  1.00  0.00     0.098 A 
ATOM      8  C   UNL     1      56.589  40.880 123.497  1.00  0.00     0.138 A 
ATOM      9  O   UNL     1      55.344  40.475 123.521  1.00  0.00    -0.456 OA
ENDROOT
BRANCH   1  10
ATOM     10  C   UNL     1      54.125  38.324 123.361  1.00  0.00     0.059 A 
ATOM     11  C   UNL     1      51.833  36.680 123.511  1.00  0.00     0.122 A 
ATOM     12  C   UNL     1      51.707  38.052 123.275  1.00  0.00     0.093 A 
ATOM     13  C   UNL     1      53.115  36.126 123.659  1.00  0.00     0.047 A 
ATOM     14  C   UNL     1      52.834  38.877 123.181  1.00  0.00     0.130 A 
ATOM     15  C   UNL     1      54.247  36.941 123.585  1.00  0.00     0.020 A 
BRANCH  11  16
ATOM     16  O   UNL     1      50.666  35.906 123.587  1.00  0.00    -0.497 OA
ATOM     17  C   UNL     1      49.346  36.425 123.448  1.00  0.00     0.278 C 
ENDBRANCH  11  16
BRANCH  14  18
ATOM     18  O   UNL     1      52.630  40.224 122.875  1.00  0.00    -0.507 OA
ATOM     19  H   UNL     1      52.647  40.961 123.566  1.00  0.00     0.293 HD
ENDBRANCH  14  18
ENDBRANCH   1  10
BRANCH   5  20
ATOM     20  O   UNL     1      60.708  41.500 123.337  1.00  0.00    -0.504 OA
ATOM     21  H   UNL     1      61.095  42.402 123.085  1.00  0.00     0.293 HD
ENDBRANCH   5  20
BRANCH   6  22
ATOM     22  O   UNL     1      59.025  43.674 123.679  1.00  0.00    -0.493 OA
ATOM     23  C   UNL     1      59.145  44.393 124.901  1.00  0.00     0.278 C 
ENDBRANCH   6  22
TORSDOF 5
ENDMDL
MODEL 9
REMARK VINA RESULT:    -3.861     13.686     16.411
REMARK INTER + INTRA:          -5.291
REMARK INTER:                  -4.695
REMARK INTRA:                  -0.595
REMARK UNBOUND:                -0.527
REMARK SMILES COc1ccc(-c2cc3cc(O)c(OC)cc3o2)c(O)c1
REMARK SMILES IDX 7 1 8 2 9 3 10 4 11 5 13 6 16 7 17 8 18 9 6 10 3 11 21 12
REMARK SMILES IDX 4 13 19 14 5 15 2 16 1 17 20 18 12 20 14 22 15 23
REMARK H PARENT 20 19 12 21
REMARK Flexibility Score: inf
ROOT
ATOM      1  C   UNL     1      50.274  37.405 135.947  1.00  0.00     0.139 A 
ATOM      2  C   UNL     1      50.664  37.243 137.278  1.00  0.00     0.060 A 
ATOM      3  C   UNL     1      52.030  37.101 137.220  1.00  0.00     0.025 A 
ATOM      4  C   UNL     1      52.968  36.906 138.226  1.00  0.00     0.062 A 
ATOM      5  C   UNL     1      54.324  36.797 137.852  1.00  0.00     0.158 A 
ATOM      6  C   UNL     1      54.704  36.883 136.489  1.00  0.00     0.164 A 
ATOM      7  C   UNL     1      53.713  37.082 135.495  1.00  0.00     0.098 A 
ATOM      8  C   UNL     1      52.387  37.187 135.904  1.00  0.00     0.138 A 
ATOM      9  O   UNL     1      51.330  37.371 135.152  1.00  0.00    -0.456 OA
ENDROOT
BRANCH   1  10
ATOM     10  C   UNL     1      48.887  37.619 135.475  1.00  0.00     0.059 A 
ATOM     11  C   UNL     1      46.282  38.192 134.543  1.00  0.00     0.122 A 
ATOM     12  C   UNL     1      47.063  37.219 133.912  1.00  0.00     0.093 A 
ATOM     13  C   UNL     1      46.804  38.872 135.656  1.00  0.00     0.047 A 
ATOM     14  C   UNL     1      48.349  36.912 134.373  1.00  0.00     0.130 A 
ATOM     15  C   UNL     1      48.092  38.588 136.115  1.00  0.00     0.020 A 
BRANCH  11  16
ATOM     16  O   UNL     1      44.999  38.448 134.039  1.00  0.00    -0.497 OA
ATOM     17  C   UNL     1      44.413  37.755 132.941  1.00  0.00     0.278 C 
ENDBRANCH  11  16
BRANCH  14  18
ATOM     18  O   UNL     1      49.039  35.882 133.732  1.00  0.00    -0.507 OA
ATOM     19  H   UNL     1      49.334  35.924 132.767  1.00  0.00     0.293 HD
ENDBRANCH  14  18
ENDBRANCH   1  10
BRANCH   5  20
ATOM     20  O   UNL     1      55.303  36.600 138.824  1.00  0.00    -0.504 OA
ATOM     21  H   UNL     1      56.287  36.562 138.585  1.00  0.00     0.293 HD
ENDBRANCH   5  20
BRANCH   6  22
ATOM     22  O   UNL     1      56.065  36.767 136.166  1.00  0.00    -0.493 OA
ATOM     23  C   UNL     1      56.919  37.868 135.877  1.00  0.00     0.278 C 
ENDBRANCH   6  22
TORSDOF 5
ENDMDL
