MODEL 1
REMARK VINA RESULT:    -5.319      0.000      0.000
REMARK INTER + INTRA:          -6.030
REMARK INTER:                  -5.785
REMARK INTRA:                  -0.244
REMARK UNBOUND:                -0.244
REMARK SMILES O=C([O-])c1ccccc1O
REMARK SMILES IDX 4 1 9 2 5 3 8 4 6 5 7 6 2 7 1 8 3 9 10 10
REMARK H PARENT 10 11
REMARK Flexibility Score: inf
ROOT
ATOM      1  C   UNL     1     -28.660  65.809  83.941  1.00  0.00     0.039 A 
ATOM      2  C   UNL     1     -28.327  65.029  85.075  1.00  0.00     0.124 A 
ATOM      3  C   UNL     1     -28.902  67.186  84.112  1.00  0.00     0.014 A 
ATOM      4  C   UNL     1     -28.245  65.632  86.339  1.00  0.00     0.047 A 
ATOM      5  C   UNL     1     -28.815  67.774  85.377  1.00  0.00     0.001 A 
ATOM      6  C   UNL     1     -28.487  66.998  86.488  1.00  0.00     0.004 A 
ENDROOT
BRANCH   1   7
ATOM      7  C   UNL     1     -28.761  65.219  82.582  1.00  0.00     0.075 C 
ATOM      8  O   UNL     1     -29.530  64.249  82.351  1.00  0.00    -0.545 OA
ATOM      9  O   UNL     1     -28.001  65.732  81.537  1.00  0.00    -0.545 OA
ENDBRANCH   1   7
BRANCH   2  10
ATOM     10  O   UNL     1     -28.080  63.662  84.952  1.00  0.00    -0.507 OA
ATOM     11  H   UNL     1     -27.943  63.070  85.764  1.00  0.00     0.293 HD
ENDBRANCH   2  10
TORSDOF 2
ENDMDL
MODEL 2
REMARK VINA RESULT:    -5.301      3.073      4.193
REMARK INTER + INTRA:          -6.010
REMARK INTER:                  -5.767
REMARK INTRA:                  -0.243
REMARK UNBOUND:                -0.244
REMARK SMILES O=C([O-])c1ccccc1O
REMARK SMILES IDX 4 1 9 2 5 3 8 4 6 5 7 6 2 7 1 8 3 9 10 10
REMARK H PARENT 10 11
REMARK Flexibility Score: inf
ROOT
ATOM      1  C   UNL     1     -28.582  67.265  85.195  1.00  0.00     0.039 A 
ATOM      2  C   UNL     1     -29.868  67.575  84.691  1.00  0.00     0.124 A 
ATOM      3  C   UNL     1     -27.985  66.044  84.825  1.00  0.00     0.014 A 
ATOM      4  C   UNL     1     -30.522  66.672  83.840  1.00  0.00     0.047 A 
ATOM      5  C   UNL     1     -28.648  65.154  83.975  1.00  0.00     0.001 A 
ATOM      6  C   UNL     1     -29.914  65.468  83.484  1.00  0.00     0.004 A 
ENDROOT
BRANCH   1   7
ATOM      7  C   UNL     1     -27.848  68.186  86.099  1.00  0.00     0.075 C 
ATOM      8  O   UNL     1     -28.355  68.569  87.187  1.00  0.00    -0.545 OA
ATOM      9  O   UNL     1     -26.580  68.642  85.757  1.00  0.00    -0.545 OA
ENDBRANCH   1   7
BRANCH   2  10
ATOM     10  O   UNL     1     -30.498  68.772  85.032  1.00  0.00    -0.507 OA
ATOM     11  H   UNL     1     -31.400  69.028  84.648  1.00  0.00     0.293 HD
ENDBRANCH   2  10
TORSDOF 2
ENDMDL
MODEL 3
REMARK VINA RESULT:    -5.301      1.105      1.534
REMARK INTER + INTRA:          -6.010
REMARK INTER:                  -5.805
REMARK INTRA:                  -0.205
REMARK UNBOUND:                -0.244
REMARK SMILES O=C([O-])c1ccccc1O
REMARK SMILES IDX 4 1 9 2 5 3 8 4 6 5 7 6 2 7 1 8 3 9 10 10
REMARK H PARENT 10 11
REMARK Flexibility Score: inf
ROOT
ATOM      1  C   UNL     1     -28.778  65.279  83.854  1.00  0.00     0.039 A 
ATOM      2  C   UNL     1     -29.469  64.534  84.839  1.00  0.00     0.124 A 
ATOM      3  C   UNL     1     -28.009  66.387  84.257  1.00  0.00     0.014 A 
ATOM      4  C   UNL     1     -29.380  64.906  86.189  1.00  0.00     0.047 A 
ATOM      5  C   UNL     1     -27.927  66.747  85.605  1.00  0.00     0.001 A 
ATOM      6  C   UNL     1     -28.611  66.007  86.569  1.00  0.00     0.004 A 
ENDROOT
BRANCH   1   7
ATOM      7  C   UNL     1     -28.842  64.926  82.413  1.00  0.00     0.075 C 
ATOM      8  O   UNL     1     -27.939  65.292  81.614  1.00  0.00    -0.545 OA
ATOM      9  O   UNL     1     -29.907  64.181  81.920  1.00  0.00    -0.545 OA
ENDBRANCH   1   7
BRANCH   2  10
ATOM     10  O   UNL     1     -30.244  63.429  84.485  1.00  0.00    -0.507 OA
ATOM     11  H   UNL     1     -30.580  62.770  85.178  1.00  0.00     0.293 HD
ENDBRANCH   2  10
TORSDOF 2
ENDMDL
MODEL 4
REMARK VINA RESULT:    -5.296      3.175      4.052
REMARK INTER + INTRA:          -6.005
REMARK INTER:                  -5.802
REMARK INTRA:                  -0.203
REMARK UNBOUND:                -0.244
REMARK SMILES O=C([O-])c1ccccc1O
REMARK SMILES IDX 4 1 9 2 5 3 8 4 6 5 7 6 2 7 1 8 3 9 10 10
REMARK H PARENT 10 11
REMARK Flexibility Score: inf
ROOT
ATOM      1  C   UNL     1     -30.020  66.993  85.555  1.00  0.00     0.039 A 
ATOM      2  C   UNL     1     -28.848  66.336  86.003  1.00  0.00     0.124 A 
ATOM      3  C   UNL     1     -30.576  66.618  84.317  1.00  0.00     0.014 A 
ATOM      4  C   UNL     1     -28.264  65.333  85.215  1.00  0.00     0.047 A 
ATOM      5  C   UNL     1     -29.984  65.617  83.542  1.00  0.00     0.001 A 
ATOM      6  C   UNL     1     -28.830  64.976  83.991  1.00  0.00     0.004 A 
ENDROOT
BRANCH   1   7
ATOM      7  C   UNL     1     -30.676  68.061  86.351  1.00  0.00     0.075 C 
ATOM      8  O   UNL     1     -30.117  69.175  86.529  1.00  0.00    -0.545 OA
ATOM      9  O   UNL     1     -31.928  67.845  86.916  1.00  0.00    -0.545 OA
ENDBRANCH   1   7
BRANCH   2  10
ATOM     10  O   UNL     1     -28.263  66.675  87.223  1.00  0.00    -0.507 OA
ATOM     11  H   UNL     1     -27.344  67.100  87.273  1.00  0.00     0.293 HD
ENDBRANCH   2  10
TORSDOF 2
ENDMDL
MODEL 5
REMARK VINA RESULT:    -5.274      1.697      3.100
REMARK INTER + INTRA:          -5.980
REMARK INTER:                  -5.738
REMARK INTRA:                  -0.242
REMARK UNBOUND:                -0.244
REMARK SMILES O=C([O-])c1ccccc1O
REMARK SMILES IDX 4 1 9 2 5 3 8 4 6 5 7 6 2 7 1 8 3 9 10 10
REMARK H PARENT 10 11
REMARK Flexibility Score: inf
ROOT
ATOM      1  C   UNL     1     -29.842  65.236  85.094  1.00  0.00     0.039 A 
ATOM      2  C   UNL     1     -30.248  65.989  83.966  1.00  0.00     0.124 A 
ATOM      3  C   UNL     1     -29.563  65.913  86.297  1.00  0.00     0.014 A 
ATOM      4  C   UNL     1     -30.366  67.383  84.061  1.00  0.00     0.047 A 
ATOM      5  C   UNL     1     -29.686  67.303  86.378  1.00  0.00     0.001 A 
ATOM      6  C   UNL     1     -30.087  68.036  85.262  1.00  0.00     0.004 A 
ENDROOT
BRANCH   1   7
ATOM      7  C   UNL     1     -29.700  63.759  85.044  1.00  0.00     0.075 C 
ATOM      8  O   UNL     1     -28.940  63.206  84.205  1.00  0.00    -0.545 OA
ATOM      9  O   UNL     1     -30.411  62.956  85.930  1.00  0.00    -0.545 OA
ENDBRANCH   1   7
BRANCH   2  10
ATOM     10  O   UNL     1     -30.533  65.360  82.754  1.00  0.00    -0.507 OA
ATOM     11  H   UNL     1     -29.798  65.018  82.145  1.00  0.00     0.293 HD
ENDBRANCH   2  10
TORSDOF 2
ENDMDL
MODEL 6
REMARK VINA RESULT:    -5.166      2.511      3.530
REMARK INTER + INTRA:          -5.864
REMARK INTER:                  -5.613
REMARK INTRA:                  -0.251
REMARK UNBOUND:                -0.244
REMARK SMILES O=C([O-])c1ccccc1O
REMARK SMILES IDX 4 1 9 2 5 3 8 4 6 5 7 6 2 7 1 8 3 9 10 10
REMARK H PARENT 10 11
REMARK Flexibility Score: inf
ROOT
ATOM      1  C   UNL     1     -29.770  66.437  84.425  1.00  0.00     0.039 A 
ATOM      2  C   UNL     1     -29.789  65.054  84.124  1.00  0.00     0.124 A 
ATOM      3  C   UNL     1     -29.027  67.301  83.598  1.00  0.00     0.014 A 
ATOM      4  C   UNL     1     -29.075  64.568  83.018  1.00  0.00     0.047 A 
ATOM      5  C   UNL     1     -28.321  66.804  82.498  1.00  0.00     0.001 A 
ATOM      6  C   UNL     1     -28.346  65.440  82.210  1.00  0.00     0.004 A 
ENDROOT
BRANCH   1   7
ATOM      7  C   UNL     1     -30.508  67.000  85.584  1.00  0.00     0.075 C 
ATOM      8  O   UNL     1     -31.706  66.682  85.808  1.00  0.00    -0.545 OA
ATOM      9  O   UNL     1     -29.883  67.894  86.446  1.00  0.00    -0.545 OA
ENDBRANCH   1   7
BRANCH   2  10
ATOM     10  O   UNL     1     -30.511  64.161  84.916  1.00  0.00    -0.507 OA
ATOM     11  H   UNL     1     -30.181  63.873  85.830  1.00  0.00     0.293 HD
ENDBRANCH   2  10
TORSDOF 2
ENDMDL
MODEL 7
REMARK VINA RESULT:    -5.135      2.730      3.278
REMARK INTER + INTRA:          -5.829
REMARK INTER:                  -5.576
REMARK INTRA:                  -0.253
REMARK UNBOUND:                -0.244
REMARK SMILES O=C([O-])c1ccccc1O
REMARK SMILES IDX 4 1 9 2 5 3 8 4 6 5 7 6 2 7 1 8 3 9 10 10
REMARK H PARENT 10 11
REMARK Flexibility Score: inf
ROOT
ATOM      1  C   UNL     1     -29.241  66.938  85.126  1.00  0.00     0.039 A 
ATOM      2  C   UNL     1     -29.350  68.106  85.919  1.00  0.00     0.124 A 
ATOM      3  C   UNL     1     -30.345  66.067  85.047  1.00  0.00     0.014 A 
ATOM      4  C   UNL     1     -30.542  68.376  86.607  1.00  0.00     0.047 A 
ATOM      5  C   UNL     1     -31.528  66.349  85.737  1.00  0.00     0.001 A 
ATOM      6  C   UNL     1     -31.625  67.502  86.515  1.00  0.00     0.004 A 
ENDROOT
BRANCH   1   7
ATOM      7  C   UNL     1     -28.001  66.606  84.380  1.00  0.00     0.075 C 
ATOM      8  O   UNL     1     -28.049  66.188  83.193  1.00  0.00    -0.545 OA
ATOM      9  O   UNL     1     -26.758  66.754  84.985  1.00  0.00    -0.545 OA
ENDBRANCH   1   7
BRANCH   2  10
ATOM     10  O   UNL     1     -28.281  68.996  86.027  1.00  0.00    -0.507 OA
ATOM     11  H   UNL     1     -27.507  68.825  86.659  1.00  0.00     0.293 HD
ENDBRANCH   2  10
TORSDOF 2
ENDMDL
MODEL 8
REMARK VINA RESULT:    -5.072      2.768      3.511
REMARK INTER + INTRA:          -5.761
REMARK INTER:                  -5.511
REMARK INTRA:                  -0.250
REMARK UNBOUND:                -0.244
REMARK SMILES O=C([O-])c1ccccc1O
REMARK SMILES IDX 4 1 9 2 5 3 8 4 6 5 7 6 2 7 1 8 3 9 10 10
REMARK H PARENT 10 11
REMARK Flexibility Score: inf
ROOT
ATOM      1  C   UNL     1     -29.306  66.672  85.704  1.00  0.00     0.039 A 
ATOM      2  C   UNL     1     -29.254  67.854  86.480  1.00  0.00     0.124 A 
ATOM      3  C   UNL     1     -28.172  66.302  84.954  1.00  0.00     0.014 A 
ATOM      4  C   UNL     1     -28.087  68.633  86.493  1.00  0.00     0.047 A 
ATOM      5  C   UNL     1     -27.015  67.087  84.976  1.00  0.00     0.001 A 
ATOM      6  C   UNL     1     -26.973  68.250  85.744  1.00  0.00     0.004 A 
ENDROOT
BRANCH   1   7
ATOM      7  C   UNL     1     -30.517  65.815  85.656  1.00  0.00     0.075 C 
ATOM      8  O   UNL     1     -31.653  66.307  85.427  1.00  0.00    -0.545 OA
ATOM      9  O   UNL     1     -30.414  64.444  85.865  1.00  0.00    -0.545 OA
ENDBRANCH   1   7
BRANCH   2  10
ATOM     10  O   UNL     1     -30.353  68.259  87.238  1.00  0.00    -0.507 OA
ATOM     11  H   UNL     1     -30.421  69.195  87.621  1.00  0.00     0.293 HD
ENDBRANCH   2  10
TORSDOF 2
ENDMDL
MODEL 9
REMARK VINA RESULT:    -5.048      2.714      3.729
REMARK INTER + INTRA:          -5.735
REMARK INTER:                  -5.481
REMARK INTRA:                  -0.254
REMARK UNBOUND:                -0.244
REMARK SMILES O=C([O-])c1ccccc1O
REMARK SMILES IDX 4 1 9 2 5 3 8 4 6 5 7 6 2 7 1 8 3 9 10 10
REMARK H PARENT 10 11
REMARK Flexibility Score: inf
ROOT
ATOM      1  C   UNL     1     -28.515  66.915  85.101  1.00  0.00     0.039 A 
ATOM      2  C   UNL     1     -29.177  65.817  85.701  1.00  0.00     0.124 A 
ATOM      3  C   UNL     1     -28.289  66.893  83.711  1.00  0.00     0.014 A 
ATOM      4  C   UNL     1     -29.594  64.734  84.913  1.00  0.00     0.047 A 
ATOM      5  C   UNL     1     -28.711  65.808  82.937  1.00  0.00     0.001 A 
ATOM      6  C   UNL     1     -29.362  64.731  83.537  1.00  0.00     0.004 A 
ENDROOT
BRANCH   1   7
ATOM      7  C   UNL     1     -28.054  68.084  85.891  1.00  0.00     0.075 C 
ATOM      8  O   UNL     1     -26.911  68.581  85.709  1.00  0.00    -0.545 OA
ATOM      9  O   UNL     1     -28.883  68.651  86.853  1.00  0.00    -0.545 OA
ENDBRANCH   1   7
BRANCH   2  10
ATOM     10  O   UNL     1     -29.421  65.796  87.075  1.00  0.00    -0.507 OA
ATOM     11  H   UNL     1     -29.805  66.599  87.560  1.00  0.00     0.293 HD
ENDBRANCH   2  10
TORSDOF 2
ENDMDL
