MODEL 1
REMARK VINA RESULT:    -6.243      0.000      0.000
REMARK INTER + INTRA:         -16.807
REMARK INTER:                 -13.542
REMARK INTRA:                  -3.265
REMARK UNBOUND:                -3.265
REMARK SMILES CCCCCCCCCCCCCCCCCCCCCC(=O)[O-]
REMARK SMILES IDX 12 1 11 2 10 3 9 4 8 5 7 6 6 7 5 8 4 9 3 10 2 11 1 12 13 13
REMARK SMILES IDX 14 14 15 15 16 16 17 17 18 18 19 19 20 20 21 21 22 22 23 23
REMARK SMILES IDX 24 24
REMARK H PARENT
REMARK Flexibility Score: inf
ROOT
ATOM      1  C   UNL     1     -18.099   0.781 -12.076  1.00  0.00     0.000 C 
ENDROOT
BRANCH   1   2
ATOM      2  C   UNL     1     -17.745  -0.606 -12.659  1.00  0.00     0.000 C 
BRANCH   2   3
ATOM      3  C   UNL     1     -17.641  -0.656 -14.196  1.00  0.00     0.000 C 
BRANCH   3   4
ATOM      4  C   UNL     1     -19.002  -0.510 -14.907  1.00  0.00    -0.000 C 
BRANCH   4   5
ATOM      5  C   UNL     1     -18.917   0.406 -16.143  1.00  0.00    -0.000 C 
BRANCH   5   6
ATOM      6  C   UNL     1     -17.490   0.943 -16.370  1.00  0.00    -0.000 C 
BRANCH   6   7
ATOM      7  C   UNL     1     -17.191   1.239 -17.850  1.00  0.00    -0.000 C 
BRANCH   7   8
ATOM      8  C   UNL     1     -17.944   0.293 -18.804  1.00  0.00    -0.000 C 
BRANCH   8   9
ATOM      9  C   UNL     1     -17.153  -0.988 -19.129  1.00  0.00    -0.000 C 
BRANCH   9  10
ATOM     10  C   UNL     1     -17.392  -2.169 -18.171  1.00  0.00    -0.000 C 
BRANCH  10  11
ATOM     11  C   UNL     1     -16.277  -2.331 -17.128  1.00  0.00    -0.003 C 
ATOM     12  C   UNL     1     -14.915  -1.979 -17.722  1.00  0.00     0.004 C 
ENDBRANCH  10  11
ENDBRANCH   9  10
ENDBRANCH   8   9
ENDBRANCH   7   8
ENDBRANCH   6   7
ENDBRANCH   5   6
ENDBRANCH   4   5
ENDBRANCH   3   4
ENDBRANCH   2   3
ENDBRANCH   1   2
BRANCH   1  13
ATOM     13  C   UNL     1     -17.192   1.290 -10.934  1.00  0.00     0.000 C 
BRANCH  13  14
ATOM     14  C   UNL     1     -15.713   1.497 -11.307  1.00  0.00     0.000 C 
BRANCH  14  15
ATOM     15  C   UNL     1     -15.526   2.508 -12.456  1.00  0.00     0.000 C 
BRANCH  15  16
ATOM     16  C   UNL     1     -14.776   1.910 -13.659  1.00  0.00     0.000 C 
BRANCH  16  17
ATOM     17  C   UNL     1     -15.053   2.679 -14.964  1.00  0.00     0.000 C 
BRANCH  17  18
ATOM     18  C   UNL     1     -14.015   2.379 -16.059  1.00  0.00     0.000 C 
BRANCH  18  19
ATOM     19  C   UNL     1     -13.924   3.492 -17.113  1.00  0.00     0.000 C 
BRANCH  19  20
ATOM     20  C   UNL     1     -13.447   2.931 -18.461  1.00  0.00     0.006 C 
BRANCH  20  21
ATOM     21  C   UNL     1     -13.621   1.408 -18.551  1.00  0.00     0.053 C 
BRANCH  21  22
ATOM     22  C   UNL     1     -14.094   0.985 -19.908  1.00  0.00     0.041 C 
ATOM     23  O   UNL     1     -13.705  -0.106 -20.402  1.00  0.00    -0.550 OA
ATOM     24  O   UNL     1     -14.991   1.781 -20.613  1.00  0.00    -0.550 OA
ENDBRANCH  21  22
ENDBRANCH  20  21
ENDBRANCH  19  20
ENDBRANCH  18  19
ENDBRANCH  17  18
ENDBRANCH  16  17
ENDBRANCH  15  16
ENDBRANCH  14  15
ENDBRANCH  13  14
ENDBRANCH   1  13
TORSDOF 20
ENDMDL
MODEL 2
REMARK VINA RESULT:    -6.169      2.411      5.620
REMARK INTER + INTRA:         -16.648
REMARK INTER:                 -13.297
REMARK INTRA:                  -3.351
REMARK UNBOUND:                -3.265
REMARK SMILES CCCCCCCCCCCCCCCCCCCCCC(=O)[O-]
REMARK SMILES IDX 12 1 11 2 10 3 9 4 8 5 7 6 6 7 5 8 4 9 3 10 2 11 1 12 13 13
REMARK SMILES IDX 14 14 15 15 16 16 17 17 18 18 19 19 20 20 21 21 22 22 23 23
REMARK SMILES IDX 24 24
REMARK H PARENT
REMARK Flexibility Score: inf
ROOT
ATOM      1  C   UNL     1     -12.959   3.485 -16.668  1.00  0.00     0.000 C 
ENDROOT
BRANCH   1   2
ATOM      2  C   UNL     1     -14.181   4.005 -17.458  1.00  0.00     0.000 C 
BRANCH   2   3
ATOM      3  C   UNL     1     -14.377   3.364 -18.846  1.00  0.00     0.000 C 
BRANCH   3   4
ATOM      4  C   UNL     1     -13.825   1.927 -18.940  1.00  0.00    -0.000 C 
BRANCH   4   5
ATOM      5  C   UNL     1     -14.496   1.119 -20.067  1.00  0.00    -0.000 C 
BRANCH   5   6
ATOM      6  C   UNL     1     -14.258  -0.397 -19.915  1.00  0.00    -0.000 C 
BRANCH   6   7
ATOM      7  C   UNL     1     -13.991  -0.816 -18.459  1.00  0.00    -0.000 C 
BRANCH   7   8
ATOM      8  C   UNL     1     -14.961  -1.909 -17.973  1.00  0.00    -0.000 C 
BRANCH   8   9
ATOM      9  C   UNL     1     -16.298  -1.341 -17.461  1.00  0.00    -0.000 C 
BRANCH   9  10
ATOM     10  C   UNL     1     -17.414  -1.231 -18.516  1.00  0.00    -0.000 C 
BRANCH  10  11
ATOM     11  C   UNL     1     -18.077   0.154 -18.545  1.00  0.00    -0.003 C 
ATOM     12  C   UNL     1     -17.321   1.143 -17.658  1.00  0.00     0.004 C 
ENDBRANCH  10  11
ENDBRANCH   9  10
ENDBRANCH   8   9
ENDBRANCH   7   8
ENDBRANCH   6   7
ENDBRANCH   5   6
ENDBRANCH   4   5
ENDBRANCH   3   4
ENDBRANCH   2   3
ENDBRANCH   1   2
BRANCH   1  13
ATOM     13  C   UNL     1     -13.264   2.797 -15.319  1.00  0.00     0.000 C 
BRANCH  13  14
ATOM     14  C   UNL     1     -14.532   1.923 -15.296  1.00  0.00     0.000 C 
BRANCH  14  15
ATOM     15  C   UNL     1     -15.655   2.529 -14.431  1.00  0.00     0.000 C 
BRANCH  15  16
ATOM     16  C   UNL     1     -15.261   2.658 -12.950  1.00  0.00     0.000 C 
BRANCH  16  17
ATOM     17  C   UNL     1     -15.433   1.336 -12.180  1.00  0.00     0.000 C 
BRANCH  17  18
ATOM     18  C   UNL     1     -16.739   1.288 -11.370  1.00  0.00     0.000 C 
BRANCH  18  19
ATOM     19  C   UNL     1     -17.934   0.792 -12.197  1.00  0.00     0.000 C 
BRANCH  19  20
ATOM     20  C   UNL     1     -17.651  -0.596 -12.791  1.00  0.00     0.006 C 
BRANCH  20  21
ATOM     21  C   UNL     1     -17.714  -0.595 -14.325  1.00  0.00     0.053 C 
BRANCH  21  22
ATOM     22  C   UNL     1     -19.072  -0.983 -14.824  1.00  0.00     0.041 C 
ATOM     23  O   UNL     1     -19.423  -2.191 -14.828  1.00  0.00    -0.550 OA
ATOM     24  O   UNL     1     -19.963  -0.004 -15.254  1.00  0.00    -0.550 OA
ENDBRANCH  21  22
ENDBRANCH  20  21
ENDBRANCH  19  20
ENDBRANCH  18  19
ENDBRANCH  17  18
ENDBRANCH  16  17
ENDBRANCH  15  16
ENDBRANCH  14  15
ENDBRANCH  13  14
ENDBRANCH   1  13
TORSDOF 20
ENDMDL
MODEL 3
REMARK VINA RESULT:    -5.979      2.545      6.953
REMARK INTER + INTRA:         -16.235
REMARK INTER:                 -13.184
REMARK INTRA:                  -3.051
REMARK UNBOUND:                -3.265
REMARK SMILES CCCCCCCCCCCCCCCCCCCCCC(=O)[O-]
REMARK SMILES IDX 12 1 11 2 10 3 9 4 8 5 7 6 6 7 5 8 4 9 3 10 2 11 1 12 13 13
REMARK SMILES IDX 14 14 15 15 16 16 17 17 18 18 19 19 20 20 21 21 22 22 23 23
REMARK SMILES IDX 24 24
REMARK H PARENT
REMARK Flexibility Score: inf
ROOT
ATOM      1  C   UNL     1     -14.609   1.152 -20.073  1.00  0.00     0.000 C 
ENDROOT
BRANCH   1   2
ATOM      2  C   UNL     1     -14.493   2.654 -19.730  1.00  0.00     0.000 C 
BRANCH   2   3
ATOM      3  C   UNL     1     -13.555   2.979 -18.550  1.00  0.00     0.000 C 
BRANCH   3   4
ATOM      4  C   UNL     1     -14.260   3.710 -17.390  1.00  0.00    -0.000 C 
BRANCH   4   5
ATOM      5  C   UNL     1     -15.480   2.929 -16.865  1.00  0.00    -0.000 C 
BRANCH   5   6
ATOM      6  C   UNL     1     -15.105   1.972 -15.717  1.00  0.00    -0.000 C 
BRANCH   6   7
ATOM      7  C   UNL     1     -14.290   2.659 -14.608  1.00  0.00    -0.000 C 
BRANCH   7   8
ATOM      8  C   UNL     1     -15.083   2.801 -13.295  1.00  0.00    -0.000 C 
BRANCH   8   9
ATOM      9  C   UNL     1     -15.406   1.446 -12.639  1.00  0.00    -0.000 C 
BRANCH   9  10
ATOM     10  C   UNL     1     -15.769   1.510 -11.144  1.00  0.00    -0.000 C 
BRANCH  10  11
ATOM     11  C   UNL     1     -17.278   1.662 -10.899  1.00  0.00    -0.003 C 
ATOM     12  C   UNL     1     -18.079   0.761 -11.838  1.00  0.00     0.004 C 
ENDBRANCH  10  11
ENDBRANCH   9  10
ENDBRANCH   8   9
ENDBRANCH   7   8
ENDBRANCH   6   7
ENDBRANCH   5   6
ENDBRANCH   4   5
ENDBRANCH   3   4
ENDBRANCH   2   3
ENDBRANCH   1   2
BRANCH   1  13
ATOM     13  C   UNL     1     -13.566   0.222 -19.416  1.00  0.00     0.000 C 
BRANCH  13  14
ATOM     14  C   UNL     1     -14.119  -1.105 -18.864  1.00  0.00     0.000 C 
BRANCH  14  15
ATOM     15  C   UNL     1     -15.392  -0.911 -18.016  1.00  0.00     0.000 C 
BRANCH  15  16
ATOM     16  C   UNL     1     -16.558  -1.799 -18.483  1.00  0.00     0.000 C 
BRANCH  16  17
ATOM     17  C   UNL     1     -17.851  -0.995 -18.712  1.00  0.00     0.000 C 
BRANCH  17  18
ATOM     18  C   UNL     1     -17.709   0.482 -18.306  1.00  0.00     0.000 C 
BRANCH  18  19
ATOM     19  C   UNL     1     -18.649   0.876 -17.157  1.00  0.00     0.000 C 
BRANCH  19  20
ATOM     20  C   UNL     1     -18.220   0.204 -15.844  1.00  0.00     0.006 C 
BRANCH  20  21
ATOM     21  C   UNL     1     -19.418  -0.321 -15.041  1.00  0.00     0.053 C 
BRANCH  21  22
ATOM     22  C   UNL     1     -19.833  -1.688 -15.495  1.00  0.00     0.041 C 
ATOM     23  O   UNL     1     -18.964  -2.529 -15.843  1.00  0.00    -0.550 OA
ATOM     24  O   UNL     1     -21.178  -2.041 -15.502  1.00  0.00    -0.550 OA
ENDBRANCH  21  22
ENDBRANCH  20  21
ENDBRANCH  19  20
ENDBRANCH  18  19
ENDBRANCH  17  18
ENDBRANCH  16  17
ENDBRANCH  15  16
ENDBRANCH  14  15
ENDBRANCH  13  14
ENDBRANCH   1  13
TORSDOF 20
ENDMDL
MODEL 4
REMARK VINA RESULT:    -5.854      2.506      6.412
REMARK INTER + INTRA:         -15.965
REMARK INTER:                 -12.721
REMARK INTRA:                  -3.244
REMARK UNBOUND:                -3.265
REMARK SMILES CCCCCCCCCCCCCCCCCCCCCC(=O)[O-]
REMARK SMILES IDX 12 1 11 2 10 3 9 4 8 5 7 6 6 7 5 8 4 9 3 10 2 11 1 12 13 13
REMARK SMILES IDX 14 14 15 15 16 16 17 17 18 18 19 19 20 20 21 21 22 22 23 23
REMARK SMILES IDX 24 24
REMARK H PARENT
REMARK Flexibility Score: inf
ROOT
ATOM      1  C   UNL     1     -17.794  -0.948 -18.817  1.00  0.00     0.000 C 
ENDROOT
BRANCH   1   2
ATOM      2  C   UNL     1     -16.788   0.129 -19.281  1.00  0.00     0.000 C 
BRANCH   2   3
ATOM      3  C   UNL     1     -15.461  -0.420 -19.841  1.00  0.00     0.000 C 
BRANCH   3   4
ATOM      4  C   UNL     1     -14.467   0.683 -20.256  1.00  0.00    -0.000 C 
BRANCH   4   5
ATOM      5  C   UNL     1     -14.009   1.535 -19.056  1.00  0.00    -0.000 C 
BRANCH   5   6
ATOM      6  C   UNL     1     -14.195   3.044 -19.312  1.00  0.00    -0.000 C 
BRANCH   6   7
ATOM      7  C   UNL     1     -13.913   3.900 -18.066  1.00  0.00    -0.000 C 
BRANCH   7   8
ATOM      8  C   UNL     1     -13.115   3.136 -16.993  1.00  0.00    -0.000 C 
BRANCH   8   9
ATOM      9  C   UNL     1     -13.984   2.687 -15.804  1.00  0.00    -0.000 C 
BRANCH   9  10
ATOM     10  C   UNL     1     -15.483   3.016 -15.924  1.00  0.00    -0.000 C 
BRANCH  10  11
ATOM     11  C   UNL     1     -16.363   1.764 -16.062  1.00  0.00    -0.003 C 
ATOM     12  C   UNL     1     -15.532   0.491 -15.909  1.00  0.00     0.004 C 
ENDBRANCH  10  11
ENDBRANCH   9  10
ENDBRANCH   8   9
ENDBRANCH   7   8
ENDBRANCH   6   7
ENDBRANCH   5   6
ENDBRANCH   4   5
ENDBRANCH   3   4
ENDBRANCH   2   3
ENDBRANCH   1   2
BRANCH   1  13
ATOM     13  C   UNL     1     -17.261  -1.984 -17.802  1.00  0.00     0.000 C 
BRANCH  13  14
ATOM     14  C   UNL     1     -18.105  -2.151 -16.525  1.00  0.00     0.000 C 
BRANCH  14  15
ATOM     15  C   UNL     1     -19.113  -1.003 -16.324  1.00  0.00     0.000 C 
BRANCH  15  16
ATOM     16  C   UNL     1     -19.052  -0.397 -14.912  1.00  0.00     0.000 C 
BRANCH  16  17
ATOM     17  C   UNL     1     -18.168  -1.220 -13.959  1.00  0.00     0.000 C 
BRANCH  17  18
ATOM     18  C   UNL     1     -18.086  -0.608 -12.550  1.00  0.00     0.000 C 
BRANCH  18  19
ATOM     19  C   UNL     1     -18.033   0.927 -12.571  1.00  0.00     0.000 C 
BRANCH  19  20
ATOM     20  C   UNL     1     -17.509   1.474 -11.234  1.00  0.00     0.006 C 
BRANCH  20  21
ATOM     21  C   UNL     1     -16.010   1.205 -11.043  1.00  0.00     0.053 C 
BRANCH  21  22
ATOM     22  C   UNL     1     -15.202   1.740 -12.186  1.00  0.00     0.041 C 
ATOM     23  O   UNL     1     -14.448   0.974 -12.841  1.00  0.00    -0.550 OA
ATOM     24  O   UNL     1     -15.306   3.079 -12.546  1.00  0.00    -0.550 OA
ENDBRANCH  21  22
ENDBRANCH  20  21
ENDBRANCH  19  20
ENDBRANCH  18  19
ENDBRANCH  17  18
ENDBRANCH  16  17
ENDBRANCH  15  16
ENDBRANCH  14  15
ENDBRANCH  13  14
ENDBRANCH   1  13
TORSDOF 20
ENDMDL
MODEL 5
REMARK VINA RESULT:    -5.844      2.200      5.405
REMARK INTER + INTRA:         -15.941
REMARK INTER:                 -13.520
REMARK INTRA:                  -2.421
REMARK UNBOUND:                -3.265
REMARK SMILES CCCCCCCCCCCCCCCCCCCCCC(=O)[O-]
REMARK SMILES IDX 12 1 11 2 10 3 9 4 8 5 7 6 6 7 5 8 4 9 3 10 2 11 1 12 13 13
REMARK SMILES IDX 14 14 15 15 16 16 17 17 18 18 19 19 20 20 21 21 22 22 23 23
REMARK SMILES IDX 24 24
REMARK H PARENT
REMARK Flexibility Score: inf
ROOT
ATOM      1  C   UNL     1     -16.542  -0.793 -15.930  1.00  0.00     0.000 C 
ENDROOT
BRANCH   1   2
ATOM      2  C   UNL     1     -16.564  -2.139 -16.688  1.00  0.00     0.000 C 
BRANCH   2   3
ATOM      3  C   UNL     1     -17.550  -2.201 -17.872  1.00  0.00     0.000 C 
BRANCH   3   4
ATOM      4  C   UNL     1     -16.979  -1.613 -19.177  1.00  0.00    -0.000 C 
BRANCH   4   5
ATOM      5  C   UNL     1     -17.261  -0.104 -19.307  1.00  0.00    -0.000 C 
BRANCH   5   6
ATOM      6  C   UNL     1     -15.985   0.699 -19.632  1.00  0.00    -0.000 C 
BRANCH   6   7
ATOM      7  C   UNL     1     -14.746  -0.196 -19.808  1.00  0.00    -0.000 C 
BRANCH   7   8
ATOM      8  C   UNL     1     -13.846  -0.210 -18.558  1.00  0.00    -0.000 C 
BRANCH   8   9
ATOM      9  C   UNL     1     -13.944   1.086 -17.732  1.00  0.00    -0.000 C 
BRANCH   9  10
ATOM     10  C   UNL     1     -13.384   2.346 -18.416  1.00  0.00    -0.000 C 
BRANCH  10  11
ATOM     11  C   UNL     1     -13.984   3.646 -17.863  1.00  0.00    -0.003 C 
ATOM     12  C   UNL     1     -15.293   3.374 -17.123  1.00  0.00     0.004 C 
ENDBRANCH  10  11
ENDBRANCH   9  10
ENDBRANCH   8   9
ENDBRANCH   7   8
ENDBRANCH   6   7
ENDBRANCH   5   6
ENDBRANCH   4   5
ENDBRANCH   3   4
ENDBRANCH   2   3
ENDBRANCH   1   2
BRANCH   1  13
ATOM     13  C   UNL     1     -17.897  -0.060 -15.807  1.00  0.00     0.000 C 
BRANCH  13  14
ATOM     14  C   UNL     1     -19.014  -0.853 -15.104  1.00  0.00     0.000 C 
BRANCH  14  15
ATOM     15  C   UNL     1     -18.686  -1.163 -13.630  1.00  0.00     0.000 C 
BRANCH  15  16
ATOM     16  C   UNL     1     -18.093   0.045 -12.885  1.00  0.00     0.000 C 
BRANCH  16  17
ATOM     17  C   UNL     1     -17.606  -0.320 -11.471  1.00  0.00     0.000 C 
BRANCH  17  18
ATOM     18  C   UNL     1     -17.605   0.885 -10.516  1.00  0.00     0.000 C 
BRANCH  18  19
ATOM     19  C   UNL     1     -17.299   2.210 -11.229  1.00  0.00     0.000 C 
BRANCH  19  20
ATOM     20  C   UNL     1     -15.787   2.388 -11.428  1.00  0.00     0.006 C 
BRANCH  20  21
ATOM     21  C   UNL     1     -15.437   2.856 -12.848  1.00  0.00     0.053 C 
BRANCH  21  22
ATOM     22  C   UNL     1     -14.578   1.859 -13.563  1.00  0.00     0.041 C 
ATOM     23  O   UNL     1     -14.683   0.632 -13.304  1.00  0.00    -0.550 OA
ATOM     24  O   UNL     1     -13.684   2.284 -14.540  1.00  0.00    -0.550 OA
ENDBRANCH  21  22
ENDBRANCH  20  21
ENDBRANCH  19  20
ENDBRANCH  18  19
ENDBRANCH  17  18
ENDBRANCH  16  17
ENDBRANCH  15  16
ENDBRANCH  14  15
ENDBRANCH  13  14
ENDBRANCH   1  13
TORSDOF 20
ENDMDL
MODEL 6
REMARK VINA RESULT:    -5.765      2.036      5.249
REMARK INTER + INTRA:         -15.770
REMARK INTER:                 -13.429
REMARK INTRA:                  -2.340
REMARK UNBOUND:                -3.265
REMARK SMILES CCCCCCCCCCCCCCCCCCCCCC(=O)[O-]
REMARK SMILES IDX 12 1 11 2 10 3 9 4 8 5 7 6 6 7 5 8 4 9 3 10 2 11 1 12 13 13
REMARK SMILES IDX 14 14 15 15 16 16 17 17 18 18 19 19 20 20 21 21 22 22 23 23
REMARK SMILES IDX 24 24
REMARK H PARENT
REMARK Flexibility Score: inf
ROOT
ATOM      1  C   UNL     1     -14.493   2.159 -15.361  1.00  0.00     0.000 C 
ENDROOT
BRANCH   1   2
ATOM      2  C   UNL     1     -15.550   2.797 -14.432  1.00  0.00     0.000 C 
BRANCH   2   3
ATOM      3  C   UNL     1     -15.158   2.846 -12.942  1.00  0.00     0.000 C 
BRANCH   3   4
ATOM      4  C   UNL     1     -15.955   1.859 -12.066  1.00  0.00    -0.000 C 
BRANCH   4   5
ATOM      5  C   UNL     1     -16.458   0.644 -12.868  1.00  0.00    -0.000 C 
BRANCH   5   6
ATOM      6  C   UNL     1     -17.871   0.207 -12.435  1.00  0.00    -0.000 C 
BRANCH   6   7
ATOM      7  C   UNL     1     -18.481  -0.854 -13.367  1.00  0.00    -0.000 C 
BRANCH   7   8
ATOM      8  C   UNL     1     -18.467  -0.419 -14.844  1.00  0.00    -0.000 C 
BRANCH   8   9
ATOM      9  C   UNL     1     -19.829  -0.609 -15.540  1.00  0.00    -0.000 C 
BRANCH   9  10
ATOM     10  C   UNL     1     -20.530   0.689 -15.979  1.00  0.00    -0.000 C 
BRANCH  10  11
ATOM     11  C   UNL     1     -22.060   0.608 -15.880  1.00  0.00    -0.003 C 
ATOM     12  C   UNL     1     -22.708   1.925 -16.303  1.00  0.00     0.004 C 
ENDBRANCH  10  11
ENDBRANCH   9  10
ENDBRANCH   8   9
ENDBRANCH   7   8
ENDBRANCH   6   7
ENDBRANCH   5   6
ENDBRANCH   4   5
ENDBRANCH   3   4
ENDBRANCH   2   3
ENDBRANCH   1   2
BRANCH   1  13
ATOM     13  C   UNL     1     -13.192   2.966 -15.567  1.00  0.00     0.000 C 
BRANCH  13  14
ATOM     14  C   UNL     1     -12.914   3.410 -17.016  1.00  0.00     0.000 C 
BRANCH  14  15
ATOM     15  C   UNL     1     -14.205   3.662 -17.819  1.00  0.00     0.000 C 
BRANCH  15  16
ATOM     16  C   UNL     1     -14.224   2.917 -19.165  1.00  0.00     0.000 C 
BRANCH  16  17
ATOM     17  C   UNL     1     -14.202   1.388 -18.989  1.00  0.00     0.000 C 
BRANCH  17  18
ATOM     18  C   UNL     1     -15.507   0.721 -19.455  1.00  0.00     0.000 C 
BRANCH  18  19
ATOM     19  C   UNL     1     -16.683   0.982 -18.502  1.00  0.00     0.000 C 
BRANCH  19  20
ATOM     20  C   UNL     1     -17.751  -0.114 -18.637  1.00  0.00     0.006 C 
BRANCH  20  21
ATOM     21  C   UNL     1     -17.139  -1.487 -18.950  1.00  0.00     0.053 C 
BRANCH  21  22
ATOM     22  C   UNL     1     -16.807  -2.243 -17.699  1.00  0.00     0.041 C 
ATOM     23  O   UNL     1     -17.702  -2.889 -17.094  1.00  0.00    -0.550 OA
ATOM     24  O   UNL     1     -15.501  -2.260 -17.221  1.00  0.00    -0.550 OA
ENDBRANCH  21  22
ENDBRANCH  20  21
ENDBRANCH  19  20
ENDBRANCH  18  19
ENDBRANCH  17  18
ENDBRANCH  16  17
ENDBRANCH  15  16
ENDBRANCH  14  15
ENDBRANCH  13  14
ENDBRANCH   1  13
TORSDOF 20
ENDMDL
MODEL 7
REMARK VINA RESULT:    -5.760      2.868      5.996
REMARK INTER + INTRA:         -15.761
REMARK INTER:                 -12.973
REMARK INTRA:                  -2.787
REMARK UNBOUND:                -3.265
REMARK SMILES CCCCCCCCCCCCCCCCCCCCCC(=O)[O-]
REMARK SMILES IDX 12 1 11 2 10 3 9 4 8 5 7 6 6 7 5 8 4 9 3 10 2 11 1 12 13 13
REMARK SMILES IDX 14 14 15 15 16 16 17 17 18 18 19 19 20 20 21 21 22 22 23 23
REMARK SMILES IDX 24 24
REMARK H PARENT
REMARK Flexibility Score: inf
ROOT
ATOM      1  C   UNL     1     -16.667  -1.002 -19.209  1.00  0.00     0.000 C 
ENDROOT
BRANCH   1   2
ATOM      2  C   UNL     1     -17.739   0.017 -18.762  1.00  0.00     0.000 C 
BRANCH   2   3
ATOM      3  C   UNL     1     -17.217   1.155 -17.862  1.00  0.00     0.000 C 
BRANCH   3   4
ATOM      4  C   UNL     1     -17.475   0.916 -16.361  1.00  0.00    -0.000 C 
BRANCH   4   5
ATOM      5  C   UNL     1     -16.662  -0.273 -15.812  1.00  0.00    -0.000 C 
BRANCH   5   6
ATOM      6  C   UNL     1     -17.196  -0.762 -14.451  1.00  0.00    -0.000 C 
BRANCH   6   7
ATOM      7  C   UNL     1     -18.723  -0.620 -14.324  1.00  0.00    -0.000 C 
BRANCH   7   8
ATOM      8  C   UNL     1     -19.484  -1.497 -15.335  1.00  0.00    -0.000 C 
BRANCH   8   9
ATOM      9  C   UNL     1     -20.884  -0.951 -15.671  1.00  0.00    -0.000 C 
BRANCH   9  10
ATOM     10  C   UNL     1     -20.961   0.572 -15.887  1.00  0.00    -0.000 C 
BRANCH  10  11
ATOM     11  C   UNL     1     -22.400   1.081 -16.058  1.00  0.00    -0.003 C 
ATOM     12  C   UNL     1     -23.404  -0.066 -15.950  1.00  0.00     0.004 C 
ENDBRANCH  10  11
ENDBRANCH   9  10
ENDBRANCH   8   9
ENDBRANCH   7   8
ENDBRANCH   6   7
ENDBRANCH   5   6
ENDBRANCH   4   5
ENDBRANCH   3   4
ENDBRANCH   2   3
ENDBRANCH   1   2
BRANCH   1  13
ATOM     13  C   UNL     1     -15.276  -0.421 -19.547  1.00  0.00     0.000 C 
BRANCH  13  14
ATOM     14  C   UNL     1     -15.216   0.457 -20.811  1.00  0.00     0.000 C 
BRANCH  14  15
ATOM     15  C   UNL     1     -14.618   1.851 -20.538  1.00  0.00     0.000 C 
BRANCH  15  16
ATOM     16  C   UNL     1     -14.038   1.983 -19.119  1.00  0.00     0.000 C 
BRANCH  16  17
ATOM     17  C   UNL     1     -14.041   3.438 -18.617  1.00  0.00     0.000 C 
BRANCH  17  18
ATOM     18  C   UNL     1     -13.646   3.554 -17.136  1.00  0.00     0.000 C 
BRANCH  18  19
ATOM     19  C   UNL     1     -13.922   2.267 -16.344  1.00  0.00     0.000 C 
BRANCH  19  20
ATOM     20  C   UNL     1     -13.785   2.514 -14.834  1.00  0.00     0.006 C 
BRANCH  20  21
ATOM     21  C   UNL     1     -15.140   2.779 -14.163  1.00  0.00     0.053 C 
BRANCH  21  22
ATOM     22  C   UNL     1     -15.285   2.012 -12.885  1.00  0.00     0.041 C 
ATOM     23  O   UNL     1     -14.575   0.993 -12.674  1.00  0.00    -0.550 OA
ATOM     24  O   UNL     1     -16.182   2.441 -11.912  1.00  0.00    -0.550 OA
ENDBRANCH  21  22
ENDBRANCH  20  21
ENDBRANCH  19  20
ENDBRANCH  18  19
ENDBRANCH  17  18
ENDBRANCH  16  17
ENDBRANCH  15  16
ENDBRANCH  14  15
ENDBRANCH  13  14
ENDBRANCH   1  13
TORSDOF 20
ENDMDL
MODEL 8
REMARK VINA RESULT:    -5.725      3.390      6.994
REMARK INTER + INTRA:         -15.684
REMARK INTER:                 -12.456
REMARK INTRA:                  -3.228
REMARK UNBOUND:                -3.265
REMARK SMILES CCCCCCCCCCCCCCCCCCCCCC(=O)[O-]
REMARK SMILES IDX 12 1 11 2 10 3 9 4 8 5 7 6 6 7 5 8 4 9 3 10 2 11 1 12 13 13
REMARK SMILES IDX 14 14 15 15 16 16 17 17 18 18 19 19 20 20 21 21 22 22 23 23
REMARK SMILES IDX 24 24
REMARK H PARENT
REMARK Flexibility Score: inf
ROOT
ATOM      1  C   UNL     1     -17.691  -1.281 -18.488  1.00  0.00     0.000 C 
ENDROOT
BRANCH   1   2
ATOM      2  C   UNL     1     -16.305  -1.559 -19.112  1.00  0.00     0.000 C 
BRANCH   2   3
ATOM      3  C   UNL     1     -15.127  -1.521 -18.119  1.00  0.00     0.000 C 
BRANCH   3   4
ATOM      4  C   UNL     1     -14.018  -0.528 -18.520  1.00  0.00    -0.000 C 
BRANCH   4   5
ATOM      5  C   UNL     1     -14.534   0.566 -19.475  1.00  0.00    -0.000 C 
BRANCH   5   6
ATOM      6  C   UNL     1     -14.545   1.957 -18.812  1.00  0.00    -0.000 C 
BRANCH   6   7
ATOM      7  C   UNL     1     -13.612   2.044 -17.591  1.00  0.00    -0.000 C 
BRANCH   7   8
ATOM      8  C   UNL     1     -14.170   2.960 -16.486  1.00  0.00    -0.000 C 
BRANCH   8   9
ATOM      9  C   UNL     1     -13.712   2.547 -15.075  1.00  0.00    -0.000 C 
BRANCH   9  10
ATOM     10  C   UNL     1     -14.791   2.637 -13.981  1.00  0.00    -0.000 C 
BRANCH  10  11
ATOM     11  C   UNL     1     -14.784   1.431 -13.031  1.00  0.00    -0.003 C 
ATOM     12  C   UNL     1     -15.696   1.674 -11.829  1.00  0.00     0.004 C 
ENDBRANCH  10  11
ENDBRANCH   9  10
ENDBRANCH   8   9
ENDBRANCH   7   8
ENDBRANCH   6   7
ENDBRANCH   5   6
ENDBRANCH   4   5
ENDBRANCH   3   4
ENDBRANCH   2   3
ENDBRANCH   1   2
BRANCH   1  13
ATOM     13  C   UNL     1     -18.135   0.198 -18.447  1.00  0.00     0.000 C 
BRANCH  13  14
ATOM     14  C   UNL     1     -18.310   0.796 -17.039  1.00  0.00     0.000 C 
BRANCH  14  15
ATOM     15  C   UNL     1     -16.996   0.815 -16.233  1.00  0.00     0.000 C 
BRANCH  15  16
ATOM     16  C   UNL     1     -16.957  -0.258 -15.132  1.00  0.00     0.000 C 
BRANCH  16  17
ATOM     17  C   UNL     1     -18.120  -0.115 -14.133  1.00  0.00     0.000 C 
BRANCH  17  18
ATOM     18  C   UNL     1     -18.884  -1.434 -13.923  1.00  0.00     0.000 C 
BRANCH  18  19
ATOM     19  C   UNL     1     -19.366  -2.059 -15.240  1.00  0.00     0.000 C 
BRANCH  19  20
ATOM     20  C   UNL     1     -20.885  -2.287 -15.214  1.00  0.00     0.006 C 
BRANCH  20  21
ATOM     21  C   UNL     1     -21.659  -1.125 -15.852  1.00  0.00     0.053 C 
BRANCH  21  22
ATOM     22  C   UNL     1     -23.118  -1.438 -15.984  1.00  0.00     0.041 C 
ATOM     23  O   UNL     1     -23.882  -0.647 -16.597  1.00  0.00    -0.550 OA
ATOM     24  O   UNL     1     -23.628  -2.620 -15.457  1.00  0.00    -0.550 OA
ENDBRANCH  21  22
ENDBRANCH  20  21
ENDBRANCH  19  20
ENDBRANCH  18  19
ENDBRANCH  17  18
ENDBRANCH  16  17
ENDBRANCH  15  16
ENDBRANCH  14  15
ENDBRANCH  13  14
ENDBRANCH   1  13
TORSDOF 20
ENDMDL
MODEL 9
REMARK VINA RESULT:    -5.700      3.376      6.408
REMARK INTER + INTRA:         -15.629
REMARK INTER:                 -13.118
REMARK INTRA:                  -2.511
REMARK UNBOUND:                -3.265
REMARK SMILES CCCCCCCCCCCCCCCCCCCCCC(=O)[O-]
REMARK SMILES IDX 12 1 11 2 10 3 9 4 8 5 7 6 6 7 5 8 4 9 3 10 2 11 1 12 13 13
REMARK SMILES IDX 14 14 15 15 16 16 17 17 18 18 19 19 20 20 21 21 22 22 23 23
REMARK SMILES IDX 24 24
REMARK H PARENT
REMARK Flexibility Score: inf
ROOT
ATOM      1  C   UNL     1     -14.744   2.083 -19.255  1.00  0.00     0.000 C 
ENDROOT
BRANCH   1   2
ATOM      2  C   UNL     1     -14.340   1.128 -20.401  1.00  0.00     0.000 C 
BRANCH   2   3
ATOM      3  C   UNL     1     -14.316  -0.366 -20.022  1.00  0.00     0.000 C 
BRANCH   3   4
ATOM      4  C   UNL     1     -14.368  -0.613 -18.501  1.00  0.00    -0.000 C 
BRANCH   4   5
ATOM      5  C   UNL     1     -15.693  -1.267 -18.063  1.00  0.00    -0.000 C 
BRANCH   5   6
ATOM      6  C   UNL     1     -16.753  -1.235 -19.181  1.00  0.00    -0.000 C 
BRANCH   6   7
ATOM      7  C   UNL     1     -17.673  -0.004 -19.096  1.00  0.00    -0.000 C 
BRANCH   7   8
ATOM      8  C   UNL     1     -17.634   0.667 -17.711  1.00  0.00    -0.000 C 
BRANCH   8   9
ATOM      9  C   UNL     1     -18.858   0.325 -16.841  1.00  0.00    -0.000 C 
BRANCH   9  10
ATOM     10  C   UNL     1     -18.744  -0.977 -16.028  1.00  0.00    -0.000 C 
BRANCH  10  11
ATOM     11  C   UNL     1     -17.764  -0.865 -14.851  1.00  0.00    -0.003 C 
ATOM     12  C   UNL     1     -18.509  -0.834 -13.518  1.00  0.00     0.004 C 
ENDBRANCH  10  11
ENDBRANCH   9  10
ENDBRANCH   8   9
ENDBRANCH   7   8
ENDBRANCH   6   7
ENDBRANCH   5   6
ENDBRANCH   4   5
ENDBRANCH   3   4
ENDBRANCH   2   3
ENDBRANCH   1   2
BRANCH   1  13
ATOM     13  C   UNL     1     -13.880   3.353 -19.093  1.00  0.00     0.000 C 
BRANCH  13  14
ATOM     14  C   UNL     1     -13.060   3.432 -17.792  1.00  0.00     0.000 C 
BRANCH  14  15
ATOM     15  C   UNL     1     -13.638   2.546 -16.671  1.00  0.00     0.000 C 
BRANCH  15  16
ATOM     16  C   UNL     1     -14.931   3.120 -16.065  1.00  0.00     0.000 C 
BRANCH  16  17
ATOM     17  C   UNL     1     -15.569   2.167 -15.038  1.00  0.00     0.000 C 
BRANCH  17  18
ATOM     18  C   UNL     1     -14.631   1.850 -13.862  1.00  0.00     0.000 C 
BRANCH  18  19
ATOM     19  C   UNL     1     -15.347   1.139 -12.704  1.00  0.00     0.000 C 
BRANCH  19  20
ATOM     20  C   UNL     1     -15.822   2.152 -11.651  1.00  0.00     0.006 C 
BRANCH  20  21
ATOM     21  C   UNL     1     -17.286   1.926 -11.246  1.00  0.00     0.053 C 
BRANCH  21  22
ATOM     22  C   UNL     1     -17.419   0.817 -10.248  1.00  0.00     0.041 C 
ATOM     23  O   UNL     1     -16.966  -0.328 -10.509  1.00  0.00    -0.550 OA
ATOM     24  O   UNL     1     -18.018   1.058  -9.015  1.00  0.00    -0.550 OA
ENDBRANCH  21  22
ENDBRANCH  20  21
ENDBRANCH  19  20
ENDBRANCH  18  19
ENDBRANCH  17  18
ENDBRANCH  16  17
ENDBRANCH  15  16
ENDBRANCH  14  15
ENDBRANCH  13  14
ENDBRANCH   1  13
TORSDOF 20
ENDMDL
