MODEL 1
REMARK VINA RESULT:    -3.777      0.000      0.000
REMARK INTER + INTRA:          -5.126
REMARK INTER:                  -4.881
REMARK INTRA:                  -0.245
REMARK UNBOUND:                -0.245
REMARK SMILES CCCCCCC(=O)[O-]
REMARK SMILES IDX 5 1 6 2 7 3 8 4 9 5 4 6 3 7 2 8 1 9
REMARK H PARENT
REMARK Flexibility Score: inf
ROOT
ATOM      1  C   UNL     1     191.150 192.571 191.315  1.00  0.00     0.006 C 
ENDROOT
BRANCH   1   2
ATOM      2  C   UNL     1     191.720 191.368 192.085  1.00  0.00     0.053 C 
BRANCH   2   3
ATOM      3  C   UNL     1     190.675 190.685 192.913  1.00  0.00     0.041 C 
ATOM      4  O   UNL     1     191.010 189.969 193.892  1.00  0.00    -0.550 OA
ATOM      5  O   UNL     1     189.332 190.811 192.579  1.00  0.00    -0.550 OA
ENDBRANCH   2   3
ENDBRANCH   1   2
BRANCH   1   6
ATOM      6  C   UNL     1     191.431 193.934 191.974  1.00  0.00     0.000 C 
BRANCH   6   7
ATOM      7  C   UNL     1     192.336 194.834 191.114  1.00  0.00    -0.000 C 
BRANCH   7   8
ATOM      8  C   UNL     1     193.556 194.083 190.560  1.00  0.00    -0.003 C 
ATOM      9  C   UNL     1     194.690 193.968 191.579  1.00  0.00     0.004 C 
ENDBRANCH   7   8
ENDBRANCH   6   7
ENDBRANCH   1   6
TORSDOF 5
ENDMDL
MODEL 2
REMARK VINA RESULT:    -3.684      0.873      1.036
REMARK INTER + INTRA:          -5.005
REMARK INTER:                  -4.799
REMARK INTRA:                  -0.207
REMARK UNBOUND:                -0.245
REMARK SMILES CCCCCCC(=O)[O-]
REMARK SMILES IDX 5 1 6 2 7 3 8 4 9 5 4 6 3 7 2 8 1 9
REMARK H PARENT
REMARK Flexibility Score: inf
ROOT
ATOM      1  C   UNL     1     191.512 192.433 191.083  1.00  0.00     0.006 C 
ENDROOT
BRANCH   1   2
ATOM      2  C   UNL     1     191.167 191.284 192.044  1.00  0.00     0.053 C 
BRANCH   2   3
ATOM      3  C   UNL     1     189.699 190.985 192.059  1.00  0.00     0.041 C 
ATOM      4  O   UNL     1     189.230 190.152 192.878  1.00  0.00    -0.550 OA
ATOM      5  O   UNL     1     188.856 191.601 191.143  1.00  0.00    -0.550 OA
ENDBRANCH   2   3
ENDBRANCH   1   2
BRANCH   1   6
ATOM      6  C   UNL     1     191.392 193.837 191.705  1.00  0.00     0.000 C 
BRANCH   6   7
ATOM      7  C   UNL     1     192.522 194.782 191.261  1.00  0.00    -0.000 C 
BRANCH   7   8
ATOM      8  C   UNL     1     193.710 194.028 190.644  1.00  0.00    -0.003 C 
ATOM      9  C   UNL     1     194.884 193.884 191.612  1.00  0.00     0.004 C 
ENDBRANCH   7   8
ENDBRANCH   6   7
ENDBRANCH   1   6
TORSDOF 5
ENDMDL
MODEL 3
REMARK VINA RESULT:    -3.669      1.259      1.801
REMARK INTER + INTRA:          -4.986
REMARK INTER:                  -4.772
REMARK INTRA:                  -0.214
REMARK UNBOUND:                -0.245
REMARK SMILES CCCCCCC(=O)[O-]
REMARK SMILES IDX 5 1 6 2 7 3 8 4 9 5 4 6 3 7 2 8 1 9
REMARK H PARENT
REMARK Flexibility Score: inf
ROOT
ATOM      1  C   UNL     1     191.196 191.863 190.629  1.00  0.00     0.006 C 
ENDROOT
BRANCH   1   2
ATOM      2  C   UNL     1     189.666 192.007 190.662  1.00  0.00     0.053 C 
BRANCH   2   3
ATOM      3  C   UNL     1     189.101 191.693 192.013  1.00  0.00     0.041 C 
ATOM      4  O   UNL     1     188.521 192.588 192.681  1.00  0.00    -0.550 OA
ATOM      5  O   UNL     1     189.248 190.420 192.548  1.00  0.00    -0.550 OA
ENDBRANCH   2   3
ENDBRANCH   1   2
BRANCH   1   6
ATOM      6  C   UNL     1     191.931 192.665 191.720  1.00  0.00     0.000 C 
BRANCH   6   7
ATOM      7  C   UNL     1     192.345 194.070 191.247  1.00  0.00    -0.000 C 
BRANCH   7   8
ATOM      8  C   UNL     1     193.730 194.082 190.585  1.00  0.00    -0.003 C 
ATOM      9  C   UNL     1     194.865 193.877 191.588  1.00  0.00     0.004 C 
ENDBRANCH   7   8
ENDBRANCH   6   7
ENDBRANCH   1   6
TORSDOF 5
ENDMDL
MODEL 4
REMARK VINA RESULT:    -3.657      4.232      5.188
REMARK INTER + INTRA:          -4.970
REMARK INTER:                  -4.761
REMARK INTRA:                  -0.209
REMARK UNBOUND:                -0.245
REMARK SMILES CCCCCCC(=O)[O-]
REMARK SMILES IDX 5 1 6 2 7 3 8 4 9 5 4 6 3 7 2 8 1 9
REMARK H PARENT
REMARK Flexibility Score: inf
ROOT
ATOM      1  C   UNL     1     191.485 195.709 191.408  1.00  0.00     0.006 C 
ENDROOT
BRANCH   1   2
ATOM      2  C   UNL     1     191.445 196.437 192.761  1.00  0.00     0.053 C 
BRANCH   2   3
ATOM      3  C   UNL     1     191.838 197.878 192.636  1.00  0.00     0.041 C 
ATOM      4  O   UNL     1     191.211 198.640 191.855  1.00  0.00    -0.550 OA
ATOM      5  O   UNL     1     192.919 198.368 193.358  1.00  0.00    -0.550 OA
ENDBRANCH   2   3
ENDBRANCH   1   2
BRANCH   1   6
ATOM      6  C   UNL     1     191.161 194.206 191.488  1.00  0.00     0.000 C 
BRANCH   6   7
ATOM      7  C   UNL     1     192.418 193.322 191.408  1.00  0.00    -0.000 C 
BRANCH   7   8
ATOM      8  C   UNL     1     193.639 194.084 190.870  1.00  0.00    -0.003 C 
ATOM      9  C   UNL     1     194.910 193.804 191.671  1.00  0.00     0.004 C 
ENDBRANCH   7   8
ENDBRANCH   6   7
ENDBRANCH   1   6
TORSDOF 5
ENDMDL
MODEL 5
REMARK VINA RESULT:    -3.616      5.413      6.668
REMARK INTER + INTRA:          -4.918
REMARK INTER:                  -4.753
REMARK INTRA:                  -0.166
REMARK UNBOUND:                -0.245
REMARK SMILES CCCCCCC(=O)[O-]
REMARK SMILES IDX 5 1 6 2 7 3 8 4 9 5 4 6 3 7 2 8 1 9
REMARK H PARENT
REMARK Flexibility Score: inf
ROOT
ATOM      1  C   UNL     1     191.126 197.843 192.446  1.00  0.00     0.006 C 
ENDROOT
BRANCH   1   2
ATOM      2  C   UNL     1     191.827 198.624 191.323  1.00  0.00     0.053 C 
BRANCH   2   3
ATOM      3  C   UNL     1     192.733 199.689 191.860  1.00  0.00     0.041 C 
ATOM      4  O   UNL     1     192.917 200.752 191.211  1.00  0.00    -0.550 OA
ATOM      5  O   UNL     1     193.401 199.491 193.062  1.00  0.00    -0.550 OA
ENDBRANCH   2   3
ENDBRANCH   1   2
BRANCH   1   6
ATOM      6  C   UNL     1     191.551 196.367 192.552  1.00  0.00     0.000 C 
BRANCH   6   7
ATOM      7  C   UNL     1     191.574 195.656 191.187  1.00  0.00    -0.000 C 
BRANCH   7   8
ATOM      8  C   UNL     1     192.128 194.226 191.278  1.00  0.00    -0.003 C 
ATOM      9  C   UNL     1     193.536 194.101 190.698  1.00  0.00     0.004 C 
ENDBRANCH   7   8
ENDBRANCH   6   7
ENDBRANCH   1   6
TORSDOF 5
ENDMDL
MODEL 6
REMARK VINA RESULT:    -3.588      3.799      4.749
REMARK INTER + INTRA:          -4.882
REMARK INTER:                  -4.720
REMARK INTRA:                  -0.162
REMARK UNBOUND:                -0.245
REMARK SMILES CCCCCCC(=O)[O-]
REMARK SMILES IDX 5 1 6 2 7 3 8 4 9 5 4 6 3 7 2 8 1 9
REMARK H PARENT
REMARK Flexibility Score: inf
ROOT
ATOM      1  C   UNL     1     191.489 195.964 192.618  1.00  0.00     0.006 C 
ENDROOT
BRANCH   1   2
ATOM      2  C   UNL     1     191.793 195.568 191.164  1.00  0.00     0.053 C 
BRANCH   2   3
ATOM      3  C   UNL     1     192.518 194.259 191.079  1.00  0.00     0.041 C 
ATOM      4  O   UNL     1     192.078 193.250 191.689  1.00  0.00    -0.550 OA
ATOM      5  O   UNL     1     193.698 194.165 190.353  1.00  0.00    -0.550 OA
ENDBRANCH   2   3
ENDBRANCH   1   2
BRANCH   1   6
ATOM      6  C   UNL     1     191.122 197.448 192.805  1.00  0.00     0.000 C 
BRANCH   6   7
ATOM      7  C   UNL     1     191.492 198.310 191.585  1.00  0.00    -0.000 C 
BRANCH   7   8
ATOM      8  C   UNL     1     192.472 199.438 191.937  1.00  0.00    -0.003 C 
ATOM      9  C   UNL     1     193.027 200.145 190.701  1.00  0.00     0.004 C 
ENDBRANCH   7   8
ENDBRANCH   6   7
ENDBRANCH   1   6
TORSDOF 5
ENDMDL
MODEL 7
REMARK VINA RESULT:    -3.534      3.581      4.994
REMARK INTER + INTRA:          -4.811
REMARK INTER:                  -4.623
REMARK INTRA:                  -0.188
REMARK UNBOUND:                -0.245
REMARK SMILES CCCCCCC(=O)[O-]
REMARK SMILES IDX 5 1 6 2 7 3 8 4 9 5 4 6 3 7 2 8 1 9
REMARK H PARENT
REMARK Flexibility Score: inf
ROOT
ATOM      1  C   UNL     1     192.248 194.956 191.141  1.00  0.00     0.006 C 
ENDROOT
BRANCH   1   2
ATOM      2  C   UNL     1     191.457 195.428 192.372  1.00  0.00     0.053 C 
BRANCH   2   3
ATOM      3  C   UNL     1     191.154 196.895 192.316  1.00  0.00     0.041 C 
ATOM      4  O   UNL     1     191.284 197.528 191.236  1.00  0.00    -0.550 OA
ATOM      5  O   UNL     1     190.763 197.568 193.466  1.00  0.00    -0.550 OA
ENDBRANCH   2   3
ENDBRANCH   1   2
BRANCH   1   6
ATOM      6  C   UNL     1     192.676 193.477 191.194  1.00  0.00     0.000 C 
BRANCH   6   7
ATOM      7  C   UNL     1     191.491 192.510 191.034  1.00  0.00    -0.000 C 
BRANCH   7   8
ATOM      8  C   UNL     1     191.598 191.290 191.962  1.00  0.00    -0.003 C 
ATOM      9  C   UNL     1     190.503 191.263 193.028  1.00  0.00     0.004 C 
ENDBRANCH   7   8
ENDBRANCH   6   7
ENDBRANCH   1   6
TORSDOF 5
ENDMDL
MODEL 8
REMARK VINA RESULT:    -3.466      1.206      2.094
REMARK INTER + INTRA:          -4.724
REMARK INTER:                  -4.410
REMARK INTRA:                  -0.314
REMARK UNBOUND:                -0.245
REMARK SMILES CCCCCCC(=O)[O-]
REMARK SMILES IDX 5 1 6 2 7 3 8 4 9 5 4 6 3 7 2 8 1 9
REMARK H PARENT
REMARK Flexibility Score: inf
ROOT
ATOM      1  C   UNL     1     191.529 192.598 190.939  1.00  0.00     0.006 C 
ENDROOT
BRANCH   1   2
ATOM      2  C   UNL     1     191.518 191.379 191.876  1.00  0.00     0.053 C 
BRANCH   2   3
ATOM      3  C   UNL     1     190.336 191.389 192.796  1.00  0.00     0.041 C 
ATOM      4  O   UNL     1     189.497 190.452 192.761  1.00  0.00    -0.550 OA
ATOM      5  O   UNL     1     190.143 192.454 193.668  1.00  0.00    -0.550 OA
ENDBRANCH   2   3
ENDBRANCH   1   2
BRANCH   1   6
ATOM      6  C   UNL     1     192.851 193.388 190.944  1.00  0.00     0.000 C 
BRANCH   6   7
ATOM      7  C   UNL     1     192.646 194.888 191.221  1.00  0.00    -0.000 C 
BRANCH   7   8
ATOM      8  C   UNL     1     191.183 195.231 191.539  1.00  0.00    -0.003 C 
ATOM      9  C   UNL     1     190.995 195.749 192.964  1.00  0.00     0.004 C 
ENDBRANCH   7   8
ENDBRANCH   6   7
ENDBRANCH   1   6
TORSDOF 5
ENDMDL
MODEL 9
REMARK VINA RESULT:    -3.457      2.781      4.605
REMARK INTER + INTRA:          -4.713
REMARK INTER:                  -4.336
REMARK INTRA:                  -0.377
REMARK UNBOUND:                -0.245
REMARK SMILES CCCCCCC(=O)[O-]
REMARK SMILES IDX 5 1 6 2 7 3 8 4 9 5 4 6 3 7 2 8 1 9
REMARK H PARENT
REMARK Flexibility Score: inf
ROOT
ATOM      1  C   UNL     1     191.587 192.489 190.865  1.00  0.00     0.006 C 
ENDROOT
BRANCH   1   2
ATOM      2  C   UNL     1     192.409 193.754 191.158  1.00  0.00     0.053 C 
BRANCH   2   3
ATOM      3  C   UNL     1     191.544 194.898 191.590  1.00  0.00     0.041 C 
ATOM      4  O   UNL     1     191.494 195.950 190.901  1.00  0.00    -0.550 OA
ATOM      5  O   UNL     1     190.822 194.815 192.774  1.00  0.00    -0.550 OA
ENDBRANCH   2   3
ENDBRANCH   1   2
BRANCH   1   6
ATOM      6  C   UNL     1     191.651 191.422 191.973  1.00  0.00     0.000 C 
BRANCH   6   7
ATOM      7  C   UNL     1     190.260 191.039 192.510  1.00  0.00    -0.000 C 
BRANCH   7   8
ATOM      8  C   UNL     1     189.122 191.688 191.708  1.00  0.00    -0.003 C 
ATOM      9  C   UNL     1     188.142 192.458 192.593  1.00  0.00     0.004 C 
ENDBRANCH   7   8
ENDBRANCH   6   7
ENDBRANCH   1   6
TORSDOF 5
ENDMDL
