MODEL 1
REMARK VINA RESULT:    -4.908      0.000      0.000
REMARK INTER + INTRA:          -5.629
REMARK INTER:                  -6.055
REMARK INTRA:                   0.427
REMARK UNBOUND:                 0.427
REMARK SMILES C=C1CC[C@H]2[C@H]1[C@@H]1[C@@H](CC[C@@H]2C)C1(C)C
REMARK SMILES IDX 6 1 5 2 4 3 3 4 2 5 1 6 11 7 12 8 10 9 7 11 8 12 13 13 14 14
REMARK SMILES IDX 15 15 9 16
REMARK H PARENT
REMARK Flexibility Score: 80.00
ROOT
ATOM      1  C   UNL     1     -42.020 -48.564  27.271  1.00  0.00     0.022 C 
ATOM      2  C   UNL     1     -41.751 -48.529  28.787  1.00  0.00    -0.000 C 
ATOM      3  C   UNL     1     -40.291 -48.065  28.869  1.00  0.00     0.009 C 
ATOM      4  C   UNL     1     -40.155 -47.026  27.751  1.00  0.00     0.031 C 
ATOM      5  C   UNL     1     -41.239 -47.389  26.788  1.00  0.00    -0.074 C 
ATOM      6  C   UNL     1     -41.402 -46.795  25.599  1.00  0.00     0.008 C 
ENDROOT
BRANCH   2   7
ATOM      7  C   UNL     1     -42.143 -49.856  29.523  1.00  0.00    -0.011 C 
ATOM      8  C   UNL     1     -41.372 -50.004  30.847  1.00  0.00     0.008 C 
BRANCH   7   9
ATOM      9  C   UNL     1     -43.683 -49.917  29.840  1.00  0.00     0.004 CG0
ATOM     10  G   UNL     1     -44.696 -50.015  28.653  1.00  0.00     0.000 G0
ENDBRANCH   7   9
ENDBRANCH   2   7
BRANCH   1  11
ATOM     11  C   UNL     1     -43.535 -48.490  27.060  1.00  0.00     0.006 C 
ATOM     12  C   UNL     1     -44.009 -49.951  27.289  1.00  0.00    -0.001 C 
ATOM     13  C   UNL     1     -44.424 -49.198  26.036  1.00  0.00    -0.029 C 
ATOM     14  C   UNL     1     -45.890 -48.758  25.959  1.00  0.00     0.012 C 
ATOM     15  C   UNL     1     -43.760 -49.648  24.729  1.00  0.00     0.012 C 
BRANCH  12  16
ATOM     16  C   UNL     1     -44.695 -50.019  28.652  1.00  0.00     0.005 CG0
ATOM     17  G   UNL     1     -43.684 -49.914  29.839  1.00  0.00     0.000 G0
ENDBRANCH  12  16
ENDBRANCH   1  11
TORSDOF 0
ENDMDL
MODEL 2
REMARK VINA RESULT:    -4.882      7.539     11.284
REMARK INTER + INTRA:          -5.597
REMARK INTER:                  -6.023
REMARK INTRA:                   0.426
REMARK UNBOUND:                 0.427
REMARK SMILES C=C1CC[C@H]2[C@H]1[C@@H]1[C@@H](CC[C@@H]2C)C1(C)C
REMARK SMILES IDX 6 1 5 2 4 3 3 4 2 5 1 6 11 7 12 8 10 9 7 11 8 12 13 13 14 14
REMARK SMILES IDX 15 15 9 16
REMARK H PARENT
REMARK Flexibility Score: 80.00
ROOT
ATOM      1  C   UNL     1     -52.176 -48.563  22.604  1.00  0.00     0.022 C 
ATOM      2  C   UNL     1     -52.423 -48.454  21.088  1.00  0.00    -0.000 C 
ATOM      3  C   UNL     1     -53.920 -48.133  21.002  1.00  0.00     0.009 C 
ATOM      4  C   UNL     1     -54.178 -47.190  22.182  1.00  0.00     0.031 C 
ATOM      5  C   UNL     1     -53.079 -47.507  23.144  1.00  0.00    -0.074 C 
ATOM      6  C   UNL     1     -52.996 -46.981  24.372  1.00  0.00     0.008 C 
ENDROOT
BRANCH   2   7
ATOM      7  C   UNL     1     -51.887 -49.684  20.275  1.00  0.00    -0.011 C 
ATOM      8  C   UNL     1     -52.617 -49.817  18.927  1.00  0.00     0.008 C 
BRANCH   7   9
ATOM      9  C   UNL     1     -50.343 -49.570  19.992  1.00  0.00     0.004 CG0
ATOM     10  G   UNL     1     -49.345 -49.650  21.192  1.00  0.00     0.000 G0
ENDBRANCH   7   9
ENDBRANCH   2   7
BRANCH   1  11
ATOM     11  C   UNL     1     -50.680 -48.355  22.854  1.00  0.00     0.006 C 
ATOM     12  C   UNL     1     -50.057 -49.740  22.535  1.00  0.00    -0.001 C 
ATOM     13  C   UNL     1     -49.741 -49.041  23.847  1.00  0.00    -0.029 C 
ATOM     14  C   UNL     1     -48.328 -48.464  23.988  1.00  0.00     0.012 C 
ATOM     15  C   UNL     1     -50.376 -49.647  25.104  1.00  0.00     0.012 C 
BRANCH  12  16
ATOM     16  C   UNL     1     -49.347 -49.643  21.187  1.00  0.00     0.005 CG0
ATOM     17  G   UNL     1     -50.344 -49.572  19.986  1.00  0.00     0.000 G0
ENDBRANCH  12  16
ENDBRANCH   1  11
TORSDOF 0
ENDMDL
MODEL 3
REMARK VINA RESULT:    -4.846      9.222     11.583
REMARK INTER + INTRA:          -5.552
REMARK INTER:                  -5.966
REMARK INTRA:                   0.414
REMARK UNBOUND:                 0.427
REMARK SMILES C=C1CC[C@H]2[C@H]1[C@@H]1[C@@H](CC[C@@H]2C)C1(C)C
REMARK SMILES IDX 6 1 5 2 4 3 3 4 2 5 1 6 11 7 12 8 10 9 7 11 8 12 13 13 14 14
REMARK SMILES IDX 15 15 9 16
REMARK H PARENT
REMARK Flexibility Score: 80.00
ROOT
ATOM      1  C   UNL     1     -52.986 -48.074  21.369  1.00  0.00     0.022 C 
ATOM      2  C   UNL     1     -52.768 -47.635  22.829  1.00  0.00    -0.000 C 
ATOM      3  C   UNL     1     -53.655 -46.390  22.953  1.00  0.00     0.009 C 
ATOM      4  C   UNL     1     -54.902 -46.722  22.128  1.00  0.00     0.031 C 
ATOM      5  C   UNL     1     -54.428 -47.757  21.159  1.00  0.00    -0.074 C 
ATOM      6  C   UNL     1     -55.184 -48.245  20.169  1.00  0.00     0.008 C 
ENDROOT
BRANCH   2   7
ATOM      7  C   UNL     1     -51.257 -47.505  23.227  1.00  0.00    -0.011 C 
ATOM      8  C   UNL     1     -51.082 -46.580  24.444  1.00  0.00     0.008 C 
BRANCH   7   9
ATOM      9  C   UNL     1     -50.621 -48.902  23.573  1.00  0.00     0.004 CG0
ATOM     10  G   UNL     1     -50.442 -49.956  22.432  1.00  0.00     0.000 G0
ENDBRANCH   7   9
ENDBRANCH   2   7
BRANCH   1  11
ATOM     11  C   UNL     1     -52.603 -49.552  21.259  1.00  0.00     0.006 C 
ATOM     12  C   UNL     1     -51.058 -49.522  21.109  1.00  0.00    -0.001 C 
ATOM     13  C   UNL     1     -51.909 -50.310  20.126  1.00  0.00    -0.029 C 
ATOM     14  C   UNL     1     -51.846 -51.837  20.242  1.00  0.00     0.012 C 
ATOM     15  C   UNL     1     -52.030 -49.721  18.717  1.00  0.00     0.012 C 
BRANCH  12  16
ATOM     16  C   UNL     1     -50.444 -49.966  22.434  1.00  0.00     0.005 CG0
ATOM     17  G   UNL     1     -50.614 -48.899  23.563  1.00  0.00     0.000 G0
ENDBRANCH  12  16
ENDBRANCH   1  11
TORSDOF 0
ENDMDL
MODEL 4
REMARK VINA RESULT:    -4.800      1.795      3.790
REMARK INTER + INTRA:          -5.496
REMARK INTER:                  -5.923
REMARK INTRA:                   0.428
REMARK UNBOUND:                 0.427
REMARK SMILES C=C1CC[C@H]2[C@H]1[C@@H]1[C@@H](CC[C@@H]2C)C1(C)C
REMARK SMILES IDX 6 1 5 2 4 3 3 4 2 5 1 6 11 7 12 8 10 9 7 11 8 12 13 13 14 14
REMARK SMILES IDX 15 15 9 16
REMARK H PARENT
REMARK Flexibility Score: 80.00
ROOT
ATOM      1  C   UNL     1     -42.971 -49.685  29.618  1.00  0.00     0.022 C 
ATOM      2  C   UNL     1     -41.457 -49.800  29.875  1.00  0.00    -0.000 C 
ATOM      3  C   UNL     1     -41.379 -50.030  31.390  1.00  0.00     0.009 C 
ATOM      4  C   UNL     1     -42.573 -50.939  31.702  1.00  0.00     0.031 C 
ATOM      5  C   UNL     1     -43.528 -50.677  30.583  1.00  0.00    -0.074 C 
ATOM      6  C   UNL     1     -44.763 -51.189  30.529  1.00  0.00     0.008 C 
ENDROOT
BRANCH   2   7
ATOM      7  C   UNL     1     -40.626 -48.618  29.267  1.00  0.00    -0.011 C 
ATOM      8  C   UNL     1     -39.283 -48.451  29.999  1.00  0.00     0.008 C 
BRANCH   7   9
ATOM      9  C   UNL     1     -40.331 -48.836  27.737  1.00  0.00     0.004 CG0
ATOM     10  G   UNL     1     -41.523 -48.824  26.727  1.00  0.00     0.000 G0
ENDBRANCH   7   9
ENDBRANCH   2   7
BRANCH   1  11
ATOM     11  C   UNL     1     -43.221 -49.982  28.137  1.00  0.00     0.006 C 
ATOM     12  C   UNL     1     -42.879 -48.643  27.430  1.00  0.00    -0.001 C 
ATOM     13  C   UNL     1     -44.201 -49.340  27.154  1.00  0.00    -0.029 C 
ATOM     14  C   UNL     1     -44.348 -50.001  25.779  1.00  0.00     0.012 C 
ATOM     15  C   UNL     1     -45.449 -48.677  27.746  1.00  0.00     0.012 C 
BRANCH  12  16
ATOM     16  C   UNL     1     -41.531 -48.805  26.732  1.00  0.00     0.005 CG0
ATOM     17  G   UNL     1     -40.334 -48.835  27.736  1.00  0.00     0.000 G0
ENDBRANCH  12  16
ENDBRANCH   1  11
TORSDOF 0
ENDMDL
MODEL 5
REMARK VINA RESULT:    -4.752      1.354      3.915
REMARK INTER + INTRA:          -5.437
REMARK INTER:                  -5.859
REMARK INTRA:                   0.422
REMARK UNBOUND:                 0.427
REMARK SMILES C=C1CC[C@H]2[C@H]1[C@@H]1[C@@H](CC[C@@H]2C)C1(C)C
REMARK SMILES IDX 6 1 5 2 4 3 3 4 2 5 1 6 11 7 12 8 10 9 7 11 8 12 13 13 14 14
REMARK SMILES IDX 15 15 9 16
REMARK H PARENT
REMARK Flexibility Score: 80.00
ROOT
ATOM      1  C   UNL     1     -42.632 -48.821  27.646  1.00  0.00     0.022 C 
ATOM      2  C   UNL     1     -43.443 -49.983  28.250  1.00  0.00    -0.000 C 
ATOM      3  C   UNL     1     -44.715 -49.999  27.393  1.00  0.00     0.009 C 
ATOM      4  C   UNL     1     -44.229 -49.679  25.977  1.00  0.00     0.031 C 
ATOM      5  C   UNL     1     -42.947 -48.942  26.193  1.00  0.00    -0.074 C 
ATOM      6  C   UNL     1     -42.242 -48.376  25.206  1.00  0.00     0.008 C 
ENDROOT
BRANCH   2   7
ATOM      7  C   UNL     1     -43.605 -49.892  29.807  1.00  0.00    -0.011 C 
ATOM      8  C   UNL     1     -44.832 -50.689  30.283  1.00  0.00     0.008 C 
BRANCH   7   9
ATOM      9  C   UNL     1     -42.337 -50.441  30.560  1.00  0.00     0.004 CG0
ATOM     10  G   UNL     1     -40.986 -49.666  30.431  1.00  0.00     0.000 G0
ENDBRANCH   7   9
ENDBRANCH   2   7
BRANCH   1  11
ATOM     11  C   UNL     1     -41.164 -49.022  28.030  1.00  0.00     0.006 C 
ATOM     12  C   UNL     1     -41.083 -48.470  29.479  1.00  0.00    -0.001 C 
ATOM     13  C   UNL     1     -40.097 -47.998  28.422  1.00  0.00    -0.029 C 
ATOM     14  C   UNL     1     -38.657 -48.505  28.560  1.00  0.00     0.012 C 
ATOM     15  C   UNL     1     -40.287 -46.565  27.915  1.00  0.00     0.012 C 
BRANCH  12  16
ATOM     16  C   UNL     1     -40.988 -49.656  30.435  1.00  0.00     0.005 CG0
ATOM     17  G   UNL     1     -42.337 -50.434  30.564  1.00  0.00     0.000 G0
ENDBRANCH  12  16
ENDBRANCH   1  11
TORSDOF 0
ENDMDL
MODEL 6
REMARK VINA RESULT:    -4.657      7.896     11.043
REMARK INTER + INTRA:          -5.320
REMARK INTER:                  -5.746
REMARK INTRA:                   0.426
REMARK UNBOUND:                 0.427
REMARK SMILES C=C1CC[C@H]2[C@H]1[C@@H]1[C@@H](CC[C@@H]2C)C1(C)C
REMARK SMILES IDX 6 1 5 2 4 3 3 4 2 5 1 6 11 7 12 8 10 9 7 11 8 12 13 13 14 14
REMARK SMILES IDX 15 15 9 16
REMARK H PARENT
REMARK Flexibility Score: 80.00
ROOT
ATOM      1  C   UNL     1     -51.767 -49.291  21.065  1.00  0.00     0.022 C 
ATOM      2  C   UNL     1     -50.312 -48.976  21.458  1.00  0.00    -0.000 C 
ATOM      3  C   UNL     1     -49.502 -49.966  20.612  1.00  0.00     0.009 C 
ATOM      4  C   UNL     1     -50.242 -50.022  19.272  1.00  0.00     0.031 C 
ATOM      5  C   UNL     1     -51.637 -49.606  19.613  1.00  0.00    -0.074 C 
ATOM      6  C   UNL     1     -52.649 -49.627  18.738  1.00  0.00     0.008 C 
ENDROOT
BRANCH   2   7
ATOM      7  C   UNL     1     -50.071 -48.963  23.007  1.00  0.00    -0.011 C 
ATOM      8  C   UNL     1     -48.589 -49.211  23.339  1.00  0.00     0.008 C 
BRANCH   7   9
ATOM      9  C   UNL     1     -50.499 -47.593  23.654  1.00  0.00     0.004 CG0
ATOM     10  G   UNL     1     -52.010 -47.197  23.657  1.00  0.00     0.000 G0
ENDBRANCH   7   9
ENDBRANCH   2   7
BRANCH   1  11
ATOM     11  C   UNL     1     -52.623 -48.069  21.408  1.00  0.00     0.006 C 
ATOM     12  C   UNL     1     -52.886 -48.220  22.930  1.00  0.00    -0.001 C 
ATOM     13  C   UNL     1     -54.042 -47.985  21.972  1.00  0.00    -0.029 C 
ATOM     14  C   UNL     1     -54.696 -46.600  22.020  1.00  0.00     0.012 C 
ATOM     15  C   UNL     1     -54.964 -49.184  21.722  1.00  0.00     0.012 C 
BRANCH  12  16
ATOM     16  C   UNL     1     -52.014 -47.205  23.666  1.00  0.00     0.005 CG0
ATOM     17  G   UNL     1     -50.500 -47.595  23.656  1.00  0.00     0.000 G0
ENDBRANCH  12  16
ENDBRANCH   1  11
TORSDOF 0
ENDMDL
MODEL 7
REMARK VINA RESULT:    -4.615      1.334      2.273
REMARK INTER + INTRA:          -5.268
REMARK INTER:                  -5.672
REMARK INTRA:                   0.404
REMARK UNBOUND:                 0.427
REMARK SMILES C=C1CC[C@H]2[C@H]1[C@@H]1[C@@H](CC[C@@H]2C)C1(C)C
REMARK SMILES IDX 6 1 5 2 4 3 3 4 2 5 1 6 11 7 12 8 10 9 7 11 8 12 13 13 14 14
REMARK SMILES IDX 15 15 9 16
REMARK H PARENT
REMARK Flexibility Score: 80.00
ROOT
ATOM      1  C   UNL     1     -41.888 -49.113  28.833  1.00  0.00     0.022 C 
ATOM      2  C   UNL     1     -42.551 -49.469  30.176  1.00  0.00    -0.000 C 
ATOM      3  C   UNL     1     -41.377 -49.987  31.016  1.00  0.00     0.009 C 
ATOM      4  C   UNL     1     -40.200 -49.085  30.629  1.00  0.00     0.031 C 
ATOM      5  C   UNL     1     -40.564 -48.582  29.270  1.00  0.00    -0.074 C 
ATOM      6  C   UNL     1     -39.746 -47.842  28.512  1.00  0.00     0.008 C 
ENDROOT
BRANCH   2   7
ATOM      7  C   UNL     1     -43.811 -50.390  30.028  1.00  0.00    -0.011 C 
ATOM      8  C   UNL     1     -44.114 -51.132  31.342  1.00  0.00     0.008 C 
BRANCH   7   9
ATOM      9  C   UNL     1     -45.090 -49.569  29.619  1.00  0.00     0.004 CG0
ATOM     10  G   UNL     1     -45.151 -48.922  28.198  1.00  0.00     0.000 G0
ENDBRANCH   7   9
ENDBRANCH   2   7
BRANCH   1  11
ATOM     11  C   UNL     1     -42.798 -48.120  28.107  1.00  0.00     0.006 C 
ATOM     12  C   UNL     1     -43.852 -49.025  27.414  1.00  0.00    -0.001 C 
ATOM     13  C   UNL     1     -43.105 -47.970  26.616  1.00  0.00    -0.029 C 
ATOM     14  C   UNL     1     -43.913 -46.740  26.187  1.00  0.00     0.012 C 
ATOM     15  C   UNL     1     -42.051 -48.490  25.632  1.00  0.00     0.012 C 
BRANCH  12  16
ATOM     16  C   UNL     1     -45.162 -48.908  28.190  1.00  0.00     0.005 CG0
ATOM     17  G   UNL     1     -45.086 -49.575  29.602  1.00  0.00     0.000 G0
ENDBRANCH  12  16
ENDBRANCH   1  11
TORSDOF 0
ENDMDL
MODEL 8
REMARK VINA RESULT:    -4.562      7.765     11.278
REMARK INTER + INTRA:          -5.202
REMARK INTER:                  -5.621
REMARK INTRA:                   0.418
REMARK UNBOUND:                 0.427
REMARK SMILES C=C1CC[C@H]2[C@H]1[C@@H]1[C@@H](CC[C@@H]2C)C1(C)C
REMARK SMILES IDX 6 1 5 2 4 3 3 4 2 5 1 6 11 7 12 8 10 9 7 11 8 12 13 13 14 14
REMARK SMILES IDX 15 15 9 16
REMARK H PARENT
REMARK Flexibility Score: 80.00
ROOT
ATOM      1  C   UNL     1     -50.840 -49.145  20.410  1.00  0.00     0.022 C 
ATOM      2  C   UNL     1     -52.350 -49.424  20.515  1.00  0.00    -0.000 C 
ATOM      3  C   UNL     1     -52.768 -49.625  19.053  1.00  0.00     0.009 C 
ATOM      4  C   UNL     1     -51.599 -50.385  18.420  1.00  0.00     0.031 C 
ATOM      5  C   UNL     1     -50.433 -50.044  19.292  1.00  0.00    -0.074 C 
ATOM      6  C   UNL     1     -49.175 -50.415  19.024  1.00  0.00     0.008 C 
ENDROOT
BRANCH   2   7
ATOM      7  C   UNL     1     -53.128 -48.357  21.362  1.00  0.00    -0.011 C 
ATOM      8  C   UNL     1     -54.622 -48.339  20.994  1.00  0.00     0.008 C 
BRANCH   7   9
ATOM      9  C   UNL     1     -53.003 -48.633  22.906  1.00  0.00     0.004 CG0
ATOM     10  G   UNL     1     -51.608 -48.474  23.593  1.00  0.00     0.000 G0
ENDBRANCH   7   9
ENDBRANCH   2   7
BRANCH   1  11
ATOM     11  C   UNL     1     -50.209 -49.447  21.772  1.00  0.00     0.006 C 
ATOM     12  C   UNL     1     -50.488 -48.163  22.599  1.00  0.00    -0.001 C 
ATOM     13  C   UNL     1     -49.081 -48.732  22.517  1.00  0.00    -0.029 C 
ATOM     14  C   UNL     1     -48.543 -49.404  23.785  1.00  0.00     0.012 C 
ATOM     15  C   UNL     1     -48.081 -47.936  21.672  1.00  0.00     0.012 C 
BRANCH  12  16
ATOM     16  C   UNL     1     -51.604 -48.473  23.595  1.00  0.00     0.005 CG0
ATOM     17  G   UNL     1     -52.997 -48.633  22.905  1.00  0.00     0.000 G0
ENDBRANCH  12  16
ENDBRANCH   1  11
TORSDOF 0
ENDMDL
MODEL 9
REMARK VINA RESULT:    -4.533      1.641      4.735
REMARK INTER + INTRA:          -5.167
REMARK INTER:                  -5.594
REMARK INTRA:                   0.428
REMARK UNBOUND:                 0.427
REMARK SMILES C=C1CC[C@H]2[C@H]1[C@@H]1[C@@H](CC[C@@H]2C)C1(C)C
REMARK SMILES IDX 6 1 5 2 4 3 3 4 2 5 1 6 11 7 12 8 10 9 7 11 8 12 13 13 14 14
REMARK SMILES IDX 15 15 9 16
REMARK H PARENT
REMARK Flexibility Score: 80.00
ROOT
ATOM      1  C   UNL     1     -42.145 -49.465  28.867  1.00  0.00     0.022 C 
ATOM      2  C   UNL     1     -43.599 -49.282  28.393  1.00  0.00    -0.000 C 
ATOM      3  C   UNL     1     -44.326 -50.468  29.040  1.00  0.00     0.009 C 
ATOM      4  C   UNL     1     -43.678 -50.608  30.421  1.00  0.00     0.031 C 
ATOM      5  C   UNL     1     -42.331 -49.983  30.253  1.00  0.00    -0.074 C 
ATOM      6  C   UNL     1     -41.386 -49.995  31.201  1.00  0.00     0.008 C 
ENDROOT
BRANCH   2   7
ATOM      7  C   UNL     1     -43.734 -49.094  26.843  1.00  0.00    -0.011 C 
ATOM      8  C   UNL     1     -45.147 -49.467  26.360  1.00  0.00     0.008 C 
BRANCH   7   9
ATOM      9  C   UNL     1     -43.439 -47.611  26.405  1.00  0.00     0.004 CG0
ATOM     10  G   UNL     1     -41.989 -47.051  26.562  1.00  0.00     0.000 G0
ENDBRANCH   7   9
ENDBRANCH   2   7
BRANCH   1  11
ATOM     11  C   UNL     1     -41.438 -48.112  28.749  1.00  0.00     0.006 C 
ATOM     12  C   UNL     1     -41.047 -48.031  27.249  1.00  0.00    -0.001 C 
ATOM     13  C   UNL     1     -40.005 -47.781  28.327  1.00  0.00    -0.029 C 
ATOM     14  C   UNL     1     -39.541 -46.332  28.503  1.00  0.00     0.012 C 
ATOM     15  C   UNL     1     -38.952 -48.879  28.514  1.00  0.00     0.012 C 
BRANCH  12  16
ATOM     16  C   UNL     1     -41.991 -47.045  26.565  1.00  0.00     0.005 CG0
ATOM     17  G   UNL     1     -43.440 -47.610  26.410  1.00  0.00     0.000 G0
ENDBRANCH  12  16
ENDBRANCH   1  11
TORSDOF 0
ENDMDL
