MODEL 1
REMARK VINA RESULT:    -4.088      0.000      0.000
REMARK INTER + INTRA:          -6.650
REMARK INTER:                  -6.239
REMARK INTRA:                  -0.411
REMARK UNBOUND:                -0.411
REMARK SMILES CC1=CCC[C@@H](C)C(=O)C[C@@H](C(C)C)C(=O)C1
REMARK SMILES IDX 8 1 9 2 6 3 7 4 5 5 4 6 3 7 2 8 1 9 10 11 11 12 15 13 16 14
REMARK SMILES IDX 17 15 12 17 13 18 14 19
REMARK H PARENT
REMARK Flexibility Score: 70.00
ROOT
ATOM      1  C   UNL     1      32.589  43.065  85.364  1.00  0.00     0.136 C 
ATOM      2  O   UNL     1      31.523  43.300  85.914  1.00  0.00    -0.299 OA
ENDROOT
BRANCH   1   3
ATOM      3  C   UNL     1      32.600  42.297  84.054  1.00  0.00     0.053 C 
ATOM      4  C   UNL     1      31.760  43.026  82.995  1.00  0.00     0.016 C 
BRANCH   3   5
ATOM      5  C   UNL     1      32.094  40.854  84.259  1.00  0.00     0.015 C 
BRANCH   5   6
ATOM      6  C   UNL     1      32.973  40.077  85.260  1.00  0.00     0.028 C 
BRANCH   6   7
ATOM      7  C   UNL     1      34.292  39.642  84.674  1.00  0.00    -0.028 C 
ATOM      8  C   UNL     1      35.508  40.008  85.144  1.00  0.00    -0.070 CG0
ATOM      9  C   UNL     1      36.723  39.551  84.374  1.00  0.00     0.039 C 
ATOM     10  G   UNL     1      35.704  40.815  86.419  1.00  0.00     0.000 G0
ENDBRANCH   6   7
ENDBRANCH   5   6
ENDBRANCH   3   5
ENDBRANCH   1   3
BRANCH   1  11
ATOM     11  C   UNL     1      33.873  43.586  85.974  1.00  0.00     0.087 C 
BRANCH  11  12
ATOM     12  C   UNL     1      35.179  43.155  85.245  1.00  0.00     0.066 C 
BRANCH  12  13
ATOM     13  C   UNL     1      36.058  42.287  86.141  1.00  0.00     0.140 C 
ATOM     14  O   UNL     1      37.018  42.799  86.698  1.00  0.00    -0.299 OA
BRANCH  13  15
ATOM     15  C   UNL     1      35.732  40.834  86.417  1.00  0.00     0.106 CG0
ATOM     16  G   UNL     1      35.510  40.006  85.159  1.00  0.00     0.000 G0
ENDBRANCH  13  15
ENDBRANCH  12  13
BRANCH  12  17
ATOM     17  C   UNL     1      35.984  44.310  84.565  1.00  0.00    -0.006 C 
ATOM     18  C   UNL     1      36.726  43.800  83.315  1.00  0.00     0.008 C 
ATOM     19  C   UNL     1      35.085  45.490  84.154  1.00  0.00     0.008 C 
ENDBRANCH  12  17
ENDBRANCH  11  12
ENDBRANCH   1  11
TORSDOF 1
ENDMDL
MODEL 2
REMARK VINA RESULT:    -3.999      2.173      3.626
REMARK INTER + INTRA:          -6.514
REMARK INTER:                  -6.397
REMARK INTRA:                  -0.116
REMARK UNBOUND:                -0.411
REMARK SMILES CC1=CCC[C@@H](C)C(=O)C[C@@H](C(C)C)C(=O)C1
REMARK SMILES IDX 8 1 9 2 6 3 7 4 5 5 4 6 3 7 2 8 1 9 10 11 11 12 15 13 16 14
REMARK SMILES IDX 17 15 12 17 13 18 14 19
REMARK H PARENT
REMARK Flexibility Score: 70.00
ROOT
ATOM      1  C   UNL     1      33.783  41.320  82.889  1.00  0.00     0.136 C 
ATOM      2  O   UNL     1      34.065  40.367  82.177  1.00  0.00    -0.299 OA
ENDROOT
BRANCH   1   3
ATOM      3  C   UNL     1      32.327  41.719  83.060  1.00  0.00     0.053 C 
ATOM      4  C   UNL     1      32.139  43.212  82.753  1.00  0.00     0.016 C 
BRANCH   3   5
ATOM      5  C   UNL     1      31.829  41.383  84.482  1.00  0.00     0.015 C 
BRANCH   5   6
ATOM      6  C   UNL     1      31.182  42.606  85.164  1.00  0.00     0.028 C 
BRANCH   6   7
ATOM      7  C   UNL     1      31.574  42.750  86.612  1.00  0.00    -0.028 C 
ATOM      8  C   UNL     1      32.807  43.095  87.052  1.00  0.00    -0.070 CG0
ATOM      9  C   UNL     1      33.044  43.100  88.542  1.00  0.00     0.039 C 
ATOM     10  G   UNL     1      33.940  43.512  86.125  1.00  0.00     0.000 G0
ENDBRANCH   6   7
ENDBRANCH   5   6
ENDBRANCH   3   5
ENDBRANCH   1   3
BRANCH   1  11
ATOM     11  C   UNL     1      34.884  42.053  83.625  1.00  0.00     0.087 C 
BRANCH  11  12
ATOM     12  C   UNL     1      35.255  41.470  85.019  1.00  0.00     0.066 C 
BRANCH  12  13
ATOM     13  C   UNL     1      35.113  42.519  86.118  1.00  0.00     0.140 C 
ATOM     14  O   UNL     1      35.981  42.594  86.977  1.00  0.00    -0.299 OA
BRANCH  13  15
ATOM     15  C   UNL     1      33.972  43.514  86.133  1.00  0.00     0.106 CG0
ATOM     16  G   UNL     1      32.812  43.104  87.030  1.00  0.00     0.000 G0
ENDBRANCH  13  15
ENDBRANCH  12  13
BRANCH  12  17
ATOM     17  C   UNL     1      36.623  40.716  85.092  1.00  0.00    -0.006 C 
ATOM     18  C   UNL     1      36.503  39.303  84.490  1.00  0.00     0.008 C 
ATOM     19  C   UNL     1      37.749  41.467  84.359  1.00  0.00     0.008 C 
ENDBRANCH  12  17
ENDBRANCH  11  12
ENDBRANCH   1  11
TORSDOF 1
ENDMDL
MODEL 3
REMARK VINA RESULT:    -3.992      1.856      2.970
REMARK INTER + INTRA:          -6.503
REMARK INTER:                  -6.038
REMARK INTRA:                  -0.466
REMARK UNBOUND:                -0.411
REMARK SMILES CC1=CCC[C@@H](C)C(=O)C[C@@H](C(C)C)C(=O)C1
REMARK SMILES IDX 8 1 9 2 6 3 7 4 5 5 4 6 3 7 2 8 1 9 10 11 11 12 15 13 16 14
REMARK SMILES IDX 17 15 12 17 13 18 14 19
REMARK H PARENT
REMARK Flexibility Score: 70.00
ROOT
ATOM      1  C   UNL     1      33.219  40.641  85.054  1.00  0.00     0.136 C 
ATOM      2  O   UNL     1      32.386  39.752  85.155  1.00  0.00    -0.299 OA
ENDROOT
BRANCH   1   3
ATOM      3  C   UNL     1      34.036  40.758  83.779  1.00  0.00     0.053 C 
ATOM      4  C   UNL     1      33.121  40.712  82.547  1.00  0.00     0.016 C 
BRANCH   3   5
ATOM      5  C   UNL     1      35.108  39.648  83.709  1.00  0.00     0.015 C 
BRANCH   5   6
ATOM      6  C   UNL     1      36.311  39.958  84.622  1.00  0.00     0.028 C 
BRANCH   6   7
ATOM      7  C   UNL     1      37.024  41.233  84.248  1.00  0.00    -0.028 C 
ATOM      8  C   UNL     1      37.056  42.355  85.006  1.00  0.00    -0.070 CG0
ATOM      9  C   UNL     1      37.741  43.570  84.429  1.00  0.00     0.039 C 
ATOM     10  G   UNL     1      36.476  42.433  86.411  1.00  0.00     0.000 G0
ENDBRANCH   6   7
ENDBRANCH   5   6
ENDBRANCH   3   5
ENDBRANCH   1   3
BRANCH   1  11
ATOM     11  C   UNL     1      33.387  41.637  86.182  1.00  0.00     0.087 C 
BRANCH  11  12
ATOM     12  C   UNL     1      33.964  43.021  85.767  1.00  0.00     0.066 C 
BRANCH  12  13
ATOM     13  C   UNL     1      35.249  43.340  86.524  1.00  0.00     0.140 C 
ATOM     14  O   UNL     1      35.265  44.301  87.280  1.00  0.00    -0.299 OA
BRANCH  13  15
ATOM     15  C   UNL     1      36.478  42.460  86.423  1.00  0.00     0.106 CG0
ATOM     16  G   UNL     1      37.045  42.359  85.014  1.00  0.00     0.000 G0
ENDBRANCH  13  15
ENDBRANCH  12  13
BRANCH  12  17
ATOM     17  C   UNL     1      32.948  44.210  85.796  1.00  0.00    -0.006 C 
ATOM     18  C   UNL     1      32.578  44.650  84.366  1.00  0.00     0.008 C 
ATOM     19  C   UNL     1      31.654  43.860  86.551  1.00  0.00     0.008 C 
ENDBRANCH  12  17
ENDBRANCH  11  12
ENDBRANCH   1  11
TORSDOF 1
ENDMDL
MODEL 4
REMARK VINA RESULT:    -3.959      2.475      4.025
REMARK INTER + INTRA:          -6.453
REMARK INTER:                  -6.040
REMARK INTRA:                  -0.414
REMARK UNBOUND:                -0.411
REMARK SMILES CC1=CCC[C@@H](C)C(=O)C[C@@H](C(C)C)C(=O)C1
REMARK SMILES IDX 8 1 9 2 6 3 7 4 5 5 4 6 3 7 2 8 1 9 10 11 11 12 15 13 16 14
REMARK SMILES IDX 17 15 12 17 13 18 14 19
REMARK H PARENT
REMARK Flexibility Score: 70.00
ROOT
ATOM      1  C   UNL     1      34.346  41.142  83.112  1.00  0.00     0.136 C 
ATOM      2  O   UNL     1      33.797  40.639  82.142  1.00  0.00    -0.299 OA
ENDROOT
BRANCH   1   3
ATOM      3  C   UNL     1      34.323  40.412  84.444  1.00  0.00     0.053 C 
ATOM      4  C   UNL     1      35.173  39.135  84.373  1.00  0.00     0.016 C 
BRANCH   3   5
ATOM      5  C   UNL     1      32.874  40.085  84.867  1.00  0.00     0.015 C 
BRANCH   5   6
ATOM      6  C   UNL     1      32.286  41.178  85.781  1.00  0.00     0.028 C 
BRANCH   6   7
ATOM      7  C   UNL     1      31.483  42.209  85.029  1.00  0.00    -0.028 C 
ATOM      8  C   UNL     1      31.796  43.523  84.942  1.00  0.00    -0.070 CG0
ATOM      9  C   UNL     1      30.825  44.428  84.224  1.00  0.00     0.039 C 
ATOM     10  G   UNL     1      33.084  44.116  85.494  1.00  0.00     0.000 G0
ENDBRANCH   6   7
ENDBRANCH   5   6
ENDBRANCH   3   5
ENDBRANCH   1   3
BRANCH   1  11
ATOM     11  C   UNL     1      35.078  42.457  82.957  1.00  0.00     0.087 C 
BRANCH  11  12
ATOM     12  C   UNL     1      35.276  43.269  84.270  1.00  0.00     0.066 C 
BRANCH  12  13
ATOM     13  C   UNL     1      34.172  44.306  84.456  1.00  0.00     0.140 C 
ATOM     14  O   UNL     1      34.134  45.268  83.702  1.00  0.00    -0.299 OA
BRANCH  13  15
ATOM     15  C   UNL     1      33.084  44.140  85.496  1.00  0.00     0.106 CG0
ATOM     16  G   UNL     1      31.802  43.529  84.950  1.00  0.00     0.000 G0
ENDBRANCH  13  15
ENDBRANCH  12  13
BRANCH  12  17
ATOM     17  C   UNL     1      36.702  43.876  84.479  1.00  0.00    -0.006 C 
ATOM     18  C   UNL     1      37.100  43.838  85.966  1.00  0.00     0.008 C 
ATOM     19  C   UNL     1      37.780  43.140  83.663  1.00  0.00     0.008 C 
ENDBRANCH  12  17
ENDBRANCH  11  12
ENDBRANCH   1  11
TORSDOF 1
ENDMDL
MODEL 5
REMARK VINA RESULT:    -3.926      2.012      3.184
REMARK INTER + INTRA:          -6.404
REMARK INTER:                  -6.250
REMARK INTRA:                  -0.154
REMARK UNBOUND:                -0.411
REMARK SMILES CC1=CCC[C@@H](C)C(=O)C[C@@H](C(C)C)C(=O)C1
REMARK SMILES IDX 8 1 9 2 6 3 7 4 5 5 4 6 3 7 2 8 1 9 10 11 11 12 15 13 16 14
REMARK SMILES IDX 17 15 12 17 13 18 14 19
REMARK H PARENT
REMARK Flexibility Score: 70.00
ROOT
ATOM      1  C   UNL     1      33.253  42.185  86.527  1.00  0.00     0.136 C 
ATOM      2  O   UNL     1      33.001  43.220  87.128  1.00  0.00    -0.299 OA
ENDROOT
BRANCH   1   3
ATOM      3  C   UNL     1      32.125  41.413  85.865  1.00  0.00     0.053 C 
ATOM      4  C   UNL     1      32.655  40.112  85.245  1.00  0.00     0.016 C 
BRANCH   3   5
ATOM      5  C   UNL     1      31.416  42.279  84.802  1.00  0.00     0.015 C 
BRANCH   5   6
ATOM      6  C   UNL     1      32.061  42.117  83.410  1.00  0.00     0.028 C 
BRANCH   6   7
ATOM      7  C   UNL     1      32.928  43.287  83.021  1.00  0.00    -0.028 C 
ATOM      8  C   UNL     1      34.275  43.244  82.890  1.00  0.00    -0.070 CG0
ATOM      9  C   UNL     1      34.991  44.537  82.583  1.00  0.00     0.039 C 
ATOM     10  G   UNL     1      35.086  41.961  82.995  1.00  0.00     0.000 G0
ENDBRANCH   6   7
ENDBRANCH   5   6
ENDBRANCH   3   5
ENDBRANCH   1   3
BRANCH   1  11
ATOM     11  C   UNL     1      34.689  41.720  86.412  1.00  0.00     0.087 C 
BRANCH  11  12
ATOM     12  C   UNL     1      35.611  42.614  85.534  1.00  0.00     0.066 C 
BRANCH  12  13
ATOM     13  C   UNL     1      35.987  41.918  84.230  1.00  0.00     0.140 C 
ATOM     14  O   UNL     1      37.014  41.254  84.191  1.00  0.00    -0.299 OA
BRANCH  13  15
ATOM     15  C   UNL     1      35.091  41.962  83.010  1.00  0.00     0.106 CG0
ATOM     16  G   UNL     1      34.279  43.244  82.892  1.00  0.00     0.000 G0
ENDBRANCH  13  15
ENDBRANCH  12  13
BRANCH  12  17
ATOM     17  C   UNL     1      36.855  43.221  86.263  1.00  0.00    -0.006 C 
ATOM     18  C   UNL     1      37.348  44.490  85.543  1.00  0.00     0.008 C 
ATOM     19  C   UNL     1      36.561  43.573  87.732  1.00  0.00     0.008 C 
ENDBRANCH  12  17
ENDBRANCH  11  12
ENDBRANCH   1  11
TORSDOF 1
ENDMDL
MODEL 6
REMARK VINA RESULT:    -3.893      2.356      4.072
REMARK INTER + INTRA:          -6.352
REMARK INTER:                  -6.449
REMARK INTRA:                   0.097
REMARK UNBOUND:                -0.411
REMARK SMILES CC1=CCC[C@@H](C)C(=O)C[C@@H](C(C)C)C(=O)C1
REMARK SMILES IDX 8 1 9 2 6 3 7 4 5 5 4 6 3 7 2 8 1 9 10 11 11 12 15 13 16 14
REMARK SMILES IDX 17 15 12 17 13 18 14 19
REMARK H PARENT
REMARK Flexibility Score: 70.00
ROOT
ATOM      1  C   UNL     1      33.914  40.827  83.052  1.00  0.00     0.136 C 
ATOM      2  O   UNL     1      34.195  40.605  81.883  1.00  0.00    -0.299 OA
ENDROOT
BRANCH   1   3
ATOM      3  C   UNL     1      34.855  40.357  84.148  1.00  0.00     0.053 C 
ATOM      4  C   UNL     1      35.567  39.063  83.728  1.00  0.00     0.016 C 
BRANCH   3   5
ATOM      5  C   UNL     1      34.096  40.160  85.478  1.00  0.00     0.015 C 
BRANCH   5   6
ATOM      6  C   UNL     1      34.155  41.423  86.361  1.00  0.00     0.028 C 
BRANCH   6   7
ATOM      7  C   UNL     1      35.453  42.177  86.229  1.00  0.00    -0.028 C 
ATOM      8  C   UNL     1      35.609  43.341  85.555  1.00  0.00    -0.070 CG0
ATOM      9  C   UNL     1      37.003  43.908  85.448  1.00  0.00     0.039 C 
ATOM     10  G   UNL     1      34.450  44.116  84.943  1.00  0.00     0.000 G0
ENDBRANCH   6   7
ENDBRANCH   5   6
ENDBRANCH   3   5
ENDBRANCH   1   3
BRANCH   1  11
ATOM     11  C   UNL     1      32.661  41.608  83.383  1.00  0.00     0.087 C 
BRANCH  11  12
ATOM     12  C   UNL     1      32.744  43.141  83.127  1.00  0.00     0.066 C 
BRANCH  12  13
ATOM     13  C   UNL     1      34.114  43.696  83.501  1.00  0.00     0.140 C 
ATOM     14  O   UNL     1      34.945  43.860  82.619  1.00  0.00    -0.299 OA
BRANCH  13  15
ATOM     15  C   UNL     1      34.449  44.118  84.917  1.00  0.00     0.106 CG0
ATOM     16  G   UNL     1      35.603  43.339  85.532  1.00  0.00     0.000 G0
ENDBRANCH  13  15
ENDBRANCH  12  13
BRANCH  12  17
ATOM     17  C   UNL     1      31.576  43.989  83.729  1.00  0.00    -0.006 C 
ATOM     18  C   UNL     1      30.702  44.589  82.612  1.00  0.00     0.008 C 
ATOM     19  C   UNL     1      30.675  43.167  84.668  1.00  0.00     0.008 C 
ENDBRANCH  12  17
ENDBRANCH  11  12
ENDBRANCH   1  11
TORSDOF 1
ENDMDL
MODEL 7
REMARK VINA RESULT:    -3.859      2.282      3.978
REMARK INTER + INTRA:          -6.301
REMARK INTER:                  -5.875
REMARK INTRA:                  -0.426
REMARK UNBOUND:                -0.411
REMARK SMILES CC1=CCC[C@@H](C)C(=O)C[C@@H](C(C)C)C(=O)C1
REMARK SMILES IDX 8 1 9 2 6 3 7 4 5 5 4 6 3 7 2 8 1 9 10 11 11 12 15 13 16 14
REMARK SMILES IDX 17 15 12 17 13 18 14 19
REMARK H PARENT
REMARK Flexibility Score: 70.00
ROOT
ATOM      1  C   UNL     1      35.395  40.776  85.577  1.00  0.00     0.136 C 
ATOM      2  O   UNL     1      35.609  40.542  86.758  1.00  0.00    -0.299 OA
ENDROOT
BRANCH   1   3
ATOM      3  C   UNL     1      34.354  39.959  84.831  1.00  0.00     0.053 C 
ATOM      4  C   UNL     1      34.736  39.823  83.350  1.00  0.00     0.016 C 
BRANCH   3   5
ATOM      5  C   UNL     1      32.952  40.588  84.980  1.00  0.00     0.015 C 
BRANCH   5   6
ATOM      6  C   UNL     1      32.419  41.121  83.635  1.00  0.00     0.028 C 
BRANCH   6   7
ATOM      7  C   UNL     1      31.968  42.558  83.706  1.00  0.00    -0.028 C 
ATOM      8  C   UNL     1      32.748  43.630  83.435  1.00  0.00    -0.070 CG0
ATOM      9  C   UNL     1      32.155  45.001  83.649  1.00  0.00     0.039 C 
ATOM     10  G   UNL     1      34.166  43.518  82.892  1.00  0.00     0.000 G0
ENDBRANCH   6   7
ENDBRANCH   5   6
ENDBRANCH   3   5
ENDBRANCH   1   3
BRANCH   1  11
ATOM     11  C   UNL     1      36.136  41.905  84.894  1.00  0.00     0.087 C 
BRANCH  11  12
ATOM     12  C   UNL     1      35.571  43.330  85.162  1.00  0.00     0.066 C 
BRANCH  12  13
ATOM     13  C   UNL     1      35.230  44.050  83.862  1.00  0.00     0.140 C 
ATOM     14  O   UNL     1      35.869  45.045  83.553  1.00  0.00    -0.299 OA
BRANCH  13  15
ATOM     15  C   UNL     1      34.175  43.526  82.909  1.00  0.00     0.106 CG0
ATOM     16  G   UNL     1      32.756  43.628  83.448  1.00  0.00     0.000 G0
ENDBRANCH  13  15
ENDBRANCH  12  13
BRANCH  12  17
ATOM     17  C   UNL     1      36.421  44.221  86.128  1.00  0.00    -0.006 C 
ATOM     18  C   UNL     1      35.793  44.258  87.534  1.00  0.00     0.008 C 
ATOM     19  C   UNL     1      37.875  43.732  86.252  1.00  0.00     0.008 C 
ENDBRANCH  12  17
ENDBRANCH  11  12
ENDBRANCH   1  11
TORSDOF 1
ENDMDL
MODEL 8
REMARK VINA RESULT:    -3.818      1.641      2.601
REMARK INTER + INTRA:          -6.238
REMARK INTER:                  -6.103
REMARK INTRA:                  -0.134
REMARK UNBOUND:                -0.411
REMARK SMILES CC1=CCC[C@@H](C)C(=O)C[C@@H](C(C)C)C(=O)C1
REMARK SMILES IDX 8 1 9 2 6 3 7 4 5 5 4 6 3 7 2 8 1 9 10 11 11 12 15 13 16 14
REMARK SMILES IDX 17 15 12 17 13 18 14 19
REMARK H PARENT
REMARK Flexibility Score: 70.00
ROOT
ATOM      1  C   UNL     1      32.681  42.589  85.329  1.00  0.00     0.136 C 
ATOM      2  O   UNL     1      32.543  43.717  84.879  1.00  0.00    -0.299 OA
ENDROOT
BRANCH   1   3
ATOM      3  C   UNL     1      32.193  41.398  84.523  1.00  0.00     0.053 C 
ATOM      4  C   UNL     1      31.972  40.183  85.436  1.00  0.00     0.016 C 
BRANCH   3   5
ATOM      5  C   UNL     1      33.184  41.059  83.388  1.00  0.00     0.015 C 
BRANCH   5   6
ATOM      6  C   UNL     1      34.278  40.080  83.860  1.00  0.00     0.028 C 
BRANCH   6   7
ATOM      7  C   UNL     1      35.674  40.620  83.675  1.00  0.00    -0.028 C 
ATOM      8  C   UNL     1      36.423  41.185  84.652  1.00  0.00    -0.070 CG0
ATOM      9  C   UNL     1      37.764  41.756  84.264  1.00  0.00     0.039 C 
ATOM     10  G   UNL     1      35.995  41.233  86.112  1.00  0.00     0.000 G0
ENDBRANCH   6   7
ENDBRANCH   5   6
ENDBRANCH   3   5
ENDBRANCH   1   3
BRANCH   1  11
ATOM     11  C   UNL     1      33.379  42.397  86.659  1.00  0.00     0.087 C 
BRANCH  11  12
ATOM     12  C   UNL     1      34.585  43.345  86.921  1.00  0.00     0.066 C 
BRANCH  12  13
ATOM     13  C   UNL     1      35.914  42.632  86.694  1.00  0.00     0.140 C 
ATOM     14  O   UNL     1      36.947  43.186  87.042  1.00  0.00    -0.299 OA
BRANCH  13  15
ATOM     15  C   UNL     1      35.985  41.232  86.121  1.00  0.00     0.106 CG0
ATOM     16  G   UNL     1      36.423  41.186  84.664  1.00  0.00     0.000 G0
ENDBRANCH  13  15
ENDBRANCH  12  13
BRANCH  12  17
ATOM     17  C   UNL     1      34.551  44.119  88.279  1.00  0.00    -0.006 C 
ATOM     18  C   UNL     1      33.852  45.482  88.116  1.00  0.00     0.008 C 
ATOM     19  C   UNL     1      33.834  43.329  89.389  1.00  0.00     0.008 C 
ENDBRANCH  12  17
ENDBRANCH  11  12
ENDBRANCH   1  11
TORSDOF 1
ENDMDL
MODEL 9
REMARK VINA RESULT:    -3.770      2.159      4.845
REMARK INTER + INTRA:          -6.164
REMARK INTER:                  -5.749
REMARK INTRA:                  -0.415
REMARK UNBOUND:                -0.411
REMARK SMILES CC1=CCC[C@@H](C)C(=O)C[C@@H](C(C)C)C(=O)C1
REMARK SMILES IDX 8 1 9 2 6 3 7 4 5 5 4 6 3 7 2 8 1 9 10 11 11 12 15 13 16 14
REMARK SMILES IDX 17 15 12 17 13 18 14 19
REMARK H PARENT
REMARK Flexibility Score: 70.00
ROOT
ATOM      1  C   UNL     1      35.250  40.956  85.698  1.00  0.00     0.136 C 
ATOM      2  O   UNL     1      35.466  40.331  86.726  1.00  0.00    -0.299 OA
ENDROOT
BRANCH   1   3
ATOM      3  C   UNL     1      36.190  40.796  84.516  1.00  0.00     0.053 C 
ATOM      4  C   UNL     1      36.664  39.340  84.398  1.00  0.00     0.016 C 
BRANCH   3   5
ATOM      5  C   UNL     1      37.392  41.758  84.635  1.00  0.00     0.015 C 
BRANCH   5   6
ATOM      6  C   UNL     1      37.182  43.039  83.804  1.00  0.00     0.028 C 
BRANCH   6   7
ATOM      7  C   UNL     1      36.991  44.270  84.653  1.00  0.00    -0.028 C 
ATOM      8  C   UNL     1      35.941  45.120  84.562  1.00  0.00    -0.070 CG0
ATOM      9  C   UNL     1      35.961  46.354  85.429  1.00  0.00     0.039 C 
ATOM     10  G   UNL     1      34.737  44.869  83.666  1.00  0.00     0.000 G0
ENDBRANCH   6   7
ENDBRANCH   5   6
ENDBRANCH   3   5
ENDBRANCH   1   3
BRANCH   1  11
ATOM     11  C   UNL     1      34.025  41.840  85.606  1.00  0.00     0.087 C 
BRANCH  11  12
ATOM     12  C   UNL     1      33.756  42.462  84.205  1.00  0.00     0.066 C 
BRANCH  12  13
ATOM     13  C   UNL     1      33.668  43.983  84.278  1.00  0.00     0.140 C 
ATOM     14  O   UNL     1      32.749  44.491  84.905  1.00  0.00    -0.299 OA
BRANCH  13  15
ATOM     15  C   UNL     1      34.723  44.877  83.661  1.00  0.00     0.106 CG0
ATOM     16  G   UNL     1      35.936  45.101  84.552  1.00  0.00     0.000 G0
ENDBRANCH  13  15
ENDBRANCH  12  13
BRANCH  12  17
ATOM     17  C   UNL     1      32.566  41.836  83.406  1.00  0.00    -0.006 C 
ATOM     18  C   UNL     1      33.071  40.766  82.420  1.00  0.00     0.008 C 
ATOM     19  C   UNL     1      31.512  41.196  84.327  1.00  0.00     0.008 C 
ENDBRANCH  12  17
ENDBRANCH  11  12
ENDBRANCH   1  11
TORSDOF 1
ENDMDL
