MODEL 1
REMARK VINA RESULT:    -3.229      0.000      0.000
REMARK INTER + INTRA:          -4.949
REMARK INTER:                  -4.362
REMARK INTRA:                  -0.587
REMARK UNBOUND:                -0.587
REMARK SMILES CCCCCCC=CC(=O)[O-]
REMARK SMILES IDX 5 1 6 2 7 3 8 4 9 5 10 6 11 7 4 8 3 9 2 10 1 11
REMARK H PARENT
REMARK Flexibility Score: inf
ROOT
ATOM      1  C   UNL     1      43.771  55.131  30.717  1.00  0.00     0.004 C 
ENDROOT
BRANCH   1   2
ATOM      2  C   UNL     1      44.001  54.894  29.220  1.00  0.00     0.027 C 
BRANCH   2   3
ATOM      3  C   UNL     1      45.135  55.734  28.704  1.00  0.00    -0.025 C 
ATOM      4  C   UNL     1      45.497  56.869  29.312  1.00  0.00     0.020 C 
BRANCH   4   5
ATOM      5  C   UNL     1      46.613  57.699  28.833  1.00  0.00     0.064 C 
ATOM      6  O   UNL     1      47.247  58.456  29.615  1.00  0.00    -0.545 OA
ATOM      7  O   UNL     1      46.976  57.646  27.493  1.00  0.00    -0.545 OA
ENDBRANCH   4   5
ENDBRANCH   2   3
ENDBRANCH   1   2
BRANCH   1   8
ATOM      8  C   UNL     1      42.275  55.271  31.028  1.00  0.00     0.000 C 
BRANCH   8   9
ATOM      9  C   UNL     1      41.981  56.601  31.733  1.00  0.00    -0.000 C 
BRANCH   9  10
ATOM     10  C   UNL     1      41.963  57.761  30.733  1.00  0.00    -0.003 C 
ATOM     11  C   UNL     1      43.068  58.769  31.036  1.00  0.00     0.004 C 
ENDBRANCH   9  10
ENDBRANCH   8   9
ENDBRANCH   1   8
TORSDOF 6
ENDMDL
MODEL 2
REMARK VINA RESULT:    -3.146      1.965      3.874
REMARK INTER + INTRA:          -4.837
REMARK INTER:                  -4.385
REMARK INTRA:                  -0.452
REMARK UNBOUND:                -0.587
REMARK SMILES CCCCCCC=CC(=O)[O-]
REMARK SMILES IDX 5 1 6 2 7 3 8 4 9 5 10 6 11 7 4 8 3 9 2 10 1 11
REMARK H PARENT
REMARK Flexibility Score: inf
ROOT
ATOM      1  C   UNL     1      41.806  54.586  31.247  1.00  0.00     0.004 C 
ENDROOT
BRANCH   1   2
ATOM      2  C   UNL     1      41.434  56.052  31.501  1.00  0.00     0.027 C 
BRANCH   2   3
ATOM      3  C   UNL     1      42.534  56.976  31.062  1.00  0.00    -0.025 C 
ATOM      4  C   UNL     1      42.307  58.276  30.841  1.00  0.00     0.020 C 
BRANCH   4   5
ATOM      5  C   UNL     1      43.373  59.202  30.425  1.00  0.00     0.064 C 
ATOM      6  O   UNL     1      43.112  60.386  30.084  1.00  0.00    -0.545 OA
ATOM      7  O   UNL     1      44.690  58.762  30.408  1.00  0.00    -0.545 OA
ENDBRANCH   4   5
ENDBRANCH   2   3
ENDBRANCH   1   2
BRANCH   1   8
ATOM      8  C   UNL     1      43.079  54.481  30.398  1.00  0.00     0.000 C 
BRANCH   8   9
ATOM      9  C   UNL     1      42.812  53.715  29.097  1.00  0.00    -0.000 C 
BRANCH   9  10
ATOM     10  C   UNL     1      44.012  53.805  28.149  1.00  0.00    -0.003 C 
ATOM     11  C   UNL     1      44.822  55.073  28.403  1.00  0.00     0.004 C 
ENDBRANCH   9  10
ENDBRANCH   8   9
ENDBRANCH   1   8
TORSDOF 6
ENDMDL
MODEL 3
REMARK VINA RESULT:    -3.127      3.647      5.488
REMARK INTER + INTRA:          -4.810
REMARK INTER:                  -4.500
REMARK INTRA:                  -0.310
REMARK UNBOUND:                -0.587
REMARK SMILES CCCCCCC=CC(=O)[O-]
REMARK SMILES IDX 5 1 6 2 7 3 8 4 9 5 10 6 11 7 4 8 3 9 2 10 1 11
REMARK H PARENT
REMARK Flexibility Score: inf
ROOT
ATOM      1  C   UNL     1      43.761  59.022  30.443  1.00  0.00     0.004 C 
ENDROOT
BRANCH   1   2
ATOM      2  C   UNL     1      42.322  58.497  30.515  1.00  0.00     0.027 C 
BRANCH   2   3
ATOM      3  C   UNL     1      42.184  57.429  31.562  1.00  0.00    -0.025 C 
ATOM      4  C   UNL     1      41.482  56.313  31.334  1.00  0.00     0.020 C 
BRANCH   4   5
ATOM      5  C   UNL     1      41.346  55.248  32.340  1.00  0.00     0.064 C 
ATOM      6  O   UNL     1      41.235  55.519  33.566  1.00  0.00    -0.545 OA
ATOM      7  O   UNL     1      41.340  53.921  31.932  1.00  0.00    -0.545 OA
ENDBRANCH   4   5
ENDBRANCH   2   3
ENDBRANCH   1   2
BRANCH   1   8
ATOM      8  C   UNL     1      44.749  57.881  30.167  1.00  0.00     0.000 C 
BRANCH   8   9
ATOM      9  C   UNL     1      46.148  58.427  29.858  1.00  0.00    -0.000 C 
BRANCH   9  10
ATOM     10  C   UNL     1      46.828  57.606  28.758  1.00  0.00    -0.003 C 
ATOM     11  C   UNL     1      45.958  56.427  28.331  1.00  0.00     0.004 C 
ENDBRANCH   9  10
ENDBRANCH   8   9
ENDBRANCH   1   8
TORSDOF 6
ENDMDL
MODEL 4
REMARK VINA RESULT:    -3.066      1.120      1.481
REMARK INTER + INTRA:          -4.728
REMARK INTER:                  -4.287
REMARK INTRA:                  -0.441
REMARK UNBOUND:                -0.587
REMARK SMILES CCCCCCC=CC(=O)[O-]
REMARK SMILES IDX 5 1 6 2 7 3 8 4 9 5 10 6 11 7 4 8 3 9 2 10 1 11
REMARK H PARENT
REMARK Flexibility Score: inf
ROOT
ATOM      1  C   UNL     1      43.828  53.868  29.734  1.00  0.00     0.004 C 
ENDROOT
BRANCH   1   2
ATOM      2  C   UNL     1      44.559  54.811  28.772  1.00  0.00     0.027 C 
BRANCH   2   3
ATOM      3  C   UNL     1      45.048  56.041  29.481  1.00  0.00    -0.025 C 
ATOM      4  C   UNL     1      45.837  56.933  28.872  1.00  0.00     0.020 C 
BRANCH   4   5
ATOM      5  C   UNL     1      46.316  58.151  29.544  1.00  0.00     0.064 C 
ATOM      6  O   UNL     1      45.553  58.834  30.278  1.00  0.00    -0.545 OA
ATOM      7  O   UNL     1      47.632  58.556  29.365  1.00  0.00    -0.545 OA
ENDBRANCH   4   5
ENDBRANCH   2   3
ENDBRANCH   1   2
BRANCH   1   8
ATOM      8  C   UNL     1      42.418  54.387  30.047  1.00  0.00     0.000 C 
BRANCH   8   9
ATOM      9  C   UNL     1      42.347  54.970  31.463  1.00  0.00    -0.000 C 
BRANCH   9  10
ATOM     10  C   UNL     1      41.388  56.164  31.519  1.00  0.00    -0.003 C 
ATOM     11  C   UNL     1      42.041  57.424  30.957  1.00  0.00     0.004 C 
ENDBRANCH   9  10
ENDBRANCH   8   9
ENDBRANCH   1   8
TORSDOF 6
ENDMDL
MODEL 5
REMARK VINA RESULT:    -3.050     12.626     13.921
REMARK INTER + INTRA:          -4.707
REMARK INTER:                  -4.008
REMARK INTRA:                  -0.699
REMARK UNBOUND:                -0.587
REMARK SMILES CCCCCCC=CC(=O)[O-]
REMARK SMILES IDX 5 1 6 2 7 3 8 4 9 5 10 6 11 7 4 8 3 9 2 10 1 11
REMARK H PARENT
REMARK Flexibility Score: inf
ROOT
ATOM      1  C   UNL     1      45.845  69.400  30.738  1.00  0.00     0.004 C 
ENDROOT
BRANCH   1   2
ATOM      2  C   UNL     1      46.934  69.151  31.788  1.00  0.00     0.027 C 
BRANCH   2   3
ATOM      3  C   UNL     1      46.350  69.069  33.170  1.00  0.00    -0.025 C 
ATOM      4  C   UNL     1      45.167  68.486  33.395  1.00  0.00     0.020 C 
BRANCH   4   5
ATOM      5  C   UNL     1      44.583  68.383  34.741  1.00  0.00     0.064 C 
ATOM      6  O   UNL     1      45.253  67.936  35.710  1.00  0.00    -0.545 OA
ATOM      7  O   UNL     1      43.270  68.784  34.948  1.00  0.00    -0.545 OA
ENDBRANCH   4   5
ENDBRANCH   2   3
ENDBRANCH   1   2
BRANCH   1   8
ATOM      8  C   UNL     1      45.819  70.873  30.312  1.00  0.00     0.000 C 
BRANCH   8   9
ATOM      9  C   UNL     1      44.404  71.454  30.420  1.00  0.00    -0.000 C 
BRANCH   9  10
ATOM     10  C   UNL     1      44.286  72.397  31.622  1.00  0.00    -0.003 C 
ATOM     11  C   UNL     1      43.496  71.750  32.756  1.00  0.00     0.004 C 
ENDBRANCH   9  10
ENDBRANCH   8   9
ENDBRANCH   1   8
TORSDOF 6
ENDMDL
MODEL 6
REMARK VINA RESULT:    -2.988     12.652     14.421
REMARK INTER + INTRA:          -4.623
REMARK INTER:                  -3.899
REMARK INTRA:                  -0.724
REMARK UNBOUND:                -0.587
REMARK SMILES CCCCCCC=CC(=O)[O-]
REMARK SMILES IDX 5 1 6 2 7 3 8 4 9 5 10 6 11 7 4 8 3 9 2 10 1 11
REMARK H PARENT
REMARK Flexibility Score: inf
ROOT
ATOM      1  C   UNL     1      44.097  71.713  30.427  1.00  0.00     0.004 C 
ENDROOT
BRANCH   1   2
ATOM      2  C   UNL     1      45.436  71.387  29.754  1.00  0.00     0.027 C 
BRANCH   2   3
ATOM      3  C   UNL     1      46.351  70.653  30.692  1.00  0.00    -0.025 C 
ATOM      4  C   UNL     1      46.000  69.483  31.237  1.00  0.00     0.020 C 
BRANCH   4   5
ATOM      5  C   UNL     1      46.887  68.740  32.147  1.00  0.00     0.064 C 
ATOM      6  O   UNL     1      48.124  68.650  31.923  1.00  0.00    -0.545 OA
ATOM      7  O   UNL     1      46.351  68.128  33.272  1.00  0.00    -0.545 OA
ENDBRANCH   4   5
ENDBRANCH   2   3
ENDBRANCH   1   2
BRANCH   1   8
ATOM      8  C   UNL     1      44.174  73.041  31.191  1.00  0.00     0.000 C 
BRANCH   8   9
ATOM      9  C   UNL     1      43.377  72.972  32.498  1.00  0.00    -0.000 C 
BRANCH   9  10
ATOM     10  C   UNL     1      43.431  71.565  33.102  1.00  0.00    -0.003 C 
ATOM     11  C   UNL     1      44.578  71.436  34.100  1.00  0.00     0.004 C 
ENDBRANCH   9  10
ENDBRANCH   8   9
ENDBRANCH   1   8
TORSDOF 6
ENDMDL
MODEL 7
REMARK VINA RESULT:    -2.956      2.896      4.020
REMARK INTER + INTRA:          -4.580
REMARK INTER:                  -4.268
REMARK INTRA:                  -0.312
REMARK UNBOUND:                -0.587
REMARK SMILES CCCCCCC=CC(=O)[O-]
REMARK SMILES IDX 5 1 6 2 7 3 8 4 9 5 10 6 11 7 4 8 3 9 2 10 1 11
REMARK H PARENT
REMARK Flexibility Score: inf
ROOT
ATOM      1  C   UNL     1      42.358  54.841  32.319  1.00  0.00     0.004 C 
ENDROOT
BRANCH   1   2
ATOM      2  C   UNL     1      41.648  55.830  31.387  1.00  0.00     0.027 C 
BRANCH   2   3
ATOM      3  C   UNL     1      42.614  56.827  30.813  1.00  0.00    -0.025 C 
ATOM      4  C   UNL     1      42.471  58.140  31.023  1.00  0.00     0.020 C 
BRANCH   4   5
ATOM      5  C   UNL     1      43.413  59.132  30.482  1.00  0.00     0.064 C 
ATOM      6  O   UNL     1      44.642  58.876  30.379  1.00  0.00    -0.545 OA
ATOM      7  O   UNL     1      42.939  60.374  30.079  1.00  0.00    -0.545 OA
ENDBRANCH   4   5
ENDBRANCH   2   3
ENDBRANCH   1   2
BRANCH   1   8
ATOM      8  C   UNL     1      41.657  54.770  33.681  1.00  0.00     0.000 C 
BRANCH   8   9
ATOM      9  C   UNL     1      41.783  56.098  34.437  1.00  0.00    -0.000 C 
BRANCH   9  10
ATOM     10  C   UNL     1      41.404  55.930  35.912  1.00  0.00    -0.003 C 
ATOM     11  C   UNL     1      40.650  57.151  36.431  1.00  0.00     0.004 C 
ENDBRANCH   9  10
ENDBRANCH   8   9
ENDBRANCH   1   8
TORSDOF 6
ENDMDL
MODEL 8
REMARK VINA RESULT:    -2.941      2.887      4.604
REMARK INTER + INTRA:          -4.560
REMARK INTER:                  -4.045
REMARK INTRA:                  -0.514
REMARK UNBOUND:                -0.587
REMARK SMILES CCCCCCC=CC(=O)[O-]
REMARK SMILES IDX 5 1 6 2 7 3 8 4 9 5 10 6 11 7 4 8 3 9 2 10 1 11
REMARK H PARENT
REMARK Flexibility Score: inf
ROOT
ATOM      1  C   UNL     1      45.045  55.189  27.943  1.00  0.00     0.004 C 
ENDROOT
BRANCH   1   2
ATOM      2  C   UNL     1      44.533  54.245  29.038  1.00  0.00     0.027 C 
BRANCH   2   3
ATOM      3  C   UNL     1      43.275  54.772  29.666  1.00  0.00    -0.025 C 
ATOM      4  C   UNL     1      43.283  55.866  30.436  1.00  0.00     0.020 C 
BRANCH   4   5
ATOM      5  C   UNL     1      42.060  56.407  31.049  1.00  0.00     0.064 C 
ATOM      6  O   UNL     1      41.686  57.590  30.826  1.00  0.00    -0.545 OA
ATOM      7  O   UNL     1      41.303  55.600  31.888  1.00  0.00    -0.545 OA
ENDBRANCH   4   5
ENDBRANCH   2   3
ENDBRANCH   1   2
BRANCH   1   8
ATOM      8  C   UNL     1      46.455  55.696  28.270  1.00  0.00     0.000 C 
BRANCH   8   9
ATOM      9  C   UNL     1      46.561  57.210  28.051  1.00  0.00    -0.000 C 
BRANCH   9  10
ATOM     10  C   UNL     1      46.918  57.931  29.355  1.00  0.00    -0.003 C 
ATOM     11  C   UNL     1      45.670  58.475  30.044  1.00  0.00     0.004 C 
ENDBRANCH   9  10
ENDBRANCH   8   9
ENDBRANCH   1   8
TORSDOF 6
ENDMDL
MODEL 9
REMARK VINA RESULT:    -2.911     13.428     15.037
REMARK INTER + INTRA:          -4.519
REMARK INTER:                  -3.803
REMARK INTRA:                  -0.716
REMARK UNBOUND:                -0.587
REMARK SMILES CCCCCCC=CC(=O)[O-]
REMARK SMILES IDX 5 1 6 2 7 3 8 4 9 5 10 6 11 7 4 8 3 9 2 10 1 11
REMARK H PARENT
REMARK Flexibility Score: inf
ROOT
ATOM      1  C   UNL     1      44.195  73.043  31.072  1.00  0.00     0.004 C 
ENDROOT
BRANCH   1   2
ATOM      2  C   UNL     1      43.573  72.991  32.473  1.00  0.00     0.027 C 
BRANCH   2   3
ATOM      3  C   UNL     1      43.414  71.574  32.945  1.00  0.00    -0.025 C 
ATOM      4  C   UNL     1      44.205  71.061  33.894  1.00  0.00     0.020 C 
BRANCH   4   5
ATOM      5  C   UNL     1      44.057  69.680  34.382  1.00  0.00     0.064 C 
ATOM      6  O   UNL     1      43.277  69.404  35.331  1.00  0.00    -0.545 OA
ATOM      7  O   UNL     1      44.790  68.664  33.784  1.00  0.00    -0.545 OA
ENDBRANCH   4   5
ENDBRANCH   2   3
ENDBRANCH   1   2
BRANCH   1   8
ATOM      8  C   UNL     1      44.101  71.678  30.378  1.00  0.00     0.000 C 
BRANCH   8   9
ATOM      9  C   UNL     1      45.478  71.208  29.895  1.00  0.00    -0.000 C 
BRANCH   9  10
ATOM     10  C   UNL     1      45.945  69.977  30.680  1.00  0.00    -0.003 C 
ATOM     11  C   UNL     1      47.118  70.318  31.594  1.00  0.00     0.004 C 
ENDBRANCH   9  10
ENDBRANCH   8   9
ENDBRANCH   1   8
TORSDOF 6
ENDMDL
