MODEL 1
REMARK VINA RESULT:    -4.493      0.000      0.000
REMARK INTER + INTRA:          -6.248
REMARK INTER:                  -6.857
REMARK INTRA:                   0.609
REMARK UNBOUND:                 0.609
REMARK SMILES CC1=CCC[C@H](C)C(=O)C[C@H](C(C)C)C(=O)C1
REMARK SMILES IDX 8 1 9 2 6 3 7 4 5 5 4 6 3 7 2 8 1 9 10 11 11 12 15 13 16 14
REMARK SMILES IDX 17 15 12 17 13 18 14 19
REMARK H PARENT
REMARK Flexibility Score: 70.00
ROOT
ATOM      1  C   UNL     1     108.041  50.174  64.110  1.00  0.00     0.136 C 
ATOM      2  O   UNL     1     106.927  49.670  64.080  1.00  0.00    -0.299 OA
ENDROOT
BRANCH   1   3
ATOM      3  C   UNL     1     108.218  51.640  63.781  1.00  0.00     0.053 C 
ATOM      4  C   UNL     1     109.714  51.971  63.722  1.00  0.00     0.016 C 
BRANCH   3   5
ATOM      5  C   UNL     1     107.526  52.044  62.460  1.00  0.00     0.015 C 
BRANCH   5   6
ATOM      6  C   UNL     1     108.332  51.662  61.203  1.00  0.00     0.028 C 
BRANCH   6   7
ATOM      7  C   UNL     1     107.906  50.316  60.661  1.00  0.00    -0.028 C 
ATOM      8  C   UNL     1     108.541  49.137  60.854  1.00  0.00    -0.070 CG0
ATOM      9  C   UNL     1     107.934  47.900  60.242  1.00  0.00     0.039 C 
ATOM     10  G   UNL     1     109.854  49.003  61.596  1.00  0.00     0.000 G0
ENDBRANCH   6   7
ENDBRANCH   5   6
ENDBRANCH   3   5
ENDBRANCH   1   3
BRANCH   1  11
ATOM     11  C   UNL     1     109.237  49.315  64.438  1.00  0.00     0.087 C 
BRANCH  11  12
ATOM     12  C   UNL     1     109.114  47.880  63.868  1.00  0.00     0.066 C 
BRANCH  12  13
ATOM     13  C   UNL     1     109.794  47.811  62.513  1.00  0.00     0.140 C 
ATOM     14  O   UNL     1     110.300  46.760  62.144  1.00  0.00    -0.299 OA
BRANCH  13  15
ATOM     15  C   UNL     1     109.846  49.006  61.599  1.00  0.00     0.106 CG0
ATOM     16  G   UNL     1     108.540  49.149  60.847  1.00  0.00     0.000 G0
ENDBRANCH  13  15
ENDBRANCH  12  13
BRANCH  12  17
ATOM     17  C   UNL     1     109.714  46.806  64.829  1.00  0.00    -0.006 C 
ATOM     18  C   UNL     1     109.144  45.408  64.523  1.00  0.00     0.008 C 
ATOM     19  C   UNL     1     109.454  47.135  66.310  1.00  0.00     0.008 C 
ENDBRANCH  12  17
ENDBRANCH  11  12
ENDBRANCH   1  11
TORSDOF 1
ENDMDL
MODEL 2
REMARK VINA RESULT:    -4.019      1.588      4.095
REMARK INTER + INTRA:          -5.524
REMARK INTER:                  -6.146
REMARK INTRA:                   0.623
REMARK UNBOUND:                 0.609
REMARK SMILES CC1=CCC[C@H](C)C(=O)C[C@H](C(C)C)C(=O)C1
REMARK SMILES IDX 8 1 9 2 6 3 7 4 5 5 4 6 3 7 2 8 1 9 10 11 11 12 15 13 16 14
REMARK SMILES IDX 17 15 12 17 13 18 14 19
REMARK H PARENT
REMARK Flexibility Score: 70.00
ROOT
ATOM      1  C   UNL     1     108.112  48.784  64.643  1.00  0.00     0.136 C 
ATOM      2  O   UNL     1     107.300  49.109  65.499  1.00  0.00    -0.299 OA
ENDROOT
BRANCH   1   3
ATOM      3  C   UNL     1     109.243  47.841  64.990  1.00  0.00     0.053 C 
ATOM      4  C   UNL     1     109.507  47.896  66.499  1.00  0.00     0.016 C 
BRANCH   3   5
ATOM      5  C   UNL     1     108.964  46.387  64.547  1.00  0.00     0.015 C 
BRANCH   5   6
ATOM      6  C   UNL     1     109.824  45.932  63.352  1.00  0.00     0.028 C 
BRANCH   6   7
ATOM      7  C   UNL     1     109.258  46.432  62.042  1.00  0.00    -0.028 C 
ATOM      8  C   UNL     1     109.609  47.569  61.398  1.00  0.00    -0.070 CG0
ATOM      9  C   UNL     1     108.935  47.874  60.084  1.00  0.00     0.039 C 
ATOM     10  G   UNL     1     110.592  48.578  61.955  1.00  0.00     0.000 G0
ENDBRANCH   6   7
ENDBRANCH   5   6
ENDBRANCH   3   5
ENDBRANCH   1   3
BRANCH   1  11
ATOM     11  C   UNL     1     107.997  49.361  63.253  1.00  0.00     0.087 C 
BRANCH  11  12
ATOM     12  C   UNL     1     109.053  50.459  62.975  1.00  0.00     0.066 C 
BRANCH  12  13
ATOM     13  C   UNL     1     110.021  49.975  61.910  1.00  0.00     0.140 C 
ATOM     14  O   UNL     1     110.360  50.735  61.012  1.00  0.00    -0.299 OA
BRANCH  13  15
ATOM     15  C   UNL     1     110.591  48.583  61.942  1.00  0.00     0.106 CG0
ATOM     16  G   UNL     1     109.588  47.592  61.388  1.00  0.00     0.000 G0
ENDBRANCH  13  15
ENDBRANCH  12  13
BRANCH  12  17
ATOM     17  C   UNL     1     108.405  51.811  62.541  1.00  0.00    -0.006 C 
ATOM     18  C   UNL     1     108.604  52.893  63.620  1.00  0.00     0.008 C 
ATOM     19  C   UNL     1     106.900  51.671  62.251  1.00  0.00     0.008 C 
ENDBRANCH  12  17
ENDBRANCH  11  12
ENDBRANCH   1  11
TORSDOF 1
ENDMDL
MODEL 3
REMARK VINA RESULT:    -3.868      1.818      5.116
REMARK INTER + INTRA:          -5.293
REMARK INTER:                  -5.304
REMARK INTRA:                   0.011
REMARK UNBOUND:                 0.609
REMARK SMILES CC1=CCC[C@H](C)C(=O)C[C@H](C(C)C)C(=O)C1
REMARK SMILES IDX 8 1 9 2 6 3 7 4 5 5 4 6 3 7 2 8 1 9 10 11 11 12 15 13 16 14
REMARK SMILES IDX 17 15 12 17 13 18 14 19
REMARK H PARENT
REMARK Flexibility Score: 70.00
ROOT
ATOM      1  C   UNL     1     110.038  48.844  61.836  1.00  0.00     0.136 C 
ATOM      2  O   UNL     1     111.026  49.067  61.151  1.00  0.00    -0.299 OA
ENDROOT
BRANCH   1   3
ATOM      3  C   UNL     1     109.208  47.603  61.589  1.00  0.00     0.053 C 
ATOM      4  C   UNL     1     108.983  47.433  60.082  1.00  0.00     0.016 C 
BRANCH   3   5
ATOM      5  C   UNL     1     109.850  46.328  62.181  1.00  0.00     0.015 C 
BRANCH   5   6
ATOM      6  C   UNL     1     109.165  45.838  63.472  1.00  0.00     0.028 C 
BRANCH   6   7
ATOM      7  C   UNL     1     109.580  46.668  64.667  1.00  0.00    -0.028 C 
ATOM      8  C   UNL     1     108.863  47.664  65.239  1.00  0.00    -0.070 CG0
ATOM      9  C   UNL     1     109.451  48.355  66.443  1.00  0.00     0.039 C 
ATOM     10  G   UNL     1     107.538  48.159  64.700  1.00  0.00     0.000 G0
ENDBRANCH   6   7
ENDBRANCH   5   6
ENDBRANCH   3   5
ENDBRANCH   1   3
BRANCH   1  11
ATOM     11  C   UNL     1     109.634  49.833  62.902  1.00  0.00     0.087 C 
BRANCH  11  12
ATOM     12  C   UNL     1     108.101  50.042  62.969  1.00  0.00     0.066 C 
BRANCH  12  13
ATOM     13  C   UNL     1     107.587  49.610  64.330  1.00  0.00     0.140 C 
ATOM     14  O   UNL     1     107.205  50.456  65.128  1.00  0.00    -0.299 OA
BRANCH  13  15
ATOM     15  C   UNL     1     107.519  48.157  64.718  1.00  0.00     0.106 CG0
ATOM     16  G   UNL     1     108.861  47.691  65.242  1.00  0.00     0.000 G0
ENDBRANCH  13  15
ENDBRANCH  12  13
BRANCH  12  17
ATOM     17  C   UNL     1     107.690  51.521  62.681  1.00  0.00    -0.006 C 
ATOM     18  C   UNL     1     107.222  51.693  61.224  1.00  0.00     0.008 C 
ATOM     19  C   UNL     1     108.838  52.510  62.954  1.00  0.00     0.008 C 
ENDBRANCH  12  17
ENDBRANCH  11  12
ENDBRANCH   1  11
TORSDOF 1
ENDMDL
MODEL 4
REMARK VINA RESULT:    -3.796      1.440      4.165
REMARK INTER + INTRA:          -5.184
REMARK INTER:                  -6.014
REMARK INTRA:                   0.830
REMARK UNBOUND:                 0.609
REMARK SMILES CC1=CCC[C@H](C)C(=O)C[C@H](C(C)C)C(=O)C1
REMARK SMILES IDX 8 1 9 2 6 3 7 4 5 5 4 6 3 7 2 8 1 9 10 11 11 12 15 13 16 14
REMARK SMILES IDX 17 15 12 17 13 18 14 19
REMARK H PARENT
REMARK Flexibility Score: 70.00
ROOT
ATOM      1  C   UNL     1     107.833  48.618  64.730  1.00  0.00     0.136 C 
ATOM      2  O   UNL     1     106.868  47.871  64.801  1.00  0.00    -0.299 OA
ENDROOT
BRANCH   1   3
ATOM      3  C   UNL     1     109.230  48.074  64.935  1.00  0.00     0.053 C 
ATOM      4  C   UNL     1     109.569  48.093  66.430  1.00  0.00     0.016 C 
BRANCH   3   5
ATOM      5  C   UNL     1     109.405  46.649  64.364  1.00  0.00     0.015 C 
BRANCH   5   6
ATOM      6  C   UNL     1     109.489  46.609  62.826  1.00  0.00     0.028 C 
BRANCH   6   7
ATOM      7  C   UNL     1     110.246  47.800  62.282  1.00  0.00    -0.028 C 
ATOM      8  C   UNL     1     109.732  48.800  61.528  1.00  0.00    -0.070 CG0
ATOM      9  C   UNL     1     110.657  49.912  61.105  1.00  0.00     0.039 C 
ATOM     10  G   UNL     1     108.300  48.829  61.037  1.00  0.00     0.000 G0
ENDBRANCH   6   7
ENDBRANCH   5   6
ENDBRANCH   3   5
ENDBRANCH   1   3
BRANCH   1  11
ATOM     11  C   UNL     1     107.617  50.090  64.473  1.00  0.00     0.087 C 
BRANCH  11  12
ATOM     12  C   UNL     1     108.080  50.521  63.059  1.00  0.00     0.066 C 
BRANCH  12  13
ATOM     13  C   UNL     1     107.455  49.610  62.019  1.00  0.00     0.140 C 
ATOM     14  O   UNL     1     106.237  49.507  61.961  1.00  0.00    -0.299 OA
BRANCH  13  15
ATOM     15  C   UNL     1     108.301  48.841  61.040  1.00  0.00     0.106 CG0
ATOM     16  G   UNL     1     109.739  48.795  61.512  1.00  0.00     0.000 G0
ENDBRANCH  13  15
ENDBRANCH  12  13
BRANCH  12  17
ATOM     17  C   UNL     1     107.734  52.012  62.750  1.00  0.00    -0.006 C 
ATOM     18  C   UNL     1     107.693  52.269  61.232  1.00  0.00     0.008 C 
ATOM     19  C   UNL     1     108.734  52.990  63.393  1.00  0.00     0.008 C 
ENDBRANCH  12  17
ENDBRANCH  11  12
ENDBRANCH   1  11
TORSDOF 1
ENDMDL
MODEL 5
REMARK VINA RESULT:    -3.598      1.502      1.961
REMARK INTER + INTRA:          -4.883
REMARK INTER:                  -6.135
REMARK INTRA:                   1.253
REMARK UNBOUND:                 0.609
REMARK SMILES CC1=CCC[C@H](C)C(=O)C[C@H](C(C)C)C(=O)C1
REMARK SMILES IDX 8 1 9 2 6 3 7 4 5 5 4 6 3 7 2 8 1 9 10 11 11 12 15 13 16 14
REMARK SMILES IDX 17 15 12 17 13 18 14 19
REMARK H PARENT
REMARK Flexibility Score: 70.00
ROOT
ATOM      1  C   UNL     1     107.913  50.986  63.704  1.00  0.00     0.136 C 
ATOM      2  O   UNL     1     108.582  51.992  63.895  1.00  0.00    -0.299 OA
ENDROOT
BRANCH   1   3
ATOM      3  C   UNL     1     106.816  50.991  62.662  1.00  0.00     0.053 C 
ATOM      4  C   UNL     1     107.174  51.985  61.551  1.00  0.00     0.016 C 
BRANCH   3   5
ATOM      5  C   UNL     1     106.554  49.591  62.064  1.00  0.00     0.015 C 
BRANCH   5   6
ATOM      6  C   UNL     1     107.216  49.376  60.689  1.00  0.00     0.028 C 
BRANCH   6   7
ATOM      7  C   UNL     1     108.039  48.107  60.664  1.00  0.00    -0.028 C 
ATOM      8  C   UNL     1     109.332  47.983  61.043  1.00  0.00    -0.070 CG0
ATOM      9  C   UNL     1     109.964  46.616  60.961  1.00  0.00     0.039 C 
ATOM     10  G   UNL     1     110.192  49.148  61.485  1.00  0.00     0.000 G0
ENDBRANCH   6   7
ENDBRANCH   5   6
ENDBRANCH   3   5
ENDBRANCH   1   3
BRANCH   1  11
ATOM     11  C   UNL     1     108.166  49.755  64.541  1.00  0.00     0.087 C 
BRANCH  11  12
ATOM     12  C   UNL     1     108.988  48.682  63.785  1.00  0.00     0.066 C 
BRANCH  12  13
ATOM     13  C   UNL     1     110.078  49.354  62.971  1.00  0.00     0.140 C 
ATOM     14  O   UNL     1     110.900  50.065  63.534  1.00  0.00    -0.299 OA
BRANCH  13  15
ATOM     15  C   UNL     1     110.184  49.153  61.484  1.00  0.00     0.106 CG0
ATOM     16  G   UNL     1     109.330  47.980  61.051  1.00  0.00     0.000 G0
ENDBRANCH  13  15
ENDBRANCH  12  13
BRANCH  12  17
ATOM     17  C   UNL     1     109.609  47.622  64.750  1.00  0.00    -0.006 C 
ATOM     18  C   UNL     1     109.168  46.197  64.367  1.00  0.00     0.008 C 
ATOM     19  C   UNL     1     109.235  47.880  66.220  1.00  0.00     0.008 C 
ENDBRANCH  12  17
ENDBRANCH  11  12
ENDBRANCH   1  11
TORSDOF 1
ENDMDL
MODEL 6
REMARK VINA RESULT:    -3.379      2.018      5.015
REMARK INTER + INTRA:          -4.547
REMARK INTER:                  -5.095
REMARK INTRA:                   0.548
REMARK UNBOUND:                 0.609
REMARK SMILES CC1=CCC[C@H](C)C(=O)C[C@H](C(C)C)C(=O)C1
REMARK SMILES IDX 8 1 9 2 6 3 7 4 5 5 4 6 3 7 2 8 1 9 10 11 11 12 15 13 16 14
REMARK SMILES IDX 17 15 12 17 13 18 14 19
REMARK H PARENT
REMARK Flexibility Score: 70.00
ROOT
ATOM      1  C   UNL     1     108.359  48.527  60.909  1.00  0.00     0.136 C 
ATOM      2  O   UNL     1     107.476  47.873  60.371  1.00  0.00    -0.299 OA
ENDROOT
BRANCH   1   3
ATOM      3  C   UNL     1     109.360  47.847  61.818  1.00  0.00     0.053 C 
ATOM      4  C   UNL     1     109.752  46.492  61.219  1.00  0.00     0.016 C 
BRANCH   3   5
ATOM      5  C   UNL     1     110.620  48.707  62.067  1.00  0.00     0.015 C 
BRANCH   5   6
ATOM      6  C   UNL     1     110.556  49.526  63.371  1.00  0.00     0.028 C 
BRANCH   6   7
ATOM      7  C   UNL     1     109.586  48.918  64.359  1.00  0.00    -0.028 C 
ATOM      8  C   UNL     1     108.312  49.318  64.582  1.00  0.00    -0.070 CG0
ATOM      9  C   UNL     1     107.501  48.558  65.600  1.00  0.00     0.039 C 
ATOM     10  G   UNL     1     107.682  50.521  63.911  1.00  0.00     0.000 G0
ENDBRANCH   6   7
ENDBRANCH   5   6
ENDBRANCH   3   5
ENDBRANCH   1   3
BRANCH   1  11
ATOM     11  C   UNL     1     108.417  50.019  60.689  1.00  0.00     0.087 C 
BRANCH  11  12
ATOM     12  C   UNL     1     107.228  50.764  61.344  1.00  0.00     0.066 C 
BRANCH  12  13
ATOM     13  C   UNL     1     106.917  50.139  62.692  1.00  0.00     0.140 C 
ATOM     14  O   UNL     1     106.041  49.289  62.776  1.00  0.00    -0.299 OA
BRANCH  13  15
ATOM     15  C   UNL     1     107.676  50.530  63.931  1.00  0.00     0.106 CG0
ATOM     16  G   UNL     1     108.296  49.308  64.574  1.00  0.00     0.000 G0
ENDBRANCH  13  15
ENDBRANCH  12  13
BRANCH  12  17
ATOM     17  C   UNL     1     107.501  52.293  61.506  1.00  0.00    -0.006 C 
ATOM     18  C   UNL     1     106.615  53.119  60.556  1.00  0.00     0.008 C 
ATOM     19  C   UNL     1     108.975  52.653  61.249  1.00  0.00     0.008 C 
ENDBRANCH  12  17
ENDBRANCH  11  12
ENDBRANCH   1  11
TORSDOF 1
ENDMDL
MODEL 7
REMARK VINA RESULT:    -3.374      1.638      3.640
REMARK INTER + INTRA:          -4.540
REMARK INTER:                  -6.632
REMARK INTRA:                   2.092
REMARK UNBOUND:                 0.609
REMARK SMILES CC1=CCC[C@H](C)C(=O)C[C@H](C(C)C)C(=O)C1
REMARK SMILES IDX 8 1 9 2 6 3 7 4 5 5 4 6 3 7 2 8 1 9 10 11 11 12 15 13 16 14
REMARK SMILES IDX 17 15 12 17 13 18 14 19
REMARK H PARENT
REMARK Flexibility Score: 70.00
ROOT
ATOM      1  C   UNL     1     109.674  47.847  62.228  1.00  0.00     0.136 C 
ATOM      2  O   UNL     1     109.361  46.875  62.901  1.00  0.00    -0.299 OA
ENDROOT
BRANCH   1   3
ATOM      3  C   UNL     1     109.178  47.974  60.804  1.00  0.00     0.053 C 
ATOM      4  C   UNL     1     109.498  46.686  60.037  1.00  0.00     0.016 C 
BRANCH   3   5
ATOM      5  C   UNL     1     107.666  48.284  60.723  1.00  0.00     0.015 C 
BRANCH   5   6
ATOM      6  C   UNL     1     107.151  49.141  61.896  1.00  0.00     0.028 C 
BRANCH   6   7
ATOM      7  C   UNL     1     106.976  50.587  61.489  1.00  0.00    -0.028 C 
ATOM      8  C   UNL     1     107.946  51.531  61.450  1.00  0.00    -0.070 CG0
ATOM      9  C   UNL     1     107.565  52.916  60.991  1.00  0.00     0.039 C 
ATOM     10  G   UNL     1     109.372  51.287  61.897  1.00  0.00     0.000 G0
ENDBRANCH   6   7
ENDBRANCH   5   6
ENDBRANCH   3   5
ENDBRANCH   1   3
BRANCH   1  11
ATOM     11  C   UNL     1     110.586  48.896  62.816  1.00  0.00     0.087 C 
BRANCH  11  12
ATOM     12  C   UNL     1     109.900  49.722  63.932  1.00  0.00     0.066 C 
BRANCH  12  13
ATOM     13  C   UNL     1     109.466  51.067  63.376  1.00  0.00     0.140 C 
ATOM     14  O   UNL     1     109.181  51.974  64.146  1.00  0.00    -0.299 OA
BRANCH  13  15
ATOM     15  C   UNL     1     109.396  51.317  61.894  1.00  0.00     0.106 CG0
ATOM     16  G   UNL     1     107.959  51.525  61.465  1.00  0.00     0.000 G0
ENDBRANCH  13  15
ENDBRANCH  12  13
BRANCH  12  17
ATOM     17  C   UNL     1     108.678  48.977  64.557  1.00  0.00    -0.006 C 
ATOM     18  C   UNL     1     107.569  49.968  64.956  1.00  0.00     0.008 C 
ATOM     19  C   UNL     1     109.070  48.147  65.793  1.00  0.00     0.008 C 
ENDBRANCH  12  17
ENDBRANCH  11  12
ENDBRANCH   1  11
TORSDOF 1
ENDMDL
MODEL 8
REMARK VINA RESULT:    -3.364      1.837      4.015
REMARK INTER + INTRA:          -4.525
REMARK INTER:                  -6.916
REMARK INTRA:                   2.391
REMARK UNBOUND:                 0.609
REMARK SMILES CC1=CCC[C@H](C)C(=O)C[C@H](C(C)C)C(=O)C1
REMARK SMILES IDX 8 1 9 2 6 3 7 4 5 5 4 6 3 7 2 8 1 9 10 11 11 12 15 13 16 14
REMARK SMILES IDX 17 15 12 17 13 18 14 19
REMARK H PARENT
REMARK Flexibility Score: 70.00
ROOT
ATOM      1  C   UNL     1     109.505  46.894  63.873  1.00  0.00     0.136 C 
ATOM      2  O   UNL     1     109.435  45.674  63.819  1.00  0.00    -0.299 OA
ENDROOT
BRANCH   1   3
ATOM      3  C   UNL     1     108.828  47.644  65.000  1.00  0.00     0.053 C 
ATOM      4  C   UNL     1     109.523  47.306  66.324  1.00  0.00     0.016 C 
BRANCH   3   5
ATOM      5  C   UNL     1     108.814  49.173  64.776  1.00  0.00     0.015 C 
BRANCH   5   6
ATOM      6  C   UNL     1     107.409  49.740  64.498  1.00  0.00     0.028 C 
BRANCH   6   7
ATOM      7  C   UNL     1     107.483  51.092  63.822  1.00  0.00    -0.028 C 
ATOM      8  C   UNL     1     108.569  51.629  63.220  1.00  0.00    -0.070 CG0
ATOM      9  C   UNL     1     108.424  52.987  62.583  1.00  0.00     0.039 C 
ATOM     10  G   UNL     1     109.932  50.968  63.206  1.00  0.00     0.000 G0
ENDBRANCH   6   7
ENDBRANCH   5   6
ENDBRANCH   3   5
ENDBRANCH   1   3
BRANCH   1  11
ATOM     11  C   UNL     1     110.240  47.645  62.789  1.00  0.00     0.087 C 
BRANCH  11  12
ATOM     12  C   UNL     1     109.335  48.665  62.055  1.00  0.00     0.066 C 
BRANCH  12  13
ATOM     13  C   UNL     1     110.020  50.020  62.020  1.00  0.00     0.140 C 
ATOM     14  O   UNL     1     110.635  50.359  61.018  1.00  0.00    -0.299 OA
BRANCH  13  15
ATOM     15  C   UNL     1     109.945  50.967  63.187  1.00  0.00     0.106 CG0
ATOM     16  G   UNL     1     108.592  51.647  63.224  1.00  0.00     0.000 G0
ENDBRANCH  13  15
ENDBRANCH  12  13
BRANCH  12  17
ATOM     17  C   UNL     1     108.974  48.205  60.607  1.00  0.00    -0.006 C 
ATOM     18  C   UNL     1     107.461  48.329  60.347  1.00  0.00     0.008 C 
ATOM     19  C   UNL     1     109.409  46.755  60.329  1.00  0.00     0.008 C 
ENDBRANCH  12  17
ENDBRANCH  11  12
ENDBRANCH   1  11
TORSDOF 1
ENDMDL
MODEL 9
REMARK VINA RESULT:    -3.023      1.856      3.777
REMARK INTER + INTRA:          -4.005
REMARK INTER:                  -4.405
REMARK INTRA:                   0.401
REMARK UNBOUND:                 0.609
REMARK SMILES CC1=CCC[C@H](C)C(=O)C[C@H](C(C)C)C(=O)C1
REMARK SMILES IDX 8 1 9 2 6 3 7 4 5 5 4 6 3 7 2 8 1 9 10 11 11 12 15 13 16 14
REMARK SMILES IDX 17 15 12 17 13 18 14 19
REMARK H PARENT
REMARK Flexibility Score: 70.00
ROOT
ATOM      1  C   UNL     1     108.032  48.236  61.337  1.00  0.00     0.136 C 
ATOM      2  O   UNL     1     107.370  48.143  60.312  1.00  0.00    -0.299 OA
ENDROOT
BRANCH   1   3
ATOM      3  C   UNL     1     109.522  47.973  61.303  1.00  0.00     0.053 C 
ATOM      4  C   UNL     1     109.797  46.714  60.473  1.00  0.00     0.016 C 
BRANCH   3   5
ATOM      5  C   UNL     1     110.327  49.169  60.747  1.00  0.00     0.015 C 
BRANCH   5   6
ATOM      6  C   UNL     1     110.482  50.326  61.751  1.00  0.00     0.028 C 
BRANCH   6   7
ATOM      7  C   UNL     1     109.428  51.390  61.537  1.00  0.00    -0.028 C 
ATOM      8  C   UNL     1     108.693  51.995  62.499  1.00  0.00    -0.070 CG0
ATOM      9  C   UNL     1     107.705  53.052  62.073  1.00  0.00     0.039 C 
ATOM     10  G   UNL     1     108.766  51.627  63.966  1.00  0.00     0.000 G0
ENDBRANCH   6   7
ENDBRANCH   5   6
ENDBRANCH   3   5
ENDBRANCH   1   3
BRANCH   1  11
ATOM     11  C   UNL     1     107.346  48.579  62.637  1.00  0.00     0.087 C 
BRANCH  11  12
ATOM     12  C   UNL     1     108.342  49.020  63.737  1.00  0.00     0.066 C 
BRANCH  12  13
ATOM     13  C   UNL     1     107.949  50.390  64.260  1.00  0.00     0.140 C 
ATOM     14  O   UNL     1     106.943  50.508  64.946  1.00  0.00    -0.299 OA
BRANCH  13  15
ATOM     15  C   UNL     1     108.780  51.610  63.967  1.00  0.00     0.106 CG0
ATOM     16  G   UNL     1     108.676  51.977  62.502  1.00  0.00     0.000 G0
ENDBRANCH  13  15
ENDBRANCH  12  13
BRANCH  12  17
ATOM     17  C   UNL     1     108.421  47.995  64.913  1.00  0.00    -0.006 C 
ATOM     18  C   UNL     1     109.368  48.494  66.020  1.00  0.00     0.008 C 
ATOM     19  C   UNL     1     108.889  46.605  64.447  1.00  0.00     0.008 C 
ENDBRANCH  12  17
ENDBRANCH  11  12
ENDBRANCH   1  11
TORSDOF 1
ENDMDL
