MODEL 1
REMARK VINA RESULT:    -3.653      0.000      0.000
REMARK INTER + INTRA:          -4.245
REMARK INTER:                  -4.080
REMARK INTRA:                  -0.166
REMARK UNBOUND:                -0.166
REMARK SMILES COc1cc2ccc(=O)oc2cc1OC
REMARK SMILES IDX 3 1 13 2 12 3 11 4 5 5 4 6 6 7 7 8 8 9 9 10 10 11 2 12 1 13
REMARK SMILES IDX 14 14 15 15
REMARK H PARENT
REMARK Flexibility Score: inf
ROOT
ATOM      1  C   UNL     1      23.002  36.652  41.956  1.00  0.00     0.161 A 
ATOM      2  C   UNL     1      23.002  35.390  42.574  1.00  0.00     0.164 A 
ATOM      3  C   UNL     1      22.475  34.275  41.890  1.00  0.00     0.098 A 
ATOM      4  C   UNL     1      21.954  34.418  40.602  1.00  0.00     0.142 A 
ATOM      5  C   UNL     1      21.954  35.684  39.982  1.00  0.00     0.022 A 
ATOM      6  C   UNL     1      22.477  36.794  40.656  1.00  0.00     0.062 A 
ATOM      7  C   UNL     1      21.425  35.794  38.691  1.00  0.00     0.019 A 
ATOM      8  C   UNL     1      20.917  34.658  38.061  1.00  0.00     0.094 A 
ATOM      9  C   UNL     1      20.949  33.435  38.738  1.00  0.00     0.336 A 
ATOM     10  O   UNL     1      20.495  32.398  38.187  1.00  0.00    -0.246 OA
ATOM     11  O   UNL     1      21.458  33.359  39.965  1.00  0.00    -0.423 OA
ENDROOT
BRANCH   1  12
ATOM     12  O   UNL     1      23.536  37.739  42.666  1.00  0.00    -0.493 OA
ATOM     13  C   UNL     1      24.843  38.269  42.468  1.00  0.00     0.278 C 
ENDBRANCH   1  12
BRANCH   2  14
ATOM     14  O   UNL     1      23.534  35.283  43.869  1.00  0.00    -0.493 OA
ATOM     15  C   UNL     1      24.823  34.763  44.172  1.00  0.00     0.278 C 
ENDBRANCH   2  14
TORSDOF 2
ENDMDL
MODEL 2
REMARK VINA RESULT:    -3.479      3.723      7.067
REMARK INTER + INTRA:          -4.051
REMARK INTER:                  -3.941
REMARK INTRA:                  -0.110
REMARK UNBOUND:                -0.166
REMARK SMILES COc1cc2ccc(=O)oc2cc1OC
REMARK SMILES IDX 3 1 13 2 12 3 11 4 5 5 4 6 6 7 7 8 8 9 9 10 10 11 2 12 1 13
REMARK SMILES IDX 14 14 15 15
REMARK H PARENT
REMARK Flexibility Score: inf
ROOT
ATOM      1  C   UNL     1      16.783  32.224  40.028  1.00  0.00     0.161 A 
ATOM      2  C   UNL     1      17.230  32.268  38.697  1.00  0.00     0.164 A 
ATOM      3  C   UNL     1      18.568  32.614  38.418  1.00  0.00     0.098 A 
ATOM      4  C   UNL     1      19.452  32.912  39.457  1.00  0.00     0.142 A 
ATOM      5  C   UNL     1      19.005  32.868  40.793  1.00  0.00     0.022 A 
ATOM      6  C   UNL     1      17.677  32.525  41.076  1.00  0.00     0.062 A 
ATOM      7  C   UNL     1      19.915  33.172  41.811  1.00  0.00     0.019 A 
ATOM      8  C   UNL     1      21.227  33.508  41.478  1.00  0.00     0.094 A 
ATOM      9  C   UNL     1      21.600  33.532  40.131  1.00  0.00     0.336 A 
ATOM     10  O   UNL     1      22.779  33.832  39.809  1.00  0.00    -0.246 OA
ATOM     11  O   UNL     1      20.713  33.238  39.183  1.00  0.00    -0.423 OA
ENDROOT
BRANCH   1  12
ATOM     12  O   UNL     1      15.445  31.875  40.269  1.00  0.00    -0.493 OA
ATOM     13  C   UNL     1      14.658  32.384  41.343  1.00  0.00     0.278 C 
ENDBRANCH   1  12
BRANCH   2  14
ATOM     14  O   UNL     1      16.314  31.963  37.678  1.00  0.00    -0.493 OA
ATOM     15  C   UNL     1      16.206  32.673  36.449  1.00  0.00     0.278 C 
ENDBRANCH   2  14
TORSDOF 2
ENDMDL
MODEL 3
REMARK VINA RESULT:    -3.423      1.019      2.515
REMARK INTER + INTRA:          -3.989
REMARK INTER:                  -3.824
REMARK INTRA:                  -0.164
REMARK UNBOUND:                -0.166
REMARK SMILES COc1cc2ccc(=O)oc2cc1OC
REMARK SMILES IDX 3 1 13 2 12 3 11 4 5 5 4 6 6 7 7 8 8 9 9 10 10 11 2 12 1 13
REMARK SMILES IDX 14 14 15 15
REMARK H PARENT
REMARK Flexibility Score: inf
ROOT
ATOM      1  C   UNL     1      23.043  35.332  42.590  1.00  0.00     0.161 A 
ATOM      2  C   UNL     1      23.042  36.563  41.913  1.00  0.00     0.164 A 
ATOM      3  C   UNL     1      22.488  36.650  40.619  1.00  0.00     0.098 A 
ATOM      4  C   UNL     1      21.940  35.520  40.008  1.00  0.00     0.142 A 
ATOM      5  C   UNL     1      21.941  34.285  40.687  1.00  0.00     0.022 A 
ATOM      6  C   UNL     1      22.489  34.193  41.972  1.00  0.00     0.062 A 
ATOM      7  C   UNL     1      21.384  33.172  40.046  1.00  0.00     0.019 A 
ATOM      8  C   UNL     1      20.851  33.315  38.766  1.00  0.00     0.094 A 
ATOM      9  C   UNL     1      20.886  34.571  38.153  1.00  0.00     0.336 A 
ATOM     10  O   UNL     1      20.409  34.721  36.998  1.00  0.00    -0.246 OA
ATOM     11  O   UNL     1      21.421  35.613  38.785  1.00  0.00    -0.423 OA
ENDROOT
BRANCH   1  12
ATOM     12  O   UNL     1      23.601  35.282  43.877  1.00  0.00    -0.493 OA
ATOM     13  C   UNL     1      24.894  34.765  44.177  1.00  0.00     0.278 C 
ENDBRANCH   1  12
BRANCH   2  14
ATOM     14  O   UNL     1      23.601  37.677  42.558  1.00  0.00    -0.493 OA
ATOM     15  C   UNL     1      24.916  38.171  42.324  1.00  0.00     0.278 C 
ENDBRANCH   2  14
TORSDOF 2
ENDMDL
MODEL 4
REMARK VINA RESULT:    -3.239      2.774      4.418
REMARK INTER + INTRA:          -3.784
REMARK INTER:                  -3.652
REMARK INTRA:                  -0.132
REMARK UNBOUND:                -0.166
REMARK SMILES COc1cc2ccc(=O)oc2cc1OC
REMARK SMILES IDX 3 1 13 2 12 3 11 4 5 5 4 6 6 7 7 8 8 9 9 10 10 11 2 12 1 13
REMARK SMILES IDX 14 14 15 15
REMARK H PARENT
REMARK Flexibility Score: inf
ROOT
ATOM      1  C   UNL     1      21.362  33.524  40.967  1.00  0.00     0.161 A 
ATOM      2  C   UNL     1      21.567  33.454  39.579  1.00  0.00     0.164 A 
ATOM      3  C   UNL     1      20.499  33.095  38.731  1.00  0.00     0.098 A 
ATOM      4  C   UNL     1      19.240  32.810  39.263  1.00  0.00     0.142 A 
ATOM      5  C   UNL     1      19.034  32.880  40.656  1.00  0.00     0.022 A 
ATOM      6  C   UNL     1      20.090  33.237  41.502  1.00  0.00     0.062 A 
ATOM      7  C   UNL     1      17.760  32.588  41.156  1.00  0.00     0.019 A 
ATOM      8  C   UNL     1      16.741  32.239  40.272  1.00  0.00     0.094 A 
ATOM      9  C   UNL     1      17.018  32.189  38.903  1.00  0.00     0.336 A 
ATOM     10  O   UNL     1      16.112  31.875  38.087  1.00  0.00    -0.246 OA
ATOM     11  O   UNL     1      18.239  32.471  38.453  1.00  0.00    -0.423 OA
ENDROOT
BRANCH   1  12
ATOM     12  O   UNL     1      22.447  33.886  41.781  1.00  0.00    -0.493 OA
ATOM     13  C   UNL     1      22.681  35.200  42.279  1.00  0.00     0.278 C 
ENDBRANCH   1  12
BRANCH   2  14
ATOM     14  O   UNL     1      22.846  33.747  39.080  1.00  0.00    -0.493 OA
ATOM     15  C   UNL     1      23.738  32.785  38.528  1.00  0.00     0.278 C 
ENDBRANCH   2  14
TORSDOF 2
ENDMDL
MODEL 5
REMARK VINA RESULT:    -3.224      3.019      4.412
REMARK INTER + INTRA:          -3.767
REMARK INTER:                  -3.629
REMARK INTRA:                  -0.138
REMARK UNBOUND:                -0.166
REMARK SMILES COc1cc2ccc(=O)oc2cc1OC
REMARK SMILES IDX 3 1 13 2 12 3 11 4 5 5 4 6 6 7 7 8 8 9 9 10 10 11 2 12 1 13
REMARK SMILES IDX 14 14 15 15
REMARK H PARENT
REMARK Flexibility Score: inf
ROOT
ATOM      1  C   UNL     1      21.485  33.431  39.682  1.00  0.00     0.161 A 
ATOM      2  C   UNL     1      21.287  33.523  41.070  1.00  0.00     0.164 A 
ATOM      3  C   UNL     1      20.017  33.245  41.615  1.00  0.00     0.098 A 
ATOM      4  C   UNL     1      18.956  32.879  40.785  1.00  0.00     0.142 A 
ATOM      5  C   UNL     1      19.154  32.788  39.392  1.00  0.00     0.022 A 
ATOM      6  C   UNL     1      20.413  33.062  38.845  1.00  0.00     0.062 A 
ATOM      7  C   UNL     1      18.070  32.419  38.588  1.00  0.00     0.019 A 
ATOM      8  C   UNL     1      16.836  32.156  39.181  1.00  0.00     0.094 A 
ATOM      9  C   UNL     1      16.713  32.268  40.569  1.00  0.00     0.336 A 
ATOM     10  O   UNL     1      15.607  32.034  41.124  1.00  0.00    -0.246 OA
ATOM     11  O   UNL     1      17.760  32.620  41.311  1.00  0.00    -0.423 OA
ENDROOT
BRANCH   1  12
ATOM     12  O   UNL     1      22.763  33.714  39.173  1.00  0.00    -0.493 OA
ATOM     13  C   UNL     1      23.685  32.730  38.714  1.00  0.00     0.278 C 
ENDBRANCH   1  12
BRANCH   2  14
ATOM     14  O   UNL     1      22.377  33.893  41.874  1.00  0.00    -0.493 OA
ATOM     15  C   UNL     1      22.578  35.195  42.412  1.00  0.00     0.278 C 
ENDBRANCH   2  14
TORSDOF 2
ENDMDL
MODEL 6
REMARK VINA RESULT:    -3.200      1.494      5.594
REMARK INTER + INTRA:          -3.740
REMARK INTER:                  -3.607
REMARK INTRA:                  -0.133
REMARK UNBOUND:                -0.166
REMARK SMILES COc1cc2ccc(=O)oc2cc1OC
REMARK SMILES IDX 3 1 13 2 12 3 11 4 5 5 4 6 6 7 7 8 8 9 9 10 10 11 2 12 1 13
REMARK SMILES IDX 14 14 15 15
REMARK H PARENT
REMARK Flexibility Score: inf
ROOT
ATOM      1  C   UNL     1      21.005  33.378  40.316  1.00  0.00     0.161 A 
ATOM      2  C   UNL     1      21.024  34.381  39.332  1.00  0.00     0.164 A 
ATOM      3  C   UNL     1      21.772  35.557  39.546  1.00  0.00     0.098 A 
ATOM      4  C   UNL     1      22.493  35.731  40.729  1.00  0.00     0.142 A 
ATOM      5  C   UNL     1      22.474  34.725  41.716  1.00  0.00     0.022 A 
ATOM      6  C   UNL     1      21.735  33.555  41.509  1.00  0.00     0.062 A 
ATOM      7  C   UNL     1      23.208  34.930  42.891  1.00  0.00     0.019 A 
ATOM      8  C   UNL     1      23.929  36.112  43.049  1.00  0.00     0.094 A 
ATOM      9  C   UNL     1      23.900  37.066  42.028  1.00  0.00     0.336 A 
ATOM     10  O   UNL     1      24.544  38.141  42.152  1.00  0.00    -0.246 OA
ATOM     11  O   UNL     1      23.194  36.846  40.921  1.00  0.00    -0.423 OA
ENDROOT
BRANCH   1  12
ATOM     12  O   UNL     1      20.252  32.220  40.069  1.00  0.00    -0.493 OA
ATOM     13  C   UNL     1      19.000  31.925  40.682  1.00  0.00     0.278 C 
ENDBRANCH   1  12
BRANCH   2  14
ATOM     14  O   UNL     1      20.287  34.173  38.155  1.00  0.00    -0.493 OA
ATOM     15  C   UNL     1      20.838  33.704  36.929  1.00  0.00     0.278 C 
ENDBRANCH   2  14
TORSDOF 2
ENDMDL
MODEL 7
REMARK VINA RESULT:    -3.149     19.248     20.360
REMARK INTER + INTRA:          -3.683
REMARK INTER:                  -3.578
REMARK INTRA:                  -0.105
REMARK UNBOUND:                -0.166
REMARK SMILES COc1cc2ccc(=O)oc2cc1OC
REMARK SMILES IDX 3 1 13 2 12 3 11 4 5 5 4 6 6 7 7 8 8 9 9 10 10 11 2 12 1 13
REMARK SMILES IDX 14 14 15 15
REMARK H PARENT
REMARK Flexibility Score: inf
ROOT
ATOM      1  C   UNL     1       4.973  46.916  39.448  1.00  0.00     0.161 A 
ATOM      2  C   UNL     1       4.969  46.634  38.071  1.00  0.00     0.164 A 
ATOM      3  C   UNL     1       5.056  45.297  37.631  1.00  0.00     0.098 A 
ATOM      4  C   UNL     1       5.148  44.253  38.554  1.00  0.00     0.142 A 
ATOM      5  C   UNL     1       5.153  44.536  39.935  1.00  0.00     0.022 A 
ATOM      6  C   UNL     1       5.065  45.861  40.378  1.00  0.00     0.062 A 
ATOM      7  C   UNL     1       5.246  43.467  40.833  1.00  0.00     0.019 A 
ATOM      8  C   UNL     1       5.330  42.165  40.342  1.00  0.00     0.094 A 
ATOM      9  C   UNL     1       5.321  41.961  38.959  1.00  0.00     0.336 A 
ATOM     10  O   UNL     1       5.397  40.793  38.495  1.00  0.00    -0.246 OA
ATOM     11  O   UNL     1       5.232  42.995  38.126  1.00  0.00    -0.423 OA
ENDROOT
BRANCH   1  12
ATOM     12  O   UNL     1       4.883  48.258  39.851  1.00  0.00    -0.493 OA
ATOM     13  C   UNL     1       4.876  48.695  41.207  1.00  0.00     0.278 C 
ENDBRANCH   1  12
BRANCH   2  14
ATOM     14  O   UNL     1       4.875  47.708  37.172  1.00  0.00    -0.493 OA
ATOM     15  C   UNL     1       5.540  47.769  35.915  1.00  0.00     0.278 C 
ENDBRANCH   2  14
TORSDOF 2
ENDMDL
MODEL 8
REMARK VINA RESULT:    -3.132      3.367      6.714
REMARK INTER + INTRA:          -3.664
REMARK INTER:                  -3.547
REMARK INTRA:                  -0.117
REMARK UNBOUND:                -0.166
REMARK SMILES COc1cc2ccc(=O)oc2cc1OC
REMARK SMILES IDX 3 1 13 2 12 3 11 4 5 5 4 6 6 7 7 8 8 9 9 10 10 11 2 12 1 13
REMARK SMILES IDX 14 14 15 15
REMARK H PARENT
REMARK Flexibility Score: inf
ROOT
ATOM      1  C   UNL     1      17.629  32.262  38.306  1.00  0.00     0.161 A 
ATOM      2  C   UNL     1      17.255  32.261  39.661  1.00  0.00     0.164 A 
ATOM      3  C   UNL     1      18.190  32.644  40.645  1.00  0.00     0.098 A 
ATOM      4  C   UNL     1      19.484  33.022  40.282  1.00  0.00     0.142 A 
ATOM      5  C   UNL     1      19.859  33.023  38.923  1.00  0.00     0.022 A 
ATOM      6  C   UNL     1      18.936  32.645  37.941  1.00  0.00     0.062 A 
ATOM      7  C   UNL     1      21.164  33.407  38.592  1.00  0.00     0.019 A 
ATOM      8  C   UNL     1      22.047  33.775  39.607  1.00  0.00     0.094 A 
ATOM      9  C   UNL     1      21.604  33.750  40.933  1.00  0.00     0.336 A 
ATOM     10  O   UNL     1      22.386  34.079  41.863  1.00  0.00    -0.246 OA
ATOM     11  O   UNL     1      20.358  33.380  41.220  1.00  0.00    -0.423 OA
ENDROOT
BRANCH   1  12
ATOM     12  O   UNL     1      16.673  31.877  37.353  1.00  0.00    -0.493 OA
ATOM     13  C   UNL     1      16.222  32.702  36.283  1.00  0.00     0.278 C 
ENDBRANCH   1  12
BRANCH   2  14
ATOM     14  O   UNL     1      15.946  31.875  39.989  1.00  0.00    -0.493 OA
ATOM     15  C   UNL     1      15.229  32.338  41.128  1.00  0.00     0.278 C 
ENDBRANCH   2  14
TORSDOF 2
ENDMDL
MODEL 9
REMARK VINA RESULT:    -3.078      1.092      1.138
REMARK INTER + INTRA:          -3.604
REMARK INTER:                  -3.502
REMARK INTRA:                  -0.102
REMARK UNBOUND:                -0.166
REMARK SMILES COc1cc2ccc(=O)oc2cc1OC
REMARK SMILES IDX 3 1 13 2 12 3 11 4 5 5 4 6 6 7 7 8 8 9 9 10 10 11 2 12 1 13
REMARK SMILES IDX 14 14 15 15
REMARK H PARENT
REMARK Flexibility Score: inf
ROOT
ATOM      1  C   UNL     1      23.315  35.551  41.936  1.00  0.00     0.161 A 
ATOM      2  C   UNL     1      23.456  34.177  42.191  1.00  0.00     0.164 A 
ATOM      3  C   UNL     1      22.873  33.240  41.313  1.00  0.00     0.098 A 
ATOM      4  C   UNL     1      22.158  33.670  40.193  1.00  0.00     0.142 A 
ATOM      5  C   UNL     1      22.017  35.048  39.938  1.00  0.00     0.022 A 
ATOM      6  C   UNL     1      22.594  35.984  40.805  1.00  0.00     0.062 A 
ATOM      7  C   UNL     1      21.295  35.446  38.807  1.00  0.00     0.019 A 
ATOM      8  C   UNL     1      20.740  34.476  37.973  1.00  0.00     0.094 A 
ATOM      9  C   UNL     1      20.920  33.127  38.290  1.00  0.00     0.336 A 
ATOM     10  O   UNL     1      20.427  32.235  37.550  1.00  0.00    -0.246 OA
ATOM     11  O   UNL     1      21.612  32.776  39.372  1.00  0.00    -0.423 OA
ENDROOT
BRANCH   1  12
ATOM     12  O   UNL     1      23.909  36.456  42.831  1.00  0.00    -0.493 OA
ATOM     13  C   UNL     1      24.097  37.844  42.570  1.00  0.00     0.278 C 
ENDBRANCH   1  12
BRANCH   2  14
ATOM     14  O   UNL     1      24.181  33.781  43.326  1.00  0.00    -0.493 OA
ATOM     15  C   UNL     1      24.704  32.474  43.535  1.00  0.00     0.278 C 
ENDBRANCH   2  14
TORSDOF 2
ENDMDL
