MODEL 1
REMARK VINA RESULT:    -6.067      0.000      0.000
REMARK INTER + INTRA:          -6.599
REMARK INTER:                  -6.599
REMARK INTRA:                   0.000
REMARK UNBOUND:                 0.000
REMARK SMILES Cc1cc(O)c2c(c1)C(=O)c1cc(O)cc(O)c1C2=O
REMARK SMILES IDX 1 1 2 2 8 3 7 4 6 5 4 6 3 7 19 8 20 9 18 10 11 11 9 12 10 13
REMARK SMILES IDX 12 14 13 15 15 16 16 17 5 18 17 20 14 22
REMARK H PARENT 5 19 17 21 14 23
REMARK Flexibility Score: inf
ROOT
ATOM      1  C   UNL     1       8.068 -46.284 -29.040  1.00  0.00     0.044 C 
ATOM      2  C   UNL     1       8.592 -44.912 -28.736  1.00  0.00    -0.047 A 
ATOM      3  C   UNL     1       7.916 -43.780 -29.205  1.00  0.00     0.016 A 
ATOM      4  C   UNL     1       8.383 -42.490 -28.902  1.00  0.00     0.038 A 
ATOM      5  C   UNL     1       9.545 -42.330 -28.115  1.00  0.00     0.076 A 
ATOM      6  C   UNL     1      10.178 -43.479 -27.574  1.00  0.00     0.127 A 
ATOM      7  C   UNL     1       9.707 -44.752 -27.906  1.00  0.00     0.050 A 
ATOM      8  C   UNL     1      10.091 -40.960 -27.941  1.00  0.00     0.201 C 
ATOM      9  O   UNL     1      11.331 -40.794 -27.781  1.00  0.00    -0.288 OA
ATOM     10  C   UNL     1       9.207 -39.782 -28.140  1.00  0.00     0.076 A 
ATOM     11  C   UNL     1       8.043 -39.947 -28.924  1.00  0.00     0.041 A 
ATOM     12  C   UNL     1       7.655 -41.297 -29.396  1.00  0.00     0.194 C 
ATOM     13  O   UNL     1       6.691 -41.432 -30.198  1.00  0.00    -0.289 OA
ATOM     14  C   UNL     1       7.256 -38.829 -29.250  1.00  0.00     0.059 A 
ATOM     15  C   UNL     1       7.607 -37.556 -28.790  1.00  0.00     0.120 A 
ATOM     16  C   UNL     1       8.733 -37.397 -27.984  1.00  0.00     0.093 A 
ATOM     17  C   UNL     1       9.521 -38.495 -27.629  1.00  0.00     0.131 A 
ENDROOT
BRANCH   6  18
ATOM     18  O   UNL     1      11.246 -43.400 -26.678  1.00  0.00    -0.507 OA
ATOM     19  H   UNL     1      11.706 -44.208 -26.283  1.00  0.00     0.293 HD
ENDBRANCH   6  18
BRANCH  17  20
ATOM     20  O   UNL     1      10.578 -38.271 -26.743  1.00  0.00    -0.507 OA
ATOM     21  H   UNL     1      10.527 -38.465 -25.752  1.00  0.00     0.293 HD
ENDBRANCH  17  20
BRANCH  15  22
ATOM     22  O   UNL     1       6.836 -36.444 -29.122  1.00  0.00    -0.508 OA
ATOM     23  H   UNL     1       6.132 -36.080 -28.491  1.00  0.00     0.293 HD
ENDBRANCH  15  22
TORSDOF 3
ENDMDL
MODEL 2
REMARK VINA RESULT:    -5.855     14.241     14.471
REMARK INTER + INTRA:          -6.368
REMARK INTER:                  -6.368
REMARK INTRA:                   0.000
REMARK UNBOUND:                 0.000
REMARK SMILES Cc1cc(O)c2c(c1)C(=O)c1cc(O)cc(O)c1C2=O
REMARK SMILES IDX 1 1 2 2 8 3 7 4 6 5 4 6 3 7 19 8 20 9 18 10 11 11 9 12 10 13
REMARK SMILES IDX 12 14 13 15 15 16 16 17 5 18 17 20 14 22
REMARK H PARENT 5 19 17 21 14 23
REMARK Flexibility Score: inf
ROOT
ATOM      1  C   UNL     1      -2.625 -45.992 -17.877  1.00  0.00     0.044 C 
ATOM      2  C   UNL     1      -1.304 -45.376 -17.518  1.00  0.00    -0.047 A 
ATOM      3  C   UNL     1      -1.204 -43.996 -17.312  1.00  0.00     0.016 A 
ATOM      4  C   UNL     1       0.022 -43.414 -16.947  1.00  0.00     0.038 A 
ATOM      5  C   UNL     1       1.165 -44.227 -16.784  1.00  0.00     0.076 A 
ATOM      6  C   UNL     1       1.037 -45.634 -16.912  1.00  0.00     0.127 A 
ATOM      7  C   UNL     1      -0.187 -46.188 -17.295  1.00  0.00     0.050 A 
ATOM      8  C   UNL     1       2.471 -43.561 -16.544  1.00  0.00     0.201 C 
ATOM      9  O   UNL     1       3.535 -44.104 -16.946  1.00  0.00    -0.288 OA
ATOM     10  C   UNL     1       2.506 -42.178 -16.001  1.00  0.00     0.076 A 
ATOM     11  C   UNL     1       1.358 -41.368 -16.163  1.00  0.00     0.041 A 
ATOM     12  C   UNL     1       0.116 -41.952 -16.724  1.00  0.00     0.194 C 
ATOM     13  O   UNL     1      -0.868 -41.207 -16.986  1.00  0.00    -0.289 OA
ATOM     14  C   UNL     1       1.399 -40.015 -15.788  1.00  0.00     0.059 A 
ATOM     15  C   UNL     1       2.563 -39.466 -15.241  1.00  0.00     0.120 A 
ATOM     16  C   UNL     1       3.683 -40.271 -15.043  1.00  0.00     0.093 A 
ATOM     17  C   UNL     1       3.662 -41.626 -15.389  1.00  0.00     0.131 A 
ENDROOT
BRANCH   6  18
ATOM     18  O   UNL     1       2.085 -46.514 -16.632  1.00  0.00    -0.507 OA
ATOM     19  H   UNL     1       1.998 -47.520 -16.679  1.00  0.00     0.293 HD
ENDBRANCH   6  18
BRANCH  17  20
ATOM     20  O   UNL     1       4.789 -42.389 -15.076  1.00  0.00    -0.507 OA
ATOM     21  H   UNL     1       5.620 -42.419 -15.649  1.00  0.00     0.293 HD
ENDBRANCH  17  20
BRANCH  15  22
ATOM     22  O   UNL     1       2.611 -38.121 -14.879  1.00  0.00    -0.508 OA
ATOM     23  H   UNL     1       2.000 -37.435 -15.307  1.00  0.00     0.293 HD
ENDBRANCH  15  22
TORSDOF 3
ENDMDL
MODEL 3
REMARK VINA RESULT:    -5.823      4.391      5.899
REMARK INTER + INTRA:          -6.334
REMARK INTER:                  -6.334
REMARK INTRA:                   0.000
REMARK UNBOUND:                 0.000
REMARK SMILES Cc1cc(O)c2c(c1)C(=O)c1cc(O)cc(O)c1C2=O
REMARK SMILES IDX 1 1 2 2 8 3 7 4 6 5 4 6 3 7 19 8 20 9 18 10 11 11 9 12 10 13
REMARK SMILES IDX 12 14 13 15 15 16 16 17 5 18 17 20 14 22
REMARK H PARENT 5 19 17 21 14 23
REMARK Flexibility Score: inf
ROOT
ATOM      1  C   UNL     1       9.418 -47.052 -32.502  1.00  0.00     0.044 C 
ATOM      2  C   UNL     1       8.544 -45.883 -32.153  1.00  0.00    -0.047 A 
ATOM      3  C   UNL     1       7.750 -45.280 -33.135  1.00  0.00     0.016 A 
ATOM      4  C   UNL     1       6.907 -44.203 -32.813  1.00  0.00     0.038 A 
ATOM      5  C   UNL     1       6.858 -43.723 -31.486  1.00  0.00     0.076 A 
ATOM      6  C   UNL     1       7.601 -44.391 -30.479  1.00  0.00     0.127 A 
ATOM      7  C   UNL     1       8.448 -45.447 -30.828  1.00  0.00     0.050 A 
ATOM      8  C   UNL     1       6.071 -42.493 -31.214  1.00  0.00     0.201 C 
ATOM      9  O   UNL     1       6.418 -41.719 -30.281  1.00  0.00    -0.288 OA
ATOM     10  C   UNL     1       4.994 -42.082 -32.153  1.00  0.00     0.076 A 
ATOM     11  C   UNL     1       5.046 -42.568 -33.480  1.00  0.00     0.041 A 
ATOM     12  C   UNL     1       6.064 -43.577 -33.858  1.00  0.00     0.194 C 
ATOM     13  O   UNL     1       6.194 -43.919 -35.065  1.00  0.00    -0.289 OA
ATOM     14  C   UNL     1       4.128 -42.095 -34.433  1.00  0.00     0.059 A 
ATOM     15  C   UNL     1       3.153 -41.158 -34.075  1.00  0.00     0.120 A 
ATOM     16  C   UNL     1       3.076 -40.707 -32.759  1.00  0.00     0.093 A 
ATOM     17  C   UNL     1       3.964 -41.177 -31.787  1.00  0.00     0.131 A 
ENDROOT
BRANCH   6  18
ATOM     18  O   UNL     1       7.500 -44.065 -29.125  1.00  0.00    -0.507 OA
ATOM     19  H   UNL     1       8.287 -44.055 -28.492  1.00  0.00     0.293 HD
ENDBRANCH   6  18
BRANCH  17  20
ATOM     20  O   UNL     1       3.765 -40.750 -30.472  1.00  0.00    -0.507 OA
ATOM     21  H   UNL     1       3.848 -41.358 -29.669  1.00  0.00     0.293 HD
ENDBRANCH  17  20
BRANCH  15  22
ATOM     22  O   UNL     1       2.250 -40.678 -35.021  1.00  0.00    -0.508 OA
ATOM     23  H   UNL     1       1.920 -41.260 -35.782  1.00  0.00     0.293 HD
ENDBRANCH  15  22
TORSDOF 3
ENDMDL
MODEL 4
REMARK VINA RESULT:    -5.784      4.465      6.660
REMARK INTER + INTRA:          -6.292
REMARK INTER:                  -6.292
REMARK INTRA:                   0.000
REMARK UNBOUND:                 0.000
REMARK SMILES Cc1cc(O)c2c(c1)C(=O)c1cc(O)cc(O)c1C2=O
REMARK SMILES IDX 1 1 2 2 8 3 7 4 6 5 4 6 3 7 19 8 20 9 18 10 11 11 9 12 10 13
REMARK SMILES IDX 12 14 13 15 15 16 16 17 5 18 17 20 14 22
REMARK H PARENT 5 19 17 21 14 23
REMARK Flexibility Score: inf
ROOT
ATOM      1  C   UNL     1       6.676 -44.129 -34.351  1.00  0.00     0.044 C 
ATOM      2  C   UNL     1       5.684 -43.278 -33.613  1.00  0.00    -0.047 A 
ATOM      3  C   UNL     1       6.074 -42.580 -32.465  1.00  0.00     0.016 A 
ATOM      4  C   UNL     1       5.160 -41.758 -31.782  1.00  0.00     0.038 A 
ATOM      5  C   UNL     1       3.836 -41.633 -32.258  1.00  0.00     0.076 A 
ATOM      6  C   UNL     1       3.472 -42.277 -33.468  1.00  0.00     0.127 A 
ATOM      7  C   UNL     1       4.392 -43.105 -34.119  1.00  0.00     0.050 A 
ATOM      8  C   UNL     1       2.862 -40.877 -31.430  1.00  0.00     0.201 C 
ATOM      9  O   UNL     1       1.640 -41.186 -31.460  1.00  0.00    -0.288 OA
ATOM     10  C   UNL     1       3.350 -39.887 -30.434  1.00  0.00     0.076 A 
ATOM     11  C   UNL     1       4.677 -40.013 -29.963  1.00  0.00     0.041 A 
ATOM     12  C   UNL     1       5.584 -41.016 -30.571  1.00  0.00     0.194 C 
ATOM     13  O   UNL     1       6.725 -41.219 -30.072  1.00  0.00    -0.289 OA
ATOM     14  C   UNL     1       5.131 -39.184 -28.924  1.00  0.00     0.059 A 
ATOM     15  C   UNL     1       4.285 -38.224 -28.361  1.00  0.00     0.120 A 
ATOM     16  C   UNL     1       2.989 -38.070 -28.851  1.00  0.00     0.093 A 
ATOM     17  C   UNL     1       2.519 -38.868 -29.898  1.00  0.00     0.131 A 
ENDROOT
BRANCH   6  18
ATOM     18  O   UNL     1       2.228 -42.092 -34.076  1.00  0.00    -0.507 OA
ATOM     19  H   UNL     1       1.382 -42.548 -33.767  1.00  0.00     0.293 HD
ENDBRANCH   6  18
BRANCH  17  20
ATOM     20  O   UNL     1       1.244 -38.594 -30.396  1.00  0.00    -0.507 OA
ATOM     21  H   UNL     1       0.701 -37.784 -30.128  1.00  0.00     0.293 HD
ENDBRANCH  17  20
BRANCH  15  22
ATOM     22  O   UNL     1       4.729 -37.410 -27.321  1.00  0.00    -0.508 OA
ATOM     23  H   UNL     1       4.267 -37.402 -26.420  1.00  0.00     0.293 HD
ENDBRANCH  15  22
TORSDOF 3
ENDMDL
MODEL 5
REMARK VINA RESULT:    -5.759      3.447      5.419
REMARK INTER + INTRA:          -6.264
REMARK INTER:                  -6.264
REMARK INTRA:                   0.000
REMARK UNBOUND:                 0.000
REMARK SMILES Cc1cc(O)c2c(c1)C(=O)c1cc(O)cc(O)c1C2=O
REMARK SMILES IDX 1 1 2 2 8 3 7 4 6 5 4 6 3 7 19 8 20 9 18 10 11 11 9 12 10 13
REMARK SMILES IDX 12 14 13 15 15 16 16 17 5 18 17 20 14 22
REMARK H PARENT 5 19 17 21 14 23
REMARK Flexibility Score: inf
ROOT
ATOM      1  C   UNL     1       9.758 -47.045 -27.601  1.00  0.00     0.044 C 
ATOM      2  C   UNL     1       9.079 -45.909 -28.309  1.00  0.00    -0.047 A 
ATOM      3  C   UNL     1       8.521 -46.103 -29.577  1.00  0.00     0.016 A 
ATOM      4  C   UNL     1       7.858 -45.053 -30.236  1.00  0.00     0.038 A 
ATOM      5  C   UNL     1       7.751 -43.789 -29.614  1.00  0.00     0.076 A 
ATOM      6  C   UNL     1       8.245 -43.624 -28.294  1.00  0.00     0.127 A 
ATOM      7  C   UNL     1       8.918 -44.676 -27.667  1.00  0.00     0.050 A 
ATOM      8  C   UNL     1       7.177 -42.667 -30.399  1.00  0.00     0.201 C 
ATOM      9  O   UNL     1       7.555 -41.486 -30.173  1.00  0.00    -0.288 OA
ATOM     10  C   UNL     1       6.304 -42.954 -31.567  1.00  0.00     0.076 A 
ATOM     11  C   UNL     1       6.411 -44.221 -32.185  1.00  0.00     0.041 A 
ATOM     12  C   UNL     1       7.264 -45.270 -31.576  1.00  0.00     0.194 C 
ATOM     13  O   UNL     1       7.462 -46.355 -32.188  1.00  0.00    -0.289 OA
ATOM     14  C   UNL     1       5.706 -44.481 -33.372  1.00  0.00     0.059 A 
ATOM     15  C   UNL     1       4.885 -43.502 -33.939  1.00  0.00     0.120 A 
ATOM     16  C   UNL     1       4.747 -42.265 -33.310  1.00  0.00     0.093 A 
ATOM     17  C   UNL     1       5.422 -41.988 -32.118  1.00  0.00     0.131 A 
ENDROOT
BRANCH   6  18
ATOM     18  O   UNL     1       8.056 -42.451 -27.560  1.00  0.00    -0.507 OA
ATOM     19  H   UNL     1       8.225 -42.379 -26.566  1.00  0.00     0.293 HD
ENDBRANCH   6  18
BRANCH  17  20
ATOM     20  O   UNL     1       5.161 -40.763 -31.499  1.00  0.00    -0.507 OA
ATOM     21  H   UNL     1       5.860 -40.226 -31.006  1.00  0.00     0.293 HD
ENDBRANCH  17  20
BRANCH  15  22
ATOM     22  O   UNL     1       4.194 -43.753 -35.122  1.00  0.00    -0.508 OA
ATOM     23  H   UNL     1       4.310 -44.622 -35.630  1.00  0.00     0.293 HD
ENDBRANCH  15  22
TORSDOF 3
ENDMDL
MODEL 6
REMARK VINA RESULT:    -5.727      1.664      5.716
REMARK INTER + INTRA:          -6.229
REMARK INTER:                  -6.229
REMARK INTRA:                   0.000
REMARK UNBOUND:                 0.000
REMARK SMILES Cc1cc(O)c2c(c1)C(=O)c1cc(O)cc(O)c1C2=O
REMARK SMILES IDX 1 1 2 2 8 3 7 4 6 5 4 6 3 7 19 8 20 9 18 10 11 11 9 12 10 13
REMARK SMILES IDX 12 14 13 15 15 16 16 17 5 18 17 20 14 22
REMARK H PARENT 5 19 17 21 14 23
REMARK Flexibility Score: inf
ROOT
ATOM      1  C   UNL     1       7.235 -34.907 -31.029  1.00  0.00     0.044 C 
ATOM      2  C   UNL     1       7.839 -36.042 -30.255  1.00  0.00    -0.047 A 
ATOM      3  C   UNL     1       7.251 -37.310 -30.292  1.00  0.00     0.016 A 
ATOM      4  C   UNL     1       7.826 -38.386 -29.594  1.00  0.00     0.038 A 
ATOM      5  C   UNL     1       9.008 -38.188 -28.848  1.00  0.00     0.076 A 
ATOM      6  C   UNL     1       9.644 -36.921 -28.882  1.00  0.00     0.127 A 
ATOM      7  C   UNL     1       9.044 -35.861 -29.567  1.00  0.00     0.050 A 
ATOM      8  C   UNL     1       9.502 -39.308 -28.005  1.00  0.00     0.201 C 
ATOM      9  O   UNL     1      10.138 -39.062 -26.945  1.00  0.00    -0.288 OA
ATOM     10  C   UNL     1       9.087 -40.702 -28.312  1.00  0.00     0.076 A 
ATOM     11  C   UNL     1       7.904 -40.895 -29.062  1.00  0.00     0.041 A 
ATOM     12  C   UNL     1       7.200 -39.729 -29.646  1.00  0.00     0.194 C 
ATOM     13  O   UNL     1       6.081 -39.884 -30.208  1.00  0.00    -0.289 OA
ATOM     14  C   UNL     1       7.405 -42.194 -29.256  1.00  0.00     0.059 A 
ATOM     15  C   UNL     1       8.077 -43.299 -28.724  1.00  0.00     0.120 A 
ATOM     16  C   UNL     1       9.264 -43.114 -28.017  1.00  0.00     0.093 A 
ATOM     17  C   UNL     1       9.793 -41.834 -27.828  1.00  0.00     0.131 A 
ENDROOT
BRANCH   6  18
ATOM     18  O   UNL     1      10.885 -36.683 -28.286  1.00  0.00    -0.507 OA
ATOM     19  H   UNL     1      11.367 -35.797 -28.332  1.00  0.00     0.293 HD
ENDBRANCH   6  18
BRANCH  17  20
ATOM     20  O   UNL     1      11.032 -41.736 -27.191  1.00  0.00    -0.507 OA
ATOM     21  H   UNL     1      11.912 -41.686 -27.686  1.00  0.00     0.293 HD
ENDBRANCH  17  20
BRANCH  15  22
ATOM     22  O   UNL     1       7.577 -44.587 -28.903  1.00  0.00    -0.508 OA
ATOM     23  H   UNL     1       7.902 -45.183 -29.655  1.00  0.00     0.293 HD
ENDBRANCH  15  22
TORSDOF 3
ENDMDL
MODEL 7
REMARK VINA RESULT:    -5.717      2.116      4.303
REMARK INTER + INTRA:          -6.218
REMARK INTER:                  -6.218
REMARK INTRA:                   0.000
REMARK UNBOUND:                 0.000
REMARK SMILES Cc1cc(O)c2c(c1)C(=O)c1cc(O)cc(O)c1C2=O
REMARK SMILES IDX 1 1 2 2 8 3 7 4 6 5 4 6 3 7 19 8 20 9 18 10 11 11 9 12 10 13
REMARK SMILES IDX 12 14 13 15 15 16 16 17 5 18 17 20 14 22
REMARK H PARENT 5 19 17 21 14 23
REMARK Flexibility Score: inf
ROOT
ATOM      1  C   UNL     1       6.339 -44.800 -32.102  1.00  0.00     0.044 C 
ATOM      2  C   UNL     1       6.271 -43.431 -31.491  1.00  0.00    -0.047 A 
ATOM      3  C   UNL     1       7.283 -42.993 -30.630  1.00  0.00     0.016 A 
ATOM      4  C   UNL     1       7.243 -41.703 -30.075  1.00  0.00     0.038 A 
ATOM      5  C   UNL     1       6.173 -40.836 -30.388  1.00  0.00     0.076 A 
ATOM      6  C   UNL     1       5.195 -41.255 -31.327  1.00  0.00     0.127 A 
ATOM      7  C   UNL     1       5.244 -42.551 -31.850  1.00  0.00     0.050 A 
ATOM      8  C   UNL     1       6.087 -39.539 -29.669  1.00  0.00     0.201 C 
ATOM      9  O   UNL     1       4.961 -39.014 -29.455  1.00  0.00    -0.288 OA
ATOM     10  C   UNL     1       7.304 -38.959 -29.044  1.00  0.00     0.076 A 
ATOM     11  C   UNL     1       8.374 -39.829 -28.736  1.00  0.00     0.041 A 
ATOM     12  C   UNL     1       8.324 -41.245 -29.170  1.00  0.00     0.194 C 
ATOM     13  O   UNL     1       9.215 -42.054 -28.790  1.00  0.00    -0.289 OA
ATOM     14  C   UNL     1       9.484 -39.346 -28.022  1.00  0.00     0.059 A 
ATOM     15  C   UNL     1       9.544 -38.006 -27.627  1.00  0.00     0.120 A 
ATOM     16  C   UNL     1       8.508 -37.136 -27.965  1.00  0.00     0.093 A 
ATOM     17  C   UNL     1       7.403 -37.587 -28.692  1.00  0.00     0.131 A 
ENDROOT
BRANCH   6  18
ATOM     18  O   UNL     1       4.185 -40.410 -31.792  1.00  0.00    -0.507 OA
ATOM     19  H   UNL     1       4.004 -39.492 -31.411  1.00  0.00     0.293 HD
ENDBRANCH   6  18
BRANCH  17  20
ATOM     20  O   UNL     1       6.451 -36.639 -29.073  1.00  0.00    -0.507 OA
ATOM     21  H   UNL     1       6.682 -35.764 -29.523  1.00  0.00     0.293 HD
ENDBRANCH  17  20
BRANCH  15  22
ATOM     22  O   UNL     1      10.637 -37.527 -26.908  1.00  0.00    -0.508 OA
ATOM     23  H   UNL     1      10.892 -36.546 -26.920  1.00  0.00     0.293 HD
ENDBRANCH  15  22
TORSDOF 3
ENDMDL
MODEL 8
REMARK VINA RESULT:    -5.699     14.008     16.015
REMARK INTER + INTRA:          -6.199
REMARK INTER:                  -6.199
REMARK INTRA:                   0.000
REMARK UNBOUND:                 0.000
REMARK SMILES Cc1cc(O)c2c(c1)C(=O)c1cc(O)cc(O)c1C2=O
REMARK SMILES IDX 1 1 2 2 8 3 7 4 6 5 4 6 3 7 19 8 20 9 18 10 11 11 9 12 10 13
REMARK SMILES IDX 12 14 13 15 15 16 16 17 5 18 17 20 14 22
REMARK H PARENT 5 19 17 21 14 23
REMARK Flexibility Score: inf
ROOT
ATOM      1  C   UNL     1       1.477 -30.690 -34.515  1.00  0.00     0.044 C 
ATOM      2  C   UNL     1       0.470 -30.289 -33.478  1.00  0.00    -0.047 A 
ATOM      3  C   UNL     1       0.067 -31.202 -32.497  1.00  0.00     0.016 A 
ATOM      4  C   UNL     1      -0.854 -30.827 -31.505  1.00  0.00     0.038 A 
ATOM      5  C   UNL     1      -1.379 -29.516 -31.493  1.00  0.00     0.076 A 
ATOM      6  C   UNL     1      -0.904 -28.572 -32.438  1.00  0.00     0.127 A 
ATOM      7  C   UNL     1      -0.003 -28.973 -33.428  1.00  0.00     0.050 A 
ATOM      8  C   UNL     1      -2.459 -29.202 -30.522  1.00  0.00     0.201 C 
ATOM      9  O   UNL     1      -3.325 -28.332 -30.807  1.00  0.00    -0.288 OA
ATOM     10  C   UNL     1      -2.624 -30.039 -29.305  1.00  0.00     0.076 A 
ATOM     11  C   UNL     1      -2.094 -31.349 -29.319  1.00  0.00     0.041 A 
ATOM     12  C   UNL     1      -1.268 -31.799 -30.465  1.00  0.00     0.194 C 
ATOM     13  O   UNL     1      -0.899 -33.003 -30.542  1.00  0.00    -0.289 OA
ATOM     14  C   UNL     1      -2.347 -32.217 -28.244  1.00  0.00     0.059 A 
ATOM     15  C   UNL     1      -3.109 -31.790 -27.152  1.00  0.00     0.120 A 
ATOM     16  C   UNL     1      -3.600 -30.486 -27.117  1.00  0.00     0.093 A 
ATOM     17  C   UNL     1      -3.345 -29.596 -28.164  1.00  0.00     0.131 A 
ENDROOT
BRANCH   6  18
ATOM     18  O   UNL     1      -1.270 -27.224 -32.407  1.00  0.00    -0.507 OA
ATOM     19  H   UNL     1      -1.544 -26.738 -31.565  1.00  0.00     0.293 HD
ENDBRANCH   6  18
BRANCH  17  20
ATOM     20  O   UNL     1      -3.790 -28.280 -28.016  1.00  0.00    -0.507 OA
ATOM     21  H   UNL     1      -3.173 -27.480 -28.003  1.00  0.00     0.293 HD
ENDBRANCH  17  20
BRANCH  15  22
ATOM     22  O   UNL     1      -3.373 -32.653 -26.090  1.00  0.00    -0.508 OA
ATOM     23  H   UNL     1      -3.129 -32.412 -25.137  1.00  0.00     0.293 HD
ENDBRANCH  15  22
TORSDOF 3
ENDMDL
MODEL 9
REMARK VINA RESULT:    -5.636     12.765     15.226
REMARK INTER + INTRA:          -6.131
REMARK INTER:                  -6.131
REMARK INTRA:                   0.000
REMARK UNBOUND:                 0.000
REMARK SMILES Cc1cc(O)c2c(c1)C(=O)c1cc(O)cc(O)c1C2=O
REMARK SMILES IDX 1 1 2 2 8 3 7 4 6 5 4 6 3 7 19 8 20 9 18 10 11 11 9 12 10 13
REMARK SMILES IDX 12 14 13 15 15 16 16 17 5 18 17 20 14 22
REMARK H PARENT 5 19 17 21 14 23
REMARK Flexibility Score: inf
ROOT
ATOM      1  C   UNL     1      -3.001 -28.374 -29.647  1.00  0.00     0.044 C 
ATOM      2  C   UNL     1      -3.030 -29.844 -29.344  1.00  0.00    -0.047 A 
ATOM      3  C   UNL     1      -3.248 -30.769 -30.371  1.00  0.00     0.016 A 
ATOM      4  C   UNL     1      -3.249 -32.148 -30.102  1.00  0.00     0.038 A 
ATOM      5  C   UNL     1      -3.026 -32.608 -28.785  1.00  0.00     0.076 A 
ATOM      6  C   UNL     1      -2.723 -31.669 -27.767  1.00  0.00     0.127 A 
ATOM      7  C   UNL     1      -2.748 -30.301 -28.053  1.00  0.00     0.050 A 
ATOM      8  C   UNL     1      -3.181 -34.060 -28.514  1.00  0.00     0.201 C 
ATOM      9  O   UNL     1      -3.561 -34.449 -27.376  1.00  0.00    -0.288 OA
ATOM     10  C   UNL     1      -3.071 -35.037 -29.629  1.00  0.00     0.076 A 
ATOM     11  C   UNL     1      -3.291 -34.572 -30.946  1.00  0.00     0.041 A 
ATOM     12  C   UNL     1      -3.472 -33.122 -31.197  1.00  0.00     0.194 C 
ATOM     13  O   UNL     1      -3.793 -32.716 -32.348  1.00  0.00    -0.289 OA
ATOM     14  C   UNL     1      -3.332 -35.486 -32.012  1.00  0.00     0.059 A 
ATOM     15  C   UNL     1      -3.142 -36.852 -31.782  1.00  0.00     0.120 A 
ATOM     16  C   UNL     1      -2.886 -37.308 -30.491  1.00  0.00     0.093 A 
ATOM     17  C   UNL     1      -2.820 -36.417 -29.416  1.00  0.00     0.131 A 
ENDROOT
BRANCH   6  18
ATOM     18  O   UNL     1      -2.357 -32.051 -26.474  1.00  0.00    -0.507 OA
ATOM     19  H   UNL     1      -2.194 -33.009 -26.199  1.00  0.00     0.293 HD
ENDBRANCH   6  18
BRANCH  17  20
ATOM     20  O   UNL     1      -2.467 -36.936 -28.168  1.00  0.00    -0.507 OA
ATOM     21  H   UNL     1      -1.512 -37.094 -27.877  1.00  0.00     0.293 HD
ENDBRANCH  17  20
BRANCH  15  22
ATOM     22  O   UNL     1      -3.195 -37.763 -32.836  1.00  0.00    -0.508 OA
ATOM     23  H   UNL     1      -2.819 -37.539 -33.749  1.00  0.00     0.293 HD
ENDBRANCH  15  22
TORSDOF 3
ENDMDL
