MODEL 1
REMARK VINA RESULT:    -3.904      0.000      0.000
REMARK INTER + INTRA:          -5.122
REMARK INTER:                  -4.817
REMARK INTRA:                  -0.305
REMARK UNBOUND:                -0.305
REMARK SMILES CCCCCc1ccccc1
REMARK SMILES IDX 4 1 3 2 2 3 1 4 5 5 6 6 7 7 11 8 8 9 10 10 9 11
REMARK H PARENT
REMARK Flexibility Score: inf
ROOT
ATOM      1  C   UNL     1      -2.975 -12.478  41.398  1.00  0.00     0.005 C 
ENDROOT
BRANCH   1   2
ATOM      2  C   UNL     1      -3.073 -13.934  41.882  1.00  0.00     0.000 C 
BRANCH   2   3
ATOM      3  C   UNL     1      -2.040 -14.265  42.969  1.00  0.00    -0.003 C 
ATOM      4  C   UNL     1      -2.131 -15.730  43.385  1.00  0.00     0.004 C 
ENDBRANCH   2   3
ENDBRANCH   1   2
BRANCH   1   5
ATOM      5  C   UNL     1      -1.695 -11.781  41.879  1.00  0.00     0.035 C 
BRANCH   5   6
ATOM      6  C   UNL     1      -1.383 -10.595  41.006  1.00  0.00    -0.048 A 
ATOM      7  C   UNL     1      -2.050  -9.374  41.201  1.00  0.00     0.004 A 
ATOM      8  C   UNL     1      -0.462 -10.715  39.952  1.00  0.00     0.004 A 
ATOM      9  C   UNL     1      -1.782  -8.283  40.367  1.00  0.00     0.000 A 
ATOM     10  C   UNL     1      -0.196  -9.622  39.120  1.00  0.00     0.000 A 
ATOM     11  C   UNL     1      -0.854  -8.407  39.329  1.00  0.00     0.000 A 
ENDBRANCH   5   6
ENDBRANCH   1   5
TORSDOF 4
ENDMDL
MODEL 2
REMARK VINA RESULT:    -3.860      1.315      5.055
REMARK INTER + INTRA:          -5.067
REMARK INTER:                  -4.498
REMARK INTRA:                  -0.570
REMARK UNBOUND:                -0.305
REMARK SMILES CCCCCc1ccccc1
REMARK SMILES IDX 4 1 3 2 2 3 1 4 5 5 6 6 7 7 11 8 8 9 10 10 9 11
REMARK H PARENT
REMARK Flexibility Score: inf
ROOT
ATOM      1  C   UNL     1      -3.534  -9.540  39.956  1.00  0.00     0.005 C 
ENDROOT
BRANCH   1   2
ATOM      2  C   UNL     1      -2.869  -8.226  39.518  1.00  0.00     0.000 C 
BRANCH   2   3
ATOM      3  C   UNL     1      -1.447  -8.069  40.077  1.00  0.00    -0.003 C 
ATOM      4  C   UNL     1      -0.454  -8.932  39.303  1.00  0.00     0.004 C 
ENDBRANCH   2   3
ENDBRANCH   1   2
BRANCH   1   5
ATOM      5  C   UNL     1      -3.595  -9.691  41.483  1.00  0.00     0.035 C 
BRANCH   5   6
ATOM      6  C   UNL     1      -2.911 -10.962  41.913  1.00  0.00    -0.048 A 
ATOM      7  C   UNL     1      -1.568 -10.940  42.327  1.00  0.00     0.004 A 
ATOM      8  C   UNL     1      -3.593 -12.189  41.851  1.00  0.00     0.004 A 
ATOM      9  C   UNL     1      -0.926 -12.127  42.695  1.00  0.00     0.000 A 
ATOM     10  C   UNL     1      -2.947 -13.373  42.220  1.00  0.00     0.000 A 
ATOM     11  C   UNL     1      -1.615 -13.342  42.643  1.00  0.00     0.000 A 
ENDBRANCH   5   6
ENDBRANCH   1   5
TORSDOF 4
ENDMDL
MODEL 3
REMARK VINA RESULT:    -3.815      1.518      2.524
REMARK INTER + INTRA:          -5.011
REMARK INTER:                  -4.387
REMARK INTRA:                  -0.624
REMARK UNBOUND:                -0.305
REMARK SMILES CCCCCc1ccccc1
REMARK SMILES IDX 4 1 3 2 2 3 1 4 5 5 6 6 7 7 11 8 8 9 10 10 9 11
REMARK H PARENT
REMARK Flexibility Score: inf
ROOT
ATOM      1  C   UNL     1      -2.822 -12.327  41.605  1.00  0.00     0.005 C 
ENDROOT
BRANCH   1   2
ATOM      2  C   UNL     1      -4.281 -11.843  41.611  1.00  0.00     0.000 C 
BRANCH   2   3
ATOM      3  C   UNL     1      -4.655 -11.111  42.908  1.00  0.00    -0.003 C 
ATOM      4  C   UNL     1      -5.234  -9.731  42.612  1.00  0.00     0.004 C 
ENDBRANCH   2   3
ENDBRANCH   1   2
BRANCH   1   5
ATOM      5  C   UNL     1      -1.848 -11.272  42.149  1.00  0.00     0.035 C 
BRANCH   5   6
ATOM      6  C   UNL     1      -1.439 -10.320  41.057  1.00  0.00    -0.048 A 
ATOM      7  C   UNL     1      -1.937  -9.006  41.037  1.00  0.00     0.004 A 
ATOM      8  C   UNL     1      -0.601 -10.754  40.016  1.00  0.00     0.004 A 
ATOM      9  C   UNL     1      -1.582  -8.134  40.003  1.00  0.00     0.000 A 
ATOM     10  C   UNL     1      -0.249  -9.879  38.984  1.00  0.00     0.000 A 
ATOM     11  C   UNL     1      -0.737  -8.569  38.979  1.00  0.00     0.000 A 
ENDBRANCH   5   6
ENDBRANCH   1   5
TORSDOF 4
ENDMDL
MODEL 4
REMARK VINA RESULT:    -3.757      3.837      7.600
REMARK INTER + INTRA:          -4.940
REMARK INTER:                  -4.705
REMARK INTRA:                  -0.235
REMARK UNBOUND:                -0.305
REMARK SMILES CCCCCc1ccccc1
REMARK SMILES IDX 4 1 3 2 2 3 1 4 5 5 6 6 7 7 11 8 8 9 10 10 9 11
REMARK H PARENT
REMARK Flexibility Score: inf
ROOT
ATOM      1  C   UNL     1      -3.737  -6.369  37.285  1.00  0.00     0.005 C 
ENDROOT
BRANCH   1   2
ATOM      2  C   UNL     1      -3.756  -5.967  35.802  1.00  0.00     0.000 C 
BRANCH   2   3
ATOM      3  C   UNL     1      -4.570  -4.690  35.546  1.00  0.00    -0.003 C 
ATOM      4  C   UNL     1      -3.968  -3.872  34.408  1.00  0.00     0.004 C 
ENDBRANCH   2   3
ENDBRANCH   1   2
BRANCH   1   5
ATOM      5  C   UNL     1      -2.406  -7.007  37.708  1.00  0.00     0.035 C 
BRANCH   5   6
ATOM      6  C   UNL     1      -2.602  -7.879  38.919  1.00  0.00    -0.048 A 
ATOM      7  C   UNL     1      -1.502  -8.259  39.706  1.00  0.00     0.004 A 
ATOM      8  C   UNL     1      -3.879  -8.367  39.241  1.00  0.00     0.004 A 
ATOM      9  C   UNL     1      -1.682  -9.096  40.812  1.00  0.00     0.000 A 
ATOM     10  C   UNL     1      -4.056  -9.204  40.347  1.00  0.00     0.000 A 
ATOM     11  C   UNL     1      -2.958  -9.567  41.133  1.00  0.00     0.000 A 
ENDBRANCH   5   6
ENDBRANCH   1   5
TORSDOF 4
ENDMDL
MODEL 5
REMARK VINA RESULT:    -3.735      1.316      2.542
REMARK INTER + INTRA:          -4.912
REMARK INTER:                  -4.564
REMARK INTRA:                  -0.348
REMARK UNBOUND:                -0.305
REMARK SMILES CCCCCc1ccccc1
REMARK SMILES IDX 4 1 3 2 2 3 1 4 5 5 6 6 7 7 11 8 8 9 10 10 9 11
REMARK H PARENT
REMARK Flexibility Score: inf
ROOT
ATOM      1  C   UNL     1      -2.478 -14.083  42.532  1.00  0.00     0.005 C 
ENDROOT
BRANCH   1   2
ATOM      2  C   UNL     1      -2.095 -15.318  43.362  1.00  0.00     0.000 C 
BRANCH   2   3
ATOM      3  C   UNL     1      -3.290 -15.912  44.123  1.00  0.00    -0.003 C 
ATOM      4  C   UNL     1      -4.499 -14.984  44.057  1.00  0.00     0.004 C 
ENDBRANCH   2   3
ENDBRANCH   1   2
BRANCH   1   5
ATOM      5  C   UNL     1      -1.438 -12.959  42.631  1.00  0.00     0.035 C 
BRANCH   5   6
ATOM      6  C   UNL     1      -1.947 -11.711  41.961  1.00  0.00    -0.048 A 
ATOM      7  C   UNL     1      -1.144 -11.024  41.034  1.00  0.00     0.004 A 
ATOM      8  C   UNL     1      -3.208 -11.189  42.298  1.00  0.00     0.004 A 
ATOM      9  C   UNL     1      -1.607  -9.847  40.437  1.00  0.00     0.000 A 
ATOM     10  C   UNL     1      -3.667 -10.012  41.699  1.00  0.00     0.000 A 
ATOM     11  C   UNL     1      -2.868  -9.343  40.767  1.00  0.00     0.000 A 
ENDBRANCH   5   6
ENDBRANCH   1   5
TORSDOF 4
ENDMDL
MODEL 6
REMARK VINA RESULT:    -3.721      4.873      7.292
REMARK INTER + INTRA:          -4.896
REMARK INTER:                  -4.651
REMARK INTRA:                  -0.245
REMARK UNBOUND:                -0.305
REMARK SMILES CCCCCc1ccccc1
REMARK SMILES IDX 4 1 3 2 2 3 1 4 5 5 6 6 7 7 11 8 8 9 10 10 9 11
REMARK H PARENT
REMARK Flexibility Score: inf
ROOT
ATOM      1  C   UNL     1      -2.589  -7.274  37.799  1.00  0.00     0.005 C 
ENDROOT
BRANCH   1   2
ATOM      2  C   UNL     1      -2.806  -8.027  39.121  1.00  0.00     0.000 C 
BRANCH   2   3
ATOM      3  C   UNL     1      -1.537  -8.080  39.985  1.00  0.00    -0.003 C 
ATOM      4  C   UNL     1      -0.443  -8.897  39.303  1.00  0.00     0.004 C 
ENDBRANCH   2   3
ENDBRANCH   1   2
BRANCH   1   5
ATOM      5  C   UNL     1      -3.862  -6.573  37.303  1.00  0.00     0.035 C 
BRANCH   5   6
ATOM      6  C   UNL     1      -3.654  -6.026  35.916  1.00  0.00    -0.048 A 
ATOM      7  C   UNL     1      -2.819  -6.697  35.006  1.00  0.00     0.004 A 
ATOM      8  C   UNL     1      -4.248  -4.810  35.537  1.00  0.00     0.004 A 
ATOM      9  C   UNL     1      -2.602  -6.169  33.729  1.00  0.00     0.000 A 
ATOM     10  C   UNL     1      -4.028  -4.286  34.260  1.00  0.00     0.000 A 
ATOM     11  C   UNL     1      -3.207  -4.967  33.355  1.00  0.00     0.000 A 
ENDBRANCH   5   6
ENDBRANCH   1   5
TORSDOF 4
ENDMDL
MODEL 7
REMARK VINA RESULT:    -3.678      4.731      8.284
REMARK INTER + INTRA:          -4.843
REMARK INTER:                  -4.359
REMARK INTRA:                  -0.484
REMARK UNBOUND:                -0.305
REMARK SMILES CCCCCc1ccccc1
REMARK SMILES IDX 4 1 3 2 2 3 1 4 5 5 6 6 7 7 11 8 8 9 10 10 9 11
REMARK H PARENT
REMARK Flexibility Score: inf
ROOT
ATOM      1  C   UNL     1      -4.499  -5.089  36.574  1.00  0.00     0.005 C 
ENDROOT
BRANCH   1   2
ATOM      2  C   UNL     1      -5.010  -4.546  35.231  1.00  0.00     0.000 C 
BRANCH   2   3
ATOM      3  C   UNL     1      -3.894  -3.918  34.384  1.00  0.00    -0.003 C 
ATOM      4  C   UNL     1      -3.199  -4.971  33.525  1.00  0.00     0.004 C 
ENDBRANCH   2   3
ENDBRANCH   1   2
BRANCH   1   5
ATOM      5  C   UNL     1      -4.592  -6.619  36.668  1.00  0.00     0.035 C 
BRANCH   5   6
ATOM      6  C   UNL     1      -3.342  -7.186  37.285  1.00  0.00    -0.048 A 
ATOM      7  C   UNL     1      -3.359  -7.672  38.604  1.00  0.00     0.004 A 
ATOM      8  C   UNL     1      -2.134  -7.182  36.569  1.00  0.00     0.004 A 
ATOM      9  C   UNL     1      -2.188  -8.168  39.186  1.00  0.00     0.000 A 
ATOM     10  C   UNL     1      -0.965  -7.679  37.155  1.00  0.00     0.000 A 
ATOM     11  C   UNL     1      -0.993  -8.174  38.462  1.00  0.00     0.000 A 
ENDBRANCH   5   6
ENDBRANCH   1   5
TORSDOF 4
ENDMDL
MODEL 8
REMARK VINA RESULT:    -3.648      1.682      5.567
REMARK INTER + INTRA:          -4.805
REMARK INTER:                  -4.390
REMARK INTRA:                  -0.415
REMARK UNBOUND:                -0.305
REMARK SMILES CCCCCc1ccccc1
REMARK SMILES IDX 4 1 3 2 2 3 1 4 5 5 6 6 7 7 11 8 8 9 10 10 9 11
REMARK H PARENT
REMARK Flexibility Score: inf
ROOT
ATOM      1  C   UNL     1      -0.655  -8.774  39.308  1.00  0.00     0.005 C 
ENDROOT
BRANCH   1   2
ATOM      2  C   UNL     1      -1.219  -8.058  38.071  1.00  0.00     0.000 C 
BRANCH   2   3
ATOM      3  C   UNL     1      -2.704  -7.695  38.225  1.00  0.00    -0.003 C 
ATOM      4  C   UNL     1      -3.059  -6.469  37.391  1.00  0.00     0.004 C 
ENDBRANCH   2   3
ENDBRANCH   1   2
BRANCH   1   5
ATOM      5  C   UNL     1      -1.457  -8.473  40.582  1.00  0.00     0.035 C 
BRANCH   5   6
ATOM      6  C   UNL     1      -2.093  -9.730  41.111  1.00  0.00    -0.048 A 
ATOM      7  C   UNL     1      -3.438  -9.727  41.521  1.00  0.00     0.004 A 
ATOM      8  C   UNL     1      -1.334 -10.904  41.253  1.00  0.00     0.004 A 
ATOM      9  C   UNL     1      -4.018 -10.888  42.043  1.00  0.00     0.000 A 
ATOM     10  C   UNL     1      -1.917 -12.062  41.775  1.00  0.00     0.000 A 
ATOM     11  C   UNL     1      -3.259 -12.055  42.168  1.00  0.00     0.000 A 
ENDBRANCH   5   6
ENDBRANCH   1   5
TORSDOF 4
ENDMDL
MODEL 9
REMARK VINA RESULT:    -3.637      1.461      5.326
REMARK INTER + INTRA:          -4.792
REMARK INTER:                  -4.205
REMARK INTRA:                  -0.587
REMARK UNBOUND:                -0.305
REMARK SMILES CCCCCc1ccccc1
REMARK SMILES IDX 4 1 3 2 2 3 1 4 5 5 6 6 7 7 11 8 8 9 10 10 9 11
REMARK H PARENT
REMARK Flexibility Score: inf
ROOT
ATOM      1  C   UNL     1      -1.692 -10.971  41.008  1.00  0.00     0.005 C 
ENDROOT
BRANCH   1   2
ATOM      2  C   UNL     1      -2.312  -9.601  41.324  1.00  0.00     0.000 C 
BRANCH   2   3
ATOM      3  C   UNL     1      -3.798  -9.524  40.945  1.00  0.00    -0.003 C 
ATOM      4  C   UNL     1      -4.687  -9.865  42.137  1.00  0.00     0.004 C 
ENDBRANCH   2   3
ENDBRANCH   1   2
BRANCH   1   5
ATOM      5  C   UNL     1      -1.441 -11.811  42.269  1.00  0.00     0.035 C 
BRANCH   5   6
ATOM      6  C   UNL     1      -2.215 -13.100  42.205  1.00  0.00    -0.048 A 
ATOM      7  C   UNL     1      -1.890 -14.167  43.060  1.00  0.00     0.004 A 
ATOM      8  C   UNL     1      -3.232 -13.269  41.251  1.00  0.00     0.004 A 
ATOM      9  C   UNL     1      -2.589 -15.375  42.976  1.00  0.00     0.000 A 
ATOM     10  C   UNL     1      -3.929 -14.478  41.170  1.00  0.00     0.000 A 
ATOM     11  C   UNL     1      -3.609 -15.530  42.034  1.00  0.00     0.000 A 
ENDBRANCH   5   6
ENDBRANCH   1   5
TORSDOF 4
ENDMDL
