MODEL 1
REMARK VINA RESULT:    -3.648      0.000      0.000
REMARK INTER + INTRA:          -5.100
REMARK INTER:                  -4.715
REMARK INTRA:                  -0.385
REMARK UNBOUND:                -0.385
REMARK SMILES CCCCCCC(=O)[O-]
REMARK SMILES IDX 5 1 6 2 7 3 8 4 9 5 4 6 3 7 2 8 1 9
REMARK H PARENT
REMARK Flexibility Score: inf
ROOT
ATOM      1  C   UNL     1     160.902 166.284 158.886  1.00  0.00     0.006 C 
ENDROOT
BRANCH   1   2
ATOM      2  C   UNL     1     162.235 166.870 158.395  1.00  0.00     0.053 C 
BRANCH   2   3
ATOM      3  C   UNL     1     163.384 166.446 159.257  1.00  0.00     0.041 C 
ATOM      4  O   UNL     1     163.529 166.935 160.409  1.00  0.00    -0.550 OA
ATOM      5  O   UNL     1     164.314 165.532 158.777  1.00  0.00    -0.550 OA
ENDBRANCH   2   3
ENDBRANCH   1   2
BRANCH   1   6
ATOM      6  C   UNL     1     160.108 167.210 159.827  1.00  0.00     0.000 C 
BRANCH   6   7
ATOM      7  C   UNL     1     159.813 166.558 161.190  1.00  0.00    -0.000 C 
BRANCH   7   8
ATOM      8  C   UNL     1     160.252 165.086 161.245  1.00  0.00    -0.003 C 
ATOM      9  C   UNL     1     161.270 164.811 162.351  1.00  0.00     0.004 C 
ENDBRANCH   7   8
ENDBRANCH   6   7
ENDBRANCH   1   6
TORSDOF 5
ENDMDL
MODEL 2
REMARK VINA RESULT:    -3.623      2.193      3.784
REMARK INTER + INTRA:          -5.068
REMARK INTER:                  -4.687
REMARK INTRA:                  -0.381
REMARK UNBOUND:                -0.385
REMARK SMILES CCCCCCC(=O)[O-]
REMARK SMILES IDX 5 1 6 2 7 3 8 4 9 5 4 6 3 7 2 8 1 9
REMARK H PARENT
REMARK Flexibility Score: inf
ROOT
ATOM      1  C   UNL     1     159.326 166.165 161.130  1.00  0.00     0.006 C 
ENDROOT
BRANCH   1   2
ATOM      2  C   UNL     1     160.196 166.134 162.395  1.00  0.00     0.053 C 
BRANCH   2   3
ATOM      3  C   UNL     1     160.938 164.841 162.535  1.00  0.00     0.041 C 
ATOM      4  O   UNL     1     161.328 164.219 161.511  1.00  0.00    -0.550 OA
ATOM      5  O   UNL     1     161.173 164.306 163.795  1.00  0.00    -0.550 OA
ENDBRANCH   2   3
ENDBRANCH   1   2
BRANCH   1   6
ATOM      6  C   UNL     1     159.717 167.254 160.114  1.00  0.00     0.000 C 
BRANCH   6   7
ATOM      7  C   UNL     1     160.950 166.870 159.277  1.00  0.00    -0.000 C 
BRANCH   7   8
ATOM      8  C   UNL     1     162.225 167.588 159.746  1.00  0.00    -0.003 C 
ATOM      9  C   UNL     1     163.402 166.634 159.951  1.00  0.00     0.004 C 
ENDBRANCH   7   8
ENDBRANCH   6   7
ENDBRANCH   1   6
TORSDOF 5
ENDMDL
MODEL 3
REMARK VINA RESULT:    -3.610      2.410      3.986
REMARK INTER + INTRA:          -5.051
REMARK INTER:                  -4.645
REMARK INTRA:                  -0.406
REMARK UNBOUND:                -0.385
REMARK SMILES CCCCCCC(=O)[O-]
REMARK SMILES IDX 5 1 6 2 7 3 8 4 9 5 4 6 3 7 2 8 1 9
REMARK H PARENT
REMARK Flexibility Score: inf
ROOT
ATOM      1  C   UNL     1     163.502 166.495 159.726  1.00  0.00     0.006 C 
ENDROOT
BRANCH   1   2
ATOM      2  C   UNL     1     162.199 166.469 160.540  1.00  0.00     0.053 C 
BRANCH   2   3
ATOM      3  C   UNL     1     161.417 167.737 160.385  1.00  0.00     0.041 C 
ATOM      4  O   UNL     1     161.949 168.848 160.650  1.00  0.00    -0.550 OA
ATOM      5  O   UNL     1     160.089 167.690 159.979  1.00  0.00    -0.550 OA
ENDBRANCH   2   3
ENDBRANCH   1   2
BRANCH   1   6
ATOM      6  C   UNL     1     163.427 165.752 158.379  1.00  0.00     0.000 C 
BRANCH   6   7
ATOM      7  C   UNL     1     163.152 166.696 157.195  1.00  0.00    -0.000 C 
BRANCH   7   8
ATOM      8  C   UNL     1     161.696 166.618 156.707  1.00  0.00    -0.003 C 
ATOM      9  C   UNL     1     160.949 165.403 157.259  1.00  0.00     0.004 C 
ENDBRANCH   7   8
ENDBRANCH   6   7
ENDBRANCH   1   6
TORSDOF 5
ENDMDL
MODEL 4
REMARK VINA RESULT:    -3.606      2.373      3.224
REMARK INTER + INTRA:          -5.046
REMARK INTER:                  -4.669
REMARK INTRA:                  -0.377
REMARK UNBOUND:                -0.385
REMARK SMILES CCCCCCC(=O)[O-]
REMARK SMILES IDX 5 1 6 2 7 3 8 4 9 5 4 6 3 7 2 8 1 9
REMARK H PARENT
REMARK Flexibility Score: inf
ROOT
ATOM      1  C   UNL     1     163.425 166.033 158.423  1.00  0.00     0.006 C 
ENDROOT
BRANCH   1   2
ATOM      2  C   UNL     1     162.867 166.958 157.331  1.00  0.00     0.053 C 
BRANCH   2   3
ATOM      3  C   UNL     1     161.653 166.379 156.671  1.00  0.00     0.041 C 
ATOM      4  O   UNL     1     160.935 165.545 157.283  1.00  0.00    -0.550 OA
ATOM      5  O   UNL     1     161.333 166.737 155.368  1.00  0.00    -0.550 OA
ENDBRANCH   2   3
ENDBRANCH   1   2
BRANCH   1   6
ATOM      6  C   UNL     1     163.341 166.608 159.849  1.00  0.00     0.000 C 
BRANCH   6   7
ATOM      7  C   UNL     1     162.003 166.291 160.539  1.00  0.00    -0.000 C 
BRANCH   7   8
ATOM      8  C   UNL     1     161.018 167.470 160.480  1.00  0.00    -0.003 C 
ATOM      9  C   UNL     1     159.578 167.028 160.214  1.00  0.00     0.004 C 
ENDBRANCH   7   8
ENDBRANCH   6   7
ENDBRANCH   1   6
TORSDOF 5
ENDMDL
MODEL 5
REMARK VINA RESULT:    -3.573      2.816      4.072
REMARK INTER + INTRA:          -5.003
REMARK INTER:                  -4.564
REMARK INTRA:                  -0.438
REMARK UNBOUND:                -0.385
REMARK SMILES CCCCCCC(=O)[O-]
REMARK SMILES IDX 5 1 6 2 7 3 8 4 9 5 4 6 3 7 2 8 1 9
REMARK H PARENT
REMARK Flexibility Score: inf
ROOT
ATOM      1  C   UNL     1     161.518 165.486 161.253  1.00  0.00     0.006 C 
ENDROOT
BRANCH   1   2
ATOM      2  C   UNL     1     160.248 166.193 161.752  1.00  0.00     0.053 C 
BRANCH   2   3
ATOM      3  C   UNL     1     159.410 166.704 160.621  1.00  0.00     0.041 C 
ATOM      4  O   UNL     1     159.865 167.579 159.838  1.00  0.00    -0.550 OA
ATOM      5  O   UNL     1     158.113 166.235 160.448  1.00  0.00    -0.550 OA
ENDBRANCH   2   3
ENDBRANCH   1   2
BRANCH   1   6
ATOM      6  C   UNL     1     161.281 164.070 160.695  1.00  0.00     0.000 C 
BRANCH   6   7
ATOM      7  C   UNL     1     161.511 163.984 159.176  1.00  0.00    -0.000 C 
BRANCH   7   8
ATOM      8  C   UNL     1     160.196 163.898 158.386  1.00  0.00    -0.003 C 
ATOM      9  C   UNL     1     159.127 163.070 159.101  1.00  0.00     0.004 C 
ENDBRANCH   7   8
ENDBRANCH   6   7
ENDBRANCH   1   6
TORSDOF 5
ENDMDL
MODEL 6
REMARK VINA RESULT:    -3.545      1.095      1.651
REMARK INTER + INTRA:          -4.967
REMARK INTER:                  -4.592
REMARK INTRA:                  -0.375
REMARK UNBOUND:                -0.385
REMARK SMILES CCCCCCC(=O)[O-]
REMARK SMILES IDX 5 1 6 2 7 3 8 4 9 5 4 6 3 7 2 8 1 9
REMARK H PARENT
REMARK Flexibility Score: inf
ROOT
ATOM      1  C   UNL     1     160.063 167.287 159.779  1.00  0.00     0.006 C 
ENDROOT
BRANCH   1   2
ATOM      2  C   UNL     1     161.030 166.543 158.844  1.00  0.00     0.053 C 
BRANCH   2   3
ATOM      3  C   UNL     1     162.430 167.062 158.958  1.00  0.00     0.041 C 
ATOM      4  O   UNL     1     163.039 167.477 157.936  1.00  0.00    -0.550 OA
ATOM      5  O   UNL     1     163.076 167.059 160.188  1.00  0.00    -0.550 OA
ENDBRANCH   2   3
ENDBRANCH   1   2
BRANCH   1   6
ATOM      6  C   UNL     1     159.406 166.399 160.853  1.00  0.00     0.000 C 
BRANCH   6   7
ATOM      7  C   UNL     1     160.047 166.574 162.241  1.00  0.00    -0.000 C 
BRANCH   7   8
ATOM      8  C   UNL     1     160.492 165.237 162.854  1.00  0.00    -0.003 C 
ATOM      9  C   UNL     1     161.361 164.409 161.907  1.00  0.00     0.004 C 
ENDBRANCH   7   8
ENDBRANCH   6   7
ENDBRANCH   1   6
TORSDOF 5
ENDMDL
MODEL 7
REMARK VINA RESULT:    -3.537      2.612      4.282
REMARK INTER + INTRA:          -4.956
REMARK INTER:                  -4.548
REMARK INTRA:                  -0.408
REMARK UNBOUND:                -0.385
REMARK SMILES CCCCCCC(=O)[O-]
REMARK SMILES IDX 5 1 6 2 7 3 8 4 9 5 4 6 3 7 2 8 1 9
REMARK H PARENT
REMARK Flexibility Score: inf
ROOT
ATOM      1  C   UNL     1     161.760 165.360 160.586  1.00  0.00     0.006 C 
ENDROOT
BRANCH   1   2
ATOM      2  C   UNL     1     160.584 165.937 161.388  1.00  0.00     0.053 C 
BRANCH   2   3
ATOM      3  C   UNL     1     159.574 166.602 160.504  1.00  0.00     0.041 C 
ATOM      4  O   UNL     1     159.909 167.575 159.778  1.00  0.00    -0.550 OA
ATOM      5  O   UNL     1     158.255 166.166 160.505  1.00  0.00    -0.550 OA
ENDBRANCH   2   3
ENDBRANCH   1   2
BRANCH   1   6
ATOM      6  C   UNL     1     161.405 164.127 159.734  1.00  0.00     0.000 C 
BRANCH   6   7
ATOM      7  C   UNL     1     161.868 164.261 158.273  1.00  0.00    -0.000 C 
BRANCH   7   8
ATOM      8  C   UNL     1     162.323 165.689 157.930  1.00  0.00    -0.003 C 
ATOM      9  C   UNL     1     161.499 166.322 156.808  1.00  0.00     0.004 C 
ENDBRANCH   7   8
ENDBRANCH   6   7
ENDBRANCH   1   6
TORSDOF 5
ENDMDL
MODEL 8
REMARK VINA RESULT:    -3.525      2.043      2.510
REMARK INTER + INTRA:          -4.941
REMARK INTER:                  -4.500
REMARK INTRA:                  -0.441
REMARK UNBOUND:                -0.385
REMARK SMILES CCCCCCC(=O)[O-]
REMARK SMILES IDX 5 1 6 2 7 3 8 4 9 5 4 6 3 7 2 8 1 9
REMARK H PARENT
REMARK Flexibility Score: inf
ROOT
ATOM      1  C   UNL     1     161.096 166.103 158.347  1.00  0.00     0.006 C 
ENDROOT
BRANCH   1   2
ATOM      2  C   UNL     1     162.531 166.499 157.968  1.00  0.00     0.053 C 
BRANCH   2   3
ATOM      3  C   UNL     1     163.508 166.178 159.057  1.00  0.00     0.041 C 
ATOM      4  O   UNL     1     163.326 166.619 160.223  1.00  0.00    -0.550 OA
ATOM      5  O   UNL     1     164.635 165.416 158.778  1.00  0.00    -0.550 OA
ENDBRANCH   2   3
ENDBRANCH   1   2
BRANCH   1   6
ATOM      6  C   UNL     1     160.742 164.633 158.055  1.00  0.00     0.000 C 
BRANCH   6   7
ATOM      7  C   UNL     1     160.578 163.796 159.335  1.00  0.00    -0.000 C 
BRANCH   7   8
ATOM      8  C   UNL     1     161.759 162.841 159.569  1.00  0.00    -0.003 C 
ATOM      9  C   UNL     1     162.493 162.478 158.278  1.00  0.00     0.004 C 
ENDBRANCH   7   8
ENDBRANCH   6   7
ENDBRANCH   1   6
TORSDOF 5
ENDMDL
MODEL 9
REMARK VINA RESULT:    -3.525      3.538      3.988
REMARK INTER + INTRA:          -4.941
REMARK INTER:                  -4.561
REMARK INTRA:                  -0.380
REMARK UNBOUND:                -0.385
REMARK SMILES CCCCCCC(=O)[O-]
REMARK SMILES IDX 5 1 6 2 7 3 8 4 9 5 4 6 3 7 2 8 1 9
REMARK H PARENT
REMARK Flexibility Score: inf
ROOT
ATOM      1  C   UNL     1     162.001 164.346 159.141  1.00  0.00     0.006 C 
ENDROOT
BRANCH   1   2
ATOM      2  C   UNL     1     162.608 163.334 158.157  1.00  0.00     0.053 C 
BRANCH   2   3
ATOM      3  C   UNL     1     162.785 161.983 158.779  1.00  0.00     0.041 C 
ATOM      4  O   UNL     1     162.051 161.625 159.738  1.00  0.00    -0.550 OA
ATOM      5  O   UNL     1     163.781 161.131 158.319  1.00  0.00    -0.550 OA
ENDBRANCH   2   3
ENDBRANCH   1   2
BRANCH   1   6
ATOM      6  C   UNL     1     160.533 164.712 158.853  1.00  0.00     0.000 C 
BRANCH   6   7
ATOM      7  C   UNL     1     159.564 164.155 159.911  1.00  0.00    -0.000 C 
BRANCH   7   8
ATOM      8  C   UNL     1     158.395 163.376 159.285  1.00  0.00    -0.003 C 
ATOM      9  C   UNL     1     158.836 162.463 158.141  1.00  0.00     0.004 C 
ENDBRANCH   7   8
ENDBRANCH   6   7
ENDBRANCH   1   6
TORSDOF 5
ENDMDL
