MODEL 1
REMARK VINA RESULT:    -3.046      0.000      0.000
REMARK INTER + INTRA:          -3.696
REMARK INTER:                  -3.580
REMARK INTRA:                  -0.116
REMARK UNBOUND:                -0.116
REMARK SMILES O=C([O-])CCC(=O)[O-]
REMARK SMILES IDX 4 1 2 2 1 3 3 4 5 5 6 6 7 7 8 8
REMARK H PARENT
REMARK Flexibility Score: inf
ROOT
ATOM      1  C   UNL     1      47.600 -14.529 -55.466  1.00  0.00     0.059 C 
ENDROOT
BRANCH   1   2
ATOM      2  C   UNL     1      47.700 -15.837 -56.191  1.00  0.00     0.042 C 
ATOM      3  O   UNL     1      48.442 -16.752 -55.746  1.00  0.00    -0.550 OA
ATOM      4  O   UNL     1      46.944 -16.057 -57.335  1.00  0.00    -0.550 OA
ENDBRANCH   1   2
BRANCH   1   5
ATOM      5  C   UNL     1      48.546 -13.480 -56.060  1.00  0.00     0.059 C 
BRANCH   5   6
ATOM      6  C   UNL     1      47.791 -12.351 -56.692  1.00  0.00     0.042 C 
ATOM      7  O   UNL     1      46.848 -12.588 -57.491  1.00  0.00    -0.550 OA
ATOM      8  O   UNL     1      48.103 -11.036 -56.365  1.00  0.00    -0.550 OA
ENDBRANCH   5   6
ENDBRANCH   1   5
TORSDOF 3
ENDMDL
MODEL 2
REMARK VINA RESULT:    -3.044      1.220      3.679
REMARK INTER + INTRA:          -3.694
REMARK INTER:                  -3.580
REMARK INTRA:                  -0.114
REMARK UNBOUND:                -0.116
REMARK SMILES O=C([O-])CCC(=O)[O-]
REMARK SMILES IDX 4 1 2 2 1 3 3 4 5 5 6 6 7 7 8 8
REMARK H PARENT
REMARK Flexibility Score: inf
ROOT
ATOM      1  C   UNL     1      47.580 -14.539 -55.418  1.00  0.00     0.059 C 
ENDROOT
BRANCH   1   2
ATOM      2  C   UNL     1      48.147 -13.341 -56.117  1.00  0.00     0.042 C 
ATOM      3  O   UNL     1      49.374 -13.074 -56.020  1.00  0.00    -0.550 OA
ATOM      4  O   UNL     1      47.330 -12.544 -56.908  1.00  0.00    -0.550 OA
ENDBRANCH   1   2
BRANCH   1   5
ATOM      5  C   UNL     1      48.108 -15.846 -56.018  1.00  0.00     0.059 C 
BRANCH   5   6
ATOM      6  C   UNL     1      47.175 -16.396 -57.053  1.00  0.00     0.042 C 
ATOM      7  O   UNL     1      47.502 -17.406 -57.730  1.00  0.00    -0.550 OA
ATOM      8  O   UNL     1      45.925 -15.817 -57.241  1.00  0.00    -0.550 OA
ENDBRANCH   5   6
ENDBRANCH   1   5
TORSDOF 3
ENDMDL
MODEL 3
REMARK VINA RESULT:    -3.026      0.171      3.939
REMARK INTER + INTRA:          -3.673
REMARK INTER:                  -3.559
REMARK INTRA:                  -0.113
REMARK UNBOUND:                -0.116
REMARK SMILES O=C([O-])CCC(=O)[O-]
REMARK SMILES IDX 4 1 2 2 1 3 3 4 5 5 6 6 7 7 8 8
REMARK H PARENT
REMARK Flexibility Score: inf
ROOT
ATOM      1  C   UNL     1      48.570 -13.340 -56.047  1.00  0.00     0.059 C 
ENDROOT
BRANCH   1   2
ATOM      2  C   UNL     1      47.804 -12.183 -56.611  1.00  0.00     0.042 C 
ATOM      3  O   UNL     1      48.142 -11.002 -56.332  1.00  0.00    -0.550 OA
ATOM      4  O   UNL     1      46.742 -12.408 -57.477  1.00  0.00    -0.550 OA
ENDBRANCH   1   2
BRANCH   1   5
ATOM      5  C   UNL     1      47.640 -14.377 -55.409  1.00  0.00     0.059 C 
BRANCH   5   6
ATOM      6  C   UNL     1      47.677 -15.680 -56.148  1.00  0.00     0.042 C 
ATOM      7  O   UNL     1      48.449 -16.601 -55.772  1.00  0.00    -0.550 OA
ATOM      8  O   UNL     1      46.828 -15.892 -57.228  1.00  0.00    -0.550 OA
ENDBRANCH   5   6
ENDBRANCH   1   5
TORSDOF 3
ENDMDL
MODEL 4
REMARK VINA RESULT:    -3.002      0.284      1.636
REMARK INTER + INTRA:          -3.644
REMARK INTER:                  -3.523
REMARK INTRA:                  -0.121
REMARK UNBOUND:                -0.116
REMARK SMILES O=C([O-])CCC(=O)[O-]
REMARK SMILES IDX 4 1 2 2 1 3 3 4 5 5 6 6 7 7 8 8
REMARK H PARENT
REMARK Flexibility Score: inf
ROOT
ATOM      1  C   UNL     1      47.633 -14.275 -55.437  1.00  0.00     0.059 C 
ENDROOT
BRANCH   1   2
ATOM      2  C   UNL     1      47.553 -15.556 -56.209  1.00  0.00     0.042 C 
ATOM      3  O   UNL     1      46.764 -15.658 -57.186  1.00  0.00    -0.550 OA
ATOM      4  O   UNL     1      48.377 -16.623 -55.876  1.00  0.00    -0.550 OA
ENDBRANCH   1   2
BRANCH   1   5
ATOM      5  C   UNL     1      48.575 -13.269 -56.107  1.00  0.00     0.059 C 
BRANCH   5   6
ATOM      6  C   UNL     1      47.826 -12.097 -56.664  1.00  0.00     0.042 C 
ATOM      7  O   UNL     1      48.134 -10.926 -56.319  1.00  0.00    -0.550 OA
ATOM      8  O   UNL     1      46.814 -12.297 -57.595  1.00  0.00    -0.550 OA
ENDBRANCH   5   6
ENDBRANCH   1   5
TORSDOF 3
ENDMDL
MODEL 5
REMARK VINA RESULT:    -2.991      7.395      8.692
REMARK INTER + INTRA:          -3.631
REMARK INTER:                  -3.530
REMARK INTRA:                  -0.101
REMARK UNBOUND:                -0.116
REMARK SMILES O=C([O-])CCC(=O)[O-]
REMARK SMILES IDX 4 1 2 2 1 3 3 4 5 5 6 6 7 7 8 8
REMARK H PARENT
REMARK Flexibility Score: inf
ROOT
ATOM      1  C   UNL     1      51.399  -6.145 -55.031  1.00  0.00     0.059 C 
ENDROOT
BRANCH   1   2
ATOM      2  C   UNL     1      51.467  -6.053 -56.525  1.00  0.00     0.042 C 
ATOM      3  O   UNL     1      52.568  -5.837 -57.097  1.00  0.00    -0.550 OA
ATOM      4  O   UNL     1      50.321  -6.247 -57.286  1.00  0.00    -0.550 OA
ENDBRANCH   1   2
BRANCH   1   5
ATOM      5  C   UNL     1      49.988  -5.855 -54.510  1.00  0.00     0.059 C 
BRANCH   5   6
ATOM      6  C   UNL     1      49.318  -7.098 -54.009  1.00  0.00     0.042 C 
ATOM      7  O   UNL     1      48.153  -7.043 -53.535  1.00  0.00    -0.550 OA
ATOM      8  O   UNL     1      49.966  -8.324 -54.103  1.00  0.00    -0.550 OA
ENDBRANCH   5   6
ENDBRANCH   1   5
TORSDOF 3
ENDMDL
MODEL 6
REMARK VINA RESULT:    -2.986      7.444      8.385
REMARK INTER + INTRA:          -3.626
REMARK INTER:                  -3.534
REMARK INTRA:                  -0.092
REMARK UNBOUND:                -0.116
REMARK SMILES O=C([O-])CCC(=O)[O-]
REMARK SMILES IDX 4 1 2 2 1 3 3 4 5 5 6 6 7 7 8 8
REMARK H PARENT
REMARK Flexibility Score: inf
ROOT
ATOM      1  C   UNL     1      50.146  -5.891 -54.507  1.00  0.00     0.059 C 
ENDROOT
BRANCH   1   2
ATOM      2  C   UNL     1      49.451  -7.146 -54.075  1.00  0.00     0.042 C 
ATOM      3  O   UNL     1      50.082  -8.235 -54.029  1.00  0.00    -0.550 OA
ATOM      4  O   UNL     1      48.119  -7.105 -53.685  1.00  0.00    -0.550 OA
ENDBRANCH   1   2
BRANCH   1   5
ATOM      5  C   UNL     1      51.521  -6.186 -55.115  1.00  0.00     0.059 C 
BRANCH   5   6
ATOM      6  C   UNL     1      51.510  -6.036 -56.605  1.00  0.00     0.042 C 
ATOM      7  O   UNL     1      52.592  -6.011 -57.248  1.00  0.00    -0.550 OA
ATOM      8  O   UNL     1      50.302  -5.965 -57.289  1.00  0.00    -0.550 OA
ENDBRANCH   5   6
ENDBRANCH   1   5
TORSDOF 3
ENDMDL
MODEL 7
REMARK VINA RESULT:    -2.966      7.327      8.394
REMARK INTER + INTRA:          -3.603
REMARK INTER:                  -3.500
REMARK INTRA:                  -0.103
REMARK UNBOUND:                -0.116
REMARK SMILES O=C([O-])CCC(=O)[O-]
REMARK SMILES IDX 4 1 2 2 1 3 3 4 5 5 6 6 7 7 8 8
REMARK H PARENT
REMARK Flexibility Score: inf
ROOT
ATOM      1  C   UNL     1      50.036  -5.917 -54.551  1.00  0.00     0.059 C 
ENDROOT
BRANCH   1   2
ATOM      2  C   UNL     1      49.387  -7.178 -54.066  1.00  0.00     0.042 C 
ATOM      3  O   UNL     1      48.227  -7.145 -53.576  1.00  0.00    -0.550 OA
ATOM      4  O   UNL     1      50.047  -8.393 -54.191  1.00  0.00    -0.550 OA
ENDBRANCH   1   2
BRANCH   1   5
ATOM      5  C   UNL     1      51.454  -6.175 -55.071  1.00  0.00     0.059 C 
BRANCH   5   6
ATOM      6  C   UNL     1      51.525  -6.055 -56.563  1.00  0.00     0.042 C 
ATOM      7  O   UNL     1      52.607  -5.736 -57.122  1.00  0.00    -0.550 OA
ATOM      8  O   UNL     1      50.406  -6.336 -57.338  1.00  0.00    -0.550 OA
ENDBRANCH   5   6
ENDBRANCH   1   5
TORSDOF 3
ENDMDL
MODEL 8
REMARK VINA RESULT:    -2.878      8.031      9.258
REMARK INTER + INTRA:          -3.499
REMARK INTER:                  -3.470
REMARK INTRA:                  -0.029
REMARK UNBOUND:                -0.116
REMARK SMILES O=C([O-])CCC(=O)[O-]
REMARK SMILES IDX 4 1 2 2 1 3 3 4 5 5 6 6 7 7 8 8
REMARK H PARENT
REMARK Flexibility Score: inf
ROOT
ATOM      1  C   UNL     1      51.094  -6.160 -56.960  1.00  0.00     0.059 C 
ENDROOT
BRANCH   1   2
ATOM      2  C   UNL     1      52.262  -5.909 -57.864  1.00  0.00     0.042 C 
ATOM      3  O   UNL     1      53.083  -4.991 -57.597  1.00  0.00    -0.550 OA
ATOM      4  O   UNL     1      52.466  -6.712 -58.978  1.00  0.00    -0.550 OA
ENDBRANCH   1   2
BRANCH   1   5
ATOM      5  C   UNL     1      51.509  -6.151 -55.485  1.00  0.00     0.059 C 
BRANCH   5   6
ATOM      6  C   UNL     1      50.353  -6.462 -54.584  1.00  0.00     0.042 C 
ATOM      7  O   UNL     1      49.493  -5.579 -54.328  1.00  0.00    -0.550 OA
ATOM      8  O   UNL     1      50.203  -7.741 -54.061  1.00  0.00    -0.550 OA
ENDBRANCH   5   6
ENDBRANCH   1   5
TORSDOF 3
ENDMDL
MODEL 9
REMARK VINA RESULT:    -2.859      8.028      8.999
REMARK INTER + INTRA:          -3.476
REMARK INTER:                  -3.449
REMARK INTRA:                  -0.027
REMARK UNBOUND:                -0.116
REMARK SMILES O=C([O-])CCC(=O)[O-]
REMARK SMILES IDX 4 1 2 2 1 3 3 4 5 5 6 6 7 7 8 8
REMARK H PARENT
REMARK Flexibility Score: inf
ROOT
ATOM      1  C   UNL     1      51.471  -6.195 -55.524  1.00  0.00     0.059 C 
ENDROOT
BRANCH   1   2
ATOM      2  C   UNL     1      50.316  -6.517 -54.625  1.00  0.00     0.042 C 
ATOM      3  O   UNL     1      50.224  -7.656 -54.096  1.00  0.00    -0.550 OA
ATOM      4  O   UNL     1      49.364  -5.547 -54.341  1.00  0.00    -0.550 OA
ENDBRANCH   1   2
BRANCH   1   5
ATOM      5  C   UNL     1      51.054  -6.179 -56.998  1.00  0.00     0.059 C 
BRANCH   5   6
ATOM      6  C   UNL     1      52.231  -5.979 -57.903  1.00  0.00     0.042 C 
ATOM      7  O   UNL     1      52.381  -6.709 -58.918  1.00  0.00    -0.550 OA
ATOM      8  O   UNL     1      53.139  -4.959 -57.648  1.00  0.00    -0.550 OA
ENDBRANCH   5   6
ENDBRANCH   1   5
TORSDOF 3
ENDMDL
