MODEL 1
REMARK VINA RESULT:    -7.826      0.000      0.000
REMARK INTER + INTRA:          -8.513
REMARK INTER:                  -8.513
REMARK INTRA:                   0.000
REMARK UNBOUND:                 0.000
REMARK SMILES Cc1cc(O)c2c(c1)C(=O)c1cc(O)cc(O)c1C2=O
REMARK SMILES IDX 1 1 2 2 8 3 7 4 6 5 4 6 3 7 19 8 20 9 18 10 11 11 9 12 10 13
REMARK SMILES IDX 12 14 13 15 15 16 16 17 5 18 17 20 14 22
REMARK H PARENT 5 19 17 21 14 23
REMARK Flexibility Score: inf
ROOT
ATOM      1  C   UNL     1       0.219 -27.249   0.041  1.00  0.00     0.044 C 
ATOM      2  C   UNL     1       1.601 -27.806   0.224  1.00  0.00    -0.047 A 
ATOM      3  C   UNL     1       2.022 -28.241   1.485  1.00  0.00     0.016 A 
ATOM      4  C   UNL     1       3.303 -28.790   1.661  1.00  0.00     0.038 A 
ATOM      5  C   UNL     1       4.177 -28.907   0.557  1.00  0.00     0.076 A 
ATOM      6  C   UNL     1       3.712 -28.543  -0.734  1.00  0.00     0.127 A 
ATOM      7  C   UNL     1       2.441 -27.979  -0.880  1.00  0.00     0.050 A 
ATOM      8  C   UNL     1       5.571 -29.353   0.808  1.00  0.00     0.201 C 
ATOM      9  O   UNL     1       6.503 -28.951   0.060  1.00  0.00    -0.288 OA
ATOM     10  C   UNL     1       5.892 -30.114   2.044  1.00  0.00     0.076 A 
ATOM     11  C   UNL     1       5.015 -29.997   3.145  1.00  0.00     0.041 A 
ATOM     12  C   UNL     1       3.740 -29.255   2.999  1.00  0.00     0.194 C 
ATOM     13  O   UNL     1       3.015 -29.041   4.010  1.00  0.00    -0.289 OA
ATOM     14  C   UNL     1       5.353 -30.590   4.373  1.00  0.00     0.059 A 
ATOM     15  C   UNL     1       6.541 -31.307   4.512  1.00  0.00     0.120 A 
ATOM     16  C   UNL     1       7.393 -31.459   3.415  1.00  0.00     0.093 A 
ATOM     17  C   UNL     1       7.069 -30.897   2.175  1.00  0.00     0.131 A 
ENDROOT
BRANCH   6  18
ATOM     18  O   UNL     1       4.462 -28.756  -1.893  1.00  0.00    -0.507 OA
ATOM     19  H   UNL     1       4.068 -28.746  -2.823  1.00  0.00     0.293 HD
ENDBRANCH   6  18
BRANCH  17  20
ATOM     20  O   UNL     1       7.921 -31.167   1.103  1.00  0.00    -0.507 OA
ATOM     21  H   UNL     1       7.838 -30.725   0.198  1.00  0.00     0.293 HD
ENDBRANCH  17  20
BRANCH  15  22
ATOM     22  O   UNL     1       6.862 -31.874   5.744  1.00  0.00    -0.508 OA
ATOM     23  H   UNL     1       6.597 -32.824   5.974  1.00  0.00     0.293 HD
ENDBRANCH  15  22
TORSDOF 3
ENDMDL
MODEL 2
REMARK VINA RESULT:    -7.515      1.574      5.092
REMARK INTER + INTRA:          -8.174
REMARK INTER:                  -8.174
REMARK INTRA:                   0.000
REMARK UNBOUND:                 0.000
REMARK SMILES Cc1cc(O)c2c(c1)C(=O)c1cc(O)cc(O)c1C2=O
REMARK SMILES IDX 1 1 2 2 8 3 7 4 6 5 4 6 3 7 19 8 20 9 18 10 11 11 9 12 10 13
REMARK SMILES IDX 12 14 13 15 15 16 16 17 5 18 17 20 14 22
REMARK H PARENT 5 19 17 21 14 23
REMARK Flexibility Score: inf
ROOT
ATOM      1  C   UNL     1       2.380 -30.070   6.656  1.00  0.00     0.044 C 
ATOM      2  C   UNL     1       3.269 -30.046   5.448  1.00  0.00    -0.047 A 
ATOM      3  C   UNL     1       2.763 -29.636   4.210  1.00  0.00     0.016 A 
ATOM      4  C   UNL     1       3.595 -29.584   3.079  1.00  0.00     0.038 A 
ATOM      5  C   UNL     1       4.956 -29.947   3.188  1.00  0.00     0.076 A 
ATOM      6  C   UNL     1       5.482 -30.281   4.463  1.00  0.00     0.127 A 
ATOM      7  C   UNL     1       4.630 -30.346   5.570  1.00  0.00     0.050 A 
ATOM      8  C   UNL     1       5.766 -30.021   1.945  1.00  0.00     0.201 C 
ATOM      9  O   UNL     1       6.725 -30.836   1.869  1.00  0.00    -0.288 OA
ATOM     10  C   UNL     1       5.330 -29.277   0.734  1.00  0.00     0.076 A 
ATOM     11  C   UNL     1       3.969 -28.912   0.629  1.00  0.00     0.041 A 
ATOM     12  C   UNL     1       3.053 -29.140   1.772  1.00  0.00     0.194 C 
ATOM     13  O   UNL     1       1.815 -28.933   1.639  1.00  0.00    -0.289 OA
ATOM     14  C   UNL     1       3.492 -28.330  -0.556  1.00  0.00     0.059 A 
ATOM     15  C   UNL     1       4.353 -28.094  -1.628  1.00  0.00     0.120 A 
ATOM     16  C   UNL     1       5.708 -28.416  -1.514  1.00  0.00     0.093 A 
ATOM     17  C   UNL     1       6.212 -28.978  -0.336  1.00  0.00     0.131 A 
ENDROOT
BRANCH   6  18
ATOM     18  O   UNL     1       6.842 -30.517   4.680  1.00  0.00    -0.507 OA
ATOM     19  H   UNL     1       7.578 -29.971   4.256  1.00  0.00     0.293 HD
ENDBRANCH   6  18
BRANCH  17  20
ATOM     20  O   UNL     1       7.591 -29.188  -0.263  1.00  0.00    -0.507 OA
ATOM     21  H   UNL     1       8.015 -30.105  -0.218  1.00  0.00     0.293 HD
ENDBRANCH  17  20
BRANCH  15  22
ATOM     22  O   UNL     1       3.854 -27.528  -2.800  1.00  0.00    -0.508 OA
ATOM     23  H   UNL     1       3.775 -28.065  -3.655  1.00  0.00     0.293 HD
ENDBRANCH  15  22
TORSDOF 3
ENDMDL
MODEL 3
REMARK VINA RESULT:    -7.418      1.675      5.675
REMARK INTER + INTRA:          -8.068
REMARK INTER:                  -8.068
REMARK INTRA:                   0.000
REMARK UNBOUND:                 0.000
REMARK SMILES Cc1cc(O)c2c(c1)C(=O)c1cc(O)cc(O)c1C2=O
REMARK SMILES IDX 1 1 2 2 8 3 7 4 6 5 4 6 3 7 19 8 20 9 18 10 11 11 9 12 10 13
REMARK SMILES IDX 12 14 13 15 15 16 16 17 5 18 17 20 14 22
REMARK H PARENT 5 19 17 21 14 23
REMARK Flexibility Score: inf
ROOT
ATOM      1  C   UNL     1       7.081 -30.850   4.309  1.00  0.00     0.044 C 
ATOM      2  C   UNL     1       6.433 -30.307   3.070  1.00  0.00    -0.047 A 
ATOM      3  C   UNL     1       5.080 -29.951   3.082  1.00  0.00     0.016 A 
ATOM      4  C   UNL     1       4.470 -29.416   1.935  1.00  0.00     0.038 A 
ATOM      5  C   UNL     1       5.227 -29.233   0.756  1.00  0.00     0.076 A 
ATOM      6  C   UNL     1       6.618 -29.517   0.776  1.00  0.00     0.127 A 
ATOM      7  C   UNL     1       7.197 -30.068   1.923  1.00  0.00     0.050 A 
ATOM      8  C   UNL     1       4.516 -28.806  -0.476  1.00  0.00     0.201 C 
ATOM      9  O   UNL     1       4.948 -29.163  -1.605  1.00  0.00    -0.288 OA
ATOM     10  C   UNL     1       3.200 -28.123  -0.370  1.00  0.00     0.076 A 
ATOM     11  C   UNL     1       2.447 -28.305   0.811  1.00  0.00     0.041 A 
ATOM     12  C   UNL     1       3.038 -29.034   1.959  1.00  0.00     0.194 C 
ATOM     13  O   UNL     1       2.327 -29.309   2.966  1.00  0.00    -0.289 OA
ATOM     14  C   UNL     1       1.143 -27.789   0.895  1.00  0.00     0.059 A 
ATOM     15  C   UNL     1       0.589 -27.085  -0.173  1.00  0.00     0.120 A 
ATOM     16  C   UNL     1       1.344 -26.867  -1.329  1.00  0.00     0.093 A 
ATOM     17  C   UNL     1       2.652 -27.352  -1.429  1.00  0.00     0.131 A 
ENDROOT
BRANCH   6  18
ATOM     18  O   UNL     1       7.460 -29.234  -0.301  1.00  0.00    -0.507 OA
ATOM     19  H   UNL     1       7.659 -28.298  -0.625  1.00  0.00     0.293 HD
ENDBRANCH   6  18
BRANCH  17  20
ATOM     20  O   UNL     1       3.377 -27.017  -2.575  1.00  0.00    -0.507 OA
ATOM     21  H   UNL     1       3.027 -26.401  -3.296  1.00  0.00     0.293 HD
ENDBRANCH  17  20
BRANCH  15  22
ATOM     22  O   UNL     1      -0.712 -26.594  -0.072  1.00  0.00    -0.508 OA
ATOM     23  H   UNL     1      -1.314 -26.522  -0.883  1.00  0.00     0.293 HD
ENDBRANCH  15  22
TORSDOF 3
ENDMDL
MODEL 4
REMARK VINA RESULT:    -7.344      1.559      3.594
REMARK INTER + INTRA:          -7.988
REMARK INTER:                  -7.988
REMARK INTRA:                   0.000
REMARK UNBOUND:                 0.000
REMARK SMILES Cc1cc(O)c2c(c1)C(=O)c1cc(O)cc(O)c1C2=O
REMARK SMILES IDX 1 1 2 2 8 3 7 4 6 5 4 6 3 7 19 8 20 9 18 10 11 11 9 12 10 13
REMARK SMILES IDX 12 14 13 15 15 16 16 17 5 18 17 20 14 22
REMARK H PARENT 5 19 17 21 14 23
REMARK Flexibility Score: inf
ROOT
ATOM      1  C   UNL     1       6.234 -27.894  -2.888  1.00  0.00     0.044 C 
ATOM      2  C   UNL     1       5.502 -28.297  -1.642  1.00  0.00    -0.047 A 
ATOM      3  C   UNL     1       6.200 -28.848  -0.562  1.00  0.00     0.016 A 
ATOM      4  C   UNL     1       5.528 -29.202   0.619  1.00  0.00     0.038 A 
ATOM      5  C   UNL     1       4.133 -29.001   0.722  1.00  0.00     0.076 A 
ATOM      6  C   UNL     1       3.446 -28.364  -0.343  1.00  0.00     0.127 A 
ATOM      7  C   UNL     1       4.133 -28.040  -1.517  1.00  0.00     0.050 A 
ATOM      8  C   UNL     1       3.435 -29.522   1.926  1.00  0.00     0.201 C 
ATOM      9  O   UNL     1       2.233 -29.894   1.842  1.00  0.00    -0.288 OA
ATOM     10  C   UNL     1       4.204 -29.782   3.171  1.00  0.00     0.076 A 
ATOM     11  C   UNL     1       5.599 -29.979   3.065  1.00  0.00     0.041 A 
ATOM     12  C   UNL     1       6.276 -29.778   1.761  1.00  0.00     0.194 C 
ATOM     13  O   UNL     1       7.497 -30.074   1.633  1.00  0.00    -0.289 OA
ATOM     14  C   UNL     1       6.339 -30.361   4.196  1.00  0.00     0.059 A 
ATOM     15  C   UNL     1       5.711 -30.532   5.430  1.00  0.00     0.120 A 
ATOM     16  C   UNL     1       4.338 -30.299   5.549  1.00  0.00     0.093 A 
ATOM     17  C   UNL     1       3.583 -29.898   4.442  1.00  0.00     0.131 A 
ENDROOT
BRANCH   6  18
ATOM     18  O   UNL     1       2.098 -28.006  -0.264  1.00  0.00    -0.507 OA
ATOM     19  H   UNL     1       1.759 -27.069  -0.427  1.00  0.00     0.293 HD
ENDBRANCH   6  18
BRANCH  17  20
ATOM     20  O   UNL     1       2.237 -29.595   4.657  1.00  0.00    -0.507 OA
ATOM     21  H   UNL     1       1.785 -28.768   4.291  1.00  0.00     0.293 HD
ENDBRANCH  17  20
BRANCH  15  22
ATOM     22  O   UNL     1       6.463 -30.925   6.535  1.00  0.00    -0.508 OA
ATOM     23  H   UNL     1       7.475 -30.960   6.503  1.00  0.00     0.293 HD
ENDBRANCH  15  22
TORSDOF 3
ENDMDL
MODEL 5
REMARK VINA RESULT:    -7.304      1.873      3.670
REMARK INTER + INTRA:          -7.945
REMARK INTER:                  -7.945
REMARK INTRA:                   0.000
REMARK UNBOUND:                 0.000
REMARK SMILES Cc1cc(O)c2c(c1)C(=O)c1cc(O)cc(O)c1C2=O
REMARK SMILES IDX 1 1 2 2 8 3 7 4 6 5 4 6 3 7 19 8 20 9 18 10 11 11 9 12 10 13
REMARK SMILES IDX 12 14 13 15 15 16 16 17 5 18 17 20 14 22
REMARK H PARENT 5 19 17 21 14 23
REMARK Flexibility Score: inf
ROOT
ATOM      1  C   UNL     1       2.796 -26.395  -4.195  1.00  0.00     0.044 C 
ATOM      2  C   UNL     1       2.771 -27.003  -2.823  1.00  0.00    -0.047 A 
ATOM      3  C   UNL     1       3.907 -27.643  -2.317  1.00  0.00     0.016 A 
ATOM      4  C   UNL     1       3.904 -28.190  -1.023  1.00  0.00     0.038 A 
ATOM      5  C   UNL     1       2.744 -28.094  -0.222  1.00  0.00     0.076 A 
ATOM      6  C   UNL     1       1.625 -27.370  -0.709  1.00  0.00     0.127 A 
ATOM      7  C   UNL     1       1.645 -26.853  -2.008  1.00  0.00     0.050 A 
ATOM      8  C   UNL     1       2.727 -28.812   1.079  1.00  0.00     0.201 C 
ATOM      9  O   UNL     1       1.638 -29.246   1.542  1.00  0.00    -0.288 OA
ATOM     10  C   UNL     1       4.009 -29.181   1.735  1.00  0.00     0.076 A 
ATOM     11  C   UNL     1       5.168 -29.272   0.931  1.00  0.00     0.041 A 
ATOM     12  C   UNL     1       5.114 -28.860  -0.491  1.00  0.00     0.194 C 
ATOM     13  O   UNL     1       6.109 -29.058  -1.243  1.00  0.00    -0.289 OA
ATOM     14  C   UNL     1       6.367 -29.749   1.487  1.00  0.00     0.059 A 
ATOM     15  C   UNL     1       6.429 -30.120   2.830  1.00  0.00     0.120 A 
ATOM     16  C   UNL     1       5.296 -29.993   3.638  1.00  0.00     0.093 A 
ATOM     17  C   UNL     1       4.096 -29.501   3.115  1.00  0.00     0.131 A 
ENDROOT
BRANCH   6  18
ATOM     18  O   UNL     1       0.495 -27.113   0.071  1.00  0.00    -0.507 OA
ATOM     19  H   UNL     1      -0.450 -27.275  -0.244  1.00  0.00     0.293 HD
ENDBRANCH   6  18
BRANCH  17  20
ATOM     20  O   UNL     1       3.034 -29.316   4.003  1.00  0.00    -0.507 OA
ATOM     21  H   UNL     1       3.138 -29.335   5.009  1.00  0.00     0.293 HD
ENDBRANCH  17  20
BRANCH  15  22
ATOM     22  O   UNL     1       7.626 -30.603   3.355  1.00  0.00    -0.508 OA
ATOM     23  H   UNL     1       7.727 -31.570   3.639  1.00  0.00     0.293 HD
ENDBRANCH  15  22
TORSDOF 3
ENDMDL
MODEL 6
REMARK VINA RESULT:    -7.159      1.674      4.020
REMARK INTER + INTRA:          -7.787
REMARK INTER:                  -7.787
REMARK INTRA:                   0.000
REMARK UNBOUND:                 0.000
REMARK SMILES Cc1cc(O)c2c(c1)C(=O)c1cc(O)cc(O)c1C2=O
REMARK SMILES IDX 1 1 2 2 8 3 7 4 6 5 4 6 3 7 19 8 20 9 18 10 11 11 9 12 10 13
REMARK SMILES IDX 12 14 13 15 15 16 16 17 5 18 17 20 14 22
REMARK H PARENT 5 19 17 21 14 23
REMARK Flexibility Score: inf
ROOT
ATOM      1  C   UNL     1       2.849 -28.337  -0.200  1.00  0.00     0.044 C 
ATOM      2  C   UNL     1       3.494 -28.869   1.046  1.00  0.00    -0.047 A 
ATOM      3  C   UNL     1       4.841 -29.249   1.034  1.00  0.00     0.016 A 
ATOM      4  C   UNL     1       5.461 -29.722   2.202  1.00  0.00     0.038 A 
ATOM      5  C   UNL     1       4.722 -29.816   3.403  1.00  0.00     0.076 A 
ATOM      6  C   UNL     1       3.382 -29.350   3.428  1.00  0.00     0.127 A 
ATOM      7  C   UNL     1       2.780 -28.903   2.248  1.00  0.00     0.050 A 
ATOM      8  C   UNL     1       5.368 -30.458   4.577  1.00  0.00     0.201 C 
ATOM      9  O   UNL     1       4.663 -31.074   5.421  1.00  0.00    -0.288 OA
ATOM     10  C   UNL     1       6.850 -30.536   4.654  1.00  0.00     0.076 A 
ATOM     11  C   UNL     1       7.586 -30.438   3.452  1.00  0.00     0.041 A 
ATOM     12  C   UNL     1       6.890 -30.114   2.183  1.00  0.00     0.194 C 
ATOM     13  O   UNL     1       7.522 -30.150   1.090  1.00  0.00    -0.289 OA
ATOM     14  C   UNL     1       8.976 -30.643   3.465  1.00  0.00     0.059 A 
ATOM     15  C   UNL     1       9.640 -30.927   4.658  1.00  0.00     0.120 A 
ATOM     16  C   UNL     1       8.922 -30.986   5.856  1.00  0.00     0.093 A 
ATOM     17  C   UNL     1       7.541 -30.765   5.872  1.00  0.00     0.131 A 
ENDROOT
BRANCH   6  18
ATOM     18  O   UNL     1       2.630 -29.281   4.604  1.00  0.00    -0.507 OA
ATOM     19  H   UNL     1       1.908 -29.945   4.845  1.00  0.00     0.293 HD
ENDBRANCH   6  18
BRANCH  17  20
ATOM     20  O   UNL     1       6.907 -30.748   7.116  1.00  0.00    -0.507 OA
ATOM     21  H   UNL     1       6.037 -31.227   7.306  1.00  0.00     0.293 HD
ENDBRANCH  17  20
BRANCH  15  22
ATOM     22  O   UNL     1      11.017 -31.141   4.645  1.00  0.00    -0.508 OA
ATOM     23  H   UNL     1      11.664 -30.443   4.993  1.00  0.00     0.293 HD
ENDBRANCH  15  22
TORSDOF 3
ENDMDL
MODEL 7
REMARK VINA RESULT:    -7.134      1.590      2.315
REMARK INTER + INTRA:          -7.759
REMARK INTER:                  -7.759
REMARK INTRA:                   0.000
REMARK UNBOUND:                 0.000
REMARK SMILES Cc1cc(O)c2c(c1)C(=O)c1cc(O)cc(O)c1C2=O
REMARK SMILES IDX 1 1 2 2 8 3 7 4 6 5 4 6 3 7 19 8 20 9 18 10 11 11 9 12 10 13
REMARK SMILES IDX 12 14 13 15 15 16 16 17 5 18 17 20 14 22
REMARK H PARENT 5 19 17 21 14 23
REMARK Flexibility Score: inf
ROOT
ATOM      1  C   UNL     1       2.581 -26.952  -3.051  1.00  0.00     0.044 C 
ATOM      2  C   UNL     1       3.387 -27.603  -1.966  1.00  0.00    -0.047 A 
ATOM      3  C   UNL     1       2.812 -27.852  -0.715  1.00  0.00     0.016 A 
ATOM      4  C   UNL     1       3.550 -28.486   0.298  1.00  0.00     0.038 A 
ATOM      5  C   UNL     1       4.886 -28.879   0.055  1.00  0.00     0.076 A 
ATOM      6  C   UNL     1       5.434 -28.700  -1.241  1.00  0.00     0.127 A 
ATOM      7  C   UNL     1       4.687 -28.048  -2.227  1.00  0.00     0.050 A 
ATOM      8  C   UNL     1       5.679 -29.411   1.193  1.00  0.00     0.201 C 
ATOM      9  O   UNL     1       6.928 -29.239   1.221  1.00  0.00    -0.288 OA
ATOM     10  C   UNL     1       4.984 -29.974   2.380  1.00  0.00     0.076 A 
ATOM     11  C   UNL     1       3.647 -29.582   2.618  1.00  0.00     0.041 A 
ATOM     12  C   UNL     1       2.931 -28.754   1.618  1.00  0.00     0.194 C 
ATOM     13  O   UNL     1       1.784 -28.297   1.883  1.00  0.00    -0.289 OA
ATOM     14  C   UNL     1       3.002 -29.983   3.799  1.00  0.00     0.059 A 
ATOM     15  C   UNL     1       3.663 -30.779   4.734  1.00  0.00     0.120 A 
ATOM     16  C   UNL     1       4.971 -31.202   4.485  1.00  0.00     0.093 A 
ATOM     17  C   UNL     1       5.629 -30.834   3.306  1.00  0.00     0.131 A 
ENDROOT
BRANCH   6  18
ATOM     18  O   UNL     1       6.694 -29.185  -1.600  1.00  0.00    -0.507 OA
ATOM     19  H   UNL     1       7.290 -28.740  -2.284  1.00  0.00     0.293 HD
ENDBRANCH   6  18
BRANCH  17  20
ATOM     20  O   UNL     1       6.899 -31.370   3.084  1.00  0.00    -0.507 OA
ATOM     21  H   UNL     1       7.311 -31.468   2.166  1.00  0.00     0.293 HD
ENDBRANCH  17  20
BRANCH  15  22
ATOM     22  O   UNL     1       3.007 -31.153   5.905  1.00  0.00    -0.508 OA
ATOM     23  H   UNL     1       2.716 -32.109   6.067  1.00  0.00     0.293 HD
ENDBRANCH  15  22
TORSDOF 3
ENDMDL
MODEL 8
REMARK VINA RESULT:    -7.086      2.804      4.810
REMARK INTER + INTRA:          -7.708
REMARK INTER:                  -7.708
REMARK INTRA:                   0.000
REMARK UNBOUND:                 0.000
REMARK SMILES Cc1cc(O)c2c(c1)C(=O)c1cc(O)cc(O)c1C2=O
REMARK SMILES IDX 1 1 2 2 8 3 7 4 6 5 4 6 3 7 19 8 20 9 18 10 11 11 9 12 10 13
REMARK SMILES IDX 12 14 13 15 15 16 16 17 5 18 17 20 14 22
REMARK H PARENT 5 19 17 21 14 23
REMARK Flexibility Score: inf
ROOT
ATOM      1  C   UNL     1      -0.722 -26.179  -0.685  1.00  0.00     0.044 C 
ATOM      2  C   UNL     1       0.587 -26.866  -0.431  1.00  0.00    -0.047 A 
ATOM      3  C   UNL     1       1.603 -26.820  -1.393  1.00  0.00     0.016 A 
ATOM      4  C   UNL     1       2.842 -27.437  -1.154  1.00  0.00     0.038 A 
ATOM      5  C   UNL     1       3.070 -28.109   0.068  1.00  0.00     0.076 A 
ATOM      6  C   UNL     1       2.067 -28.079   1.072  1.00  0.00     0.127 A 
ATOM      7  C   UNL     1       0.834 -27.477   0.802  1.00  0.00     0.050 A 
ATOM      8  C   UNL     1       4.335 -28.873   0.225  1.00  0.00     0.201 C 
ATOM      9  O   UNL     1       4.362 -29.896   0.961  1.00  0.00    -0.288 OA
ATOM     10  C   UNL     1       5.507 -28.543  -0.627  1.00  0.00     0.076 A 
ATOM     11  C   UNL     1       5.276 -27.868  -1.847  1.00  0.00     0.041 A 
ATOM     12  C   UNL     1       3.916 -27.377  -2.173  1.00  0.00     0.194 C 
ATOM     13  O   UNL     1       3.679 -26.887  -3.313  1.00  0.00    -0.289 OA
ATOM     14  C   UNL     1       6.339 -27.659  -2.742  1.00  0.00     0.059 A 
ATOM     15  C   UNL     1       7.625 -28.100  -2.431  1.00  0.00     0.120 A 
ATOM     16  C   UNL     1       7.866 -28.733  -1.209  1.00  0.00     0.093 A 
ATOM     17  C   UNL     1       6.830 -28.933  -0.291  1.00  0.00     0.131 A 
ENDROOT
BRANCH   6  18
ATOM     18  O   UNL     1       2.266 -28.599   2.353  1.00  0.00    -0.507 OA
ATOM     19  H   UNL     1       3.089 -29.117   2.624  1.00  0.00     0.293 HD
ENDBRANCH   6  18
BRANCH  17  20
ATOM     20  O   UNL     1       7.163 -29.489   0.946  1.00  0.00    -0.507 OA
ATOM     21  H   UNL     1       7.614 -28.970   1.688  1.00  0.00     0.293 HD
ENDBRANCH  17  20
BRANCH  15  22
ATOM     22  O   UNL     1       8.661 -27.895  -3.340  1.00  0.00    -0.508 OA
ATOM     23  H   UNL     1       9.332 -28.624  -3.552  1.00  0.00     0.293 HD
ENDBRANCH  15  22
TORSDOF 3
ENDMDL
MODEL 9
REMARK VINA RESULT:    -6.880      1.394      6.226
REMARK INTER + INTRA:          -7.483
REMARK INTER:                  -7.483
REMARK INTRA:                   0.000
REMARK UNBOUND:                 0.000
REMARK SMILES Cc1cc(O)c2c(c1)C(=O)c1cc(O)cc(O)c1C2=O
REMARK SMILES IDX 1 1 2 2 8 3 7 4 6 5 4 6 3 7 19 8 20 9 18 10 11 11 9 12 10 13
REMARK SMILES IDX 12 14 13 15 15 16 16 17 5 18 17 20 14 22
REMARK H PARENT 5 19 17 21 14 23
REMARK Flexibility Score: inf
ROOT
ATOM      1  C   UNL     1       7.605 -32.542   5.778  1.00  0.00     0.044 C 
ATOM      2  C   UNL     1       6.546 -31.704   5.123  1.00  0.00    -0.047 A 
ATOM      3  C   UNL     1       6.744 -31.202   3.833  1.00  0.00     0.016 A 
ATOM      4  C   UNL     1       5.748 -30.441   3.200  1.00  0.00     0.038 A 
ATOM      5  C   UNL     1       4.532 -30.177   3.871  1.00  0.00     0.076 A 
ATOM      6  C   UNL     1       4.304 -30.760   5.145  1.00  0.00     0.127 A 
ATOM      7  C   UNL     1       5.320 -31.497   5.762  1.00  0.00     0.050 A 
ATOM      8  C   UNL     1       3.565 -29.247   3.233  1.00  0.00     0.201 C 
ATOM      9  O   UNL     1       2.803 -28.546   3.951  1.00  0.00    -0.288 OA
ATOM     10  C   UNL     1       3.628 -29.007   1.767  1.00  0.00     0.076 A 
ATOM     11  C   UNL     1       4.844 -29.275   1.099  1.00  0.00     0.041 A 
ATOM     12  C   UNL     1       5.961 -29.919   1.830  1.00  0.00     0.194 C 
ATOM     13  O   UNL     1       7.089 -30.045   1.274  1.00  0.00    -0.289 OA
ATOM     14  C   UNL     1       4.986 -28.934  -0.256  1.00  0.00     0.059 A 
ATOM     15  C   UNL     1       3.932 -28.347  -0.955  1.00  0.00     0.120 A 
ATOM     16  C   UNL     1       2.714 -28.117  -0.309  1.00  0.00     0.093 A 
ATOM     17  C   UNL     1       2.539 -28.467   1.034  1.00  0.00     0.131 A 
ENDROOT
BRANCH   6  18
ATOM     18  O   UNL     1       3.081 -30.662   5.811  1.00  0.00    -0.507 OA
ATOM     19  H   UNL     1       2.190 -30.849   5.373  1.00  0.00     0.293 HD
ENDBRANCH   6  18
BRANCH  17  20
ATOM     20  O   UNL     1       1.268 -28.292   1.585  1.00  0.00    -0.507 OA
ATOM     21  H   UNL     1       0.629 -27.563   1.296  1.00  0.00     0.293 HD
ENDBRANCH  17  20
BRANCH  15  22
ATOM     22  O   UNL     1       4.100 -28.004  -2.295  1.00  0.00    -0.508 OA
ATOM     23  H   UNL     1       3.333 -28.051  -2.954  1.00  0.00     0.293 HD
ENDBRANCH  15  22
TORSDOF 3
ENDMDL
