MODEL 1
REMARK VINA RESULT:    -3.512      0.000      0.000
REMARK INTER + INTRA:          -8.179
REMARK INTER:                  -6.593
REMARK INTRA:                  -1.586
REMARK UNBOUND:                -1.586
REMARK SMILES O=C([O-])CCCCCCCCCCCCCCC(=O)[O-]
REMARK SMILES IDX 10 1 9 2 8 3 7 4 6 5 5 6 4 7 2 8 1 9 3 10 11 11 12 12 13 13
REMARK SMILES IDX 14 14 15 15 16 16 17 17 18 18 19 19 20 20
REMARK H PARENT
REMARK Flexibility Score: inf
ROOT
ATOM      1  C   UNL     1      49.734  48.970  13.618  1.00  0.00     0.000 C 
ENDROOT
BRANCH   1   2
ATOM      2  C   UNL     1      50.747  48.610  14.717  1.00  0.00     0.000 C 
BRANCH   2   3
ATOM      3  C   UNL     1      51.754  47.570  14.214  1.00  0.00     0.000 C 
BRANCH   3   4
ATOM      4  C   UNL     1      51.047  46.271  13.803  1.00  0.00     0.000 C 
BRANCH   4   5
ATOM      5  C   UNL     1      50.883  45.283  14.970  1.00  0.00     0.000 C 
BRANCH   5   6
ATOM      6  C   UNL     1      49.490  44.620  15.028  1.00  0.00     0.006 C 
BRANCH   6   7
ATOM      7  C   UNL     1      48.382  45.628  15.362  1.00  0.00     0.053 C 
BRANCH   7   8
ATOM      8  C   UNL     1      47.066  44.931  15.505  1.00  0.00     0.041 C 
ATOM      9  O   UNL     1      46.255  45.287  16.401  1.00  0.00    -0.550 OA
ATOM     10  O   UNL     1      46.714  43.922  14.619  1.00  0.00    -0.550 OA
ENDBRANCH   7   8
ENDBRANCH   6   7
ENDBRANCH   5   6
ENDBRANCH   4   5
ENDBRANCH   3   4
ENDBRANCH   2   3
ENDBRANCH   1   2
BRANCH   1  11
ATOM     11  C   UNL     1      50.108  50.255  12.862  1.00  0.00     0.000 C 
BRANCH  11  12
ATOM     12  C   UNL     1      50.584  49.976  11.425  1.00  0.00     0.000 C 
BRANCH  12  13
ATOM     13  C   UNL     1      52.073  50.302  11.223  1.00  0.00     0.000 C 
BRANCH  13  14
ATOM     14  C   UNL     1      52.735  50.860  12.495  1.00  0.00     0.000 C 
BRANCH  14  15
ATOM     15  C   UNL     1      54.251  50.610  12.530  1.00  0.00     0.000 C 
BRANCH  15  16
ATOM     16  C   UNL     1      54.661  49.595  13.612  1.00  0.00     0.006 C 
BRANCH  16  17
ATOM     17  C   UNL     1      56.133  49.182  13.490  1.00  0.00     0.053 C 
BRANCH  17  18
ATOM     18  C   UNL     1      56.300  47.694  13.563  1.00  0.00     0.041 C 
ATOM     19  O   UNL     1      55.290  46.944  13.617  1.00  0.00    -0.550 OA
ATOM     20  O   UNL     1      57.572  47.140  13.604  1.00  0.00    -0.550 OA
ENDBRANCH  17  18
ENDBRANCH  16  17
ENDBRANCH  15  16
ENDBRANCH  14  15
ENDBRANCH  13  14
ENDBRANCH  12  13
ENDBRANCH  11  12
ENDBRANCH   1  11
TORSDOF 15
ENDMDL
MODEL 2
REMARK VINA RESULT:    -3.508      3.268      8.793
REMARK INTER + INTRA:          -8.171
REMARK INTER:                  -7.090
REMARK INTRA:                  -1.081
REMARK UNBOUND:                -1.586
REMARK SMILES O=C([O-])CCCCCCCCCCCCCCC(=O)[O-]
REMARK SMILES IDX 10 1 9 2 8 3 7 4 6 5 5 6 4 7 2 8 1 9 3 10 11 11 12 12 13 13
REMARK SMILES IDX 14 14 15 15 16 16 17 17 18 18 19 19 20 20
REMARK H PARENT
REMARK Flexibility Score: inf
ROOT
ATOM      1  C   UNL     1      50.134  44.810  15.482  1.00  0.00     0.000 C 
ENDROOT
BRANCH   1   2
ATOM      2  C   UNL     1      50.572  45.840  14.429  1.00  0.00     0.000 C 
BRANCH   2   3
ATOM      3  C   UNL     1      51.874  46.533  14.848  1.00  0.00     0.000 C 
BRANCH   3   4
ATOM      4  C   UNL     1      51.977  47.933  14.228  1.00  0.00     0.000 C 
BRANCH   4   5
ATOM      5  C   UNL     1      52.032  47.906  12.691  1.00  0.00     0.000 C 
BRANCH   5   6
ATOM      6  C   UNL     1      52.167  49.305  12.052  1.00  0.00     0.006 C 
BRANCH   6   7
ATOM      7  C   UNL     1      50.894  49.726  11.305  1.00  0.00     0.053 C 
BRANCH   7   8
ATOM      8  C   UNL     1      51.157  49.822   9.835  1.00  0.00     0.041 C 
ATOM      9  O   UNL     1      52.338  49.931   9.409  1.00  0.00    -0.550 OA
ATOM     10  O   UNL     1      50.104  49.741   8.934  1.00  0.00    -0.550 OA
ENDBRANCH   7   8
ENDBRANCH   6   7
ENDBRANCH   5   6
ENDBRANCH   4   5
ENDBRANCH   3   4
ENDBRANCH   2   3
ENDBRANCH   1   2
BRANCH   1  11
ATOM     11  C   UNL     1      48.947  43.952  15.018  1.00  0.00     0.000 C 
BRANCH  11  12
ATOM     12  C   UNL     1      47.588  44.588  15.363  1.00  0.00     0.000 C 
BRANCH  12  13
ATOM     13  C   UNL     1      46.400  43.728  14.904  1.00  0.00     0.000 C 
BRANCH  13  14
ATOM     14  C   UNL     1      46.842  42.457  14.158  1.00  0.00     0.000 C 
BRANCH  14  15
ATOM     15  C   UNL     1      46.359  41.170  14.847  1.00  0.00     0.000 C 
BRANCH  15  16
ATOM     16  C   UNL     1      45.600  41.448  16.158  1.00  0.00     0.006 C 
BRANCH  16  17
ATOM     17  C   UNL     1      46.284  40.801  17.369  1.00  0.00     0.053 C 
BRANCH  17  18
ATOM     18  C   UNL     1      47.509  41.558  17.784  1.00  0.00     0.041 C 
ATOM     19  O   UNL     1      48.654  41.108  17.518  1.00  0.00    -0.550 OA
ATOM     20  O   UNL     1      47.384  42.745  18.494  1.00  0.00    -0.550 OA
ENDBRANCH  17  18
ENDBRANCH  16  17
ENDBRANCH  15  16
ENDBRANCH  14  15
ENDBRANCH  13  14
ENDBRANCH  12  13
ENDBRANCH  11  12
ENDBRANCH   1  11
TORSDOF 15
ENDMDL
MODEL 3
REMARK VINA RESULT:    -3.480      4.104      6.122
REMARK INTER + INTRA:          -8.118
REMARK INTER:                  -6.421
REMARK INTRA:                  -1.696
REMARK UNBOUND:                -1.586
REMARK SMILES O=C([O-])CCCCCCCCCCCCCCC(=O)[O-]
REMARK SMILES IDX 10 1 9 2 8 3 7 4 6 5 5 6 4 7 2 8 1 9 3 10 11 11 12 12 13 13
REMARK SMILES IDX 14 14 15 15 16 16 17 17 18 18 19 19 20 20
REMARK H PARENT
REMARK Flexibility Score: inf
ROOT
ATOM      1  C   UNL     1      54.514  49.494  14.437  1.00  0.00     0.000 C 
ENDROOT
BRANCH   1   2
ATOM      2  C   UNL     1      53.502  48.366  14.689  1.00  0.00     0.000 C 
BRANCH   2   3
ATOM      3  C   UNL     1      53.418  47.426  13.481  1.00  0.00     0.000 C 
BRANCH   3   4
ATOM      4  C   UNL     1      52.015  47.453  12.858  1.00  0.00     0.000 C 
BRANCH   4   5
ATOM      5  C   UNL     1      51.095  48.506  13.497  1.00  0.00     0.000 C 
BRANCH   5   6
ATOM      6  C   UNL     1      50.549  49.542  12.492  1.00  0.00     0.006 C 
BRANCH   6   7
ATOM      7  C   UNL     1      51.670  50.358  11.833  1.00  0.00     0.053 C 
BRANCH   7   8
ATOM      8  C   UNL     1      51.550  50.304  10.343  1.00  0.00     0.041 C 
ATOM      9  O   UNL     1      52.359  49.614   9.668  1.00  0.00    -0.550 OA
ATOM     10  O   UNL     1      50.517  50.975   9.703  1.00  0.00    -0.550 OA
ENDBRANCH   7   8
ENDBRANCH   6   7
ENDBRANCH   5   6
ENDBRANCH   4   5
ENDBRANCH   3   4
ENDBRANCH   2   3
ENDBRANCH   1   2
BRANCH   1  11
ATOM     11  C   UNL     1      55.474  49.184  13.277  1.00  0.00     0.000 C 
BRANCH  11  12
ATOM     12  C   UNL     1      56.876  48.777  13.763  1.00  0.00     0.000 C 
BRANCH  12  13
ATOM     13  C   UNL     1      57.238  47.332  13.381  1.00  0.00     0.000 C 
BRANCH  13  14
ATOM     14  C   UNL     1      56.920  46.326  14.501  1.00  0.00     0.000 C 
BRANCH  14  15
ATOM     15  C   UNL     1      57.399  46.809  15.880  1.00  0.00     0.000 C 
BRANCH  15  16
ATOM     16  C   UNL     1      58.190  45.731  16.644  1.00  0.00     0.006 C 
BRANCH  16  17
ATOM     17  C   UNL     1      57.960  44.329  16.067  1.00  0.00     0.053 C 
BRANCH  17  18
ATOM     18  C   UNL     1      57.124  43.484  16.979  1.00  0.00     0.041 C 
ATOM     19  O   UNL     1      55.955  43.155  16.646  1.00  0.00    -0.550 OA
ATOM     20  O   UNL     1      57.625  43.087  18.212  1.00  0.00    -0.550 OA
ENDBRANCH  17  18
ENDBRANCH  16  17
ENDBRANCH  15  16
ENDBRANCH  14  15
ENDBRANCH  13  14
ENDBRANCH  12  13
ENDBRANCH  11  12
ENDBRANCH   1  11
TORSDOF 15
ENDMDL
MODEL 4
REMARK VINA RESULT:    -3.372      2.469      5.176
REMARK INTER + INTRA:          -7.916
REMARK INTER:                  -5.837
REMARK INTRA:                  -2.079
REMARK UNBOUND:                -1.586
REMARK SMILES O=C([O-])CCCCCCCCCCCCCCC(=O)[O-]
REMARK SMILES IDX 10 1 9 2 8 3 7 4 6 5 5 6 4 7 2 8 1 9 3 10 11 11 12 12 13 13
REMARK SMILES IDX 14 14 15 15 16 16 17 17 18 18 19 19 20 20
REMARK H PARENT
REMARK Flexibility Score: inf
ROOT
ATOM      1  C   UNL     1      48.914  43.969  15.030  1.00  0.00     0.000 C 
ENDROOT
BRANCH   1   2
ATOM      2  C   UNL     1      47.607  44.751  15.232  1.00  0.00     0.000 C 
BRANCH   2   3
ATOM      3  C   UNL     1      46.396  43.915  14.801  1.00  0.00     0.000 C 
BRANCH   3   4
ATOM      4  C   UNL     1      46.827  42.515  14.345  1.00  0.00     0.000 C 
BRANCH   4   5
ATOM      5  C   UNL     1      46.169  41.389  15.161  1.00  0.00     0.000 C 
BRANCH   5   6
ATOM      6  C   UNL     1      46.865  41.115  16.510  1.00  0.00     0.006 C 
BRANCH   6   7
ATOM      7  C   UNL     1      46.068  41.673  17.698  1.00  0.00     0.053 C 
BRANCH   7   8
ATOM      8  C   UNL     1      46.832  42.768  18.373  1.00  0.00     0.041 C 
ATOM      9  O   UNL     1      46.365  43.937  18.408  1.00  0.00    -0.550 OA
ATOM     10  O   UNL     1      48.035  42.487  19.007  1.00  0.00    -0.550 OA
ENDBRANCH   7   8
ENDBRANCH   6   7
ENDBRANCH   5   6
ENDBRANCH   4   5
ENDBRANCH   3   4
ENDBRANCH   2   3
ENDBRANCH   1   2
BRANCH   1  11
ATOM     11  C   UNL     1      49.789  43.936  16.293  1.00  0.00     0.000 C 
BRANCH  11  12
ATOM     12  C   UNL     1      49.716  45.248  17.095  1.00  0.00     0.000 C 
BRANCH  12  13
ATOM     13  C   UNL     1      50.699  46.311  16.579  1.00  0.00     0.000 C 
BRANCH  13  14
ATOM     14  C   UNL     1      49.986  47.541  15.990  1.00  0.00     0.000 C 
BRANCH  14  15
ATOM     15  C   UNL     1      50.153  47.646  14.465  1.00  0.00     0.000 C 
BRANCH  15  16
ATOM     16  C   UNL     1      51.181  46.643  13.911  1.00  0.00     0.006 C 
BRANCH  16  17
ATOM     17  C   UNL     1      52.118  47.286  12.881  1.00  0.00     0.053 C 
BRANCH  17  18
ATOM     18  C   UNL     1      53.342  47.860  13.527  1.00  0.00     0.041 C 
ATOM     19  O   UNL     1      53.356  49.061  13.905  1.00  0.00    -0.550 OA
ATOM     20  O   UNL     1      54.478  47.077  13.682  1.00  0.00    -0.550 OA
ENDBRANCH  17  18
ENDBRANCH  16  17
ENDBRANCH  15  16
ENDBRANCH  14  15
ENDBRANCH  13  14
ENDBRANCH  12  13
ENDBRANCH  11  12
ENDBRANCH   1  11
TORSDOF 15
ENDMDL
MODEL 5
REMARK VINA RESULT:    -3.319      1.174      7.554
REMARK INTER + INTRA:          -7.815
REMARK INTER:                  -6.066
REMARK INTRA:                  -1.750
REMARK UNBOUND:                -1.586
REMARK SMILES O=C([O-])CCCCCCCCCCCCCCC(=O)[O-]
REMARK SMILES IDX 10 1 9 2 8 3 7 4 6 5 5 6 4 7 2 8 1 9 3 10 11 11 12 12 13 13
REMARK SMILES IDX 14 14 15 15 16 16 17 17 18 18 19 19 20 20
REMARK H PARENT
REMARK Flexibility Score: inf
ROOT
ATOM      1  C   UNL     1      50.505  49.333  14.894  1.00  0.00     0.000 C 
ENDROOT
BRANCH   1   2
ATOM      2  C   UNL     1      49.866  49.244  13.500  1.00  0.00     0.000 C 
BRANCH   2   3
ATOM      3  C   UNL     1      50.252  50.455  12.642  1.00  0.00     0.000 C 
BRANCH   3   4
ATOM      4  C   UNL     1      50.966  50.015  11.357  1.00  0.00     0.000 C 
BRANCH   4   5
ATOM      5  C   UNL     1      51.992  48.894  11.594  1.00  0.00     0.000 C 
BRANCH   5   6
ATOM      6  C   UNL     1      53.328  49.393  12.182  1.00  0.00     0.006 C 
BRANCH   6   7
ATOM      7  C   UNL     1      53.770  48.569  13.400  1.00  0.00     0.053 C 
BRANCH   7   8
ATOM      8  C   UNL     1      55.242  48.304  13.346  1.00  0.00     0.041 C 
ATOM      9  O   UNL     1      55.673  47.120  13.360  1.00  0.00    -0.550 OA
ATOM     10  O   UNL     1      56.135  49.361  13.231  1.00  0.00    -0.550 OA
ENDBRANCH   7   8
ENDBRANCH   6   7
ENDBRANCH   5   6
ENDBRANCH   4   5
ENDBRANCH   3   4
ENDBRANCH   2   3
ENDBRANCH   1   2
BRANCH   1  11
ATOM     11  C   UNL     1      50.256  48.076  15.744  1.00  0.00     0.000 C 
BRANCH  11  12
ATOM     12  C   UNL     1      51.559  47.339  16.103  1.00  0.00     0.000 C 
BRANCH  12  13
ATOM     13  C   UNL     1      51.758  46.057  15.279  1.00  0.00     0.000 C 
BRANCH  13  14
ATOM     14  C   UNL     1      50.534  45.715  14.411  1.00  0.00     0.000 C 
BRANCH  14  15
ATOM     15  C   UNL     1      49.854  44.405  14.841  1.00  0.00     0.000 C 
BRANCH  15  16
ATOM     16  C   UNL     1      48.857  44.606  15.997  1.00  0.00     0.006 C 
BRANCH  16  17
ATOM     17  C   UNL     1      47.626  45.413  15.565  1.00  0.00     0.053 C 
BRANCH  17  18
ATOM     18  C   UNL     1      46.439  44.529  15.327  1.00  0.00     0.041 C 
ATOM     19  O   UNL     1      45.346  44.767  15.904  1.00  0.00    -0.550 OA
ATOM     20  O   UNL     1      46.552  43.424  14.494  1.00  0.00    -0.550 OA
ENDBRANCH  17  18
ENDBRANCH  16  17
ENDBRANCH  15  16
ENDBRANCH  14  15
ENDBRANCH  13  14
ENDBRANCH  12  13
ENDBRANCH  11  12
ENDBRANCH   1  11
TORSDOF 15
ENDMDL
MODEL 6
REMARK VINA RESULT:    -3.310      3.975      7.467
REMARK INTER + INTRA:          -7.798
REMARK INTER:                  -5.435
REMARK INTRA:                  -2.363
REMARK UNBOUND:                -1.586
REMARK SMILES O=C([O-])CCCCCCCCCCCCCCC(=O)[O-]
REMARK SMILES IDX 10 1 9 2 8 3 7 4 6 5 5 6 4 7 2 8 1 9 3 10 11 11 12 12 13 13
REMARK SMILES IDX 14 14 15 15 16 16 17 17 18 18 19 19 20 20
REMARK H PARENT
REMARK Flexibility Score: inf
ROOT
ATOM      1  C   UNL     1      46.333  40.207  16.085  1.00  0.00     0.000 C 
ENDROOT
BRANCH   1   2
ATOM      2  C   UNL     1      46.093  40.495  17.575  1.00  0.00     0.000 C 
BRANCH   2   3
ATOM      3  C   UNL     1      47.165  41.441  18.129  1.00  0.00     0.000 C 
BRANCH   3   4
ATOM      4  C   UNL     1      46.531  42.571  18.952  1.00  0.00     0.000 C 
BRANCH   4   5
ATOM      5  C   UNL     1      45.141  42.981  18.437  1.00  0.00     0.000 C 
BRANCH   5   6
ATOM      6  C   UNL     1      45.011  44.490  18.142  1.00  0.00     0.006 C 
BRANCH   6   7
ATOM      7  C   UNL     1      46.334  45.239  18.359  1.00  0.00     0.053 C 
BRANCH   7   8
ATOM      8  C   UNL     1      46.284  46.587  17.713  1.00  0.00     0.041 C 
ATOM      9  O   UNL     1      47.292  47.035  17.104  1.00  0.00    -0.550 OA
ATOM     10  O   UNL     1      45.111  47.329  17.741  1.00  0.00    -0.550 OA
ENDBRANCH   7   8
ENDBRANCH   6   7
ENDBRANCH   5   6
ENDBRANCH   4   5
ENDBRANCH   3   4
ENDBRANCH   2   3
ENDBRANCH   1   2
BRANCH   1  11
ATOM     11  C   UNL     1      45.649  41.231  15.164  1.00  0.00     0.000 C 
BRANCH  11  12
ATOM     12  C   UNL     1      46.653  42.191  14.500  1.00  0.00     0.000 C 
BRANCH  12  13
ATOM     13  C   UNL     1      46.413  43.658  14.892  1.00  0.00     0.000 C 
BRANCH  13  14
ATOM     14  C   UNL     1      47.711  44.484  14.913  1.00  0.00     0.000 C 
BRANCH  14  15
ATOM     15  C   UNL     1      48.778  43.882  15.842  1.00  0.00     0.000 C 
BRANCH  15  16
ATOM     16  C   UNL     1      50.100  44.672  15.818  1.00  0.00     0.006 C 
BRANCH  16  17
ATOM     17  C   UNL     1      50.296  45.429  14.498  1.00  0.00     0.053 C 
BRANCH  17  18
ATOM     18  C   UNL     1      50.439  46.904  14.721  1.00  0.00     0.041 C 
ATOM     19  O   UNL     1      51.532  47.382  15.124  1.00  0.00    -0.550 OA
ATOM     20  O   UNL     1      49.354  47.746  14.514  1.00  0.00    -0.550 OA
ENDBRANCH  17  18
ENDBRANCH  16  17
ENDBRANCH  15  16
ENDBRANCH  14  15
ENDBRANCH  13  14
ENDBRANCH  12  13
ENDBRANCH  11  12
ENDBRANCH   1  11
TORSDOF 15
ENDMDL
MODEL 7
REMARK VINA RESULT:    -3.298     13.687     15.858
REMARK INTER + INTRA:          -7.775
REMARK INTER:                  -5.424
REMARK INTRA:                  -2.351
REMARK UNBOUND:                -1.586
REMARK SMILES O=C([O-])CCCCCCCCCCCCCCC(=O)[O-]
REMARK SMILES IDX 10 1 9 2 8 3 7 4 6 5 5 6 4 7 2 8 1 9 3 10 11 11 12 12 13 13
REMARK SMILES IDX 14 14 15 15 16 16 17 17 18 18 19 19 20 20
REMARK H PARENT
REMARK Flexibility Score: inf
ROOT
ATOM      1  C   UNL     1      58.475  31.440  13.046  1.00  0.00     0.000 C 
ENDROOT
BRANCH   1   2
ATOM      2  C   UNL     1      57.404  32.322  12.386  1.00  0.00     0.000 C 
BRANCH   2   3
ATOM      3  C   UNL     1      56.553  33.034  13.443  1.00  0.00     0.000 C 
BRANCH   3   4
ATOM      4  C   UNL     1      56.948  34.512  13.565  1.00  0.00     0.000 C 
BRANCH   4   5
ATOM      5  C   UNL     1      56.951  35.246  12.212  1.00  0.00     0.000 C 
BRANCH   5   6
ATOM      6  C   UNL     1      56.005  36.465  12.168  1.00  0.00     0.006 C 
BRANCH   6   7
ATOM      7  C   UNL     1      54.555  36.087  12.501  1.00  0.00     0.053 C 
BRANCH   7   8
ATOM      8  C   UNL     1      54.044  36.919  13.634  1.00  0.00     0.041 C 
ATOM      9  O   UNL     1      54.785  37.172  14.620  1.00  0.00    -0.550 OA
ATOM     10  O   UNL     1      52.765  37.458  13.578  1.00  0.00    -0.550 OA
ENDBRANCH   7   8
ENDBRANCH   6   7
ENDBRANCH   5   6
ENDBRANCH   4   5
ENDBRANCH   3   4
ENDBRANCH   2   3
ENDBRANCH   1   2
BRANCH   1  11
ATOM     11  C   UNL     1      59.905  31.838  12.642  1.00  0.00     0.000 C 
BRANCH  11  12
ATOM     12  C   UNL     1      59.945  33.139  11.822  1.00  0.00     0.000 C 
BRANCH  12  13
ATOM     13  C   UNL     1      60.556  34.312  12.607  1.00  0.00     0.000 C 
BRANCH  13  14
ATOM     14  C   UNL     1      61.164  33.873  13.950  1.00  0.00     0.000 C 
BRANCH  14  15
ATOM     15  C   UNL     1      60.365  34.392  15.157  1.00  0.00     0.000 C 
BRANCH  15  16
ATOM     16  C   UNL     1      60.107  33.301  16.212  1.00  0.00     0.006 C 
BRANCH  16  17
ATOM     17  C   UNL     1      58.617  33.164  16.549  1.00  0.00     0.053 C 
BRANCH  17  18
ATOM     18  C   UNL     1      58.309  31.835  17.170  1.00  0.00     0.041 C 
ATOM     19  O   UNL     1      57.918  30.875  16.454  1.00  0.00    -0.550 OA
ATOM     20  O   UNL     1      58.422  31.668  18.544  1.00  0.00    -0.550 OA
ENDBRANCH  17  18
ENDBRANCH  16  17
ENDBRANCH  15  16
ENDBRANCH  14  15
ENDBRANCH  13  14
ENDBRANCH  12  13
ENDBRANCH  11  12
ENDBRANCH   1  11
TORSDOF 15
ENDMDL
MODEL 8
REMARK VINA RESULT:    -3.284     13.214     15.578
REMARK INTER + INTRA:          -7.749
REMARK INTER:                  -5.343
REMARK INTRA:                  -2.406
REMARK UNBOUND:                -1.586
REMARK SMILES O=C([O-])CCCCCCCCCCCCCCC(=O)[O-]
REMARK SMILES IDX 10 1 9 2 8 3 7 4 6 5 5 6 4 7 2 8 1 9 3 10 11 11 12 12 13 13
REMARK SMILES IDX 14 14 15 15 16 16 17 17 18 18 19 19 20 20
REMARK H PARENT
REMARK Flexibility Score: inf
ROOT
ATOM      1  C   UNL     1      59.970  32.783  12.034  1.00  0.00     0.000 C 
ENDROOT
BRANCH   1   2
ATOM      2  C   UNL     1      58.730  32.730  11.127  1.00  0.00     0.000 C 
BRANCH   2   3
ATOM      3  C   UNL     1      57.528  33.398  11.805  1.00  0.00     0.000 C 
BRANCH   3   4
ATOM      4  C   UNL     1      57.092  32.616  13.051  1.00  0.00     0.000 C 
BRANCH   4   5
ATOM      5  C   UNL     1      56.874  33.516  14.279  1.00  0.00     0.000 C 
BRANCH   5   6
ATOM      6  C   UNL     1      56.985  35.023  13.968  1.00  0.00     0.006 C 
BRANCH   6   7
ATOM      7  C   UNL     1      55.696  35.783  14.311  1.00  0.00     0.053 C 
BRANCH   7   8
ATOM      8  C   UNL     1      55.130  36.433  13.089  1.00  0.00     0.041 C 
ATOM      9  O   UNL     1      55.813  36.497  12.032  1.00  0.00    -0.550 OA
ATOM     10  O   UNL     1      53.832  36.925  13.101  1.00  0.00    -0.550 OA
ENDBRANCH   7   8
ENDBRANCH   6   7
ENDBRANCH   5   6
ENDBRANCH   4   5
ENDBRANCH   3   4
ENDBRANCH   2   3
ENDBRANCH   1   2
BRANCH   1  11
ATOM     11  C   UNL     1      60.449  34.218  12.303  1.00  0.00     0.000 C 
BRANCH  11  12
ATOM     12  C   UNL     1      60.686  34.490  13.800  1.00  0.00     0.000 C 
BRANCH  12  13
ATOM     13  C   UNL     1      60.739  33.199  14.633  1.00  0.00     0.000 C 
BRANCH  13  14
ATOM     14  C   UNL     1      60.692  33.470  16.147  1.00  0.00     0.000 C 
BRANCH  14  15
ATOM     15  C   UNL     1      59.375  33.002  16.788  1.00  0.00     0.000 C 
BRANCH  15  16
ATOM     16  C   UNL     1      58.877  33.959  17.886  1.00  0.00     0.006 C 
BRANCH  16  17
ATOM     17  C   UNL     1      58.387  35.294  17.309  1.00  0.00     0.053 C 
BRANCH  17  18
ATOM     18  C   UNL     1      56.993  35.613  17.756  1.00  0.00     0.041 C 
ATOM     19  O   UNL     1      56.519  36.766  17.580  1.00  0.00    -0.550 OA
ATOM     20  O   UNL     1      56.231  34.646  18.397  1.00  0.00    -0.550 OA
ENDBRANCH  17  18
ENDBRANCH  16  17
ENDBRANCH  15  16
ENDBRANCH  14  15
ENDBRANCH  13  14
ENDBRANCH  12  13
ENDBRANCH  11  12
ENDBRANCH   1  11
TORSDOF 15
ENDMDL
MODEL 9
REMARK VINA RESULT:    -3.260      2.240      4.173
REMARK INTER + INTRA:          -7.705
REMARK INTER:                  -5.482
REMARK INTRA:                  -2.223
REMARK UNBOUND:                -1.586
REMARK SMILES O=C([O-])CCCCCCCCCCCCCCC(=O)[O-]
REMARK SMILES IDX 10 1 9 2 8 3 7 4 6 5 5 6 4 7 2 8 1 9 3 10 11 11 12 12 13 13
REMARK SMILES IDX 14 14 15 15 16 16 17 17 18 18 19 19 20 20
REMARK H PARENT
REMARK Flexibility Score: inf
ROOT
ATOM      1  C   UNL     1      52.366  46.093  17.348  1.00  0.00     0.000 C 
ENDROOT
BRANCH   1   2
ATOM      2  C   UNL     1      53.034  44.973  16.536  1.00  0.00     0.000 C 
BRANCH   2   3
ATOM      3  C   UNL     1      52.070  43.800  16.325  1.00  0.00     0.000 C 
BRANCH   3   4
ATOM      4  C   UNL     1      50.693  44.102  16.931  1.00  0.00     0.000 C 
BRANCH   4   5
ATOM      5  C   UNL     1      49.557  43.303  16.268  1.00  0.00     0.000 C 
BRANCH   5   6
ATOM      6  C   UNL     1      48.930  44.014  15.051  1.00  0.00     0.006 C 
BRANCH   6   7
ATOM      7  C   UNL     1      47.510  44.518  15.342  1.00  0.00     0.053 C 
BRANCH   7   8
ATOM      8  C   UNL     1      46.495  43.522  14.878  1.00  0.00     0.041 C 
ATOM      9  O   UNL     1      46.834  42.584  14.109  1.00  0.00    -0.550 OA
ATOM     10  O   UNL     1      45.185  43.600  15.333  1.00  0.00    -0.550 OA
ENDBRANCH   7   8
ENDBRANCH   6   7
ENDBRANCH   5   6
ENDBRANCH   4   5
ENDBRANCH   3   4
ENDBRANCH   2   3
ENDBRANCH   1   2
BRANCH   1  11
ATOM     11  C   UNL     1      52.666  47.493  16.788  1.00  0.00     0.000 C 
BRANCH  11  12
ATOM     12  C   UNL     1      51.389  48.320  16.551  1.00  0.00     0.000 C 
BRANCH  12  13
ATOM     13  C   UNL     1      50.219  47.465  16.037  1.00  0.00     0.000 C 
BRANCH  13  14
ATOM     14  C   UNL     1      50.108  47.475  14.503  1.00  0.00     0.000 C 
BRANCH  14  15
ATOM     15  C   UNL     1      51.089  46.498  13.835  1.00  0.00     0.000 C 
BRANCH  15  16
ATOM     16  C   UNL     1      52.171  47.216  13.007  1.00  0.00     0.006 C 
BRANCH  16  17
ATOM     17  C   UNL     1      51.749  48.638  12.615  1.00  0.00     0.053 C 
BRANCH  17  18
ATOM     18  C   UNL     1      52.841  49.631  12.870  1.00  0.00     0.041 C 
ATOM     19  O   UNL     1      53.061  50.558  12.047  1.00  0.00    -0.550 OA
ATOM     20  O   UNL     1      53.638  49.511  14.001  1.00  0.00    -0.550 OA
ENDBRANCH  17  18
ENDBRANCH  16  17
ENDBRANCH  15  16
ENDBRANCH  14  15
ENDBRANCH  13  14
ENDBRANCH  12  13
ENDBRANCH  11  12
ENDBRANCH   1  11
TORSDOF 15
ENDMDL
