MODEL 1
REMARK VINA RESULT:    -6.332      0.000      0.000
REMARK INTER + INTRA:          -9.444
REMARK INTER:                  -8.553
REMARK INTRA:                  -0.891
REMARK UNBOUND:                -0.891
REMARK SMILES CC(=O)CCC=C(C)CCC=C(C)C
REMARK SMILES IDX 7 1 6 2 8 3 9 4 10 5 11 6 13 7 12 8 14 9 5 10 4 11 2 12 3 13
REMARK SMILES IDX 1 14
REMARK H PARENT
REMARK Flexibility Score: inf
ROOT
ATOM      1  C   UNL     1     -10.153  74.782  32.180  1.00  0.00    -0.077 C 
ATOM      2  C   UNL     1     -10.284  73.535  32.688  1.00  0.00    -0.028 C 
ATOM      3  C   UNL     1     -10.950  75.950  32.714  1.00  0.00     0.039 C 
ENDROOT
BRANCH   1   4
ATOM      4  C   UNL     1      -9.165  75.019  31.059  1.00  0.00     0.034 C 
BRANCH   4   5
ATOM      5  C   UNL     1      -9.476  74.118  29.859  1.00  0.00     0.032 C 
BRANCH   5   6
ATOM      6  C   UNL     1     -10.794  74.497  29.232  1.00  0.00    -0.028 C 
ATOM      7  C   UNL     1     -11.857  72.288  29.746  1.00  0.00     0.039 C 
ATOM      8  C   UNL     1     -11.862  73.672  29.146  1.00  0.00    -0.080 C 
ATOM      9  C   UNL     1     -13.124  74.146  28.471  1.00  0.00     0.039 C 
ENDBRANCH   5   6
ENDBRANCH   4   5
ENDBRANCH   1   4
BRANCH   2  10
ATOM     10  C   UNL     1     -11.253  73.155  33.779  1.00  0.00     0.035 C 
BRANCH  10  11
ATOM     11  C   UNL     1     -10.555  72.328  34.862  1.00  0.00     0.079 C 
BRANCH  11  12
ATOM     12  C   UNL     1     -10.752  72.948  36.218  1.00  0.00     0.130 C 
ATOM     13  O   UNL     1     -10.465  74.123  36.395  1.00  0.00    -0.300 OA
ATOM     14  C   UNL     1     -11.317  72.142  37.348  1.00  0.00     0.087 C 
ENDBRANCH  11  12
ENDBRANCH  10  11
ENDBRANCH   2  10
TORSDOF 6
ENDMDL
MODEL 2
REMARK VINA RESULT:    -6.161      3.851      7.157
REMARK INTER + INTRA:          -9.212
REMARK INTER:                  -8.350
REMARK INTRA:                  -0.862
REMARK UNBOUND:                -0.891
REMARK SMILES CC(=O)CCC=C(C)CCC=C(C)C
REMARK SMILES IDX 7 1 6 2 8 3 9 4 10 5 11 6 13 7 12 8 14 9 5 10 4 11 2 12 3 13
REMARK SMILES IDX 1 14
REMARK H PARENT
REMARK Flexibility Score: inf
ROOT
ATOM      1  C   UNL     1     -11.537  73.288  29.075  1.00  0.00    -0.077 C 
ATOM      2  C   UNL     1     -10.338  73.462  28.473  1.00  0.00    -0.028 C 
ATOM      3  C   UNL     1     -12.744  74.118  28.704  1.00  0.00     0.039 C 
ENDROOT
BRANCH   1   4
ATOM      4  C   UNL     1     -11.679  72.220  30.137  1.00  0.00     0.034 C 
BRANCH   4   5
ATOM      5  C   UNL     1     -10.774  72.521  31.336  1.00  0.00     0.032 C 
BRANCH   5   6
ATOM      6  C   UNL     1     -11.207  73.787  32.031  1.00  0.00    -0.028 C 
ATOM      7  C   UNL     1      -9.149  75.047  31.362  1.00  0.00     0.039 C 
ATOM      8  C   UNL     1     -10.471  74.920  32.077  1.00  0.00    -0.080 C 
ATOM      9  C   UNL     1     -10.989  76.122  32.826  1.00  0.00     0.039 C 
ENDBRANCH   5   6
ENDBRANCH   4   5
ENDBRANCH   1   4
BRANCH   2  10
ATOM     10  C   UNL     1     -10.051  74.509  27.428  1.00  0.00     0.035 C 
BRANCH  10  11
ATOM     11  C   UNL     1      -9.080  73.972  26.372  1.00  0.00     0.079 C 
BRANCH  11  12
ATOM     12  C   UNL     1      -9.716  73.979  25.008  1.00  0.00     0.130 C 
ATOM     13  O   UNL     1     -10.809  73.456  24.847  1.00  0.00    -0.300 OA
ATOM     14  C   UNL     1      -9.030  74.642  23.853  1.00  0.00     0.087 C 
ENDBRANCH  11  12
ENDBRANCH  10  11
ENDBRANCH   2  10
TORSDOF 6
ENDMDL
MODEL 3
REMARK VINA RESULT:    -5.873      3.854      7.154
REMARK INTER + INTRA:          -8.824
REMARK INTER:                  -8.111
REMARK INTRA:                  -0.713
REMARK UNBOUND:                -0.891
REMARK SMILES CC(=O)CCC=C(C)CCC=C(C)C
REMARK SMILES IDX 7 1 6 2 8 3 9 4 10 5 11 6 13 7 12 8 14 9 5 10 4 11 2 12 3 13
REMARK SMILES IDX 1 14
REMARK H PARENT
REMARK Flexibility Score: inf
ROOT
ATOM      1  C   UNL     1     -11.376  73.338  29.156  1.00  0.00    -0.077 C 
ATOM      2  C   UNL     1     -10.107  73.530  28.729  1.00  0.00    -0.028 C 
ATOM      3  C   UNL     1     -12.550  74.039  28.513  1.00  0.00     0.039 C 
ENDROOT
BRANCH   1   4
ATOM      4  C   UNL     1     -11.631  72.377  30.297  1.00  0.00     0.034 C 
BRANCH   4   5
ATOM      5  C   UNL     1     -10.393  72.255  31.192  1.00  0.00     0.032 C 
BRANCH   5   6
ATOM      6  C   UNL     1     -10.782  72.257  32.649  1.00  0.00    -0.028 C 
ATOM      7  C   UNL     1     -10.839  74.757  32.795  1.00  0.00     0.039 C 
ATOM      8  C   UNL     1     -10.954  73.376  33.390  1.00  0.00    -0.080 C 
ATOM      9  C   UNL     1     -11.317  73.261  34.849  1.00  0.00     0.039 C 
ENDBRANCH   5   6
ENDBRANCH   4   5
ENDBRANCH   1   4
BRANCH   2  10
ATOM     10  C   UNL     1      -9.712  74.481  27.628  1.00  0.00     0.035 C 
BRANCH  10  11
ATOM     11  C   UNL     1      -9.038  73.730  26.476  1.00  0.00     0.079 C 
BRANCH  11  12
ATOM     12  C   UNL     1      -9.687  74.071  25.163  1.00  0.00     0.130 C 
ATOM     13  O   UNL     1      -9.293  75.037  24.525  1.00  0.00    -0.300 OA
ATOM     14  C   UNL     1     -10.796  73.223  24.619  1.00  0.00     0.087 C 
ENDBRANCH  11  12
ENDBRANCH  10  11
ENDBRANCH   2  10
TORSDOF 6
ENDMDL
MODEL 4
REMARK VINA RESULT:    -5.830      1.562      2.579
REMARK INTER + INTRA:          -8.766
REMARK INTER:                  -8.142
REMARK INTRA:                  -0.624
REMARK UNBOUND:                -0.891
REMARK SMILES CC(=O)CCC=C(C)CCC=C(C)C
REMARK SMILES IDX 7 1 6 2 8 3 9 4 10 5 11 6 13 7 12 8 14 9 5 10 4 11 2 12 3 13
REMARK SMILES IDX 1 14
REMARK H PARENT
REMARK Flexibility Score: inf
ROOT
ATOM      1  C   UNL     1     -10.765  73.397  34.151  1.00  0.00    -0.077 C 
ATOM      2  C   UNL     1     -10.548  73.673  35.457  1.00  0.00    -0.028 C 
ATOM      3  C   UNL     1     -10.868  71.979  33.641  1.00  0.00     0.039 C 
ENDROOT
BRANCH   1   4
ATOM      4  C   UNL     1     -10.927  74.542  33.175  1.00  0.00     0.034 C 
BRANCH   4   5
ATOM      5  C   UNL     1     -10.275  74.207  31.829  1.00  0.00     0.032 C 
BRANCH   5   6
ATOM      6  C   UNL     1     -11.205  74.530  30.687  1.00  0.00    -0.028 C 
ATOM      7  C   UNL     1     -11.524  72.128  30.056  1.00  0.00     0.039 C 
ATOM      8  C   UNL     1     -11.748  73.606  29.862  1.00  0.00    -0.080 C 
ATOM      9  C   UNL     1     -12.644  74.045  28.732  1.00  0.00     0.039 C 
ENDBRANCH   5   6
ENDBRANCH   4   5
ENDBRANCH   1   4
BRANCH   2  10
ATOM     10  C   UNL     1     -10.335  72.631  36.526  1.00  0.00     0.035 C 
BRANCH  10  11
ATOM     11  C   UNL     1     -11.616  72.414  37.337  1.00  0.00     0.079 C 
BRANCH  11  12
ATOM     12  C   UNL     1     -11.374  71.459  38.473  1.00  0.00     0.130 C 
ATOM     13  O   UNL     1     -11.904  71.658  39.557  1.00  0.00    -0.300 OA
ATOM     14  C   UNL     1     -10.507  70.252  38.281  1.00  0.00     0.087 C 
ENDBRANCH  11  12
ENDBRANCH  10  11
ENDBRANCH   2  10
TORSDOF 6
ENDMDL
MODEL 5
REMARK VINA RESULT:    -5.800      1.537      2.323
REMARK INTER + INTRA:          -8.725
REMARK INTER:                  -8.147
REMARK INTRA:                  -0.578
REMARK UNBOUND:                -0.891
REMARK SMILES CC(=O)CCC=C(C)CCC=C(C)C
REMARK SMILES IDX 7 1 6 2 8 3 9 4 10 5 11 6 13 7 12 8 14 9 5 10 4 11 2 12 3 13
REMARK SMILES IDX 1 14
REMARK H PARENT
REMARK Flexibility Score: inf
ROOT
ATOM      1  C   UNL     1     -11.278  73.404  32.097  1.00  0.00    -0.077 C 
ATOM      2  C   UNL     1     -11.533  72.766  33.262  1.00  0.00    -0.028 C 
ATOM      3  C   UNL     1     -10.606  74.757  32.058  1.00  0.00     0.039 C 
ENDROOT
BRANCH   1   4
ATOM      4  C   UNL     1     -11.658  72.735  30.794  1.00  0.00     0.034 C 
BRANCH   4   5
ATOM      5  C   UNL     1     -11.875  73.777  29.691  1.00  0.00     0.032 C 
BRANCH   5   6
ATOM      6  C   UNL     1     -11.296  73.300  28.382  1.00  0.00    -0.028 C 
ATOM      7  C   UNL     1      -9.750  75.259  28.170  1.00  0.00     0.039 C 
ATOM      8  C   UNL     1     -10.363  73.974  27.672  1.00  0.00    -0.080 C 
ATOM      9  C   UNL     1      -9.875  73.418  26.358  1.00  0.00     0.039 C 
ENDBRANCH   5   6
ENDBRANCH   4   5
ENDBRANCH   1   4
BRANCH   2  10
ATOM     10  C   UNL     1     -11.238  73.331  34.628  1.00  0.00     0.035 C 
BRANCH  10  11
ATOM     11  C   UNL     1     -10.167  72.501  35.341  1.00  0.00     0.079 C 
BRANCH  11  12
ATOM     12  C   UNL     1     -10.578  72.201  36.757  1.00  0.00     0.130 C 
ATOM     13  O   UNL     1     -10.095  71.239  37.337  1.00  0.00    -0.300 OA
ATOM     14  C   UNL     1     -11.556  73.084  37.468  1.00  0.00     0.087 C 
ENDBRANCH  11  12
ENDBRANCH  10  11
ENDBRANCH   2  10
TORSDOF 6
ENDMDL
MODEL 6
REMARK VINA RESULT:    -5.791      2.533      3.311
REMARK INTER + INTRA:          -8.713
REMARK INTER:                  -8.169
REMARK INTRA:                  -0.544
REMARK UNBOUND:                -0.891
REMARK SMILES CC(=O)CCC=C(C)CCC=C(C)C
REMARK SMILES IDX 7 1 6 2 8 3 9 4 10 5 11 6 13 7 12 8 14 9 5 10 4 11 2 12 3 13
REMARK SMILES IDX 1 14
REMARK H PARENT
REMARK Flexibility Score: inf
ROOT
ATOM      1  C   UNL     1     -10.799  74.142  29.883  1.00  0.00    -0.077 C 
ATOM      2  C   UNL     1     -10.493  73.656  31.108  1.00  0.00    -0.028 C 
ATOM      3  C   UNL     1     -12.126  73.857  29.219  1.00  0.00     0.039 C 
ENDROOT
BRANCH   1   4
ATOM      4  C   UNL     1      -9.791  75.013  29.165  1.00  0.00     0.034 C 
BRANCH   4   5
ATOM      5  C   UNL     1      -9.961  74.903  27.646  1.00  0.00     0.032 C 
BRANCH   5   6
ATOM      6  C   UNL     1      -8.956  73.942  27.063  1.00  0.00    -0.028 C 
ATOM      7  C   UNL     1     -10.325  73.505  25.012  1.00  0.00     0.039 C 
ATOM      8  C   UNL     1      -9.123  73.282  25.895  1.00  0.00    -0.080 C 
ATOM      9  C   UNL     1      -8.064  72.320  25.419  1.00  0.00     0.039 C 
ENDBRANCH   5   6
ENDBRANCH   4   5
ENDBRANCH   1   4
BRANCH   2  10
ATOM     10  C   UNL     1     -11.388  72.750  31.915  1.00  0.00     0.035 C 
BRANCH  10  11
ATOM     11  C   UNL     1     -11.745  73.395  33.258  1.00  0.00     0.079 C 
BRANCH  11  12
ATOM     12  C   UNL     1     -11.026  72.710  34.387  1.00  0.00     0.130 C 
ATOM     13  O   UNL     1     -10.217  71.827  34.144  1.00  0.00    -0.300 OA
ATOM     14  C   UNL     1     -11.277  73.118  35.807  1.00  0.00     0.087 C 
ENDBRANCH  11  12
ENDBRANCH  10  11
ENDBRANCH   2  10
TORSDOF 6
ENDMDL
MODEL 7
REMARK VINA RESULT:    -5.789      2.981      6.825
REMARK INTER + INTRA:          -8.711
REMARK INTER:                  -8.181
REMARK INTRA:                  -0.530
REMARK UNBOUND:                -0.891
REMARK SMILES CC(=O)CCC=C(C)CCC=C(C)C
REMARK SMILES IDX 7 1 6 2 8 3 9 4 10 5 11 6 13 7 12 8 14 9 5 10 4 11 2 12 3 13
REMARK SMILES IDX 1 14
REMARK H PARENT
REMARK Flexibility Score: inf
ROOT
ATOM      1  C   UNL     1     -10.376  73.849  31.089  1.00  0.00    -0.077 C 
ATOM      2  C   UNL     1     -11.139  74.520  30.197  1.00  0.00    -0.028 C 
ATOM      3  C   UNL     1      -9.413  72.766  30.661  1.00  0.00     0.039 C 
ENDROOT
BRANCH   1   4
ATOM      4  C   UNL     1     -10.474  74.205  32.557  1.00  0.00     0.034 C 
BRANCH   4   5
ATOM      5  C   UNL     1     -11.401  73.231  33.293  1.00  0.00     0.032 C 
BRANCH   5   6
ATOM      6  C   UNL     1     -10.603  72.212  34.065  1.00  0.00    -0.028 C 
ATOM      7  C   UNL     1     -10.607  73.568  36.171  1.00  0.00     0.039 C 
ATOM      8  C   UNL     1     -10.212  72.366  35.350  1.00  0.00    -0.080 C 
ATOM      9  C   UNL     1      -9.390  71.293  36.018  1.00  0.00     0.039 C 
ENDBRANCH   5   6
ENDBRANCH   4   5
ENDBRANCH   1   4
BRANCH   2  10
ATOM     10  C   UNL     1     -11.164  74.243  28.715  1.00  0.00     0.035 C 
BRANCH  10  11
ATOM     11  C   UNL     1     -10.139  75.113  27.982  1.00  0.00     0.079 C 
BRANCH  11  12
ATOM     12  C   UNL     1      -9.421  74.318  26.926  1.00  0.00     0.130 C 
ATOM     13  O   UNL     1      -8.708  73.381  27.253  1.00  0.00    -0.300 OA
ATOM     14  C   UNL     1      -9.592  74.652  25.476  1.00  0.00     0.087 C 
ENDBRANCH  11  12
ENDBRANCH  10  11
ENDBRANCH   2  10
TORSDOF 6
ENDMDL
MODEL 8
REMARK VINA RESULT:    -5.777      2.011      2.473
REMARK INTER + INTRA:          -8.694
REMARK INTER:                  -8.219
REMARK INTRA:                  -0.476
REMARK UNBOUND:                -0.891
REMARK SMILES CC(=O)CCC=C(C)CCC=C(C)C
REMARK SMILES IDX 7 1 6 2 8 3 9 4 10 5 11 6 13 7 12 8 14 9 5 10 4 11 2 12 3 13
REMARK SMILES IDX 1 14
REMARK H PARENT
REMARK Flexibility Score: inf
ROOT
ATOM      1  C   UNL     1     -11.021  74.189  31.203  1.00  0.00    -0.077 C 
ATOM      2  C   UNL     1     -11.620  73.181  31.876  1.00  0.00    -0.028 C 
ATOM      3  C   UNL     1     -10.247  75.275  31.915  1.00  0.00     0.039 C 
ENDROOT
BRANCH   1   4
ATOM      4  C   UNL     1     -11.112  74.222  29.693  1.00  0.00     0.034 C 
BRANCH   4   5
ATOM      5  C   UNL     1      -9.834  74.808  29.083  1.00  0.00     0.032 C 
BRANCH   5   6
ATOM      6  C   UNL     1     -10.030  75.114  27.620  1.00  0.00    -0.028 C 
ATOM      7  C   UNL     1      -8.619  73.188  26.864  1.00  0.00     0.039 C 
ATOM      8  C   UNL     1      -9.463  74.413  26.612  1.00  0.00    -0.080 C 
ATOM      9  C   UNL     1      -9.704  74.825  25.183  1.00  0.00     0.039 C 
ENDBRANCH   5   6
ENDBRANCH   4   5
ENDBRANCH   1   4
BRANCH   2  10
ATOM     10  C   UNL     1     -11.636  73.047  33.378  1.00  0.00     0.035 C 
BRANCH  10  11
ATOM     11  C   UNL     1     -10.542  72.084  33.850  1.00  0.00     0.079 C 
BRANCH  11  12
ATOM     12  C   UNL     1     -10.329  72.203  35.334  1.00  0.00     0.130 C 
ATOM     13  O   UNL     1      -9.421  71.583  35.868  1.00  0.00    -0.300 OA
ATOM     14  C   UNL     1     -11.206  73.094  36.159  1.00  0.00     0.087 C 
ENDBRANCH  11  12
ENDBRANCH  10  11
ENDBRANCH   2  10
TORSDOF 6
ENDMDL
MODEL 9
REMARK VINA RESULT:    -5.713      4.691      7.970
REMARK INTER + INTRA:          -8.609
REMARK INTER:                  -7.831
REMARK INTRA:                  -0.777
REMARK UNBOUND:                -0.891
REMARK SMILES CC(=O)CCC=C(C)CCC=C(C)C
REMARK SMILES IDX 7 1 6 2 8 3 9 4 10 5 11 6 13 7 12 8 14 9 5 10 4 11 2 12 3 13
REMARK SMILES IDX 1 14
REMARK H PARENT
REMARK Flexibility Score: inf
ROOT
ATOM      1  C   UNL     1     -10.667  74.220  28.032  1.00  0.00    -0.077 C 
ATOM      2  C   UNL     1     -10.439  73.524  26.895  1.00  0.00    -0.028 C 
ATOM      3  C   UNL     1      -9.719  75.292  28.516  1.00  0.00     0.039 C 
ENDROOT
BRANCH   1   4
ATOM      4  C   UNL     1     -11.918  73.930  28.833  1.00  0.00     0.034 C 
BRANCH   4   5
ATOM      5  C   UNL     1     -11.846  72.539  29.473  1.00  0.00     0.032 C 
BRANCH   5   6
ATOM      6  C   UNL     1     -11.702  72.645  30.970  1.00  0.00    -0.028 C 
ATOM      7  C   UNL     1      -9.220  72.312  30.915  1.00  0.00     0.039 C 
ATOM      8  C   UNL     1     -10.531  72.512  31.634  1.00  0.00    -0.080 C 
ATOM      9  C   UNL     1     -10.506  72.607  33.138  1.00  0.00     0.039 C 
ENDBRANCH   5   6
ENDBRANCH   4   5
ENDBRANCH   1   4
BRANCH   2  10
ATOM     10  C   UNL     1      -9.219  73.687  26.024  1.00  0.00     0.035 C 
BRANCH  10  11
ATOM     11  C   UNL     1      -9.555  74.491  24.764  1.00  0.00     0.079 C 
BRANCH  11  12
ATOM     12  C   UNL     1      -8.534  74.246  23.687  1.00  0.00     0.130 C 
ATOM     13  O   UNL     1      -7.637  73.436  23.874  1.00  0.00    -0.300 OA
ATOM     14  C   UNL     1      -8.622  74.970  22.378  1.00  0.00     0.087 C 
ENDBRANCH  11  12
ENDBRANCH  10  11
ENDBRANCH   2  10
TORSDOF 6
ENDMDL
