MODEL 1
REMARK VINA RESULT:    -4.046      0.000      0.000
REMARK INTER + INTRA:          -5.314
REMARK INTER:                  -5.702
REMARK INTRA:                   0.388
REMARK UNBOUND:                 0.388
REMARK SMILES CC1=CCC(=C(C)C)C(=O)CC(C)=CCC1
REMARK SMILES IDX 12 1 14 2 13 3 15 4 16 5 2 6 1 7 3 8 11 10 9 11 10 12 5 13
REMARK SMILES IDX 6 14 7 15 8 16 4 17
REMARK H PARENT
REMARK Flexibility Score: 60.00
ROOT
ATOM      1  C   UNL     1      10.409  31.209 -12.942  1.00  0.00    -0.070 C 
ATOM      2  C   UNL     1      10.314  32.165 -13.910  1.00  0.00    -0.027 C 
ATOM      3  C   UNL     1       9.386  30.098 -12.985  1.00  0.00     0.039 C 
ENDROOT
BRANCH   2   4
ATOM      4  C   UNL     1      11.113  33.441 -14.152  1.00  0.00     0.032 C 
BRANCH   4   5
ATOM      5  C   UNL     1      10.497  34.759 -13.666  1.00  0.00     0.034 C 
BRANCH   5   6
ATOM      6  C   UNL     1      10.719  35.170 -12.202  1.00  0.00    -0.077 C 
ATOM      7  C   UNL     1      11.792  36.214 -11.978  1.00  0.00     0.039 C 
ATOM      8  C   UNL     1      10.142  34.668 -11.070  1.00  0.00    -0.023 CG0
ATOM      9  G   UNL     1       9.092  33.589 -10.886  1.00  0.00     0.000 G0
ENDBRANCH   5   6
ENDBRANCH   4   5
ENDBRANCH   2   4
BRANCH   1  10
ATOM     10  C   UNL     1      11.441  31.140 -11.828  1.00  0.00     0.111 C 
BRANCH  10  11
ATOM     11  C   UNL     1      11.083  32.035 -10.680  1.00  0.00     0.163 C 
ATOM     12  O   UNL     1      12.007  32.540  -9.987  1.00  0.00    -0.294 OA
BRANCH  11  13
ATOM     13  C   UNL     1       9.662  32.293 -10.332  1.00  0.00    -0.002 C 
ATOM     14  C   UNL     1       8.932  31.401  -9.603  1.00  0.00    -0.069 C 
ATOM     15  C   UNL     1       7.458  31.609  -9.338  1.00  0.00     0.039 C 
ATOM     16  C   UNL     1       9.573  30.164  -9.012  1.00  0.00     0.039 C 
BRANCH  13  17
ATOM     17  C   UNL     1       9.077  33.591 -10.849  1.00  0.00     0.066 CG0
ATOM     18  G   UNL     1      10.144  34.645 -11.077  1.00  0.00     0.000 G0
ENDBRANCH  13  17
ENDBRANCH  11  13
ENDBRANCH  10  11
ENDBRANCH   1  10
TORSDOF 0
ENDMDL
MODEL 2
REMARK VINA RESULT:    -3.891      1.650      3.391
REMARK INTER + INTRA:          -5.095
REMARK INTER:                  -5.508
REMARK INTRA:                   0.413
REMARK UNBOUND:                 0.388
REMARK SMILES CC1=CCC(=C(C)C)C(=O)CC(C)=CCC1
REMARK SMILES IDX 12 1 14 2 13 3 15 4 16 5 2 6 1 7 3 8 11 10 9 11 10 12 5 13
REMARK SMILES IDX 6 14 7 15 8 16 4 17
REMARK H PARENT
REMARK Flexibility Score: 60.00
ROOT
ATOM      1  C   UNL     1       9.701  32.261 -10.334  1.00  0.00    -0.070 C 
ATOM      2  C   UNL     1       8.784  33.265 -10.433  1.00  0.00    -0.027 C 
ATOM      3  C   UNL     1       9.157  30.861 -10.166  1.00  0.00     0.039 C 
ENDROOT
BRANCH   2   4
ATOM      4  C   UNL     1       8.949  34.777 -10.551  1.00  0.00     0.032 C 
BRANCH   4   5
ATOM      5  C   UNL     1       8.625  35.416 -11.907  1.00  0.00     0.034 C 
BRANCH   5   6
ATOM      6  C   UNL     1       9.736  35.476 -12.966  1.00  0.00    -0.077 C 
ATOM      7  C   UNL     1      10.222  36.866 -13.317  1.00  0.00     0.039 C 
ATOM      8  C   UNL     1      10.290  34.459 -13.692  1.00  0.00    -0.023 CG0
ATOM      9  G   UNL     1      10.023  32.966 -13.672  1.00  0.00     0.000 G0
ENDBRANCH   5   6
ENDBRANCH   4   5
ENDBRANCH   2   4
BRANCH   1  10
ATOM     10  C   UNL     1      11.215  32.402 -10.380  1.00  0.00     0.111 C 
BRANCH  10  11
ATOM     11  C   UNL     1      11.694  32.823 -11.736  1.00  0.00     0.163 C 
ATOM     12  O   UNL     1      12.551  33.745 -11.822  1.00  0.00    -0.294 OA
BRANCH  11  13
ATOM     13  C   UNL     1      11.142  32.199 -12.966  1.00  0.00    -0.002 C 
ATOM     14  C   UNL     1      11.628  31.019 -13.446  1.00  0.00    -0.069 C 
ATOM     15  C   UNL     1      11.143  30.435 -14.753  1.00  0.00     0.039 C 
ATOM     16  C   UNL     1      12.666  30.230 -12.678  1.00  0.00     0.039 C 
BRANCH  13  17
ATOM     17  C   UNL     1      10.029  32.961 -13.655  1.00  0.00     0.066 CG0
ATOM     18  G   UNL     1      10.290  34.455 -13.674  1.00  0.00     0.000 G0
ENDBRANCH  13  17
ENDBRANCH  11  13
ENDBRANCH  10  11
ENDBRANCH   1  10
TORSDOF 0
ENDMDL
MODEL 3
REMARK VINA RESULT:    -3.802      1.485      2.049
REMARK INTER + INTRA:          -4.970
REMARK INTER:                  -4.900
REMARK INTRA:                  -0.071
REMARK UNBOUND:                 0.388
REMARK SMILES CC1=CCC(=C(C)C)C(=O)CC(C)=CCC1
REMARK SMILES IDX 12 1 14 2 13 3 15 4 16 5 2 6 1 7 3 8 11 10 9 11 10 12 5 13
REMARK SMILES IDX 6 14 7 15 8 16 4 17
REMARK H PARENT
REMARK Flexibility Score: 60.00
ROOT
ATOM      1  C   UNL     1      11.906  32.292 -14.796  1.00  0.00    -0.070 C 
ATOM      2  C   UNL     1      12.174  33.563 -15.209  1.00  0.00    -0.027 C 
ATOM      3  C   UNL     1      12.827  31.207 -15.302  1.00  0.00     0.039 C 
ENDROOT
BRANCH   2   4
ATOM      4  C   UNL     1      11.448  34.881 -14.959  1.00  0.00     0.032 C 
BRANCH   4   5
ATOM      5  C   UNL     1      11.389  35.388 -13.512  1.00  0.00     0.034 C 
BRANCH   5   6
ATOM      6  C   UNL     1      10.023  35.429 -12.812  1.00  0.00    -0.077 C 
ATOM      7  C   UNL     1       9.038  36.433 -13.371  1.00  0.00     0.039 C 
ATOM      8  C   UNL     1       9.601  34.745 -11.707  1.00  0.00    -0.023 CG0
ATOM      9  G   UNL     1      10.311  33.718 -10.844  1.00  0.00     0.000 G0
ENDBRANCH   5   6
ENDBRANCH   4   5
ENDBRANCH   2   4
BRANCH   1  10
ATOM     10  C   UNL     1      10.780  31.852 -13.873  1.00  0.00     0.111 C 
BRANCH  10  11
ATOM     11  C   UNL     1      11.179  31.930 -12.430  1.00  0.00     0.163 C 
ATOM     12  O   UNL     1      12.362  31.635 -12.107  1.00  0.00    -0.294 OA
BRANCH  11  13
ATOM     13  C   UNL     1      10.191  32.308 -11.387  1.00  0.00    -0.002 C 
ATOM     14  C   UNL     1       9.225  31.441 -10.972  1.00  0.00    -0.069 C 
ATOM     15  C   UNL     1       8.153  31.857  -9.990  1.00  0.00     0.039 C 
ATOM     16  C   UNL     1       9.192  30.011 -11.467  1.00  0.00     0.039 C 
BRANCH  13  17
ATOM     17  C   UNL     1      10.315  33.713 -10.834  1.00  0.00     0.066 CG0
ATOM     18  G   UNL     1       9.620  34.734 -11.713  1.00  0.00     0.000 G0
ENDBRANCH  13  17
ENDBRANCH  11  13
ENDBRANCH  10  11
ENDBRANCH   1  10
TORSDOF 0
ENDMDL
MODEL 4
REMARK VINA RESULT:    -3.795      1.583      3.072
REMARK INTER + INTRA:          -4.961
REMARK INTER:                  -5.335
REMARK INTRA:                   0.374
REMARK UNBOUND:                 0.388
REMARK SMILES CC1=CCC(=C(C)C)C(=O)CC(C)=CCC1
REMARK SMILES IDX 12 1 14 2 13 3 15 4 16 5 2 6 1 7 3 8 11 10 9 11 10 12 5 13
REMARK SMILES IDX 6 14 7 15 8 16 4 17
REMARK H PARENT
REMARK Flexibility Score: 60.00
ROOT
ATOM      1  C   UNL     1       9.528  34.739 -10.977  1.00  0.00    -0.070 C 
ATOM      2  C   UNL     1       9.683  35.474 -12.115  1.00  0.00    -0.027 C 
ATOM      3  C   UNL     1       8.155  34.750 -10.345  1.00  0.00     0.039 C 
ENDROOT
BRANCH   2   4
ATOM      4  C   UNL     1      10.906  35.745 -12.984  1.00  0.00     0.032 C 
BRANCH   4   5
ATOM      5  C   UNL     1      10.947  35.083 -14.367  1.00  0.00     0.034 C 
BRANCH   5   6
ATOM      6  C   UNL     1      11.543  33.672 -14.481  1.00  0.00    -0.077 C 
ATOM      7  C   UNL     1      12.823  33.572 -15.284  1.00  0.00     0.039 C 
ATOM      8  C   UNL     1      11.040  32.486 -14.028  1.00  0.00    -0.023 CG0
ATOM      9  G   UNL     1       9.773  32.177 -13.253  1.00  0.00     0.000 G0
ENDBRANCH   5   6
ENDBRANCH   4   5
ENDBRANCH   2   4
BRANCH   1  10
ATOM     10  C   UNL     1      10.591  33.904 -10.280  1.00  0.00     0.111 C 
BRANCH  10  11
ATOM     11  C   UNL     1      11.013  32.731 -11.111  1.00  0.00     0.163 C 
ATOM     12  O   UNL     1      12.244  32.498 -11.257  1.00  0.00    -0.294 OA
BRANCH  11  13
ATOM     13  C   UNL     1      10.004  31.878 -11.791  1.00  0.00    -0.002 C 
ATOM     14  C   UNL     1       9.364  30.870 -11.133  1.00  0.00    -0.069 C 
ATOM     15  C   UNL     1       8.417  29.932 -11.847  1.00  0.00     0.039 C 
ATOM     16  C   UNL     1       9.561  30.655  -9.648  1.00  0.00     0.039 C 
BRANCH  13  17
ATOM     17  C   UNL     1       9.750  32.186 -13.251  1.00  0.00     0.066 CG0
ATOM     18  G   UNL     1      11.033  32.495 -13.999  1.00  0.00     0.000 G0
ENDBRANCH  13  17
ENDBRANCH  11  13
ENDBRANCH  10  11
ENDBRANCH   1  10
TORSDOF 0
ENDMDL
MODEL 5
REMARK VINA RESULT:    -3.742      2.814      5.720
REMARK INTER + INTRA:          -4.885
REMARK INTER:                  -5.500
REMARK INTRA:                   0.615
REMARK UNBOUND:                 0.388
REMARK SMILES CC1=CCC(=C(C)C)C(=O)CC(C)=CCC1
REMARK SMILES IDX 12 1 14 2 13 3 15 4 16 5 2 6 1 7 3 8 11 10 9 11 10 12 5 13
REMARK SMILES IDX 6 14 7 15 8 16 4 17
REMARK H PARENT
REMARK Flexibility Score: 60.00
ROOT
ATOM      1  C   UNL     1      10.091  37.982 -14.211  1.00  0.00    -0.070 C 
ATOM      2  C   UNL     1       9.051  37.102 -14.271  1.00  0.00    -0.027 C 
ATOM      3  C   UNL     1       9.948  39.254 -15.015  1.00  0.00     0.039 C 
ENDROOT
BRANCH   2   4
ATOM      4  C   UNL     1       8.860  35.720 -13.656  1.00  0.00     0.032 C 
BRANCH   4   5
ATOM      5  C   UNL     1       9.282  35.537 -12.192  1.00  0.00     0.034 C 
BRANCH   5   6
ATOM      6  C   UNL     1      10.160  34.328 -11.833  1.00  0.00    -0.077 C 
ATOM      7  C   UNL     1       9.424  33.149 -11.235  1.00  0.00     0.039 C 
ATOM      8  C   UNL     1      11.518  34.200 -11.904  1.00  0.00    -0.023 CG0
ATOM      9  G   UNL     1      12.584  35.169 -12.379  1.00  0.00     0.000 G0
ENDBRANCH   5   6
ENDBRANCH   4   5
ENDBRANCH   2   4
BRANCH   1  10
ATOM     10  C   UNL     1      11.376  37.821 -13.414  1.00  0.00     0.111 C 
BRANCH  10  11
ATOM     11  C   UNL     1      12.375  36.966 -14.134  1.00  0.00     0.163 C 
ATOM     12  O   UNL     1      13.090  37.488 -15.032  1.00  0.00    -0.294 OA
BRANCH  11  13
ATOM     13  C   UNL     1      12.496  35.518 -13.828  1.00  0.00    -0.002 C 
ATOM     14  C   UNL     1      12.498  34.578 -14.817  1.00  0.00    -0.069 C 
ATOM     15  C   UNL     1      12.513  33.099 -14.505  1.00  0.00     0.039 C 
ATOM     16  C   UNL     1      12.500  34.978 -16.276  1.00  0.00     0.039 C 
BRANCH  13  17
ATOM     17  C   UNL     1      12.599  35.155 -12.362  1.00  0.00     0.066 CG0
ATOM     18  G   UNL     1      11.513  34.184 -11.939  1.00  0.00     0.000 G0
ENDBRANCH  13  17
ENDBRANCH  11  13
ENDBRANCH  10  11
ENDBRANCH   1  10
TORSDOF 0
ENDMDL
MODEL 6
REMARK VINA RESULT:    -3.711      1.481      3.798
REMARK INTER + INTRA:          -4.841
REMARK INTER:                  -4.971
REMARK INTRA:                   0.130
REMARK UNBOUND:                 0.388
REMARK SMILES CC1=CCC(=C(C)C)C(=O)CC(C)=CCC1
REMARK SMILES IDX 12 1 14 2 13 3 15 4 16 5 2 6 1 7 3 8 11 10 9 11 10 12 5 13
REMARK SMILES IDX 6 14 7 15 8 16 4 17
REMARK H PARENT
REMARK Flexibility Score: 60.00
ROOT
ATOM      1  C   UNL     1      11.108  31.777 -13.835  1.00  0.00    -0.070 C 
ATOM      2  C   UNL     1      10.104  30.877 -14.046  1.00  0.00    -0.027 C 
ATOM      3  C   UNL     1      11.412  32.728 -14.969  1.00  0.00     0.039 C 
ENDROOT
BRANCH   2   4
ATOM      4  C   UNL     1       9.561  29.748 -13.177  1.00  0.00     0.032 C 
BRANCH   4   5
ATOM      5  C   UNL     1       9.771  29.864 -11.661  1.00  0.00     0.034 C 
BRANCH   5   6
ATOM      6  C   UNL     1       8.759  30.684 -10.847  1.00  0.00    -0.077 C 
ATOM      7  C   UNL     1       7.342  30.153 -10.851  1.00  0.00     0.039 C 
ATOM      8  C   UNL     1       8.942  31.867 -10.189  1.00  0.00    -0.023 CG0
ATOM      9  G   UNL     1      10.180  32.727 -10.017  1.00  0.00     0.000 G0
ENDBRANCH   5   6
ENDBRANCH   4   5
ENDBRANCH   2   4
BRANCH   1  10
ATOM     10  C   UNL     1      11.948  31.928 -12.577  1.00  0.00     0.111 C 
BRANCH  10  11
ATOM     11  C   UNL     1      11.752  33.267 -11.933  1.00  0.00     0.163 C 
ATOM     12  O   UNL     1      12.689  34.109 -11.979  1.00  0.00    -0.294 OA
BRANCH  11  13
ATOM     13  C   UNL     1      10.493  33.589 -11.214  1.00  0.00    -0.002 C 
ATOM     14  C   UNL     1       9.677  34.603 -11.622  1.00  0.00    -0.069 C 
ATOM     15  C   UNL     1       8.451  35.002 -10.833  1.00  0.00     0.039 C 
ATOM     16  C   UNL     1       9.957  35.365 -12.899  1.00  0.00     0.039 C 
BRANCH  13  17
ATOM     17  C   UNL     1      10.185  32.737 -10.000  1.00  0.00     0.066 CG0
ATOM     18  G   UNL     1       8.956  31.873 -10.208  1.00  0.00     0.000 G0
ENDBRANCH  13  17
ENDBRANCH  11  13
ENDBRANCH  10  11
ENDBRANCH   1  10
TORSDOF 0
ENDMDL
MODEL 7
REMARK VINA RESULT:    -3.611      1.698      3.422
REMARK INTER + INTRA:          -4.701
REMARK INTER:                  -4.831
REMARK INTRA:                   0.130
REMARK UNBOUND:                 0.388
REMARK SMILES CC1=CCC(=C(C)C)C(=O)CC(C)=CCC1
REMARK SMILES IDX 12 1 14 2 13 3 15 4 16 5 2 6 1 7 3 8 11 10 9 11 10 12 5 13
REMARK SMILES IDX 6 14 7 15 8 16 4 17
REMARK H PARENT
REMARK Flexibility Score: 60.00
ROOT
ATOM      1  C   UNL     1      10.207  34.756 -12.902  1.00  0.00    -0.070 C 
ATOM      2  C   UNL     1      10.251  34.192 -14.143  1.00  0.00    -0.027 C 
ATOM      3  C   UNL     1       8.991  35.595 -12.581  1.00  0.00     0.039 C 
ENDROOT
BRANCH   2   4
ATOM      4  C   UNL     1      11.317  33.349 -14.832  1.00  0.00     0.032 C 
BRANCH   4   5
ATOM      5  C   UNL     1      12.207  32.473 -13.940  1.00  0.00     0.034 C 
BRANCH   5   6
ATOM      6  C   UNL     1      11.616  31.172 -13.377  1.00  0.00    -0.077 C 
ATOM      7  C   UNL     1      11.224  30.138 -14.410  1.00  0.00     0.039 C 
ATOM      8  C   UNL     1      11.320  30.851 -12.082  1.00  0.00    -0.023 CG0
ATOM      9  G   UNL     1      11.503  31.638 -10.798  1.00  0.00     0.000 G0
ENDBRANCH   5   6
ENDBRANCH   4   5
ENDBRANCH   2   4
BRANCH   1  10
ATOM     10  C   UNL     1      11.251  34.625 -11.804  1.00  0.00     0.111 C 
BRANCH  10  11
ATOM     11  C   UNL     1      10.677  34.023 -10.558  1.00  0.00     0.163 C 
ATOM     12  O   UNL     1      10.499  34.760  -9.550  1.00  0.00    -0.294 OA
BRANCH  11  13
ATOM     13  C   UNL     1      10.360  32.574 -10.489  1.00  0.00    -0.002 C 
ATOM     14  C   UNL     1       9.109  32.132 -10.172  1.00  0.00    -0.069 C 
ATOM     15  C   UNL     1       8.809  30.660  -9.996  1.00  0.00     0.039 C 
ATOM     16  C   UNL     1       7.959  33.099  -9.996  1.00  0.00     0.039 C 
BRANCH  13  17
ATOM     17  C   UNL     1      11.508  31.629 -10.775  1.00  0.00     0.066 CG0
ATOM     18  G   UNL     1      11.319  30.882 -12.081  1.00  0.00     0.000 G0
ENDBRANCH  13  17
ENDBRANCH  11  13
ENDBRANCH  10  11
ENDBRANCH   1  10
TORSDOF 0
ENDMDL
MODEL 8
REMARK VINA RESULT:    -3.606      1.831      4.238
REMARK INTER + INTRA:          -4.694
REMARK INTER:                  -4.934
REMARK INTRA:                   0.241
REMARK UNBOUND:                 0.388
REMARK SMILES CC1=CCC(=C(C)C)C(=O)CC(C)=CCC1
REMARK SMILES IDX 12 1 14 2 13 3 15 4 16 5 2 6 1 7 3 8 11 10 9 11 10 12 5 13
REMARK SMILES IDX 6 14 7 15 8 16 4 17
REMARK H PARENT
REMARK Flexibility Score: 60.00
ROOT
ATOM      1  C   UNL     1      10.377  33.969 -12.963  1.00  0.00    -0.070 C 
ATOM      2  C   UNL     1      10.159  34.492 -11.723  1.00  0.00    -0.027 C 
ATOM      3  C   UNL     1      10.408  34.948 -14.114  1.00  0.00     0.039 C 
ENDROOT
BRANCH   2   4
ATOM      4  C   UNL     1      10.007  33.827 -10.359  1.00  0.00     0.032 C 
BRANCH   4   5
ATOM      5  C   UNL     1       8.693  33.087 -10.079  1.00  0.00     0.034 C 
BRANCH   5   6
ATOM      6  C   UNL     1       8.695  31.552 -10.140  1.00  0.00    -0.077 C 
ATOM      7  C   UNL     1       7.343  30.894  -9.968  1.00  0.00     0.039 C 
ATOM      8  C   UNL     1       9.755  30.697 -10.248  1.00  0.00    -0.023 CG0
ATOM      9  G   UNL     1      11.242  30.970 -10.372  1.00  0.00     0.000 G0
ENDBRANCH   5   6
ENDBRANCH   4   5
ENDBRANCH   2   4
BRANCH   1  10
ATOM     10  C   UNL     1      10.600  32.505 -13.309  1.00  0.00     0.111 C 
BRANCH  10  11
ATOM     11  C   UNL     1      11.823  31.954 -12.640  1.00  0.00     0.163 C 
ATOM     12  O   UNL     1      12.934  32.517 -12.840  1.00  0.00    -0.294 OA
BRANCH  11  13
ATOM     13  C   UNL     1      11.742  30.740 -11.788  1.00  0.00    -0.002 C 
ATOM     14  C   UNL     1      12.079  29.508 -12.268  1.00  0.00    -0.069 C 
ATOM     15  C   UNL     1      11.897  28.257 -11.439  1.00  0.00     0.039 C 
ATOM     16  C   UNL     1      12.667  29.342 -13.652  1.00  0.00     0.039 C 
BRANCH  13  17
ATOM     17  C   UNL     1      11.250  30.954 -10.372  1.00  0.00     0.066 CG0
ATOM     18  G   UNL     1       9.758  30.711 -10.246  1.00  0.00     0.000 G0
ENDBRANCH  13  17
ENDBRANCH  11  13
ENDBRANCH  10  11
ENDBRANCH   1  10
TORSDOF 0
ENDMDL
MODEL 9
REMARK VINA RESULT:    -3.467     16.356     18.010
REMARK INTER + INTRA:          -4.498
REMARK INTER:                  -6.276
REMARK INTRA:                   1.778
REMARK UNBOUND:                 0.388
REMARK SMILES CC1=CCC(=C(C)C)C(=O)CC(C)=CCC1
REMARK SMILES IDX 12 1 14 2 13 3 15 4 16 5 2 6 1 7 3 8 11 10 9 11 10 12 5 13
REMARK SMILES IDX 6 14 7 15 8 16 4 17
REMARK H PARENT
REMARK Flexibility Score: 60.00
ROOT
ATOM      1  C   UNL     1      -0.778  30.434 -23.498  1.00  0.00    -0.070 C 
ATOM      2  C   UNL     1       0.337  29.691 -23.243  1.00  0.00    -0.027 C 
ATOM      3  C   UNL     1      -2.104  29.818 -23.119  1.00  0.00     0.039 C 
ENDROOT
BRANCH   2   4
ATOM      4  C   UNL     1       1.811  29.949 -23.532  1.00  0.00     0.032 C 
BRANCH   4   5
ATOM      5  C   UNL     1       2.174  31.281 -24.200  1.00  0.00     0.034 C 
BRANCH   5   6
ATOM      6  C   UNL     1       2.283  31.321 -25.732  1.00  0.00    -0.077 C 
ATOM      7  C   UNL     1       3.385  30.470 -26.325  1.00  0.00     0.039 C 
ATOM      8  C   UNL     1       1.577  32.076 -26.626  1.00  0.00    -0.023 CG0
ATOM      9  G   UNL     1       0.458  33.078 -26.413  1.00  0.00     0.000 G0
ENDBRANCH   5   6
ENDBRANCH   4   5
ENDBRANCH   2   4
BRANCH   1  10
ATOM     10  C   UNL     1      -0.825  31.821 -24.120  1.00  0.00     0.111 C 
BRANCH  10  11
ATOM     11  C   UNL     1      -1.523  31.814 -25.446  1.00  0.00     0.163 C 
ATOM     12  O   UNL     1      -2.624  31.210 -25.554  1.00  0.00    -0.294 OA
BRANCH  11  13
ATOM     13  C   UNL     1      -0.912  32.472 -26.630  1.00  0.00    -0.002 C 
ATOM     14  C   UNL     1      -1.547  32.500 -27.837  1.00  0.00    -0.069 C 
ATOM     15  C   UNL     1      -0.884  33.073 -29.069  1.00  0.00     0.039 C 
ATOM     16  C   UNL     1      -2.956  31.971 -27.992  1.00  0.00     0.039 C 
BRANCH  13  17
ATOM     17  C   UNL     1       0.455  33.086 -26.416  1.00  0.00     0.066 CG0
ATOM     18  G   UNL     1       1.571  32.080 -26.629  1.00  0.00     0.000 G0
ENDBRANCH  13  17
ENDBRANCH  11  13
ENDBRANCH  10  11
ENDBRANCH   1  10
TORSDOF 0
ENDMDL
