MODEL 1
REMARK VINA RESULT:    -3.565      0.000      0.000
REMARK INTER + INTRA:          -4.062
REMARK INTER:                  -3.877
REMARK INTRA:                  -0.185
REMARK UNBOUND:                -0.185
REMARK SMILES C=C(C)[C@H]1CC[C@H](C)C[C@@H]1O
REMARK SMILES IDX 8 1 7 2 6 3 5 4 4 5 10 6 9 7 11 8 2 10 1 11 3 12
REMARK H PARENT 11 9
REMARK Flexibility Score: inf
ROOT
ATOM      1  C   UNL     1       7.883   1.505   1.651  1.00  0.00     0.008 C 
ATOM      2  C   UNL     1       7.281   1.888   0.295  1.00  0.00    -0.012 C 
ATOM      3  C   UNL     1       5.849   2.429   0.473  1.00  0.00     0.004 C 
ATOM      4  C   UNL     1       5.238   2.827  -0.877  1.00  0.00     0.011 C 
ATOM      5  C   UNL     1       6.119   3.869  -1.597  1.00  0.00     0.043 C 
ATOM      6  C   UNL     1       7.565   3.337  -1.773  1.00  0.00     0.121 C 
ATOM      7  C   UNL     1       8.169   2.928  -0.416  1.00  0.00     0.035 C 
ENDROOT
BRANCH   6   8
ATOM      8  O   UNL     1       8.380   4.293  -2.403  1.00  0.00    -0.392 OA
ATOM      9  H   UNL     1       8.553   5.020  -1.749  1.00  0.00     0.210 HD
ENDBRANCH   6   8
BRANCH   5  10
ATOM     10  C   UNL     1       5.504   4.282  -2.929  1.00  0.00    -0.075 C 
ATOM     11  C   UNL     1       5.125   3.366  -3.838  1.00  0.00     0.008 C 
ATOM     12  C   UNL     1       5.311   5.741  -3.251  1.00  0.00     0.039 C 
ENDBRANCH   5  10
TORSDOF 2
ENDMDL
MODEL 2
REMARK VINA RESULT:    -3.419     11.048     12.198
REMARK INTER + INTRA:          -3.904
REMARK INTER:                  -3.709
REMARK INTRA:                  -0.195
REMARK UNBOUND:                -0.185
REMARK SMILES C=C(C)[C@H]1CC[C@H](C)C[C@@H]1O
REMARK SMILES IDX 8 1 7 2 6 3 5 4 4 5 10 6 9 7 11 8 2 10 1 11 3 12
REMARK H PARENT 11 9
REMARK Flexibility Score: inf
ROOT
ATOM      1  C   UNL     1       1.024  -7.278  -4.498  1.00  0.00     0.008 C 
ATOM      2  C   UNL     1       0.141  -6.332  -5.320  1.00  0.00    -0.012 C 
ATOM      3  C   UNL     1      -1.327  -6.797  -5.284  1.00  0.00     0.004 C 
ATOM      4  C   UNL     1      -2.225  -5.853  -6.094  1.00  0.00     0.011 C 
ATOM      5  C   UNL     1      -2.108  -4.403  -5.581  1.00  0.00     0.043 C 
ATOM      6  C   UNL     1      -0.631  -3.929  -5.606  1.00  0.00     0.121 C 
ATOM      7  C   UNL     1       0.267  -4.888  -4.800  1.00  0.00     0.035 C 
ENDROOT
BRANCH   6   8
ATOM      8  O   UNL     1      -0.514  -2.618  -5.111  1.00  0.00    -0.392 OA
ATOM      9  H   UNL     1       0.438  -2.350  -5.192  1.00  0.00     0.210 HD
ENDBRANCH   6   8
BRANCH   5  10
ATOM     10  C   UNL     1      -3.014  -3.465  -6.370  1.00  0.00    -0.075 C 
ATOM     11  C   UNL     1      -2.877  -3.315  -7.699  1.00  0.00     0.008 C 
ATOM     12  C   UNL     1      -4.089  -2.681  -5.663  1.00  0.00     0.039 C 
ENDBRANCH   5  10
TORSDOF 2
ENDMDL
MODEL 3
REMARK VINA RESULT:    -3.417      2.104      2.620
REMARK INTER + INTRA:          -3.902
REMARK INTER:                  -3.716
REMARK INTRA:                  -0.186
REMARK UNBOUND:                -0.185
REMARK SMILES C=C(C)[C@H]1CC[C@H](C)C[C@@H]1O
REMARK SMILES IDX 8 1 7 2 6 3 5 4 4 5 10 6 9 7 11 8 2 10 1 11 3 12
REMARK H PARENT 11 9
REMARK Flexibility Score: inf
ROOT
ATOM      1  C   UNL     1       5.277  -0.832  -0.644  1.00  0.00     0.008 C 
ATOM      2  C   UNL     1       5.867   0.440  -1.262  1.00  0.00    -0.012 C 
ATOM      3  C   UNL     1       5.298   0.667  -2.676  1.00  0.00     0.004 C 
ATOM      4  C   UNL     1       5.871   1.945  -3.302  1.00  0.00     0.011 C 
ATOM      5  C   UNL     1       5.593   3.172  -2.409  1.00  0.00     0.043 C 
ATOM      6  C   UNL     1       6.155   2.949  -0.981  1.00  0.00     0.121 C 
ATOM      7  C   UNL     1       5.584   1.658  -0.362  1.00  0.00     0.035 C 
ENDROOT
BRANCH   6   8
ATOM      8  O   UNL     1       5.879   4.051  -0.153  1.00  0.00    -0.392 OA
ATOM      9  H   UNL     1       6.747   4.434   0.139  1.00  0.00     0.210 HD
ENDBRANCH   6   8
BRANCH   5  10
ATOM     10  C   UNL     1       6.143   4.446  -3.039  1.00  0.00    -0.075 C 
ATOM     11  C   UNL     1       7.419   4.526  -3.454  1.00  0.00     0.008 C 
ATOM     12  C   UNL     1       5.253   5.651  -3.205  1.00  0.00     0.039 C 
ENDBRANCH   5  10
TORSDOF 2
ENDMDL
MODEL 4
REMARK VINA RESULT:    -3.314      8.609      9.437
REMARK INTER + INTRA:          -3.790
REMARK INTER:                  -3.595
REMARK INTRA:                  -0.196
REMARK UNBOUND:                -0.185
REMARK SMILES C=C(C)[C@H]1CC[C@H](C)C[C@@H]1O
REMARK SMILES IDX 8 1 7 2 6 3 5 4 4 5 10 6 9 7 11 8 2 10 1 11 3 12
REMARK H PARENT 11 9
REMARK Flexibility Score: inf
ROOT
ATOM      1  C   UNL     1      -1.299   6.729   0.118  1.00  0.00     0.008 C 
ATOM      2  C   UNL     1      -2.021   6.056  -1.054  1.00  0.00    -0.012 C 
ATOM      3  C   UNL     1      -1.773   6.834  -2.360  1.00  0.00     0.004 C 
ATOM      4  C   UNL     1      -2.482   6.164  -3.544  1.00  0.00     0.011 C 
ATOM      5  C   UNL     1      -2.032   4.697  -3.700  1.00  0.00     0.043 C 
ATOM      6  C   UNL     1      -2.270   3.907  -2.387  1.00  0.00     0.121 C 
ATOM      7  C   UNL     1      -1.565   4.591  -1.199  1.00  0.00     0.035 C 
ENDROOT
BRANCH   6   8
ATOM      8  O   UNL     1      -1.834   2.577  -2.512  1.00  0.00    -0.392 OA
ATOM      9  H   UNL     1      -2.239   2.055  -1.771  1.00  0.00     0.210 HD
ENDBRANCH   6   8
BRANCH   5  10
ATOM     10  C   UNL     1      -2.718   4.034  -4.889  1.00  0.00    -0.075 C 
ATOM     11  C   UNL     1      -4.058   3.944  -4.961  1.00  0.00     0.008 C 
ATOM     12  C   UNL     1      -1.895   3.460  -6.012  1.00  0.00     0.039 C 
ENDBRANCH   5  10
TORSDOF 2
ENDMDL
MODEL 5
REMARK VINA RESULT:    -3.277     11.430     13.404
REMARK INTER + INTRA:          -3.749
REMARK INTER:                  -3.627
REMARK INTRA:                  -0.122
REMARK UNBOUND:                -0.185
REMARK SMILES C=C(C)[C@H]1CC[C@H](C)C[C@@H]1O
REMARK SMILES IDX 8 1 7 2 6 3 5 4 4 5 10 6 9 7 11 8 2 10 1 11 3 12
REMARK H PARENT 11 9
REMARK Flexibility Score: inf
ROOT
ATOM      1  C   UNL     1      -5.205  -2.021  -8.329  1.00  0.00     0.008 C 
ATOM      2  C   UNL     1      -4.434  -3.026  -7.467  1.00  0.00    -0.012 C 
ATOM      3  C   UNL     1      -3.452  -3.839  -8.333  1.00  0.00     0.004 C 
ATOM      4  C   UNL     1      -2.665  -4.842  -7.480  1.00  0.00     0.011 C 
ATOM      5  C   UNL     1      -1.910  -4.126  -6.341  1.00  0.00     0.043 C 
ATOM      6  C   UNL     1      -2.889  -3.299  -5.468  1.00  0.00     0.121 C 
ATOM      7  C   UNL     1      -3.685  -2.301  -6.332  1.00  0.00     0.035 C 
ENDROOT
BRANCH   6   8
ATOM      8  O   UNL     1      -2.203  -2.620  -4.446  1.00  0.00    -0.392 OA
ATOM      9  H   UNL     1      -2.114  -3.243  -3.678  1.00  0.00     0.210 HD
ENDBRANCH   6   8
BRANCH   5  10
ATOM     10  C   UNL     1      -1.110  -5.118  -5.504  1.00  0.00    -0.075 C 
ATOM     11  C   UNL     1      -1.617  -6.315  -5.164  1.00  0.00     0.008 C 
ATOM     12  C   UNL     1       0.279  -4.764  -5.037  1.00  0.00     0.039 C 
ENDBRANCH   5  10
TORSDOF 2
ENDMDL
MODEL 6
REMARK VINA RESULT:    -3.255      1.363      4.404
REMARK INTER + INTRA:          -3.726
REMARK INTER:                  -3.530
REMARK INTRA:                  -0.196
REMARK UNBOUND:                -0.185
REMARK SMILES C=C(C)[C@H]1CC[C@H](C)C[C@@H]1O
REMARK SMILES IDX 8 1 7 2 6 3 5 4 4 5 10 6 9 7 11 8 2 10 1 11 3 12
REMARK H PARENT 11 9
REMARK Flexibility Score: inf
ROOT
ATOM      1  C   UNL     1       6.427   4.329  -3.804  1.00  0.00     0.008 C 
ATOM      2  C   UNL     1       6.704   3.905  -2.358  1.00  0.00    -0.012 C 
ATOM      3  C   UNL     1       5.632   2.910  -1.873  1.00  0.00     0.004 C 
ATOM      4  C   UNL     1       5.902   2.468  -0.429  1.00  0.00     0.011 C 
ATOM      5  C   UNL     1       7.309   1.848  -0.294  1.00  0.00     0.043 C 
ATOM      6  C   UNL     1       8.394   2.840  -0.788  1.00  0.00     0.121 C 
ATOM      7  C   UNL     1       8.111   3.289  -2.235  1.00  0.00     0.035 C 
ENDROOT
BRANCH   6   8
ATOM      8  O   UNL     1       9.676   2.270  -0.696  1.00  0.00    -0.392 OA
ATOM      9  H   UNL     1      10.228   2.649  -1.429  1.00  0.00     0.210 HD
ENDBRANCH   6   8
BRANCH   5  10
ATOM     10  C   UNL     1       7.573   1.389   1.135  1.00  0.00    -0.075 C 
ATOM     11  C   UNL     1       7.497   2.244   2.169  1.00  0.00     0.008 C 
ATOM     12  C   UNL     1       7.931  -0.048   1.412  1.00  0.00     0.039 C 
ENDBRANCH   5  10
TORSDOF 2
ENDMDL
MODEL 7
REMARK VINA RESULT:    -3.249     11.588     12.669
REMARK INTER + INTRA:          -3.719
REMARK INTER:                  -3.577
REMARK INTRA:                  -0.141
REMARK UNBOUND:                -0.185
REMARK SMILES C=C(C)[C@H]1CC[C@H](C)C[C@@H]1O
REMARK SMILES IDX 8 1 7 2 6 3 5 4 4 5 10 6 9 7 11 8 2 10 1 11 3 12
REMARK H PARENT 11 9
REMARK Flexibility Score: inf
ROOT
ATOM      1  C   UNL     1       1.954  -7.538  -4.351  1.00  0.00     0.008 C 
ATOM      2  C   UNL     1       0.708  -6.654  -4.465  1.00  0.00    -0.012 C 
ATOM      3  C   UNL     1       1.075  -5.279  -5.057  1.00  0.00     0.004 C 
ATOM      4  C   UNL     1      -0.166  -4.386  -5.187  1.00  0.00     0.011 C 
ATOM      5  C   UNL     1      -1.251  -5.068  -6.046  1.00  0.00     0.043 C 
ATOM      6  C   UNL     1      -1.620  -6.457  -5.463  1.00  0.00     0.121 C 
ATOM      7  C   UNL     1      -0.368  -7.345  -5.325  1.00  0.00     0.035 C 
ENDROOT
BRANCH   6   8
ATOM      8  O   UNL     1      -2.587  -7.097  -6.259  1.00  0.00    -0.392 OA
ATOM      9  H   UNL     1      -2.844  -7.939  -5.801  1.00  0.00     0.210 HD
ENDBRANCH   6   8
BRANCH   5  10
ATOM     10  C   UNL     1      -2.477  -4.175  -6.195  1.00  0.00    -0.075 C 
ATOM     11  C   UNL     1      -2.986  -3.507  -5.146  1.00  0.00     0.008 C 
ATOM     12  C   UNL     1      -3.146  -4.028  -7.537  1.00  0.00     0.039 C 
ENDBRANCH   5  10
TORSDOF 2
ENDMDL
MODEL 8
REMARK VINA RESULT:    -3.224     11.904     13.364
REMARK INTER + INTRA:          -3.692
REMARK INTER:                  -3.529
REMARK INTRA:                  -0.163
REMARK UNBOUND:                -0.185
REMARK SMILES C=C(C)[C@H]1CC[C@H](C)C[C@@H]1O
REMARK SMILES IDX 8 1 7 2 6 3 5 4 4 5 10 6 9 7 11 8 2 10 1 11 3 12
REMARK H PARENT 11 9
REMARK Flexibility Score: inf
ROOT
ATOM      1  C   UNL     1      -2.003  -2.661  -5.502  1.00  0.00     0.008 C 
ATOM      2  C   UNL     1      -1.301  -3.986  -5.818  1.00  0.00    -0.012 C 
ATOM      3  C   UNL     1      -0.134  -4.225  -4.840  1.00  0.00     0.004 C 
ATOM      4  C   UNL     1       0.571  -5.555  -5.138  1.00  0.00     0.011 C 
ATOM      5  C   UNL     1      -0.424  -6.733  -5.084  1.00  0.00     0.043 C 
ATOM      6  C   UNL     1      -1.606  -6.497  -6.060  1.00  0.00     0.121 C 
ATOM      7  C   UNL     1      -2.303  -5.155  -5.763  1.00  0.00     0.035 C 
ENDROOT
BRANCH   6   8
ATOM      8  O   UNL     1      -2.532  -7.553  -5.994  1.00  0.00    -0.392 OA
ATOM      9  H   UNL     1      -2.624  -7.814  -5.041  1.00  0.00     0.210 HD
ENDBRANCH   6   8
BRANCH   5  10
ATOM     10  C   UNL     1       0.278  -8.058  -5.359  1.00  0.00    -0.075 C 
ATOM     11  C   UNL     1       0.536  -8.931  -4.369  1.00  0.00     0.008 C 
ATOM     12  C   UNL     1       0.701  -8.411  -6.761  1.00  0.00     0.039 C 
ENDBRANCH   5  10
TORSDOF 2
ENDMDL
MODEL 9
REMARK VINA RESULT:    -3.189      9.996     11.370
REMARK INTER + INTRA:          -3.654
REMARK INTER:                  -3.459
REMARK INTRA:                  -0.195
REMARK UNBOUND:                -0.185
REMARK SMILES C=C(C)[C@H]1CC[C@H](C)C[C@@H]1O
REMARK SMILES IDX 8 1 7 2 6 3 5 4 4 5 10 6 9 7 11 8 2 10 1 11 3 12
REMARK H PARENT 11 9
REMARK Flexibility Score: inf
ROOT
ATOM      1  C   UNL     1      -2.216  -6.755  -6.302  1.00  0.00     0.008 C 
ATOM      2  C   UNL     1      -1.203  -6.120  -5.344  1.00  0.00    -0.012 C 
ATOM      3  C   UNL     1       0.123  -6.905  -5.361  1.00  0.00     0.004 C 
ATOM      4  C   UNL     1       1.151  -6.273  -4.414  1.00  0.00     0.011 C 
ATOM      5  C   UNL     1       1.399  -4.794  -4.775  1.00  0.00     0.043 C 
ATOM      6  C   UNL     1       0.068  -3.997  -4.768  1.00  0.00     0.121 C 
ATOM      7  C   UNL     1      -0.963  -4.643  -5.713  1.00  0.00     0.035 C 
ENDROOT
BRANCH   6   8
ATOM      8  O   UNL     1       0.284  -2.654  -5.125  1.00  0.00    -0.392 OA
ATOM      9  H   UNL     1      -0.604  -2.215  -5.194  1.00  0.00     0.210 HD
ENDBRANCH   6   8
BRANCH   5  10
ATOM     10  C   UNL     1       2.435  -4.169  -3.848  1.00  0.00    -0.075 C 
ATOM     11  C   UNL     1       2.274  -4.174  -2.514  1.00  0.00     0.008 C 
ATOM     12  C   UNL     1       3.670  -3.525  -4.423  1.00  0.00     0.039 C 
ENDBRANCH   5  10
TORSDOF 2
ENDMDL
