MODEL 1
REMARK VINA RESULT:    -3.079      0.000      0.000
REMARK INTER + INTRA:          -4.405
REMARK INTER:                  -4.698
REMARK INTRA:                   0.293
REMARK UNBOUND:                 0.293
REMARK SMILES OC[C@@H]1O[C@@H](O[C@]2(CO)O[C@H](CO)[C@H](O)[C@@H]2O)[C@@H](O)[C@H](O)[C@@H]1O
REMARK SMILES IDX 6 1 5 2 3 3 22 4 4 5 20 6 18 7 2 8 1 9 23 11 21 13 19 15
REMARK SMILES IDX 7 17 16 18 10 19 14 20 11 21 8 22 9 23 17 25 15 27 12 29
REMARK SMILES IDX 13 30
REMARK H PARENT 1 10 23 12 21 14 19 16 9 24 17 26 15 28 13 31
REMARK Flexibility Score: inf
ROOT
ATOM      1  O   UNL     1       2.855   7.528   4.015  1.00  0.00    -0.313 OA
ENDROOT
BRANCH   1   2
ATOM      2  C   UNL     1       3.400   7.438   2.699  1.00  0.00     0.285 C 
ATOM      3  C   UNL     1       5.045   5.909   3.399  1.00  0.00     0.178 C 
ATOM      4  C   UNL     1       6.207   6.902   3.175  1.00  0.00     0.177 C 
ATOM      5  O   UNL     1       3.985   6.160   2.489  1.00  0.00    -0.341 OA
ATOM      6  C   UNL     1       5.679   8.335   3.362  1.00  0.00     0.179 C 
ATOM      7  C   UNL     1       4.439   8.559   2.472  1.00  0.00     0.202 C 
BRANCH   3   8
ATOM      8  C   UNL     1       5.502   4.447   3.258  1.00  0.00     0.191 C 
BRANCH   8   9
ATOM      9  O   UNL     1       5.527   4.041   1.916  1.00  0.00    -0.394 OA
ATOM     10  H   UNL     1       4.615   3.715   1.697  1.00  0.00     0.210 HD
ENDBRANCH   8   9
ENDBRANCH   3   8
BRANCH   4  11
ATOM     11  O   UNL     1       6.732   6.746   1.879  1.00  0.00    -0.387 OA
ATOM     12  H   UNL     1       6.005   6.977   1.242  1.00  0.00     0.211 HD
ENDBRANCH   4  11
BRANCH   6  13
ATOM     13  O   UNL     1       6.688   9.255   3.033  1.00  0.00    -0.387 OA
ATOM     14  H   UNL     1       6.501  10.085   3.544  1.00  0.00     0.211 HD
ENDBRANCH   6  13
BRANCH   7  15
ATOM     15  O   UNL     1       3.857   9.804   2.759  1.00  0.00    -0.385 OA
ATOM     16  H   UNL     1       3.794  10.300   1.901  1.00  0.00     0.211 HD
ENDBRANCH   7  15
ENDBRANCH   1   2
BRANCH   1  17
ATOM     17  C   UNL     1       1.430   7.573   4.093  1.00  0.00     0.224 C 
ATOM     18  C   UNL     1       0.723   7.339   2.735  1.00  0.00     0.208 C 
ATOM     19  O   UNL     1       1.038   6.495   4.920  1.00  0.00    -0.337 OA
ATOM     20  C   UNL     1      -0.576   6.680   3.145  1.00  0.00     0.180 C 
ATOM     21  C   UNL     1      -0.229   6.026   4.492  1.00  0.00     0.179 C 
BRANCH  17  22
ATOM     22  C   UNL     1       0.960   8.872   4.817  1.00  0.00     0.225 C 
BRANCH  22  23
ATOM     23  O   UNL     1       1.861   9.305   5.801  1.00  0.00    -0.391 OA
ATOM     24  H   UNL     1       2.667   9.644   5.332  1.00  0.00     0.210 HD
ENDBRANCH  22  23
ENDBRANCH  17  22
BRANCH  18  25
ATOM     25  O   UNL     1       1.469   6.498   1.883  1.00  0.00    -0.385 OA
ATOM     26  H   UNL     1       1.182   5.561   2.038  1.00  0.00     0.211 HD
ENDBRANCH  18  25
BRANCH  20  27
ATOM     27  O   UNL     1      -1.032   5.761   2.184  1.00  0.00    -0.387 OA
ATOM     28  H   UNL     1      -1.928   6.077   1.895  1.00  0.00     0.211 HD
ENDBRANCH  20  27
BRANCH  21  29
ATOM     29  C   UNL     1      -0.218   4.488   4.459  1.00  0.00     0.191 C 
BRANCH  29  30
ATOM     30  O   UNL     1      -1.064   3.973   5.453  1.00  0.00    -0.394 OA
ATOM     31  H   UNL     1      -0.557   4.007   6.306  1.00  0.00     0.210 HD
ENDBRANCH  29  30
ENDBRANCH  21  29
ENDBRANCH   1  17
TORSDOF 13
ENDMDL
MODEL 2
REMARK VINA RESULT:    -2.624      1.711      5.675
REMARK INTER + INTRA:          -3.712
REMARK INTER:                  -2.298
REMARK INTRA:                  -1.414
REMARK UNBOUND:                 0.293
REMARK SMILES OC[C@@H]1O[C@@H](O[C@]2(CO)O[C@H](CO)[C@H](O)[C@@H]2O)[C@@H](O)[C@H](O)[C@@H]1O
REMARK SMILES IDX 6 1 5 2 3 3 22 4 4 5 20 6 18 7 2 8 1 9 23 11 21 13 19 15
REMARK SMILES IDX 7 17 16 18 10 19 14 20 11 21 8 22 9 23 17 25 15 27 12 29
REMARK SMILES IDX 13 30
REMARK H PARENT 1 10 23 12 21 14 19 16 9 24 17 26 15 28 13 31
REMARK Flexibility Score: inf
ROOT
ATOM      1  O   UNL     1       3.047   6.593   2.239  1.00  0.00    -0.313 OA
ENDROOT
BRANCH   1   2
ATOM      2  C   UNL     1       2.301   6.810   3.436  1.00  0.00     0.285 C 
ATOM      3  C   UNL     1       0.296   6.146   2.401  1.00  0.00     0.178 C 
ATOM      4  C   UNL     1      -0.321   7.561   2.460  1.00  0.00     0.177 C 
ATOM      5  O   UNL     1       1.181   5.936   3.490  1.00  0.00    -0.341 OA
ATOM      6  C   UNL     1       0.813   8.599   2.427  1.00  0.00     0.179 C 
ATOM      7  C   UNL     1       1.848   8.285   3.525  1.00  0.00     0.202 C 
BRANCH   3   8
ATOM      8  C   UNL     1      -0.781   5.048   2.401  1.00  0.00     0.191 C 
BRANCH   8   9
ATOM      9  O   UNL     1      -0.929   4.470   3.670  1.00  0.00    -0.394 OA
ATOM     10  H   UNL     1      -0.991   3.488   3.535  1.00  0.00     0.210 HD
ENDBRANCH   8   9
ENDBRANCH   3   8
BRANCH   4  11
ATOM     11  O   UNL     1      -1.076   7.708   3.639  1.00  0.00    -0.387 OA
ATOM     12  H   UNL     1      -1.622   8.531   3.532  1.00  0.00     0.211 HD
ENDBRANCH   4  11
BRANCH   6  13
ATOM     13  O   UNL     1       0.278   9.885   2.612  1.00  0.00    -0.387 OA
ATOM     14  H   UNL     1       0.695  10.256   3.433  1.00  0.00     0.211 HD
ENDBRANCH   6  13
BRANCH   7  15
ATOM     15  O   UNL     1       2.963   9.127   3.395  1.00  0.00    -0.385 OA
ATOM     16  H   UNL     1       3.748   8.546   3.221  1.00  0.00     0.211 HD
ENDBRANCH   7  15
ENDBRANCH   1   2
BRANCH   1  17
ATOM     17  C   UNL     1       4.378   6.108   2.419  1.00  0.00     0.224 C 
ATOM     18  C   UNL     1       5.469   7.065   1.876  1.00  0.00     0.208 C 
ATOM     19  O   UNL     1       4.594   6.033   3.814  1.00  0.00    -0.337 OA
ATOM     20  C   UNL     1       6.639   6.792   2.797  1.00  0.00     0.180 C 
ATOM     21  C   UNL     1       5.964   6.280   4.080  1.00  0.00     0.179 C 
BRANCH  17  22
ATOM     22  C   UNL     1       4.510   4.652   1.877  1.00  0.00     0.225 C 
BRANCH  22  23
ATOM     23  O   UNL     1       5.216   3.808   2.746  1.00  0.00    -0.391 OA
ATOM     24  H   UNL     1       4.675   3.721   3.574  1.00  0.00     0.210 HD
ENDBRANCH  22  23
ENDBRANCH  17  22
BRANCH  18  25
ATOM     25  O   UNL     1       5.076   8.417   1.945  1.00  0.00    -0.385 OA
ATOM     26  H   UNL     1       5.629   8.937   1.305  1.00  0.00     0.211 HD
ENDBRANCH  18  25
BRANCH  20  27
ATOM     27  O   UNL     1       7.429   7.936   3.006  1.00  0.00    -0.387 OA
ATOM     28  H   UNL     1       6.861   8.716   2.771  1.00  0.00     0.211 HD
ENDBRANCH  20  27
BRANCH  21  29
ATOM     29  C   UNL     1       6.086   7.237   5.278  1.00  0.00     0.191 C 
BRANCH  29  30
ATOM     30  O   UNL     1       5.226   8.334   5.116  1.00  0.00    -0.394 OA
ATOM     31  H   UNL     1       4.895   8.575   6.021  1.00  0.00     0.210 HD
ENDBRANCH  29  30
ENDBRANCH  21  29
ENDBRANCH   1  17
TORSDOF 13
ENDMDL
MODEL 3
REMARK VINA RESULT:    -2.005      1.500      5.981
REMARK INTER + INTRA:          -2.767
REMARK INTER:                  -1.383
REMARK INTRA:                  -1.384
REMARK UNBOUND:                 0.293
REMARK SMILES OC[C@@H]1O[C@@H](O[C@]2(CO)O[C@H](CO)[C@H](O)[C@@H]2O)[C@@H](O)[C@H](O)[C@@H]1O
REMARK SMILES IDX 6 1 5 2 3 3 22 4 4 5 20 6 18 7 2 8 1 9 23 11 21 13 19 15
REMARK SMILES IDX 7 17 16 18 10 19 14 20 11 21 8 22 9 23 17 25 15 27 12 29
REMARK SMILES IDX 13 30
REMARK H PARENT 1 10 23 12 21 14 19 16 9 24 17 26 15 28 13 31
REMARK Flexibility Score: inf
ROOT
ATOM      1  O   UNL     1       3.337   7.610   3.565  1.00  0.00    -0.313 OA
ENDROOT
BRANCH   1   2
ATOM      2  C   UNL     1       2.215   8.192   2.903  1.00  0.00     0.285 C 
ATOM      3  C   UNL     1       1.267   8.880   4.942  1.00  0.00     0.178 C 
ATOM      4  C   UNL     1       0.076   7.902   4.835  1.00  0.00     0.177 C 
ATOM      5  O   UNL     1       1.705   9.286   3.655  1.00  0.00    -0.341 OA
ATOM      6  C   UNL     1       0.513   6.676   4.016  1.00  0.00     0.179 C 
ATOM      7  C   UNL     1       1.118   7.128   2.672  1.00  0.00     0.202 C 
BRANCH   3   8
ATOM      8  C   UNL     1       0.916  10.125   5.776  1.00  0.00     0.191 C 
BRANCH   8   9
ATOM      9  O   UNL     1       1.552  10.105   7.026  1.00  0.00    -0.394 OA
ATOM     10  H   UNL     1       1.174  10.855   7.554  1.00  0.00     0.210 HD
ENDBRANCH   8   9
ENDBRANCH   3   8
BRANCH   4  11
ATOM     11  O   UNL     1      -1.014   8.536   4.210  1.00  0.00    -0.387 OA
ATOM     12  H   UNL     1      -1.354   9.219   4.845  1.00  0.00     0.211 HD
ENDBRANCH   4  11
BRANCH   6  13
ATOM     13  O   UNL     1      -0.593   5.838   3.797  1.00  0.00    -0.387 OA
ATOM     14  H   UNL     1      -1.398   6.419   3.784  1.00  0.00     0.211 HD
ENDBRANCH   6  13
BRANCH   7  15
ATOM     15  O   UNL     1       1.667   6.028   1.994  1.00  0.00    -0.385 OA
ATOM     16  H   UNL     1       2.590   5.906   2.337  1.00  0.00     0.211 HD
ENDBRANCH   7  15
ENDBRANCH   1   2
BRANCH   1  17
ATOM     17  C   UNL     1       4.569   7.648   2.845  1.00  0.00     0.224 C 
ATOM     18  C   UNL     1       5.824   7.550   3.749  1.00  0.00     0.208 C 
ATOM     19  O   UNL     1       4.594   6.493   2.030  1.00  0.00    -0.337 OA
ATOM     20  C   UNL     1       6.826   6.854   2.853  1.00  0.00     0.180 C 
ATOM     21  C   UNL     1       5.937   6.069   1.875  1.00  0.00     0.179 C 
BRANCH  17  22
ATOM     22  C   UNL     1       4.602   8.868   1.875  1.00  0.00     0.225 C 
BRANCH  22  23
ATOM     23  O   UNL     1       5.256   9.982   2.421  1.00  0.00    -0.391 OA
ATOM     24  H   UNL     1       4.591  10.471   2.973  1.00  0.00     0.210 HD
ENDBRANCH  22  23
ENDBRANCH  17  22
BRANCH  18  25
ATOM     25  O   UNL     1       5.583   6.798   4.918  1.00  0.00    -0.385 OA
ATOM     26  H   UNL     1       5.653   5.835   4.690  1.00  0.00     0.211 HD
ENDBRANCH  18  25
BRANCH  20  27
ATOM     27  O   UNL     1       7.708   6.035   3.580  1.00  0.00    -0.387 OA
ATOM     28  H   UNL     1       8.604   6.459   3.515  1.00  0.00     0.211 HD
ENDBRANCH  20  27
BRANCH  21  29
ATOM     29  C   UNL     1       6.013   4.542   2.046  1.00  0.00     0.191 C 
BRANCH  29  30
ATOM     30  O   UNL     1       5.555   4.171   3.319  1.00  0.00    -0.394 OA
ATOM     31  H   UNL     1       5.900   4.849   3.957  1.00  0.00     0.210 HD
ENDBRANCH  29  30
ENDBRANCH  21  29
ENDBRANCH   1  17
TORSDOF 13
ENDMDL
MODEL 4
REMARK VINA RESULT:    -1.367      1.651      6.000
REMARK INTER + INTRA:          -1.792
REMARK INTER:                  -0.588
REMARK INTRA:                  -1.204
REMARK UNBOUND:                 0.293
REMARK SMILES OC[C@@H]1O[C@@H](O[C@]2(CO)O[C@H](CO)[C@H](O)[C@@H]2O)[C@@H](O)[C@H](O)[C@@H]1O
REMARK SMILES IDX 6 1 5 2 3 3 22 4 4 5 20 6 18 7 2 8 1 9 23 11 21 13 19 15
REMARK SMILES IDX 7 17 16 18 10 19 14 20 11 21 8 22 9 23 17 25 15 27 12 29
REMARK SMILES IDX 13 30
REMARK H PARENT 1 10 23 12 21 14 19 16 9 24 17 26 15 28 13 31
REMARK Flexibility Score: inf
ROOT
ATOM      1  O   UNL     1       2.791   7.222   3.565  1.00  0.00    -0.313 OA
ENDROOT
BRANCH   1   2
ATOM      2  C   UNL     1       2.212   6.204   2.748  1.00  0.00     0.285 C 
ATOM      3  C   UNL     1       0.101   7.238   2.818  1.00  0.00     0.178 C 
ATOM      4  C   UNL     1      -0.537   6.106   3.653  1.00  0.00     0.177 C 
ATOM      5  O   UNL     1       1.134   6.731   1.987  1.00  0.00    -0.341 OA
ATOM      6  C   UNL     1       0.555   5.446   4.512  1.00  0.00     0.179 C 
ATOM      7  C   UNL     1       1.740   5.021   3.622  1.00  0.00     0.202 C 
BRANCH   3   8
ATOM      8  C   UNL     1      -0.938   7.969   1.951  1.00  0.00     0.191 C 
BRANCH   8   9
ATOM      9  O   UNL     1      -0.795   9.361   2.039  1.00  0.00    -0.394 OA
ATOM     10  H   UNL     1      -1.140   9.631   2.930  1.00  0.00     0.210 HD
ENDBRANCH   8   9
ENDBRANCH   3   8
BRANCH   4  11
ATOM     11  O   UNL     1      -1.125   5.151   2.802  1.00  0.00    -0.387 OA
ATOM     12  H   UNL     1      -2.065   5.035   3.102  1.00  0.00     0.211 HD
ENDBRANCH   4  11
BRANCH   6  13
ATOM     13  O   UNL     1       0.019   4.331   5.178  1.00  0.00    -0.387 OA
ATOM     14  H   UNL     1       0.272   4.416   6.135  1.00  0.00     0.211 HD
ENDBRANCH   6  13
BRANCH   7  15
ATOM     15  O   UNL     1       2.805   4.569   4.417  1.00  0.00    -0.385 OA
ATOM     16  H   UNL     1       3.503   4.226   3.800  1.00  0.00     0.211 HD
ENDBRANCH   7  15
ENDBRANCH   1   2
BRANCH   1  17
ATOM     17  C   UNL     1       3.738   8.072   2.918  1.00  0.00     0.224 C 
ATOM     18  C   UNL     1       4.811   8.652   3.874  1.00  0.00     0.208 C 
ATOM     19  O   UNL     1       4.444   7.262   1.998  1.00  0.00    -0.337 OA
ATOM     20  C   UNL     1       6.015   8.803   2.970  1.00  0.00     0.180 C 
ATOM     21  C   UNL     1       5.767   7.753   1.875  1.00  0.00     0.179 C 
BRANCH  17  22
ATOM     22  C   UNL     1       3.011   9.161   2.073  1.00  0.00     0.225 C 
BRANCH  22  23
ATOM     23  O   UNL     1       2.226  10.024   2.853  1.00  0.00    -0.391 OA
ATOM     24  H   UNL     1       1.368   9.558   3.031  1.00  0.00     0.210 HD
ENDBRANCH  22  23
ENDBRANCH  17  22
BRANCH  18  25
ATOM     25  O   UNL     1       5.092   7.785   4.950  1.00  0.00    -0.385 OA
ATOM     26  H   UNL     1       5.057   8.310   5.792  1.00  0.00     0.211 HD
ENDBRANCH  18  25
BRANCH  20  27
ATOM     27  O   UNL     1       7.225   8.608   3.660  1.00  0.00    -0.387 OA
ATOM     28  H   UNL     1       7.228   9.258   4.410  1.00  0.00     0.211 HD
ENDBRANCH  20  27
BRANCH  21  29
ATOM     29  C   UNL     1       6.753   6.572   1.902  1.00  0.00     0.191 C 
BRANCH  29  30
ATOM     30  O   UNL     1       6.609   5.844   3.092  1.00  0.00    -0.394 OA
ATOM     31  H   UNL     1       5.724   6.087   3.472  1.00  0.00     0.210 HD
ENDBRANCH  29  30
ENDBRANCH  21  29
ENDBRANCH   1  17
TORSDOF 13
ENDMDL
