MODEL 1
REMARK VINA RESULT:    -2.982      0.000      0.000
REMARK INTER + INTRA:          -4.409
REMARK INTER:                  -4.028
REMARK INTRA:                  -0.381
REMARK UNBOUND:                -0.381
REMARK SMILES CCCCCCCC(=O)[O-]
REMARK SMILES IDX 5 1 6 2 7 3 8 4 9 5 10 6 4 7 3 8 2 9 1 10
REMARK H PARENT
REMARK Flexibility Score: inf
ROOT
ATOM      1  C   UNL     1     -17.464   3.597 -17.975  1.00  0.00     0.000 C 
ENDROOT
BRANCH   1   2
ATOM      2  C   UNL     1     -17.661   4.332 -19.318  1.00  0.00     0.006 C 
BRANCH   2   3
ATOM      3  C   UNL     1     -18.930   3.873 -20.049  1.00  0.00     0.053 C 
BRANCH   3   4
ATOM      4  C   UNL     1     -20.146   4.465 -19.410  1.00  0.00     0.041 C 
ATOM      5  O   UNL     1     -20.420   5.683 -19.574  1.00  0.00    -0.550 OA
ATOM      6  O   UNL     1     -20.951   3.684 -18.589  1.00  0.00    -0.550 OA
ENDBRANCH   3   4
ENDBRANCH   2   3
ENDBRANCH   1   2
BRANCH   1   7
ATOM      7  C   UNL     1     -16.110   2.875 -17.861  1.00  0.00     0.000 C 
BRANCH   7   8
ATOM      8  C   UNL     1     -15.131   3.261 -18.977  1.00  0.00    -0.000 C 
BRANCH   8   9
ATOM      9  C   UNL     1     -13.954   4.070 -18.420  1.00  0.00    -0.003 C 
ATOM     10  C   UNL     1     -13.935   5.483 -18.996  1.00  0.00     0.004 C 
ENDBRANCH   8   9
ENDBRANCH   7   8
ENDBRANCH   1   7
TORSDOF 6
ENDMDL
MODEL 2
REMARK VINA RESULT:    -2.282      2.986      5.205
REMARK INTER + INTRA:          -3.463
REMARK INTER:                  -3.023
REMARK INTRA:                  -0.440
REMARK UNBOUND:                -0.381
REMARK SMILES CCCCCCCC(=O)[O-]
REMARK SMILES IDX 5 1 6 2 7 3 8 4 9 5 10 6 4 7 3 8 2 9 1 10
REMARK H PARENT
REMARK Flexibility Score: inf
ROOT
ATOM      1  C   UNL     1     -18.356   5.197 -19.671  1.00  0.00     0.000 C 
ENDROOT
BRANCH   1   2
ATOM      2  C   UNL     1     -17.726   3.788 -19.685  1.00  0.00     0.006 C 
BRANCH   2   3
ATOM      3  C   UNL     1     -16.840   3.536 -18.458  1.00  0.00     0.053 C 
BRANCH   3   4
ATOM      4  C   UNL     1     -15.401   3.762 -18.795  1.00  0.00     0.041 C 
ATOM      5  O   UNL     1     -15.077   4.217 -19.923  1.00  0.00    -0.550 OA
ATOM      6  O   UNL     1     -14.411   3.422 -17.880  1.00  0.00    -0.550 OA
ENDBRANCH   3   4
ENDBRANCH   2   3
ENDBRANCH   1   2
BRANCH   1   7
ATOM      7  C   UNL     1     -19.888   5.185 -19.540  1.00  0.00     0.000 C 
BRANCH   7   8
ATOM      8  C   UNL     1     -20.478   3.769 -19.548  1.00  0.00    -0.000 C 
BRANCH   8   9
ATOM      9  C   UNL     1     -21.346   3.528 -18.307  1.00  0.00    -0.003 C 
ATOM     10  C   UNL     1     -20.521   2.952 -17.160  1.00  0.00     0.004 C 
ENDBRANCH   8   9
ENDBRANCH   7   8
ENDBRANCH   1   7
TORSDOF 6
ENDMDL
MODEL 3
REMARK VINA RESULT:    -1.724     20.658     22.690
REMARK INTER + INTRA:          -2.709
REMARK INTER:                  -2.436
REMARK INTRA:                  -0.273
REMARK UNBOUND:                -0.381
REMARK SMILES CCCCCCCC(=O)[O-]
REMARK SMILES IDX 5 1 6 2 7 3 8 4 9 5 10 6 4 7 3 8 2 9 1 10
REMARK H PARENT
REMARK Flexibility Score: inf
ROOT
ATOM      1  C   UNL     1     -32.021  19.162 -10.402  1.00  0.00     0.000 C 
ENDROOT
BRANCH   1   2
ATOM      2  C   UNL     1     -30.532  19.321 -10.776  1.00  0.00     0.006 C 
BRANCH   2   3
ATOM      3  C   UNL     1     -29.710  18.072 -10.428  1.00  0.00     0.053 C 
BRANCH   3   4
ATOM      4  C   UNL     1     -29.892  17.018 -11.473  1.00  0.00     0.041 C 
ATOM      5  O   UNL     1     -29.446  17.194 -12.637  1.00  0.00    -0.550 OA
ATOM      6  O   UNL     1     -30.599  15.859 -11.176  1.00  0.00    -0.550 OA
ENDBRANCH   3   4
ENDBRANCH   2   3
ENDBRANCH   1   2
BRANCH   1   7
ATOM      7  C   UNL     1     -32.791  20.492 -10.357  1.00  0.00     0.000 C 
BRANCH   7   8
ATOM      8  C   UNL     1     -31.928  21.695 -10.761  1.00  0.00    -0.000 C 
BRANCH   8   9
ATOM      9  C   UNL     1     -32.334  22.950  -9.978  1.00  0.00    -0.003 C 
ATOM     10  C   UNL     1     -33.850  23.124  -9.964  1.00  0.00     0.004 C 
ENDBRANCH   8   9
ENDBRANCH   7   8
ENDBRANCH   1   7
TORSDOF 6
ENDMDL
MODEL 4
REMARK VINA RESULT:    -1.046     21.240     23.097
REMARK INTER + INTRA:          -1.794
REMARK INTER:                  -1.565
REMARK INTRA:                  -0.229
REMARK UNBOUND:                -0.381
REMARK SMILES CCCCCCCC(=O)[O-]
REMARK SMILES IDX 5 1 6 2 7 3 8 4 9 5 10 6 4 7 3 8 2 9 1 10
REMARK H PARENT
REMARK Flexibility Score: inf
ROOT
ATOM      1  C   UNL     1     -31.804  19.088 -10.383  1.00  0.00     0.000 C 
ENDROOT
BRANCH   1   2
ATOM      2  C   UNL     1     -32.875  20.187 -10.544  1.00  0.00     0.006 C 
BRANCH   2   3
ATOM      3  C   UNL     1     -32.262  21.546 -10.908  1.00  0.00     0.053 C 
BRANCH   3   4
ATOM      4  C   UNL     1     -32.840  22.627 -10.051  1.00  0.00     0.041 C 
ATOM      5  O   UNL     1     -33.964  23.123 -10.327  1.00  0.00    -0.550 OA
ATOM      6  O   UNL     1     -32.115  23.124  -8.975  1.00  0.00    -0.550 OA
ENDBRANCH   3   4
ENDBRANCH   2   3
ENDBRANCH   1   2
BRANCH   1   7
ATOM      7  C   UNL     1     -32.378  17.661 -10.386  1.00  0.00     0.000 C 
BRANCH   7   8
ATOM      8  C   UNL     1     -31.327  16.596 -10.724  1.00  0.00    -0.000 C 
BRANCH   8   9
ATOM      9  C   UNL     1     -29.975  17.242 -11.051  1.00  0.00    -0.003 C 
ATOM     10  C   UNL     1     -29.586  17.000 -12.507  1.00  0.00     0.004 C 
ENDBRANCH   8   9
ENDBRANCH   7   8
ENDBRANCH   1   7
TORSDOF 6
ENDMDL
MODEL 5
REMARK VINA RESULT:    -0.972     20.804     22.666
REMARK INTER + INTRA:          -1.694
REMARK INTER:                  -1.429
REMARK INTRA:                  -0.265
REMARK UNBOUND:                -0.381
REMARK SMILES CCCCCCCC(=O)[O-]
REMARK SMILES IDX 5 1 6 2 7 3 8 4 9 5 10 6 4 7 3 8 2 9 1 10
REMARK H PARENT
REMARK Flexibility Score: inf
ROOT
ATOM      1  C   UNL     1     -32.765  18.336 -10.646  1.00  0.00     0.000 C 
ENDROOT
BRANCH   1   2
ATOM      2  C   UNL     1     -32.145  19.744 -10.516  1.00  0.00     0.006 C 
BRANCH   2   3
ATOM      3  C   UNL     1     -33.151  20.774  -9.986  1.00  0.00     0.053 C 
BRANCH   3   4
ATOM      4  C   UNL     1     -32.685  22.163 -10.284  1.00  0.00     0.041 C 
ATOM      5  O   UNL     1     -33.497  23.124 -10.261  1.00  0.00    -0.550 OA
ATOM      6  O   UNL     1     -31.360  22.391 -10.636  1.00  0.00    -0.550 OA
ENDBRANCH   3   4
ENDBRANCH   2   3
ENDBRANCH   1   2
BRANCH   1   7
ATOM      7  C   UNL     1     -31.802  17.200 -10.262  1.00  0.00     0.000 C 
BRANCH   7   8
ATOM      8  C   UNL     1     -30.338  17.521 -10.593  1.00  0.00    -0.000 C 
BRANCH   8   9
ATOM      9  C   UNL     1     -29.788  16.552 -11.648  1.00  0.00    -0.003 C 
ATOM     10  C   UNL     1     -29.363  17.296 -12.910  1.00  0.00     0.004 C 
ENDBRANCH   8   9
ENDBRANCH   7   8
ENDBRANCH   1   7
TORSDOF 6
ENDMDL
