MODEL 1
REMARK VINA RESULT:    -7.374      0.000      0.000
REMARK INTER + INTRA:          -9.965
REMARK INTER:                  -9.314
REMARK INTRA:                  -0.651
REMARK UNBOUND:                -0.651
REMARK SMILES O=C(C=Cc1ccc(O)cc1)c1ccc(O)cc1O
REMARK SMILES IDX 4 1 3 2 5 3 6 4 7 5 8 6 11 7 10 8 9 9 2 11 1 12 12 13 18 14
REMARK SMILES IDX 13 15 17 16 14 17 15 18 19 19 16 21
REMARK H PARENT 9 10 19 20 16 22
REMARK Flexibility Score: inf
ROOT
ATOM      1  C   UNL     1      17.066  25.148   0.143  1.00  0.00     0.012 C 
ATOM      2  C   UNL     1      17.503  25.684  -1.005  1.00  0.00     0.053 C 
ENDROOT
BRANCH   1   3
ATOM      3  C   UNL     1      16.197  23.948   0.211  1.00  0.00    -0.025 A 
ATOM      4  C   UNL     1      16.629  22.729   0.773  1.00  0.00     0.012 A 
ATOM      5  C   UNL     1      15.767  21.629   0.825  1.00  0.00     0.047 A 
ATOM      6  C   UNL     1      14.465  21.730   0.331  1.00  0.00     0.115 A 
ATOM      7  C   UNL     1      14.878  24.043  -0.267  1.00  0.00     0.012 A 
ATOM      8  C   UNL     1      14.020  22.941  -0.213  1.00  0.00     0.047 A 
BRANCH   6   9
ATOM      9  O   UNL     1      13.619  20.624   0.389  1.00  0.00    -0.508 OA
ATOM     10  H   UNL     1      13.877  19.737  -0.026  1.00  0.00     0.293 HD
ENDBRANCH   6   9
ENDBRANCH   1   3
BRANCH   2  11
ATOM     11  C   UNL     1      18.357  26.892  -1.036  1.00  0.00     0.189 C 
ATOM     12  O   UNL     1      19.437  26.882  -1.687  1.00  0.00    -0.289 OA
BRANCH  11  13
ATOM     13  C   UNL     1      17.991  28.106  -0.270  1.00  0.00     0.064 A 
ATOM     14  C   UNL     1      18.942  28.821   0.493  1.00  0.00     0.130 A 
ATOM     15  C   UNL     1      16.656  28.546  -0.283  1.00  0.00     0.020 A 
ATOM     16  C   UNL     1      18.552  29.975   1.190  1.00  0.00     0.093 A 
ATOM     17  C   UNL     1      16.277  29.693   0.419  1.00  0.00     0.047 A 
ATOM     18  C   UNL     1      17.226  30.412   1.155  1.00  0.00     0.119 A 
BRANCH  14  19
ATOM     19  O   UNL     1      20.260  28.375   0.582  1.00  0.00    -0.507 OA
ATOM     20  H   UNL     1      20.562  27.750   1.321  1.00  0.00     0.293 HD
ENDBRANCH  14  19
BRANCH  18  21
ATOM     21  O   UNL     1      16.861  31.559   1.855  1.00  0.00    -0.508 OA
ATOM     22  H   UNL     1      16.021  31.589   2.421  1.00  0.00     0.293 HD
ENDBRANCH  18  21
ENDBRANCH  11  13
ENDBRANCH   2  11
TORSDOF 6
ENDMDL
MODEL 2
REMARK VINA RESULT:    -7.330      1.655      7.297
REMARK INTER + INTRA:          -9.910
REMARK INTER:                  -9.458
REMARK INTRA:                  -0.452
REMARK UNBOUND:                -0.651
REMARK SMILES O=C(C=Cc1ccc(O)cc1)c1ccc(O)cc1O
REMARK SMILES IDX 4 1 3 2 5 3 6 4 7 5 8 6 11 7 10 8 9 9 2 11 1 12 12 13 18 14
REMARK SMILES IDX 13 15 17 16 14 17 15 18 19 19 16 21
REMARK H PARENT 9 10 19 20 16 22
REMARK Flexibility Score: inf
ROOT
ATOM      1  C   UNL     1      17.998  26.711   1.327  1.00  0.00     0.012 C 
ATOM      2  C   UNL     1      17.403  25.865   0.475  1.00  0.00     0.053 C 
ENDROOT
BRANCH   1   3
ATOM      3  C   UNL     1      17.765  28.176   1.329  1.00  0.00    -0.025 A 
ATOM      4  C   UNL     1      18.763  29.103   1.693  1.00  0.00     0.012 A 
ATOM      5  C   UNL     1      18.498  30.476   1.666  1.00  0.00     0.047 A 
ATOM      6  C   UNL     1      17.244  30.944   1.267  1.00  0.00     0.115 A 
ATOM      7  C   UNL     1      16.512  28.659   0.913  1.00  0.00     0.012 A 
ATOM      8  C   UNL     1      16.251  30.032   0.887  1.00  0.00     0.047 A 
BRANCH   6   9
ATOM      9  O   UNL     1      16.995  32.314   1.247  1.00  0.00    -0.508 OA
ATOM     10  H   UNL     1      17.399  32.936   1.937  1.00  0.00     0.293 HD
ENDBRANCH   6   9
ENDBRANCH   1   3
BRANCH   2  11
ATOM     11  C   UNL     1      17.672  24.410   0.492  1.00  0.00     0.189 C 
ATOM     12  O   UNL     1      18.862  23.991   0.471  1.00  0.00    -0.289 OA
BRANCH  11  13
ATOM     13  C   UNL     1      16.564  23.427   0.484  1.00  0.00     0.064 A 
ATOM     14  C   UNL     1      16.802  22.034   0.499  1.00  0.00     0.130 A 
ATOM     15  C   UNL     1      15.238  23.892   0.434  1.00  0.00     0.020 A 
ATOM     16  C   UNL     1      15.721  21.141   0.505  1.00  0.00     0.093 A 
ATOM     17  C   UNL     1      14.168  22.994   0.434  1.00  0.00     0.047 A 
ATOM     18  C   UNL     1      14.408  21.616   0.473  1.00  0.00     0.119 A 
BRANCH  14  19
ATOM     19  O   UNL     1      18.106  21.538   0.482  1.00  0.00    -0.507 OA
ATOM     20  H   UNL     1      18.857  21.997   0.984  1.00  0.00     0.293 HD
ENDBRANCH  14  19
BRANCH  18  21
ATOM     21  O   UNL     1      13.348  20.712   0.479  1.00  0.00    -0.508 OA
ATOM     22  H   UNL     1      13.426  19.807   0.928  1.00  0.00     0.293 HD
ENDBRANCH  18  21
ENDBRANCH  11  13
ENDBRANCH   2  11
TORSDOF 6
ENDMDL
MODEL 3
REMARK VINA RESULT:    -7.039      2.068      7.502
REMARK INTER + INTRA:          -9.542
REMARK INTER:                  -9.009
REMARK INTRA:                  -0.532
REMARK UNBOUND:                -0.651
REMARK SMILES O=C(C=Cc1ccc(O)cc1)c1ccc(O)cc1O
REMARK SMILES IDX 4 1 3 2 5 3 6 4 7 5 8 6 11 7 10 8 9 9 2 11 1 12 12 13 18 14
REMARK SMILES IDX 13 15 17 16 14 17 15 18 19 19 16 21
REMARK H PARENT 9 10 19 20 16 22
REMARK Flexibility Score: inf
ROOT
ATOM      1  C   UNL     1      16.586  27.505   0.672  1.00  0.00     0.012 C 
ATOM      2  C   UNL     1      16.304  26.978  -0.528  1.00  0.00     0.053 C 
ENDROOT
BRANCH   1   3
ATOM      3  C   UNL     1      17.456  28.691   0.864  1.00  0.00    -0.025 A 
ATOM      4  C   UNL     1      16.946  29.955   1.229  1.00  0.00     0.012 A 
ATOM      5  C   UNL     1      17.810  31.040   1.411  1.00  0.00     0.047 A 
ATOM      6  C   UNL     1      19.187  30.881   1.242  1.00  0.00     0.115 A 
ATOM      7  C   UNL     1      18.846  28.539   0.714  1.00  0.00     0.012 A 
ATOM      8  C   UNL     1      19.704  29.627   0.896  1.00  0.00     0.047 A 
BRANCH   6   9
ATOM      9  O   UNL     1      20.033  31.973   1.425  1.00  0.00    -0.508 OA
ATOM     10  H   UNL     1      19.691  32.924   1.362  1.00  0.00     0.293 HD
ENDBRANCH   6   9
ENDBRANCH   1   3
BRANCH   2  11
ATOM     11  C   UNL     1      15.444  25.783  -0.681  1.00  0.00     0.189 C 
ATOM     12  O   UNL     1      14.280  25.903  -1.154  1.00  0.00    -0.289 OA
BRANCH  11  13
ATOM     13  C   UNL     1      15.906  24.447  -0.239  1.00  0.00     0.064 A 
ATOM     14  C   UNL     1      14.998  23.419   0.102  1.00  0.00     0.130 A 
ATOM     15  C   UNL     1      17.287  24.202  -0.132  1.00  0.00     0.020 A 
ATOM     16  C   UNL     1      15.483  22.164   0.501  1.00  0.00     0.093 A 
ATOM     17  C   UNL     1      17.758  22.951   0.272  1.00  0.00     0.047 A 
ATOM     18  C   UNL     1      16.857  21.928   0.586  1.00  0.00     0.119 A 
BRANCH  14  19
ATOM     19  O   UNL     1      13.623  23.649   0.071  1.00  0.00    -0.507 OA
ATOM     20  H   UNL     1      12.964  22.989   0.469  1.00  0.00     0.293 HD
ENDBRANCH  14  19
BRANCH  18  21
ATOM     21  O   UNL     1      17.316  20.675   0.985  1.00  0.00    -0.508 OA
ATOM     22  H   UNL     1      18.246  20.351   0.747  1.00  0.00     0.293 HD
ENDBRANCH  18  21
ENDBRANCH  11  13
ENDBRANCH   2  11
TORSDOF 6
ENDMDL
MODEL 4
REMARK VINA RESULT:    -6.864      1.518      2.224
REMARK INTER + INTRA:          -9.321
REMARK INTER:                  -8.633
REMARK INTRA:                  -0.689
REMARK UNBOUND:                -0.651
REMARK SMILES O=C(C=Cc1ccc(O)cc1)c1ccc(O)cc1O
REMARK SMILES IDX 4 1 3 2 5 3 6 4 7 5 8 6 11 7 10 8 9 9 2 11 1 12 12 13 18 14
REMARK SMILES IDX 13 15 17 16 14 17 15 18 19 19 16 21
REMARK H PARENT 9 10 19 20 16 22
REMARK Flexibility Score: inf
ROOT
ATOM      1  C   UNL     1      15.947  25.742   0.183  1.00  0.00     0.012 C 
ATOM      2  C   UNL     1      16.003  26.454  -0.951  1.00  0.00     0.053 C 
ENDROOT
BRANCH   1   3
ATOM      3  C   UNL     1      15.624  24.295   0.231  1.00  0.00    -0.025 A 
ATOM      4  C   UNL     1      16.482  23.345   0.823  1.00  0.00     0.012 A 
ATOM      5  C   UNL     1      16.126  21.993   0.854  1.00  0.00     0.047 A 
ATOM      6  C   UNL     1      14.912  21.570   0.306  1.00  0.00     0.115 A 
ATOM      7  C   UNL     1      14.398  23.861  -0.302  1.00  0.00     0.012 A 
ATOM      8  C   UNL     1      14.047  22.508  -0.269  1.00  0.00     0.047 A 
BRANCH   6   9
ATOM      9  O   UNL     1      14.574  20.220   0.343  1.00  0.00    -0.508 OA
ATOM     10  H   UNL     1      14.936  19.564  -0.338  1.00  0.00     0.293 HD
ENDBRANCH   6   9
ENDBRANCH   1   3
BRANCH   2  11
ATOM     11  C   UNL     1      16.313  27.901  -0.959  1.00  0.00     0.189 C 
ATOM     12  O   UNL     1      15.832  28.642  -1.859  1.00  0.00    -0.289 OA
BRANCH  11  13
ATOM     13  C   UNL     1      17.225  28.492   0.048  1.00  0.00     0.064 A 
ATOM     14  C   UNL     1      16.793  29.494   0.947  1.00  0.00     0.130 A 
ATOM     15  C   UNL     1      18.563  28.064   0.094  1.00  0.00     0.020 A 
ATOM     16  C   UNL     1      17.689  30.015   1.893  1.00  0.00     0.093 A 
ATOM     17  C   UNL     1      19.448  28.594   1.036  1.00  0.00     0.047 A 
ATOM     18  C   UNL     1      19.011  29.569   1.940  1.00  0.00     0.119 A 
BRANCH  14  19
ATOM     19  O   UNL     1      15.491  29.990   0.885  1.00  0.00    -0.507 OA
ATOM     20  H   UNL     1      14.687  29.399   1.066  1.00  0.00     0.293 HD
ENDBRANCH  14  19
BRANCH  18  21
ATOM     21  O   UNL     1      19.884  30.100   2.887  1.00  0.00    -0.508 OA
ATOM     22  H   UNL     1      20.882  30.145   2.721  1.00  0.00     0.293 HD
ENDBRANCH  18  21
ENDBRANCH  11  13
ENDBRANCH   2  11
TORSDOF 6
ENDMDL
MODEL 5
REMARK VINA RESULT:    -6.667      3.485      5.133
REMARK INTER + INTRA:          -9.072
REMARK INTER:                  -8.311
REMARK INTRA:                  -0.762
REMARK UNBOUND:                -0.651
REMARK SMILES O=C(C=Cc1ccc(O)cc1)c1ccc(O)cc1O
REMARK SMILES IDX 4 1 3 2 5 3 6 4 7 5 8 6 11 7 10 8 9 9 2 11 1 12 12 13 18 14
REMARK SMILES IDX 13 15 17 16 14 17 15 18 19 19 16 21
REMARK H PARENT 9 10 19 20 16 22
REMARK Flexibility Score: inf
ROOT
ATOM      1  C   UNL     1      16.237  27.279  -2.517  1.00  0.00     0.012 C 
ATOM      2  C   UNL     1      16.385  26.475  -1.454  1.00  0.00     0.053 C 
ENDROOT
BRANCH   1   3
ATOM      3  C   UNL     1      16.301  26.805  -3.921  1.00  0.00    -0.025 A 
ATOM      4  C   UNL     1      15.152  26.649  -4.722  1.00  0.00     0.012 A 
ATOM      5  C   UNL     1      15.266  26.211  -6.045  1.00  0.00     0.047 A 
ATOM      6  C   UNL     1      16.522  25.932  -6.590  1.00  0.00     0.115 A 
ATOM      7  C   UNL     1      17.561  26.538  -4.485  1.00  0.00     0.012 A 
ATOM      8  C   UNL     1      17.670  26.100  -5.808  1.00  0.00     0.047 A 
BRANCH   6   9
ATOM      9  O   UNL     1      16.618  25.495  -7.909  1.00  0.00    -0.508 OA
ATOM     10  H   UNL     1      17.458  25.643  -8.456  1.00  0.00     0.293 HD
ENDBRANCH   6   9
ENDBRANCH   1   3
BRANCH   2  11
ATOM     11  C   UNL     1      16.330  26.986  -0.066  1.00  0.00     0.189 C 
ATOM     12  O   UNL     1      15.482  26.519   0.743  1.00  0.00    -0.289 OA
BRANCH  11  13
ATOM     13  C   UNL     1      17.224  28.079   0.382  1.00  0.00     0.064 A 
ATOM     14  C   UNL     1      16.718  29.279   0.930  1.00  0.00     0.130 A 
ATOM     15  C   UNL     1      18.614  27.928   0.235  1.00  0.00     0.020 A 
ATOM     16  C   UNL     1      17.604  30.281   1.354  1.00  0.00     0.093 A 
ATOM     17  C   UNL     1      19.488  28.934   0.656  1.00  0.00     0.047 A 
ATOM     18  C   UNL     1      18.984  30.112   1.220  1.00  0.00     0.119 A 
BRANCH  14  19
ATOM     19  O   UNL     1      15.342  29.489   1.028  1.00  0.00    -0.507 OA
ATOM     20  H   UNL     1      14.695  29.101   0.351  1.00  0.00     0.293 HD
ENDBRANCH  14  19
BRANCH  18  21
ATOM     21  O   UNL     1      19.845  31.120   1.647  1.00  0.00    -0.508 OA
ATOM     22  H   UNL     1      20.260  31.774   0.994  1.00  0.00     0.293 HD
ENDBRANCH  18  21
ENDBRANCH  11  13
ENDBRANCH   2  11
TORSDOF 6
ENDMDL
MODEL 6
REMARK VINA RESULT:    -6.631      3.261      6.872
REMARK INTER + INTRA:          -9.026
REMARK INTER:                  -8.268
REMARK INTRA:                  -0.758
REMARK UNBOUND:                -0.651
REMARK SMILES O=C(C=Cc1ccc(O)cc1)c1ccc(O)cc1O
REMARK SMILES IDX 4 1 3 2 5 3 6 4 7 5 8 6 11 7 10 8 9 9 2 11 1 12 12 13 18 14
REMARK SMILES IDX 13 15 17 16 14 17 15 18 19 19 16 21
REMARK H PARENT 9 10 19 20 16 22
REMARK Flexibility Score: inf
ROOT
ATOM      1  C   UNL     1      18.121  25.924  -2.740  1.00  0.00     0.012 C 
ATOM      2  C   UNL     1      17.812  26.577  -1.611  1.00  0.00     0.053 C 
ENDROOT
BRANCH   1   3
ATOM      3  C   UNL     1      18.197  26.575  -4.071  1.00  0.00    -0.025 A 
ATOM      4  C   UNL     1      19.422  26.820  -4.726  1.00  0.00     0.012 A 
ATOM      5  C   UNL     1      19.441  27.425  -5.987  1.00  0.00     0.047 A 
ATOM      6  C   UNL     1      18.245  27.784  -6.614  1.00  0.00     0.115 A 
ATOM      7  C   UNL     1      17.000  26.924  -4.719  1.00  0.00     0.012 A 
ATOM      8  C   UNL     1      17.024  27.529  -5.979  1.00  0.00     0.047 A 
BRANCH   6   9
ATOM      9  O   UNL     1      18.281  28.388  -7.869  1.00  0.00    -0.508 OA
ATOM     10  H   UNL     1      18.684  29.307  -8.003  1.00  0.00     0.293 HD
ENDBRANCH   6   9
ENDBRANCH   1   3
BRANCH   2  11
ATOM     11  C   UNL     1      17.729  25.892  -0.302  1.00  0.00     0.189 C 
ATOM     12  O   UNL     1      18.531  26.203   0.622  1.00  0.00    -0.289 OA
BRANCH  11  13
ATOM     13  C   UNL     1      16.751  24.805  -0.068  1.00  0.00     0.064 A 
ATOM     14  C   UNL     1      17.151  23.523   0.372  1.00  0.00     0.130 A 
ATOM     15  C   UNL     1      15.388  25.047  -0.315  1.00  0.00     0.020 A 
ATOM     16  C   UNL     1      16.187  22.528   0.594  1.00  0.00     0.093 A 
ATOM     17  C   UNL     1      14.436  24.047  -0.097  1.00  0.00     0.047 A 
ATOM     18  C   UNL     1      14.834  22.786   0.362  1.00  0.00     0.119 A 
BRANCH  14  19
ATOM     19  O   UNL     1      18.501  23.228   0.563  1.00  0.00    -0.507 OA
ATOM     20  H   UNL     1      18.800  22.378   1.027  1.00  0.00     0.293 HD
ENDBRANCH  14  19
BRANCH  18  21
ATOM     21  O   UNL     1      13.893  21.784   0.587  1.00  0.00    -0.508 OA
ATOM     22  H   UNL     1      14.169  20.817   0.706  1.00  0.00     0.293 HD
ENDBRANCH  18  21
ENDBRANCH  11  13
ENDBRANCH   2  11
TORSDOF 6
ENDMDL
MODEL 7
REMARK VINA RESULT:    -6.382      4.193      6.801
REMARK INTER + INTRA:          -8.713
REMARK INTER:                  -8.054
REMARK INTRA:                  -0.659
REMARK UNBOUND:                -0.651
REMARK SMILES O=C(C=Cc1ccc(O)cc1)c1ccc(O)cc1O
REMARK SMILES IDX 4 1 3 2 5 3 6 4 7 5 8 6 11 7 10 8 9 9 2 11 1 12 12 13 18 14
REMARK SMILES IDX 13 15 17 16 14 17 15 18 19 19 16 21
REMARK H PARENT 9 10 19 20 16 22
REMARK Flexibility Score: inf
ROOT
ATOM      1  C   UNL     1      16.866  26.625  -3.856  1.00  0.00     0.012 C 
ATOM      2  C   UNL     1      16.507  27.007  -2.623  1.00  0.00     0.053 C 
ENDROOT
BRANCH   1   3
ATOM      3  C   UNL     1      16.239  27.149  -5.094  1.00  0.00    -0.025 A 
ATOM      4  C   UNL     1      16.882  28.081  -5.935  1.00  0.00     0.012 A 
ATOM      5  C   UNL     1      16.254  28.535  -7.099  1.00  0.00     0.047 A 
ATOM      6  C   UNL     1      14.986  28.063  -7.446  1.00  0.00     0.115 A 
ATOM      7  C   UNL     1      14.971  26.667  -5.462  1.00  0.00     0.012 A 
ATOM      8  C   UNL     1      14.346  27.125  -6.626  1.00  0.00     0.047 A 
BRANCH   6   9
ATOM      9  O   UNL     1      14.372  28.527  -8.607  1.00  0.00    -0.508 OA
ATOM     10  H   UNL     1      14.840  29.175  -9.230  1.00  0.00     0.293 HD
ENDBRANCH   6   9
ENDBRANCH   1   3
BRANCH   2  11
ATOM     11  C   UNL     1      17.145  26.450  -1.409  1.00  0.00     0.189 C 
ATOM     12  O   UNL     1      18.292  26.846  -1.064  1.00  0.00    -0.289 OA
BRANCH  11  13
ATOM     13  C   UNL     1      16.480  25.393  -0.612  1.00  0.00     0.064 A 
ATOM     14  C   UNL     1      17.142  24.193  -0.267  1.00  0.00     0.130 A 
ATOM     15  C   UNL     1      15.146  25.578  -0.209  1.00  0.00     0.020 A 
ATOM     16  C   UNL     1      16.477  23.226   0.502  1.00  0.00     0.093 A 
ATOM     17  C   UNL     1      14.491  24.606   0.551  1.00  0.00     0.047 A 
ATOM     18  C   UNL     1      15.157  23.429   0.912  1.00  0.00     0.119 A 
BRANCH  14  19
ATOM     19  O   UNL     1      18.443  23.948  -0.706  1.00  0.00    -0.507 OA
ATOM     20  H   UNL     1      18.645  23.242  -1.405  1.00  0.00     0.293 HD
ENDBRANCH  14  19
BRANCH  18  21
ATOM     21  O   UNL     1      14.516  22.455   1.674  1.00  0.00    -0.508 OA
ATOM     22  H   UNL     1      13.766  21.892   1.291  1.00  0.00     0.293 HD
ENDBRANCH  18  21
ENDBRANCH  11  13
ENDBRANCH   2  11
TORSDOF 6
ENDMDL
MODEL 8
REMARK VINA RESULT:    -6.338      3.756      5.947
REMARK INTER + INTRA:          -8.656
REMARK INTER:                  -7.995
REMARK INTRA:                  -0.662
REMARK UNBOUND:                -0.651
REMARK SMILES O=C(C=Cc1ccc(O)cc1)c1ccc(O)cc1O
REMARK SMILES IDX 4 1 3 2 5 3 6 4 7 5 8 6 11 7 10 8 9 9 2 11 1 12 12 13 18 14
REMARK SMILES IDX 13 15 17 16 14 17 15 18 19 19 16 21
REMARK H PARENT 9 10 19 20 16 22
REMARK Flexibility Score: inf
ROOT
ATOM      1  C   UNL     1      17.696  26.323  -3.632  1.00  0.00     0.012 C 
ATOM      2  C   UNL     1      18.317  26.151  -2.456  1.00  0.00     0.053 C 
ENDROOT
BRANCH   1   3
ATOM      3  C   UNL     1      18.395  26.306  -4.940  1.00  0.00    -0.025 A 
ATOM      4  C   UNL     1      19.539  27.088  -5.200  1.00  0.00     0.012 A 
ATOM      5  C   UNL     1      20.170  27.027  -6.447  1.00  0.00     0.047 A 
ATOM      6  C   UNL     1      19.678  26.182  -7.445  1.00  0.00     0.115 A 
ATOM      7  C   UNL     1      17.919  25.446  -5.946  1.00  0.00     0.012 A 
ATOM      8  C   UNL     1      18.553  25.389  -7.191  1.00  0.00     0.047 A 
BRANCH   6   9
ATOM      9  O   UNL     1      20.317  26.134  -8.682  1.00  0.00    -0.508 OA
ATOM     10  H   UNL     1      21.278  26.434  -8.794  1.00  0.00     0.293 HD
ENDBRANCH   6   9
ENDBRANCH   1   3
BRANCH   2  11
ATOM     11  C   UNL     1      17.589  26.191  -1.168  1.00  0.00     0.189 C 
ATOM     12  O   UNL     1      17.077  25.135  -0.703  1.00  0.00    -0.289 OA
BRANCH  11  13
ATOM     13  C   UNL     1      17.405  27.463  -0.433  1.00  0.00     0.064 A 
ATOM     14  C   UNL     1      16.142  28.091  -0.333  1.00  0.00     0.130 A 
ATOM     15  C   UNL     1      18.521  28.077   0.162  1.00  0.00     0.020 A 
ATOM     16  C   UNL     1      16.013  29.288   0.386  1.00  0.00     0.093 A 
ATOM     17  C   UNL     1      18.382  29.273   0.871  1.00  0.00     0.047 A 
ATOM     18  C   UNL     1      17.126  29.879   0.988  1.00  0.00     0.119 A 
BRANCH  14  19
ATOM     19  O   UNL     1      15.027  27.543  -0.967  1.00  0.00    -0.507 OA
ATOM     20  H   UNL     1      14.093  27.907  -0.809  1.00  0.00     0.293 HD
ENDBRANCH  14  19
BRANCH  18  21
ATOM     21  O   UNL     1      16.975  31.069   1.697  1.00  0.00    -0.508 OA
ATOM     22  H   UNL     1      17.052  31.970   1.241  1.00  0.00     0.293 HD
ENDBRANCH  18  21
ENDBRANCH  11  13
ENDBRANCH   2  11
TORSDOF 6
ENDMDL
MODEL 9
REMARK VINA RESULT:    -6.291      4.153      5.688
REMARK INTER + INTRA:          -8.597
REMARK INTER:                  -7.971
REMARK INTRA:                  -0.626
REMARK UNBOUND:                -0.651
REMARK SMILES O=C(C=Cc1ccc(O)cc1)c1ccc(O)cc1O
REMARK SMILES IDX 4 1 3 2 5 3 6 4 7 5 8 6 11 7 10 8 9 9 2 11 1 12 12 13 18 14
REMARK SMILES IDX 13 15 17 16 14 17 15 18 19 19 16 21
REMARK H PARENT 9 10 19 20 16 22
REMARK Flexibility Score: inf
ROOT
ATOM      1  C   UNL     1      16.844  26.798  -3.746  1.00  0.00     0.012 C 
ATOM      2  C   UNL     1      16.255  26.948  -2.551  1.00  0.00     0.053 C 
ENDROOT
BRANCH   1   3
ATOM      3  C   UNL     1      16.215  27.199  -5.028  1.00  0.00    -0.025 A 
ATOM      4  C   UNL     1      16.809  28.129  -5.907  1.00  0.00     0.012 A 
ATOM      5  C   UNL     1      16.182  28.464  -7.111  1.00  0.00     0.047 A 
ATOM      6  C   UNL     1      14.965  27.874  -7.460  1.00  0.00     0.115 A 
ATOM      7  C   UNL     1      14.999  26.598  -5.398  1.00  0.00     0.012 A 
ATOM      8  C   UNL     1      14.376  26.937  -6.603  1.00  0.00     0.047 A 
BRANCH   6   9
ATOM      9  O   UNL     1      14.352  28.221  -8.663  1.00  0.00    -0.508 OA
ATOM     10  H   UNL     1      13.352  28.364  -8.725  1.00  0.00     0.293 HD
ENDBRANCH   6   9
ENDBRANCH   1   3
BRANCH   2  11
ATOM     11  C   UNL     1      16.907  26.521  -1.293  1.00  0.00     0.189 C 
ATOM     12  O   UNL     1      16.817  25.321  -0.914  1.00  0.00    -0.289 OA
BRANCH  11  13
ATOM     13  C   UNL     1      17.626  27.493  -0.436  1.00  0.00     0.064 A 
ATOM     14  C   UNL     1      19.032  27.467  -0.297  1.00  0.00     0.130 A 
ATOM     15  C   UNL     1      16.887  28.453   0.277  1.00  0.00     0.020 A 
ATOM     16  C   UNL     1      19.671  28.417   0.514  1.00  0.00     0.093 A 
ATOM     17  C   UNL     1      17.532  29.391   1.087  1.00  0.00     0.047 A 
ATOM     18  C   UNL     1      18.926  29.377   1.204  1.00  0.00     0.119 A 
BRANCH  14  19
ATOM     19  O   UNL     1      19.790  26.487  -0.938  1.00  0.00    -0.507 OA
ATOM     20  H   UNL     1      20.656  26.141  -0.542  1.00  0.00     0.293 HD
ENDBRANCH  14  19
BRANCH  18  21
ATOM     21  O   UNL     1      19.581  30.311   2.005  1.00  0.00    -0.508 OA
ATOM     22  H   UNL     1      20.591  30.336   2.070  1.00  0.00     0.293 HD
ENDBRANCH  18  21
ENDBRANCH  11  13
ENDBRANCH   2  11
TORSDOF 6
ENDMDL
