MODEL 1
REMARK VINA RESULT:    -5.601      0.000      0.000
REMARK INTER + INTRA:          -6.092
REMARK INTER:                  -6.092
REMARK INTRA:                   0.000
REMARK UNBOUND:                 0.000
REMARK SMILES Cc1cc(O)c2c(c1)C(=O)c1cc(O)cc(O)c1C2=O
REMARK SMILES IDX 1 1 2 2 8 3 7 4 6 5 4 6 3 7 19 8 20 9 18 10 11 11 9 12 10 13
REMARK SMILES IDX 12 14 13 15 15 16 16 17 5 18 17 20 14 22
REMARK H PARENT 5 19 17 21 14 23
REMARK Flexibility Score: inf
ROOT
ATOM      1  C   UNL     1      -9.457  -9.056  14.927  1.00  0.00     0.044 C 
ATOM      2  C   UNL     1      -8.358  -8.715  13.964  1.00  0.00    -0.047 A 
ATOM      3  C   UNL     1      -8.395  -9.199  12.652  1.00  0.00     0.016 A 
ATOM      4  C   UNL     1      -7.353  -8.916  11.751  1.00  0.00     0.038 A 
ATOM      5  C   UNL     1      -6.247  -8.144  12.176  1.00  0.00     0.076 A 
ATOM      6  C   UNL     1      -6.207  -7.675  13.511  1.00  0.00     0.127 A 
ATOM      7  C   UNL     1      -7.256  -7.968  14.391  1.00  0.00     0.050 A 
ATOM      8  C   UNL     1      -5.151  -7.849  11.211  1.00  0.00     0.201 C 
ATOM      9  O   UNL     1      -4.164  -7.156  11.579  1.00  0.00    -0.288 OA
ATOM     10  C   UNL     1      -5.210  -8.365   9.813  1.00  0.00     0.076 A 
ATOM     11  C   UNL     1      -6.322  -9.137   9.408  1.00  0.00     0.041 A 
ATOM     12  C   UNL     1      -7.415  -9.428  10.363  1.00  0.00     0.194 C 
ATOM     13  O   UNL     1      -8.406 -10.116   9.992  1.00  0.00    -0.289 OA
ATOM     14  C   UNL     1      -6.389  -9.627   8.091  1.00  0.00     0.059 A 
ATOM     15  C   UNL     1      -5.365  -9.360   7.179  1.00  0.00     0.120 A 
ATOM     16  C   UNL     1      -4.266  -8.600   7.575  1.00  0.00     0.093 A 
ATOM     17  C   UNL     1      -4.178  -8.100   8.879  1.00  0.00     0.131 A 
ENDROOT
BRANCH   6  18
ATOM     18  O   UNL     1      -5.127  -6.920  13.970  1.00  0.00    -0.507 OA
ATOM     19  H   UNL     1      -4.518  -6.417  13.334  1.00  0.00     0.293 HD
ENDBRANCH   6  18
BRANCH  17  20
ATOM     20  O   UNL     1      -3.063  -7.343   9.241  1.00  0.00    -0.507 OA
ATOM     21  H   UNL     1      -2.118  -7.660   9.053  1.00  0.00     0.293 HD
ENDBRANCH  17  20
BRANCH  15  22
ATOM     22  O   UNL     1      -5.430  -9.847   5.875  1.00  0.00    -0.508 OA
ATOM     23  H   UNL     1      -4.684  -9.680   5.209  1.00  0.00     0.293 HD
ENDBRANCH  15  22
TORSDOF 3
ENDMDL
MODEL 2
REMARK VINA RESULT:    -5.371     17.166     18.332
REMARK INTER + INTRA:          -5.842
REMARK INTER:                  -5.842
REMARK INTRA:                   0.000
REMARK UNBOUND:                 0.000
REMARK SMILES Cc1cc(O)c2c(c1)C(=O)c1cc(O)cc(O)c1C2=O
REMARK SMILES IDX 1 1 2 2 8 3 7 4 6 5 4 6 3 7 19 8 20 9 18 10 11 11 9 12 10 13
REMARK SMILES IDX 12 14 13 15 15 16 16 17 5 18 17 20 14 22
REMARK H PARENT 5 19 17 21 14 23
REMARK Flexibility Score: inf
ROOT
ATOM      1  C   UNL     1       6.955   5.627  14.710  1.00  0.00     0.044 C 
ATOM      2  C   UNL     1       5.744   6.155  13.999  1.00  0.00    -0.047 A 
ATOM      3  C   UNL     1       5.435   5.711  12.708  1.00  0.00     0.016 A 
ATOM      4  C   UNL     1       4.323   6.225  12.018  1.00  0.00     0.038 A 
ATOM      5  C   UNL     1       3.512   7.210  12.626  1.00  0.00     0.076 A 
ATOM      6  C   UNL     1       3.843   7.669  13.923  1.00  0.00     0.127 A 
ATOM      7  C   UNL     1       4.954   7.144  14.593  1.00  0.00     0.050 A 
ATOM      8  C   UNL     1       2.335   7.745  11.885  1.00  0.00     0.201 C 
ATOM      9  O   UNL     1       1.603   8.619  12.422  1.00  0.00    -0.288 OA
ATOM     10  C   UNL     1       2.015   7.254  10.514  1.00  0.00     0.076 A 
ATOM     11  C   UNL     1       2.838   6.271   9.921  1.00  0.00     0.041 A 
ATOM     12  C   UNL     1       4.006   5.734  10.657  1.00  0.00     0.194 C 
ATOM     13  O   UNL     1       4.735   4.854  10.122  1.00  0.00    -0.289 OA
ATOM     14  C   UNL     1       2.544   5.800   8.629  1.00  0.00     0.059 A 
ATOM     15  C   UNL     1       1.446   6.296   7.923  1.00  0.00     0.120 A 
ATOM     16  C   UNL     1       0.631   7.267   8.503  1.00  0.00     0.093 A 
ATOM     17  C   UNL     1       0.903   7.750   9.789  1.00  0.00     0.131 A 
ENDROOT
BRANCH   6  18
ATOM     18  O   UNL     1       3.074   8.649  14.552  1.00  0.00    -0.507 OA
ATOM     19  H   UNL     1       3.491   9.352  15.151  1.00  0.00     0.293 HD
ENDBRANCH   6  18
BRANCH  17  20
ATOM     20  O   UNL     1       0.067   8.723  10.339  1.00  0.00    -0.507 OA
ATOM     21  H   UNL     1      -0.906   8.807  10.066  1.00  0.00     0.293 HD
ENDBRANCH  17  20
BRANCH  15  22
ATOM     22  O   UNL     1       1.154   5.831   6.642  1.00  0.00    -0.508 OA
ATOM     23  H   UNL     1       1.888   5.611   5.979  1.00  0.00     0.293 HD
ENDBRANCH  15  22
TORSDOF 3
ENDMDL
MODEL 3
REMARK VINA RESULT:    -5.304     16.915     18.780
REMARK INTER + INTRA:          -5.769
REMARK INTER:                  -5.769
REMARK INTRA:                   0.000
REMARK UNBOUND:                 0.000
REMARK SMILES Cc1cc(O)c2c(c1)C(=O)c1cc(O)cc(O)c1C2=O
REMARK SMILES IDX 1 1 2 2 8 3 7 4 6 5 4 6 3 7 19 8 20 9 18 10 11 11 9 12 10 13
REMARK SMILES IDX 12 14 13 15 15 16 16 17 5 18 17 20 14 22
REMARK H PARENT 5 19 17 21 14 23
REMARK Flexibility Score: inf
ROOT
ATOM      1  C   UNL     1       5.686   3.064   8.730  1.00  0.00     0.044 C 
ATOM      2  C   UNL     1       4.674   4.153   8.931  1.00  0.00    -0.047 A 
ATOM      3  C   UNL     1       4.647   4.879  10.127  1.00  0.00     0.016 A 
ATOM      4  C   UNL     1       3.680   5.877  10.342  1.00  0.00     0.038 A 
ATOM      5  C   UNL     1       2.714   6.145   9.346  1.00  0.00     0.076 A 
ATOM      6  C   UNL     1       2.734   5.393   8.147  1.00  0.00     0.127 A 
ATOM      7  C   UNL     1       3.706   4.404   7.954  1.00  0.00     0.050 A 
ATOM      8  C   UNL     1       1.696   7.207   9.585  1.00  0.00     0.201 C 
ATOM      9  O   UNL     1       0.835   7.457   8.699  1.00  0.00    -0.288 OA
ATOM     10  C   UNL     1       1.688   7.977  10.861  1.00  0.00     0.076 A 
ATOM     11  C   UNL     1       2.661   7.694  11.846  1.00  0.00     0.041 A 
ATOM     12  C   UNL     1       3.676   6.642  11.610  1.00  0.00     0.194 C 
ATOM     13  O   UNL     1       4.542   6.396  12.494  1.00  0.00    -0.289 OA
ATOM     14  C   UNL     1       2.663   8.415  13.053  1.00  0.00     0.059 A 
ATOM     15  C   UNL     1       1.711   9.410  13.290  1.00  0.00     0.120 A 
ATOM     16  C   UNL     1       0.750   9.693  12.321  1.00  0.00     0.093 A 
ATOM     17  C   UNL     1       0.728   8.989  11.111  1.00  0.00     0.131 A 
ENDROOT
BRANCH   6  18
ATOM     18  O   UNL     1       1.790   5.620   7.145  1.00  0.00    -0.507 OA
ATOM     19  H   UNL     1       1.402   4.862   6.595  1.00  0.00     0.293 HD
ENDBRANCH   6  18
BRANCH  17  20
ATOM     20  O   UNL     1      -0.249   9.298  10.164  1.00  0.00    -0.507 OA
ATOM     21  H   UNL     1      -1.236   9.158  10.350  1.00  0.00     0.293 HD
ENDBRANCH  17  20
BRANCH  15  22
ATOM     22  O   UNL     1       1.712  10.125  14.486  1.00  0.00    -0.508 OA
ATOM     23  H   UNL     1       1.277  11.038  14.558  1.00  0.00     0.293 HD
ENDBRANCH  15  22
TORSDOF 3
ENDMDL
MODEL 4
REMARK VINA RESULT:    -5.265     16.605     17.791
REMARK INTER + INTRA:          -5.726
REMARK INTER:                  -5.726
REMARK INTRA:                   0.000
REMARK UNBOUND:                 0.000
REMARK SMILES Cc1cc(O)c2c(c1)C(=O)c1cc(O)cc(O)c1C2=O
REMARK SMILES IDX 1 1 2 2 8 3 7 4 6 5 4 6 3 7 19 8 20 9 18 10 11 11 9 12 10 13
REMARK SMILES IDX 12 14 13 15 15 16 16 17 5 18 17 20 14 22
REMARK H PARENT 5 19 17 21 14 23
REMARK Flexibility Score: inf
ROOT
ATOM      1  C   UNL     1       0.312  10.122  11.348  1.00  0.00     0.044 C 
ATOM      2  C   UNL     1       0.901   8.940  10.637  1.00  0.00    -0.047 A 
ATOM      3  C   UNL     1       1.928   8.199  11.232  1.00  0.00     0.016 A 
ATOM      4  C   UNL     1       2.514   7.111  10.561  1.00  0.00     0.038 A 
ATOM      5  C   UNL     1       2.072   6.766   9.264  1.00  0.00     0.076 A 
ATOM      6  C   UNL     1       1.047   7.532   8.659  1.00  0.00     0.127 A 
ATOM      7  C   UNL     1       0.478   8.611   9.346  1.00  0.00     0.050 A 
ATOM      8  C   UNL     1       2.699   5.609   8.564  1.00  0.00     0.201 C 
ATOM      9  O   UNL     1       2.306   5.290   7.410  1.00  0.00    -0.288 OA
ATOM     10  C   UNL     1       3.785   4.825   9.218  1.00  0.00     0.076 A 
ATOM     11  C   UNL     1       4.215   5.186  10.514  1.00  0.00     0.041 A 
ATOM     12  C   UNL     1       3.592   6.333  11.213  1.00  0.00     0.194 C 
ATOM     13  O   UNL     1       3.980   6.648  12.372  1.00  0.00    -0.289 OA
ATOM     14  C   UNL     1       5.239   4.453  11.140  1.00  0.00     0.059 A 
ATOM     15  C   UNL     1       5.837   3.369  10.492  1.00  0.00     0.120 A 
ATOM     16  C   UNL     1       5.416   3.009   9.213  1.00  0.00     0.093 A 
ATOM     17  C   UNL     1       4.398   3.723   8.571  1.00  0.00     0.131 A 
ENDROOT
BRANCH   6  18
ATOM     18  O   UNL     1       0.592   7.229   7.375  1.00  0.00    -0.507 OA
ATOM     19  H   UNL     1      -0.380   7.007   7.192  1.00  0.00     0.293 HD
ENDBRANCH   6  18
BRANCH  17  20
ATOM     20  O   UNL     1       4.002   3.335   7.290  1.00  0.00    -0.507 OA
ATOM     21  H   UNL     1       4.379   2.507   6.842  1.00  0.00     0.293 HD
ENDBRANCH  17  20
BRANCH  15  22
ATOM     22  O   UNL     1       6.852   2.642  11.112  1.00  0.00    -0.508 OA
ATOM     23  H   UNL     1       7.815   2.959  11.098  1.00  0.00     0.293 HD
ENDBRANCH  15  22
TORSDOF 3
ENDMDL
MODEL 5
REMARK VINA RESULT:    -5.238     17.124     18.156
REMARK INTER + INTRA:          -5.698
REMARK INTER:                  -5.698
REMARK INTRA:                   0.000
REMARK UNBOUND:                 0.000
REMARK SMILES Cc1cc(O)c2c(c1)C(=O)c1cc(O)cc(O)c1C2=O
REMARK SMILES IDX 1 1 2 2 8 3 7 4 6 5 4 6 3 7 19 8 20 9 18 10 11 11 9 12 10 13
REMARK SMILES IDX 12 14 13 15 15 16 16 17 5 18 17 20 14 22
REMARK H PARENT 5 19 17 21 14 23
REMARK Flexibility Score: inf
ROOT
ATOM      1  C   UNL     1       5.159   7.536  15.713  1.00  0.00     0.044 C 
ATOM      2  C   UNL     1       4.922   7.021  14.324  1.00  0.00    -0.047 A 
ATOM      3  C   UNL     1       3.876   7.536  13.551  1.00  0.00     0.016 A 
ATOM      4  C   UNL     1       3.621   7.037  12.261  1.00  0.00     0.038 A 
ATOM      5  C   UNL     1       4.420   5.994  11.741  1.00  0.00     0.076 A 
ATOM      6  C   UNL     1       5.464   5.464  12.536  1.00  0.00     0.127 A 
ATOM      7  C   UNL     1       5.701   5.977  13.818  1.00  0.00     0.050 A 
ATOM      8  C   UNL     1       4.142   5.476  10.372  1.00  0.00     0.201 C 
ATOM      9  O   UNL     1       4.854   4.551   9.897  1.00  0.00    -0.288 OA
ATOM     10  C   UNL     1       3.029   6.043   9.557  1.00  0.00     0.076 A 
ATOM     11  C   UNL     1       2.239   7.083  10.095  1.00  0.00     0.041 A 
ATOM     12  C   UNL     1       2.516   7.603  11.454  1.00  0.00     0.194 C 
ATOM     13  O   UNL     1       1.806   8.534  11.926  1.00  0.00    -0.289 OA
ATOM     14  C   UNL     1       1.187   7.625   9.336  1.00  0.00     0.059 A 
ATOM     15  C   UNL     1       0.914   7.144   8.052  1.00  0.00     0.120 A 
ATOM     16  C   UNL     1       1.690   6.118   7.518  1.00  0.00     0.093 A 
ATOM     17  C   UNL     1       2.743   5.563   8.255  1.00  0.00     0.131 A 
ENDROOT
BRANCH   6  18
ATOM     18  O   UNL     1       6.268   4.427  12.062  1.00  0.00    -0.507 OA
ATOM     19  H   UNL     1       6.958   4.576  11.334  1.00  0.00     0.293 HD
ENDBRANCH   6  18
BRANCH  17  20
ATOM     20  O   UNL     1       3.500   4.536   7.689  1.00  0.00    -0.507 OA
ATOM     21  H   UNL     1       4.254   4.087   8.196  1.00  0.00     0.293 HD
ENDBRANCH  17  20
BRANCH  15  22
ATOM     22  O   UNL     1      -0.129   7.681   7.299  1.00  0.00    -0.508 OA
ATOM     23  H   UNL     1      -0.126   7.640   6.286  1.00  0.00     0.293 HD
ENDBRANCH  15  22
TORSDOF 3
ENDMDL
MODEL 6
REMARK VINA RESULT:    -5.228      4.164      5.940
REMARK INTER + INTRA:          -5.687
REMARK INTER:                  -5.687
REMARK INTRA:                   0.000
REMARK UNBOUND:                 0.000
REMARK SMILES Cc1cc(O)c2c(c1)C(=O)c1cc(O)cc(O)c1C2=O
REMARK SMILES IDX 1 1 2 2 8 3 7 4 6 5 4 6 3 7 19 8 20 9 18 10 11 11 9 12 10 13
REMARK SMILES IDX 12 14 13 15 15 16 16 17 5 18 17 20 14 22
REMARK H PARENT 5 19 17 21 14 23
REMARK Flexibility Score: inf
ROOT
ATOM      1  C   UNL     1      -7.434  -9.041  11.959  1.00  0.00     0.044 C 
ATOM      2  C   UNL     1      -6.003  -9.196  11.537  1.00  0.00    -0.047 A 
ATOM      3  C   UNL     1      -4.996  -9.335  12.499  1.00  0.00     0.016 A 
ATOM      4  C   UNL     1      -3.647  -9.445  12.118  1.00  0.00     0.038 A 
ATOM      5  C   UNL     1      -3.298  -9.402  10.749  1.00  0.00     0.076 A 
ATOM      6  C   UNL     1      -4.319  -9.240   9.783  1.00  0.00     0.127 A 
ATOM      7  C   UNL     1      -5.656  -9.133  10.185  1.00  0.00     0.050 A 
ATOM      8  C   UNL     1      -1.865  -9.523  10.358  1.00  0.00     0.201 C 
ATOM      9  O   UNL     1      -1.545  -9.492   9.139  1.00  0.00    -0.288 OA
ATOM     10  C   UNL     1      -0.805  -9.680  11.395  1.00  0.00     0.076 A 
ATOM     11  C   UNL     1      -1.173  -9.719  12.759  1.00  0.00     0.041 A 
ATOM     12  C   UNL     1      -2.597  -9.604  13.150  1.00  0.00     0.194 C 
ATOM     13  O   UNL     1      -2.917  -9.641  14.371  1.00  0.00    -0.289 OA
ATOM     14  C   UNL     1      -0.182  -9.868  13.746  1.00  0.00     0.059 A 
ATOM     15  C   UNL     1       1.164  -9.978  13.391  1.00  0.00     0.120 A 
ATOM     16  C   UNL     1       1.532  -9.940  12.047  1.00  0.00     0.093 A 
ATOM     17  C   UNL     1       0.563  -9.793  11.047  1.00  0.00     0.131 A 
ENDROOT
BRANCH   6  18
ATOM     18  O   UNL     1      -4.013  -9.181   8.423  1.00  0.00    -0.507 OA
ATOM     19  H   UNL     1      -4.084  -9.996   7.824  1.00  0.00     0.293 HD
ENDBRANCH   6  18
BRANCH  17  20
ATOM     20  O   UNL     1       0.967  -9.758   9.712  1.00  0.00    -0.507 OA
ATOM     21  H   UNL     1       1.485  -8.974   9.331  1.00  0.00     0.293 HD
ENDBRANCH  17  20
BRANCH  15  22
ATOM     22  O   UNL     1       2.147 -10.125  14.368  1.00  0.00    -0.508 OA
ATOM     23  H   UNL     1       2.940  -9.495  14.422  1.00  0.00     0.293 HD
ENDBRANCH  15  22
TORSDOF 3
ENDMDL
MODEL 7
REMARK VINA RESULT:    -5.194     17.048     17.784
REMARK INTER + INTRA:          -5.650
REMARK INTER:                  -5.650
REMARK INTRA:                   0.000
REMARK UNBOUND:                 0.000
REMARK SMILES Cc1cc(O)c2c(c1)C(=O)c1cc(O)cc(O)c1C2=O
REMARK SMILES IDX 1 1 2 2 8 3 7 4 6 5 4 6 3 7 19 8 20 9 18 10 11 11 9 12 10 13
REMARK SMILES IDX 12 14 13 15 15 16 16 17 5 18 17 20 14 22
REMARK H PARENT 5 19 17 21 14 23
REMARK Flexibility Score: inf
ROOT
ATOM      1  C   UNL     1       7.994   1.605   8.822  1.00  0.00     0.044 C 
ATOM      2  C   UNL     1       7.013   2.611   9.347  1.00  0.00    -0.047 A 
ATOM      3  C   UNL     1       5.981   3.084   8.528  1.00  0.00     0.016 A 
ATOM      4  C   UNL     1       5.077   4.054   8.997  1.00  0.00     0.038 A 
ATOM      5  C   UNL     1       5.216   4.569  10.305  1.00  0.00     0.076 A 
ATOM      6  C   UNL     1       6.274   4.102  11.121  1.00  0.00     0.127 A 
ATOM      7  C   UNL     1       7.163   3.136  10.634  1.00  0.00     0.050 A 
ATOM      8  C   UNL     1       4.250   5.595  10.791  1.00  0.00     0.201 C 
ATOM      9  O   UNL     1       4.362   6.055  11.959  1.00  0.00    -0.288 OA
ATOM     10  C   UNL     1       3.151   6.080   9.909  1.00  0.00     0.076 A 
ATOM     11  C   UNL     1       3.029   5.555   8.603  1.00  0.00     0.041 A 
ATOM     12  C   UNL     1       3.985   4.533   8.119  1.00  0.00     0.194 C 
ATOM     13  O   UNL     1       3.868   4.067   6.952  1.00  0.00    -0.289 OA
ATOM     14  C   UNL     1       1.995   6.005   7.762  1.00  0.00     0.059 A 
ATOM     15  C   UNL     1       1.086   6.969   8.205  1.00  0.00     0.120 A 
ATOM     16  C   UNL     1       1.203   7.490   9.493  1.00  0.00     0.093 A 
ATOM     17  C   UNL     1       2.222   7.057  10.348  1.00  0.00     0.131 A 
ENDROOT
BRANCH   6  18
ATOM     18  O   UNL     1       6.451   4.596  12.414  1.00  0.00    -0.507 OA
ATOM     19  H   UNL     1       7.235   4.313  12.991  1.00  0.00     0.293 HD
ENDBRANCH   6  18
BRANCH  17  20
ATOM     20  O   UNL     1       2.310   7.601  11.630  1.00  0.00    -0.507 OA
ATOM     21  H   UNL     1       1.652   7.354  12.361  1.00  0.00     0.293 HD
ENDBRANCH  17  20
BRANCH  15  22
ATOM     22  O   UNL     1       0.062   7.416   7.373  1.00  0.00    -0.508 OA
ATOM     23  H   UNL     1      -0.891   7.503   7.706  1.00  0.00     0.293 HD
ENDBRANCH  15  22
TORSDOF 3
ENDMDL
MODEL 8
REMARK VINA RESULT:    -5.150     16.719     18.097
REMARK INTER + INTRA:          -5.602
REMARK INTER:                  -5.602
REMARK INTRA:                   0.000
REMARK UNBOUND:                 0.000
REMARK SMILES Cc1cc(O)c2c(c1)C(=O)c1cc(O)cc(O)c1C2=O
REMARK SMILES IDX 1 1 2 2 8 3 7 4 6 5 4 6 3 7 19 8 20 9 18 10 11 11 9 12 10 13
REMARK SMILES IDX 12 14 13 15 15 16 16 17 5 18 17 20 14 22
REMARK H PARENT 5 19 17 21 14 23
REMARK Flexibility Score: inf
ROOT
ATOM      1  C   UNL     1       1.942  10.119  14.552  1.00  0.00     0.044 C 
ATOM      2  C   UNL     1       1.865   9.324  13.282  1.00  0.00    -0.047 A 
ATOM      3  C   UNL     1       2.787   8.301  13.035  1.00  0.00     0.016 A 
ATOM      4  C   UNL     1       2.748   7.572  11.833  1.00  0.00     0.038 A 
ATOM      5  C   UNL     1       1.776   7.882  10.854  1.00  0.00     0.076 A 
ATOM      6  C   UNL     1       0.860   8.932  11.103  1.00  0.00     0.127 A 
ATOM      7  C   UNL     1       0.917   9.644  12.307  1.00  0.00     0.050 A 
ATOM      8  C   UNL     1       1.744   7.101   9.586  1.00  0.00     0.201 C 
ATOM      9  O   UNL     1       0.876   7.366   8.711  1.00  0.00    -0.288 OA
ATOM     10  C   UNL     1       2.727   6.007   9.342  1.00  0.00     0.076 A 
ATOM     11  C   UNL     1       3.693   5.713  10.331  1.00  0.00     0.041 A 
ATOM     12  C   UNL     1       3.725   6.485  11.594  1.00  0.00     0.194 C 
ATOM     13  O   UNL     1       4.590   6.215  12.473  1.00  0.00    -0.289 OA
ATOM     14  C   UNL     1       4.625   4.683  10.112  1.00  0.00     0.059 A 
ATOM     15  C   UNL     1       4.607   3.947   8.925  1.00  0.00     0.120 A 
ATOM     16  C   UNL     1       3.656   4.234   7.947  1.00  0.00     0.093 A 
ATOM     17  C   UNL     1       2.718   5.254   8.142  1.00  0.00     0.131 A 
ENDROOT
BRANCH   6  18
ATOM     18  O   UNL     1      -0.106   9.276  10.157  1.00  0.00    -0.507 OA
ATOM     19  H   UNL     1      -0.074  10.157   9.656  1.00  0.00     0.293 HD
ENDBRANCH   6  18
BRANCH  17  20
ATOM     20  O   UNL     1       1.781   5.515   7.141  1.00  0.00    -0.507 OA
ATOM     21  H   UNL     1       1.623   4.869   6.376  1.00  0.00     0.293 HD
ENDBRANCH  17  20
BRANCH  15  22
ATOM     22  O   UNL     1       5.530   2.927   8.706  1.00  0.00    -0.508 OA
ATOM     23  H   UNL     1       5.885   2.722   7.779  1.00  0.00     0.293 HD
ENDBRANCH  15  22
TORSDOF 3
ENDMDL
MODEL 9
REMARK VINA RESULT:    -5.054     16.825     18.103
REMARK INTER + INTRA:          -5.497
REMARK INTER:                  -5.497
REMARK INTRA:                   0.000
REMARK UNBOUND:                 0.000
REMARK SMILES Cc1cc(O)c2c(c1)C(=O)c1cc(O)cc(O)c1C2=O
REMARK SMILES IDX 1 1 2 2 8 3 7 4 6 5 4 6 3 7 19 8 20 9 18 10 11 11 9 12 10 13
REMARK SMILES IDX 12 14 13 15 15 16 16 17 5 18 17 20 14 22
REMARK H PARENT 5 19 17 21 14 23
REMARK Flexibility Score: inf
ROOT
ATOM      1  C   UNL     1       7.350   2.545  10.590  1.00  0.00     0.044 C 
ATOM      2  C   UNL     1       6.208   3.336  10.024  1.00  0.00    -0.047 A 
ATOM      3  C   UNL     1       5.584   4.324  10.794  1.00  0.00     0.016 A 
ATOM      4  C   UNL     1       4.489   5.046  10.289  1.00  0.00     0.038 A 
ATOM      5  C   UNL     1       4.000   4.766   8.993  1.00  0.00     0.076 A 
ATOM      6  C   UNL     1       4.623   3.750   8.227  1.00  0.00     0.127 A 
ATOM      7  C   UNL     1       5.712   3.044   8.750  1.00  0.00     0.050 A 
ATOM      8  C   UNL     1       2.841   5.540   8.467  1.00  0.00     0.201 C 
ATOM      9  O   UNL     1       2.403   5.301   7.310  1.00  0.00    -0.288 OA
ATOM     10  C   UNL     1       2.195   6.596   9.298  1.00  0.00     0.076 A 
ATOM     11  C   UNL     1       2.696   6.861  10.592  1.00  0.00     0.041 A 
ATOM     12  C   UNL     1       3.851   6.096  11.115  1.00  0.00     0.194 C 
ATOM     13  O   UNL     1       4.293   6.340  12.271  1.00  0.00    -0.289 OA
ATOM     14  C   UNL     1       2.094   7.856  11.383  1.00  0.00     0.059 A 
ATOM     15  C   UNL     1       1.004   8.586  10.903  1.00  0.00     0.120 A 
ATOM     16  C   UNL     1       0.506   8.327   9.627  1.00  0.00     0.093 A 
ATOM     17  C   UNL     1       1.089   7.343   8.820  1.00  0.00     0.131 A 
ENDROOT
BRANCH   6  18
ATOM     18  O   UNL     1       4.161   3.436   6.948  1.00  0.00    -0.507 OA
ATOM     19  H   UNL     1       4.193   2.490   6.586  1.00  0.00     0.293 HD
ENDBRANCH   6  18
BRANCH  17  20
ATOM     20  O   UNL     1       0.564   7.110   7.548  1.00  0.00    -0.507 OA
ATOM     21  H   UNL     1      -0.111   7.738   7.126  1.00  0.00     0.293 HD
ENDBRANCH  17  20
BRANCH  15  22
ATOM     22  O   UNL     1       0.407   9.571  11.687  1.00  0.00    -0.508 OA
ATOM     23  H   UNL     1      -0.289  10.202  11.306  1.00  0.00     0.293 HD
ENDBRANCH  15  22
TORSDOF 3
ENDMDL
