MODEL 1
REMARK VINA RESULT:    14.088      0.000      0.000
REMARK INTER + INTRA:          20.203
REMARK INTER:                  20.264
REMARK INTRA:                  -0.061
REMARK UNBOUND:                -0.061
REMARK SMILES O=c1cc(-c2ccc(O)c(O)c2)oc2cc(O[C@H]3O[C@H](CO)[C@H](O)[C@@H](O)[C@@H]3O)cc(O)c12
REMARK SMILES IDX 17 1 16 2 4 3 3 4 13 5 2 6 14 7 1 8 32 9 15 10 30 11 29 12
REMARK SMILES IDX 5 13 6 14 7 15 8 16 12 17 10 18 9 19 11 21 31 23 18 25 27 26
REMARK SMILES IDX 19 27 25 28 20 29 23 30 28 31 26 33 21 35 22 36 24 38
REMARK H PARENT 9 20 11 22 31 24 28 32 26 34 22 37 24 39
REMARK Flexibility Score: inf
ROOT
ATOM      1  O   UNL     1      14.186 -10.674 -26.682  1.00  0.00    -0.462 OA
ENDROOT
BRANCH   1   2
ATOM      2  C   UNL     1      13.476  -9.703 -27.408  1.00  0.00     0.130 A 
ATOM      3  C   UNL     1      12.983  -5.260 -29.092  1.00  0.00     0.138 A 
ATOM      4  C   UNL     1      11.753  -5.560 -29.696  1.00  0.00     0.100 A 
ATOM      5  O   UNL     1      13.599  -6.208 -28.389  1.00  0.00    -0.456 OA
ATOM      6  C   UNL     1      11.239  -6.855 -29.622  1.00  0.00     0.197 A 
ATOM      7  C   UNL     1      13.148  -7.455 -28.274  1.00  0.00     0.146 A 
ATOM      8  O   UNL     1      10.118  -7.081 -30.144  1.00  0.00    -0.289 OA
ATOM      9  C   UNL     1      11.965  -7.860 -28.938  1.00  0.00     0.107 A 
ATOM     10  C   UNL     1      13.872  -8.363 -27.496  1.00  0.00     0.094 A 
ATOM     11  C   UNL     1      11.591  -9.230 -28.884  1.00  0.00     0.134 A 
ATOM     12  C   UNL     1      12.339 -10.120 -28.103  1.00  0.00     0.093 A 
BRANCH   3  13
ATOM     13  C   UNL     1      13.639  -3.922 -29.219  1.00  0.00     0.021 A 
ATOM     14  C   UNL     1      13.035  -2.934 -30.024  1.00  0.00     0.016 A 
ATOM     15  C   UNL     1      13.586  -1.654 -30.116  1.00  0.00     0.051 A 
ATOM     16  C   UNL     1      14.761  -1.335 -29.426  1.00  0.00     0.157 A 
ATOM     17  C   UNL     1      14.831  -3.591 -28.535  1.00  0.00     0.062 A 
ATOM     18  C   UNL     1      15.391  -2.312 -28.646  1.00  0.00     0.158 A 
BRANCH  16  19
ATOM     19  O   UNL     1      15.299  -0.052 -29.556  1.00  0.00    -0.504 OA
ATOM     20  H   UNL     1      15.026   0.571 -30.306  1.00  0.00     0.293 HD
ENDBRANCH  16  19
BRANCH  18  21
ATOM     21  O   UNL     1      16.591  -2.015 -27.998  1.00  0.00    -0.504 OA
ATOM     22  H   UNL     1      17.483  -2.283 -28.396  1.00  0.00     0.293 HD
ENDBRANCH  18  21
ENDBRANCH   3  13
BRANCH  11  23
ATOM     23  O   UNL     1      10.533  -9.780 -29.613  1.00  0.00    -0.507 OA
ATOM     24  H   UNL     1       9.621  -9.359 -29.695  1.00  0.00     0.293 HD
ENDBRANCH  11  23
ENDBRANCH   1   2
BRANCH   1  25
ATOM     25  C   UNL     1      13.684 -11.910 -26.165  1.00  0.00     0.339 C 
ATOM     26  C   UNL     1      13.869 -13.018 -27.228  1.00  0.00     0.214 C 
ATOM     27  O   UNL     1      12.308 -11.704 -25.912  1.00  0.00    -0.332 OA
ATOM     28  C   UNL     1      13.190 -14.351 -26.797  1.00  0.00     0.180 C 
ATOM     29  C   UNL     1      11.588 -12.840 -25.447  1.00  0.00     0.179 C 
ATOM     30  C   UNL     1      12.296 -14.225 -25.543  1.00  0.00     0.177 C 
BRANCH  26  31
ATOM     31  O   UNL     1      15.233 -13.262 -27.445  1.00  0.00    -0.384 OA
ATOM     32  H   UNL     1      15.375 -13.298 -28.430  1.00  0.00     0.211 HD
ENDBRANCH  26  31
BRANCH  28  33
ATOM     33  O   UNL     1      12.439 -14.926 -27.848  1.00  0.00    -0.387 OA
ATOM     34  H   UNL     1      11.512 -14.571 -27.828  1.00  0.00     0.211 HD
ENDBRANCH  28  33
BRANCH  29  35
ATOM     35  C   UNL     1      11.068 -12.547 -24.032  1.00  0.00     0.191 C 
BRANCH  35  36
ATOM     36  O   UNL     1      11.088 -11.166 -23.784  1.00  0.00    -0.394 OA
ATOM     37  H   UNL     1      10.593 -10.735 -24.528  1.00  0.00     0.210 HD
ENDBRANCH  35  36
ENDBRANCH  29  35
BRANCH  30  38
ATOM     38  O   UNL     1      12.988 -14.570 -24.364  1.00  0.00    -0.387 OA
ATOM     39  H   UNL     1      13.181 -15.539 -24.389  1.00  0.00     0.211 HD
ENDBRANCH  30  38
ENDBRANCH   1  25
TORSDOF 11
ENDMDL
MODEL 2
REMARK VINA RESULT:    14.486      2.083      9.394
REMARK INTER + INTRA:          20.777
REMARK INTER:                  21.749
REMARK INTRA:                  -0.972
REMARK UNBOUND:                -0.061
REMARK SMILES O=c1cc(-c2ccc(O)c(O)c2)oc2cc(O[C@H]3O[C@H](CO)[C@H](O)[C@@H](O)[C@@H]3O)cc(O)c12
REMARK SMILES IDX 17 1 16 2 4 3 3 4 13 5 2 6 14 7 1 8 32 9 15 10 30 11 29 12
REMARK SMILES IDX 5 13 6 14 7 15 8 16 12 17 10 18 9 19 11 21 31 23 18 25 27 26
REMARK SMILES IDX 19 27 25 28 20 29 23 30 28 31 26 33 21 35 22 36 24 38
REMARK H PARENT 9 20 11 22 31 24 28 32 26 34 22 37 24 39
REMARK Flexibility Score: inf
ROOT
ATOM      1  O   UNL     1      13.992  -7.975 -28.246  1.00  0.00    -0.462 OA
ENDROOT
BRANCH   1   2
ATOM      2  C   UNL     1      13.245  -9.165 -28.234  1.00  0.00     0.130 A 
ATOM      3  C   UNL     1      11.058 -12.715 -25.903  1.00  0.00     0.138 A 
ATOM      4  C   UNL     1      10.675 -13.345 -27.097  1.00  0.00     0.100 A 
ATOM      5  O   UNL     1      11.793 -11.607 -25.971  1.00  0.00    -0.456 OA
ATOM      6  C   UNL     1      10.994 -12.763 -28.324  1.00  0.00     0.197 A 
ATOM      7  C   UNL     1      12.136 -11.015 -27.113  1.00  0.00     0.146 A 
ATOM      8  O   UNL     1      10.666 -13.371 -29.374  1.00  0.00    -0.289 OA
ATOM      9  C   UNL     1      11.702 -11.537 -28.356  1.00  0.00     0.107 A 
ATOM     10  C   UNL     1      12.923  -9.861 -27.063  1.00  0.00     0.094 A 
ATOM     11  C   UNL     1      11.992 -10.804 -29.538  1.00  0.00     0.134 A 
ATOM     12  C   UNL     1      12.776  -9.647 -29.458  1.00  0.00     0.093 A 
BRANCH   3  13
ATOM     13  C   UNL     1      10.662 -13.230 -24.556  1.00  0.00     0.021 A 
ATOM     14  C   UNL     1      10.344 -14.597 -24.409  1.00  0.00     0.016 A 
ATOM     15  C   UNL     1      10.030 -15.125 -23.154  1.00  0.00     0.051 A 
ATOM     16  C   UNL     1      10.007 -14.302 -22.023  1.00  0.00     0.157 A 
ATOM     17  C   UNL     1      10.625 -12.408 -23.407  1.00  0.00     0.062 A 
ATOM     18  C   UNL     1      10.291 -12.938 -22.155  1.00  0.00     0.158 A 
BRANCH  16  19
ATOM     19  O   UNL     1       9.668 -14.856 -20.786  1.00  0.00    -0.504 OA
ATOM     20  H   UNL     1       9.538 -14.286 -19.960  1.00  0.00     0.293 HD
ENDBRANCH  16  19
BRANCH  18  21
ATOM     21  O   UNL     1      10.217 -12.102 -21.038  1.00  0.00    -0.504 OA
ATOM     22  H   UNL     1       9.325 -11.818 -20.654  1.00  0.00     0.293 HD
ENDBRANCH  18  21
ENDBRANCH   3  13
BRANCH  11  23
ATOM     23  O   UNL     1      11.496 -11.133 -30.803  1.00  0.00    -0.507 OA
ATOM     24  H   UNL     1      11.926 -11.800 -31.425  1.00  0.00     0.293 HD
ENDBRANCH  11  23
ENDBRANCH   1   2
BRANCH   1  25
ATOM     25  C   UNL     1      13.685  -6.765 -28.944  1.00  0.00     0.339 C 
ATOM     26  C   UNL     1      14.897  -5.809 -28.864  1.00  0.00     0.214 C 
ATOM     27  O   UNL     1      12.573  -6.196 -28.280  1.00  0.00    -0.332 OA
ATOM     28  C   UNL     1      14.569  -4.407 -29.457  1.00  0.00     0.180 C 
ATOM     29  C   UNL     1      12.133  -4.937 -28.777  1.00  0.00     0.179 C 
ATOM     30  C   UNL     1      13.072  -4.195 -29.776  1.00  0.00     0.177 C 
BRANCH  26  31
ATOM     31  O   UNL     1      15.988  -6.346 -29.565  1.00  0.00    -0.384 OA
ATOM     32  H   UNL     1      16.032  -7.315 -29.347  1.00  0.00     0.211 HD
ENDBRANCH  26  31
BRANCH  28  33
ATOM     33  O   UNL     1      15.020  -3.361 -28.621  1.00  0.00    -0.387 OA
ATOM     34  H   UNL     1      15.059  -3.678 -27.681  1.00  0.00     0.211 HD
ENDBRANCH  28  33
BRANCH  29  35
ATOM     35  C   UNL     1      10.707  -5.094 -29.324  1.00  0.00     0.191 C 
BRANCH  35  36
ATOM     36  O   UNL     1      10.621  -6.238 -30.134  1.00  0.00    -0.394 OA
ATOM     37  H   UNL     1       9.705  -6.599 -30.022  1.00  0.00     0.210 HD
ENDBRANCH  35  36
ENDBRANCH  29  35
BRANCH  30  38
ATOM     38  O   UNL     1      12.773  -4.480 -31.124  1.00  0.00    -0.387 OA
ATOM     39  H   UNL     1      13.048  -3.706 -31.674  1.00  0.00     0.211 HD
ENDBRANCH  30  38
ENDBRANCH   1  25
TORSDOF 11
ENDMDL
MODEL 3
REMARK VINA RESULT:    14.595      2.011      9.481
REMARK INTER + INTRA:          20.934
REMARK INTER:                  20.520
REMARK INTRA:                   0.414
REMARK UNBOUND:                -0.061
REMARK SMILES O=c1cc(-c2ccc(O)c(O)c2)oc2cc(O[C@H]3O[C@H](CO)[C@H](O)[C@@H](O)[C@@H]3O)cc(O)c12
REMARK SMILES IDX 17 1 16 2 4 3 3 4 13 5 2 6 14 7 1 8 32 9 15 10 30 11 29 12
REMARK SMILES IDX 5 13 6 14 7 15 8 16 12 17 10 18 9 19 11 21 31 23 18 25 27 26
REMARK SMILES IDX 19 27 25 28 20 29 23 30 28 31 26 33 21 35 22 36 24 38
REMARK H PARENT 9 20 11 22 31 24 28 32 26 34 22 37 24 39
REMARK Flexibility Score: inf
ROOT
ATOM      1  O   UNL     1      13.893  -8.041 -28.258  1.00  0.00    -0.462 OA
ENDROOT
BRANCH   1   2
ATOM      2  C   UNL     1      13.170  -9.246 -28.228  1.00  0.00     0.130 A 
ATOM      3  C   UNL     1      11.012 -12.779 -25.845  1.00  0.00     0.138 A 
ATOM      4  C   UNL     1      10.664 -13.447 -27.028  1.00  0.00     0.100 A 
ATOM      5  O   UNL     1      11.725 -11.657 -25.928  1.00  0.00    -0.456 OA
ATOM      6  C   UNL     1      10.994 -12.890 -28.264  1.00  0.00     0.197 A 
ATOM      7  C   UNL     1      12.078 -11.088 -27.079  1.00  0.00     0.146 A 
ATOM      8  O   UNL     1      10.698 -13.532 -29.304  1.00  0.00    -0.289 OA
ATOM      9  C   UNL     1      11.677 -11.651 -28.316  1.00  0.00     0.107 A 
ATOM     10  C   UNL     1      12.840  -9.918 -27.045  1.00  0.00     0.094 A 
ATOM     11  C   UNL     1      11.975 -10.942 -29.512  1.00  0.00     0.134 A 
ATOM     12  C   UNL     1      12.733  -9.768 -29.448  1.00  0.00     0.093 A 
BRANCH   3  13
ATOM     13  C   UNL     1      10.602 -13.267 -24.492  1.00  0.00     0.021 A 
ATOM     14  C   UNL     1      10.224 -14.617 -24.334  1.00  0.00     0.016 A 
ATOM     15  C   UNL     1       9.895 -15.122 -23.074  1.00  0.00     0.051 A 
ATOM     16  C   UNL     1       9.915 -14.292 -21.949  1.00  0.00     0.157 A 
ATOM     17  C   UNL     1      10.608 -12.436 -23.349  1.00  0.00     0.062 A 
ATOM     18  C   UNL     1      10.259 -12.942 -22.091  1.00  0.00     0.158 A 
BRANCH  16  19
ATOM     19  O   UNL     1       9.560 -14.823 -20.706  1.00  0.00    -0.504 OA
ATOM     20  H   UNL     1       9.035 -14.289 -20.024  1.00  0.00     0.293 HD
ENDBRANCH  16  19
BRANCH  18  21
ATOM     21  O   UNL     1      10.229 -12.098 -20.980  1.00  0.00    -0.504 OA
ATOM     22  H   UNL     1       9.518 -12.196 -20.265  1.00  0.00     0.293 HD
ENDBRANCH  18  21
ENDBRANCH   3  13
BRANCH  11  23
ATOM     23  O   UNL     1      11.509 -11.314 -30.776  1.00  0.00    -0.507 OA
ATOM     24  H   UNL     1      11.078 -10.680 -31.431  1.00  0.00     0.293 HD
ENDBRANCH  11  23
ENDBRANCH   1   2
BRANCH   1  25
ATOM     25  C   UNL     1      13.371  -6.721 -28.434  1.00  0.00     0.339 C 
ATOM     26  C   UNL     1      12.080  -6.792 -29.282  1.00  0.00     0.214 C 
ATOM     27  O   UNL     1      14.366  -5.990 -29.126  1.00  0.00    -0.332 OA
ATOM     28  C   UNL     1      11.554  -5.375 -29.656  1.00  0.00     0.180 C 
ATOM     29  C   UNL     1      14.027  -4.651 -29.466  1.00  0.00     0.179 C 
ATOM     30  C   UNL     1      12.533  -4.231 -29.313  1.00  0.00     0.177 C 
BRANCH  26  31
ATOM     31  O   UNL     1      11.073  -7.472 -28.580  1.00  0.00    -0.384 OA
ATOM     32  H   UNL     1      10.210  -7.023 -28.789  1.00  0.00     0.211 HD
ENDBRANCH  26  31
BRANCH  28  33
ATOM     33  O   UNL     1      11.194  -5.287 -31.019  1.00  0.00    -0.387 OA
ATOM     34  H   UNL     1      10.597  -4.507 -31.157  1.00  0.00     0.211 HD
ENDBRANCH  28  33
BRANCH  29  35
ATOM     35  C   UNL     1      14.979  -3.699 -28.728  1.00  0.00     0.191 C 
BRANCH  35  36
ATOM     36  O   UNL     1      14.819  -2.388 -29.205  1.00  0.00    -0.394 OA
ATOM     37  H   UNL     1      15.710  -2.089 -29.522  1.00  0.00     0.210 HD
ENDBRANCH  35  36
ENDBRANCH  29  35
BRANCH  30  38
ATOM     38  O   UNL     1      12.253  -3.653 -28.057  1.00  0.00    -0.387 OA
ATOM     39  H   UNL     1      11.372  -3.983 -27.753  1.00  0.00     0.211 HD
ENDBRANCH  30  38
ENDBRANCH   1  25
TORSDOF 11
ENDMDL
MODEL 4
REMARK VINA RESULT:    14.779      1.918      3.133
REMARK INTER + INTRA:          21.198
REMARK INTER:                  21.252
REMARK INTRA:                  -0.054
REMARK UNBOUND:                -0.061
REMARK SMILES O=c1cc(-c2ccc(O)c(O)c2)oc2cc(O[C@H]3O[C@H](CO)[C@H](O)[C@@H](O)[C@@H]3O)cc(O)c12
REMARK SMILES IDX 17 1 16 2 4 3 3 4 13 5 2 6 14 7 1 8 32 9 15 10 30 11 29 12
REMARK SMILES IDX 5 13 6 14 7 15 8 16 12 17 10 18 9 19 11 21 31 23 18 25 27 26
REMARK SMILES IDX 19 27 25 28 20 29 23 30 28 31 26 33 21 35 22 36 24 38
REMARK H PARENT 9 20 11 22 31 24 28 32 26 34 22 37 24 39
REMARK Flexibility Score: inf
ROOT
ATOM      1  O   UNL     1      11.083 -10.285 -26.354  1.00  0.00    -0.462 OA
ENDROOT
BRANCH   1   2
ATOM      2  C   UNL     1      12.091  -9.621 -27.075  1.00  0.00     0.130 A 
ATOM      3  C   UNL     1      13.873  -5.699 -29.140  1.00  0.00     0.138 A 
ATOM      4  C   UNL     1      15.019  -6.378 -29.580  1.00  0.00     0.100 A 
ATOM      5  O   UNL     1      12.934  -6.383 -28.489  1.00  0.00    -0.456 OA
ATOM      6  C   UNL     1      15.196  -7.725 -29.260  1.00  0.00     0.197 A 
ATOM      7  C   UNL     1      13.045  -7.671 -28.168  1.00  0.00     0.146 A 
ATOM      8  O   UNL     1      16.218  -8.312 -29.700  1.00  0.00    -0.289 OA
ATOM      9  C   UNL     1      14.216  -8.398 -28.491  1.00  0.00     0.107 A 
ATOM     10  C   UNL     1      11.988  -8.290 -27.496  1.00  0.00     0.094 A 
ATOM     11  C   UNL     1      14.336  -9.735 -28.023  1.00  0.00     0.134 A 
ATOM     12  C   UNL     1      13.265 -10.327 -27.345  1.00  0.00     0.093 A 
BRANCH   3  13
ATOM     13  C   UNL     1      13.669  -4.234 -29.358  1.00  0.00     0.021 A 
ATOM     14  C   UNL     1      12.745  -3.541 -28.550  1.00  0.00     0.016 A 
ATOM     15  C   UNL     1      12.574  -2.161 -28.685  1.00  0.00     0.051 A 
ATOM     16  C   UNL     1      13.305  -1.445 -29.639  1.00  0.00     0.157 A 
ATOM     17  C   UNL     1      14.394  -3.501 -30.326  1.00  0.00     0.062 A 
ATOM     18  C   UNL     1      14.205  -2.121 -30.470  1.00  0.00     0.158 A 
BRANCH  16  19
ATOM     19  O   UNL     1      13.095  -0.069 -29.764  1.00  0.00    -0.504 OA
ATOM     20  H   UNL     1      12.713   0.486 -29.008  1.00  0.00     0.293 HD
ENDBRANCH  16  19
BRANCH  18  21
ATOM     21  O   UNL     1      14.898  -1.420 -31.459  1.00  0.00    -0.504 OA
ATOM     22  H   UNL     1      14.712  -1.578 -32.442  1.00  0.00     0.293 HD
ENDBRANCH  18  21
ENDBRANCH   3  13
BRANCH  11  23
ATOM     23  O   UNL     1      15.496 -10.505 -28.147  1.00  0.00    -0.507 OA
ATOM     24  H   UNL     1      15.772 -11.224 -27.497  1.00  0.00     0.293 HD
ENDBRANCH  11  23
ENDBRANCH   1   2
BRANCH   1  25
ATOM     25  C   UNL     1      10.861 -11.696 -26.273  1.00  0.00     0.339 C 
ATOM     26  C   UNL     1      11.684 -12.274 -25.098  1.00  0.00     0.214 C 
ATOM     27  O   UNL     1      11.316 -12.240 -27.498  1.00  0.00    -0.332 OA
ATOM     28  C   UNL     1      11.623 -13.829 -25.059  1.00  0.00     0.180 C 
ATOM     29  C   UNL     1      11.246 -13.657 -27.610  1.00  0.00     0.179 C 
ATOM     30  C   UNL     1      10.966 -14.464 -26.306  1.00  0.00     0.177 C 
BRANCH  26  31
ATOM     31  O   UNL     1      11.205 -11.777 -23.877  1.00  0.00    -0.384 OA
ATOM     32  H   UNL     1      11.982 -11.398 -23.385  1.00  0.00     0.211 HD
ENDBRANCH  26  31
BRANCH  28  33
ATOM     33  O   UNL     1      12.898 -14.404 -24.861  1.00  0.00    -0.387 OA
ATOM     34  H   UNL     1      13.519 -13.721 -24.497  1.00  0.00     0.211 HD
ENDBRANCH  28  33
BRANCH  29  35
ATOM     35  C   UNL     1      10.269 -14.015 -28.738  1.00  0.00     0.191 C 
BRANCH  35  36
ATOM     36  O   UNL     1       9.779 -12.846 -29.344  1.00  0.00    -0.394 OA
ATOM     37  H   UNL     1       9.992 -12.915 -30.310  1.00  0.00     0.210 HD
ENDBRANCH  35  36
ENDBRANCH  29  35
BRANCH  30  38
ATOM     38  O   UNL     1       9.595 -14.725 -26.106  1.00  0.00    -0.387 OA
ATOM     39  H   UNL     1       9.368 -14.497 -25.172  1.00  0.00     0.211 HD
ENDBRANCH  30  38
ENDBRANCH   1  25
TORSDOF 11
ENDMDL
