MODEL 1
REMARK VINA RESULT:    60.095      0.000      0.000
REMARK INTER + INTRA:          78.895
REMARK INTER:                  79.417
REMARK INTRA:                  -0.523
REMARK UNBOUND:                -0.523
REMARK SMILES CC[C@H](C=C[C@H](C)[C@H]1CC[C@H]2[C@@H]3CC=C4C[C@H](O)CC[C@]4(C)[C@H]3CC[C@]12C)C(C)C
REMARK SMILES IDX 6 1 7 2 5 3 4 4 3 5 2 6 1 7 28 8 29 9 30 10 8 11 9 12 26 13
REMARK SMILES IDX 10 14 11 15 25 16 27 17 12 18 24 19 23 20 13 21 21 22 14 23
REMARK SMILES IDX 15 24 20 25 22 26 16 27 19 28 17 29 18 30
REMARK H PARENT 18 31
REMARK Flexibility Score: inf
ROOT
ATOM      1  C   UNL     1     -25.329  31.361  -8.636  1.00  0.00     0.012 C 
ATOM      2  C   UNL     1     -25.196  32.783  -9.195  1.00  0.00     0.012 C 
ENDROOT
BRANCH   1   3
ATOM      3  C   UNL     1     -26.605  30.705  -9.143  1.00  0.00    -0.028 C 
ATOM      4  C   UNL     1     -27.372  29.842  -8.445  1.00  0.00    -0.027 C 
BRANCH   4   5
ATOM      5  C   UNL     1     -27.087  29.314  -7.048  1.00  0.00     0.014 C 
BRANCH   5   6
ATOM      6  C   UNL     1     -27.366  30.448  -6.032  1.00  0.00     0.004 C 
ATOM      7  C   UNL     1     -26.101  31.155  -5.544  1.00  0.00     0.004 C 
ENDBRANCH   5   6
BRANCH   5   8
ATOM      8  C   UNL     1     -27.882  28.000  -6.762  1.00  0.00    -0.011 C 
ATOM      9  C   UNL     1     -27.139  26.720  -7.184  1.00  0.00     0.008 C 
ATOM     10  C   UNL     1     -28.293  27.904  -5.284  1.00  0.00     0.008 C 
ENDBRANCH   5   8
ENDBRANCH   4   5
ENDBRANCH   1   3
BRANCH   1  11
ATOM     11  C   UNL     1     -24.023  30.511  -8.810  1.00  0.00     0.002 C 
ATOM     12  C   UNL     1     -22.770  31.366  -9.134  1.00  0.00     0.005 C 
ATOM     13  C   UNL     1     -23.540  29.495  -7.728  1.00  0.00    -0.026 C 
ATOM     14  C   UNL     1     -21.553  30.572  -8.633  1.00  0.00     0.005 C 
ATOM     15  C   UNL     1     -22.123  29.210  -8.256  1.00  0.00    -0.001 C 
ATOM     16  C   UNL     1     -24.284  28.135  -7.710  1.00  0.00     0.007 C 
ATOM     17  C   UNL     1     -23.535  30.130  -6.305  1.00  0.00     0.012 C 
ATOM     18  C   UNL     1     -21.294  28.295  -7.331  1.00  0.00     0.000 C 
ATOM     19  C   UNL     1     -23.545  27.085  -6.845  1.00  0.00     0.005 C 
ATOM     20  C   UNL     1     -22.028  26.928  -7.194  1.00  0.00     0.003 C 
ATOM     21  C   UNL     1     -19.894  28.062  -7.922  1.00  0.00     0.031 C 
ATOM     22  C   UNL     1     -21.248  25.949  -6.235  1.00  0.00    -0.008 C 
ATOM     23  C   UNL     1     -19.147  26.954  -7.235  1.00  0.00    -0.027 C 
ATOM     24  C   UNL     1     -19.750  25.932  -6.587  1.00  0.00    -0.065 C 
ATOM     25  C   UNL     1     -21.819  24.506  -6.411  1.00  0.00     0.014 C 
ATOM     26  C   UNL     1     -21.387  26.377  -4.746  1.00  0.00     0.016 C 
ATOM     27  C   UNL     1     -18.880  24.818  -6.034  1.00  0.00     0.063 C 
ATOM     28  C   UNL     1     -20.957  23.412  -5.761  1.00  0.00     0.033 C 
ATOM     29  C   UNL     1     -19.517  23.444  -6.283  1.00  0.00     0.118 C 
BRANCH  29  30
ATOM     30  O   UNL     1     -19.503  23.140  -7.655  1.00  0.00    -0.393 OA
ATOM     31  H   UNL     1     -20.349  22.655  -7.850  1.00  0.00     0.210 HD
ENDBRANCH  29  30
ENDBRANCH   1  11
TORSDOF 6
ENDMDL
