MODEL 1
REMARK VINA RESULT:    -4.468      0.000      0.000
REMARK INTER + INTRA:          -4.468
REMARK INTER:                  -4.468
REMARK INTRA:                   0.000
REMARK UNBOUND:                 0.000
REMARK SMILES CC1=CC[C@@H]2[C@H](C1)C2(C)C
REMARK SMILES IDX 1 1 2 2 3 3 4 4 5 5 6 6 7 7 8 8 9 9 10 10
REMARK H PARENT
REMARK Flexibility Score: inf
ROOT
ATOM      1  C   UNL     1     139.743 154.000 159.543  1.00  0.00     0.039 C 
ATOM      2  C   UNL     1     138.847 153.991 160.751  1.00  0.00    -0.077 C 
ATOM      3  C   UNL     1     138.804 155.070 161.550  1.00  0.00    -0.028 C 
ATOM      4  C   UNL     1     137.923 155.115 162.766  1.00  0.00     0.031 C 
ATOM      5  C   UNL     1     137.871 153.754 163.490  1.00  0.00     0.003 C 
ATOM      6  C   UNL     1     137.913 152.505 162.579  1.00  0.00     0.003 C 
ATOM      7  C   UNL     1     138.001 152.777 161.061  1.00  0.00     0.034 C 
ATOM      8  C   UNL     1     136.634 152.849 163.361  1.00  0.00    -0.029 C 
ATOM      9  C   UNL     1     135.379 153.347 162.619  1.00  0.00     0.012 C 
ATOM     10  C   UNL     1     136.369 151.953 164.576  1.00  0.00     0.012 C 
ENDROOT
TORSDOF 0
ENDMDL
MODEL 2
REMARK VINA RESULT:    -4.330     21.507     22.486
REMARK INTER + INTRA:          -4.330
REMARK INTER:                  -4.330
REMARK INTRA:                   0.000
REMARK UNBOUND:                 0.000
REMARK SMILES CC1=CC[C@@H]2[C@H](C1)C2(C)C
REMARK SMILES IDX 1 1 2 2 3 3 4 4 5 5 6 6 7 7 8 8 9 9 10 10
REMARK H PARENT
REMARK Flexibility Score: inf
ROOT
ATOM      1  C   UNL     1     150.916 136.737 159.303  1.00  0.00     0.039 C 
ATOM      2  C   UNL     1     151.742 136.703 160.559  1.00  0.00    -0.077 C 
ATOM      3  C   UNL     1     151.695 135.619 161.352  1.00  0.00    -0.028 C 
ATOM      4  C   UNL     1     152.503 135.532 162.615  1.00  0.00     0.031 C 
ATOM      5  C   UNL     1     152.573 136.886 163.350  1.00  0.00     0.003 C 
ATOM      6  C   UNL     1     152.635 138.139 162.445  1.00  0.00     0.003 C 
ATOM      7  C   UNL     1     152.621 137.878 160.924  1.00  0.00     0.034 C 
ATOM      8  C   UNL     1     153.853 137.738 163.295  1.00  0.00    -0.029 C 
ATOM      9  C   UNL     1     155.125 137.189 162.621  1.00  0.00     0.012 C 
ATOM     10  C   UNL     1     154.087 138.616 164.529  1.00  0.00     0.012 C 
ENDROOT
TORSDOF 0
ENDMDL
MODEL 3
REMARK VINA RESULT:    -3.764     16.440     17.405
REMARK INTER + INTRA:          -3.764
REMARK INTER:                  -3.764
REMARK INTRA:                   0.000
REMARK UNBOUND:                 0.000
REMARK SMILES CC1=CC[C@@H]2[C@H](C1)C2(C)C
REMARK SMILES IDX 1 1 2 2 3 3 4 4 5 5 6 6 7 7 8 8 9 9 10 10
REMARK H PARENT
REMARK Flexibility Score: inf
ROOT
ATOM      1  C   UNL     1     138.709 137.306 164.137  1.00  0.00     0.039 C 
ATOM      2  C   UNL     1     137.493 137.031 163.295  1.00  0.00    -0.077 C 
ATOM      3  C   UNL     1     136.271 137.133 163.845  1.00  0.00    -0.028 C 
ATOM      4  C   UNL     1     135.024 136.873 163.048  1.00  0.00     0.031 C 
ATOM      5  C   UNL     1     135.208 135.707 162.055  1.00  0.00     0.003 C 
ATOM      6  C   UNL     1     136.609 135.586 161.411  1.00  0.00     0.003 C 
ATOM      7  C   UNL     1     137.646 136.646 161.841  1.00  0.00     0.034 C 
ATOM      8  C   UNL     1     135.396 135.983 160.554  1.00  0.00    -0.029 C 
ATOM      9  C   UNL     1     135.267 137.417 160.004  1.00  0.00     0.012 C 
ATOM     10  C   UNL     1     134.876 134.875 159.631  1.00  0.00     0.012 C 
ENDROOT
TORSDOF 0
ENDMDL
MODEL 4
REMARK VINA RESULT:    -3.149     21.916     22.900
REMARK INTER + INTRA:          -3.149
REMARK INTER:                  -3.149
REMARK INTRA:                   0.000
REMARK UNBOUND:                 0.000
REMARK SMILES CC1=CC[C@@H]2[C@H](C1)C2(C)C
REMARK SMILES IDX 1 1 2 2 3 3 4 4 5 5 6 6 7 7 8 8 9 9 10 10
REMARK H PARENT
REMARK Flexibility Score: inf
ROOT
ATOM      1  C   UNL     1     154.005 139.749 165.250  1.00  0.00     0.039 C 
ATOM      2  C   UNL     1     154.002 138.660 164.212  1.00  0.00    -0.077 C 
ATOM      3  C   UNL     1     155.017 138.580 163.335  1.00  0.00    -0.028 C 
ATOM      4  C   UNL     1     155.066 137.509 162.282  1.00  0.00     0.031 C 
ATOM      5  C   UNL     1     153.668 137.205 161.706  1.00  0.00     0.003 C 
ATOM      6  C   UNL     1     152.494 137.287 162.709  1.00  0.00     0.003 C 
ATOM      7  C   UNL     1     152.868 137.662 164.160  1.00  0.00     0.034 C 
ATOM      8  C   UNL     1     152.914 135.930 162.121  1.00  0.00    -0.029 C 
ATOM      9  C   UNL     1     153.599 134.875 163.011  1.00  0.00     0.012 C 
ATOM     10  C   UNL     1     151.963 135.375 161.055  1.00  0.00     0.012 C 
ENDROOT
TORSDOF 0
ENDMDL
MODEL 5
REMARK VINA RESULT:    -2.617     16.463     17.452
REMARK INTER + INTRA:          -2.617
REMARK INTER:                  -2.617
REMARK INTRA:                   0.000
REMARK UNBOUND:                 0.000
REMARK SMILES CC1=CC[C@@H]2[C@H](C1)C2(C)C
REMARK SMILES IDX 1 1 2 2 3 3 4 4 5 5 6 6 7 7 8 8 9 9 10 10
REMARK H PARENT
REMARK Flexibility Score: inf
ROOT
ATOM      1  C   UNL     1     138.998 137.227 164.808  1.00  0.00     0.039 C 
ATOM      2  C   UNL     1     138.293 136.718 163.581  1.00  0.00    -0.077 C 
ATOM      3  C   UNL     1     138.984 136.020 162.663  1.00  0.00    -0.028 C 
ATOM      4  C   UNL     1     138.327 135.484 161.423  1.00  0.00     0.031 C 
ATOM      5  C   UNL     1     137.278 136.463 160.858  1.00  0.00     0.003 C 
ATOM      6  C   UNL     1     136.472 137.264 161.907  1.00  0.00     0.003 C 
ATOM      7  C   UNL     1     136.818 136.984 163.385  1.00  0.00     0.034 C 
ATOM      8  C   UNL     1     135.775 136.193 161.051  1.00  0.00    -0.029 C 
ATOM      9  C   UNL     1     135.298 134.875 161.692  1.00  0.00     0.012 C 
ATOM     10  C   UNL     1     134.879 136.748 159.939  1.00  0.00     0.012 C 
ENDROOT
TORSDOF 0
ENDMDL
MODEL 6
REMARK VINA RESULT:    -2.585     21.127     22.187
REMARK INTER + INTRA:          -2.585
REMARK INTER:                  -2.585
REMARK INTRA:                   0.000
REMARK UNBOUND:                 0.000
REMARK SMILES CC1=CC[C@@H]2[C@H](C1)C2(C)C
REMARK SMILES IDX 1 1 2 2 3 3 4 4 5 5 6 6 7 7 8 8 9 9 10 10
REMARK H PARENT
REMARK Flexibility Score: inf
ROOT
ATOM      1  C   UNL     1     154.369 137.951 163.516  1.00  0.00     0.039 C 
ATOM      2  C   UNL     1     153.283 137.430 162.614  1.00  0.00    -0.077 C 
ATOM      3  C   UNL     1     152.592 136.336 162.975  1.00  0.00    -0.028 C 
ATOM      4  C   UNL     1     151.495 135.778 162.114  1.00  0.00     0.031 C 
ATOM      5  C   UNL     1     151.832 135.882 160.612  1.00  0.00     0.003 C 
ATOM      6  C   UNL     1     152.622 137.142 160.186  1.00  0.00     0.003 C 
ATOM      7  C   UNL     1     152.971 138.136 161.314  1.00  0.00     0.034 C 
ATOM      8  C   UNL     1     151.163 136.954 159.735  1.00  0.00    -0.029 C 
ATOM      9  C   UNL     1     150.049 137.848 160.312  1.00  0.00     0.012 C 
ATOM     10  C   UNL     1     150.996 136.561 158.263  1.00  0.00     0.012 C 
ENDROOT
TORSDOF 0
ENDMDL
MODEL 7
REMARK VINA RESULT:    -2.428      0.911      4.066
REMARK INTER + INTRA:          -2.428
REMARK INTER:                  -2.428
REMARK INTRA:                   0.000
REMARK UNBOUND:                 0.000
REMARK SMILES CC1=CC[C@@H]2[C@H](C1)C2(C)C
REMARK SMILES IDX 1 1 2 2 3 3 4 4 5 5 6 6 7 7 8 8 9 9 10 10
REMARK H PARENT
REMARK Flexibility Score: inf
ROOT
ATOM      1  C   UNL     1     136.405 152.495 163.718  1.00  0.00     0.039 C 
ATOM      2  C   UNL     1     137.439 153.084 162.798  1.00  0.00    -0.077 C 
ATOM      3  C   UNL     1     138.108 154.187 163.176  1.00  0.00    -0.028 C 
ATOM      4  C   UNL     1     139.155 154.813 162.299  1.00  0.00     0.031 C 
ATOM      5  C   UNL     1     138.766 154.753 160.807  1.00  0.00     0.003 C 
ATOM      6  C   UNL     1     138.003 153.484 160.361  1.00  0.00     0.003 C 
ATOM      7  C   UNL     1     137.727 152.438 161.463  1.00  0.00     0.034 C 
ATOM      8  C   UNL     1     139.437 153.737 159.867  1.00  0.00    -0.029 C 
ATOM      9  C   UNL     1     140.600 152.860 160.371  1.00  0.00     0.012 C 
ATOM     10  C   UNL     1     139.539 154.189 158.406  1.00  0.00     0.012 C 
ENDROOT
TORSDOF 0
ENDMDL
MODEL 8
REMARK VINA RESULT:    -2.406     21.495     22.513
REMARK INTER + INTRA:          -2.406
REMARK INTER:                  -2.406
REMARK INTRA:                   0.000
REMARK UNBOUND:                 0.000
REMARK SMILES CC1=CC[C@@H]2[C@H](C1)C2(C)C
REMARK SMILES IDX 1 1 2 2 3 3 4 4 5 5 6 6 7 7 8 8 9 9 10 10
REMARK H PARENT
REMARK Flexibility Score: inf
ROOT
ATOM      1  C   UNL     1     154.176 134.875 163.592  1.00  0.00     0.039 C 
ATOM      2  C   UNL     1     153.501 135.836 162.652  1.00  0.00    -0.077 C 
ATOM      3  C   UNL     1     153.729 137.154 162.778  1.00  0.00    -0.028 C 
ATOM      4  C   UNL     1     153.085 138.156 161.863  1.00  0.00     0.031 C 
ATOM      5  C   UNL     1     151.635 137.766 161.511  1.00  0.00     0.003 C 
ATOM      6  C   UNL     1     151.364 136.251 161.356  1.00  0.00     0.003 C 
ATOM      7  C   UNL     1     152.578 135.321 161.571  1.00  0.00     0.034 C 
ATOM      8  C   UNL     1     151.298 137.177 160.130  1.00  0.00    -0.029 C 
ATOM      9  C   UNL     1     152.379 137.096 159.035  1.00  0.00     0.012 C 
ATOM     10  C   UNL     1     149.880 137.481 159.636  1.00  0.00     0.012 C 
ENDROOT
TORSDOF 0
ENDMDL
MODEL 9
REMARK VINA RESULT:    -2.151     21.382     22.328
REMARK INTER + INTRA:          -2.151
REMARK INTER:                  -2.151
REMARK INTRA:                   0.000
REMARK UNBOUND:                 0.000
REMARK SMILES CC1=CC[C@@H]2[C@H](C1)C2(C)C
REMARK SMILES IDX 1 1 2 2 3 3 4 4 5 5 6 6 7 7 8 8 9 9 10 10
REMARK H PARENT
REMARK Flexibility Score: inf
ROOT
ATOM      1  C   UNL     1     150.302 137.099 159.640  1.00  0.00     0.039 C 
ATOM      2  C   UNL     1     151.402 137.349 160.635  1.00  0.00    -0.077 C 
ATOM      3  C   UNL     1     152.130 138.476 160.546  1.00  0.00    -0.028 C 
ATOM      4  C   UNL     1     153.236 138.777 161.517  1.00  0.00     0.031 C 
ATOM      5  C   UNL     1     154.025 137.509 161.903  1.00  0.00     0.003 C 
ATOM      6  C   UNL     1     153.195 136.209 162.014  1.00  0.00     0.003 C 
ATOM      7  C   UNL     1     151.684 136.343 161.727  1.00  0.00     0.034 C 
ATOM      8  C   UNL     1     153.810 136.844 163.273  1.00  0.00    -0.029 C 
ATOM      9  C   UNL     1     152.907 137.510 164.329  1.00  0.00     0.012 C 
ATOM     10  C   UNL     1     155.036 136.109 163.824  1.00  0.00     0.012 C 
ENDROOT
TORSDOF 0
ENDMDL
