MODEL 1
REMARK VINA RESULT:    -1.905      0.000      0.000
REMARK INTER + INTRA:          -3.418
REMARK INTER:                  -2.796
REMARK INTRA:                  -0.622
REMARK UNBOUND:                -0.622
REMARK SMILES CCCOC(=O)c1ccccc1C(=O)OCCC
REMARK SMILES IDX 7 1 8 2 9 3 10 4 11 5 12 6 5 7 6 8 4 9 3 10 2 11 1 12 13 13
REMARK SMILES IDX 14 14 15 15 16 16 17 17 18 18
REMARK H PARENT
REMARK Flexibility Score: inf
ROOT
ATOM      1  C   UNL     1      48.340  49.669  27.191  1.00  0.00     0.074 A 
ATOM      2  C   UNL     1      48.183  48.277  27.063  1.00  0.00     0.016 A 
ATOM      3  C   UNL     1      47.750  47.505  28.141  1.00  0.00     0.001 A 
ATOM      4  C   UNL     1      47.468  48.108  29.364  1.00  0.00     0.001 A 
ATOM      5  C   UNL     1      47.597  49.490  29.508  1.00  0.00     0.016 A 
ATOM      6  C   UNL     1      48.013  50.291  28.428  1.00  0.00     0.074 A 
ENDROOT
BRANCH   1   7
ATOM      7  C   UNL     1      48.910  50.420  26.050  1.00  0.00     0.339 C 
ATOM      8  O   UNL     1      48.259  51.374  25.542  1.00  0.00    -0.246 OA
BRANCH   7   9
ATOM      9  O   UNL     1      50.147  50.043  25.512  1.00  0.00    -0.462 OA
BRANCH   9  10
ATOM     10  C   UNL     1      50.290  49.336  24.282  1.00  0.00     0.233 C 
BRANCH  10  11
ATOM     11  C   UNL     1      51.367  48.255  24.406  1.00  0.00     0.038 C 
ATOM     12  C   UNL     1      51.841  48.113  25.849  1.00  0.00     0.007 C 
ENDBRANCH  10  11
ENDBRANCH   9  10
ENDBRANCH   7   9
ENDBRANCH   1   7
BRANCH   6  13
ATOM     13  C   UNL     1      48.019  51.760  28.606  1.00  0.00     0.339 C 
ATOM     14  O   UNL     1      49.115  52.366  28.764  1.00  0.00    -0.246 OA
BRANCH  13  15
ATOM     15  O   UNL     1      46.810  52.465  28.643  1.00  0.00    -0.462 OA
BRANCH  15  16
ATOM     16  C   UNL     1      45.925  52.473  29.762  1.00  0.00     0.233 C 
BRANCH  16  17
ATOM     17  C   UNL     1      46.681  52.787  31.058  1.00  0.00     0.038 C 
ATOM     18  C   UNL     1      46.426  51.752  32.151  1.00  0.00     0.007 C 
ENDBRANCH  16  17
ENDBRANCH  15  16
ENDBRANCH  13  15
ENDBRANCH   6  13
TORSDOF 8
ENDMDL
MODEL 2
REMARK VINA RESULT:    -1.872      0.085      5.656
REMARK INTER + INTRA:          -3.370
REMARK INTER:                  -2.790
REMARK INTRA:                  -0.579
REMARK UNBOUND:                -0.622
REMARK SMILES CCCOC(=O)c1ccccc1C(=O)OCCC
REMARK SMILES IDX 7 1 8 2 9 3 10 4 11 5 12 6 5 7 6 8 4 9 3 10 2 11 1 12 13 13
REMARK SMILES IDX 14 14 15 15 16 16 17 17 18 18
REMARK H PARENT
REMARK Flexibility Score: inf
ROOT
ATOM      1  C   UNL     1      48.024  50.325  28.454  1.00  0.00     0.074 A 
ATOM      2  C   UNL     1      47.596  49.546  29.544  1.00  0.00     0.016 A 
ATOM      3  C   UNL     1      47.459  48.163  29.424  1.00  0.00     0.001 A 
ATOM      4  C   UNL     1      47.748  47.535  28.215  1.00  0.00     0.001 A 
ATOM      5  C   UNL     1      48.194  48.286  27.126  1.00  0.00     0.016 A 
ATOM      6  C   UNL     1      48.358  49.679  27.231  1.00  0.00     0.074 A 
ENDROOT
BRANCH   1   7
ATOM      7  C   UNL     1      48.041  51.797  28.606  1.00  0.00     0.339 C 
ATOM      8  O   UNL     1      49.139  52.396  28.773  1.00  0.00    -0.246 OA
BRANCH   7   9
ATOM      9  O   UNL     1      46.839  52.514  28.606  1.00  0.00    -0.462 OA
BRANCH   9  10
ATOM     10  C   UNL     1      45.926  52.523  29.702  1.00  0.00     0.233 C 
BRANCH  10  11
ATOM     11  C   UNL     1      46.662  52.827  31.010  1.00  0.00     0.038 C 
ATOM     12  C   UNL     1      46.344  51.784  32.077  1.00  0.00     0.007 C 
ENDBRANCH  10  11
ENDBRANCH   9  10
ENDBRANCH   7   9
ENDBRANCH   1   7
BRANCH   6  13
ATOM     13  C   UNL     1      48.945  50.405  26.083  1.00  0.00     0.339 C 
ATOM     14  O   UNL     1      48.312  51.364  25.559  1.00  0.00    -0.246 OA
BRANCH  13  15
ATOM     15  O   UNL     1      50.176  49.998  25.553  1.00  0.00    -0.462 OA
BRANCH  15  16
ATOM     16  C   UNL     1      50.316  49.256  24.342  1.00  0.00     0.233 C 
BRANCH  16  17
ATOM     17  C   UNL     1      51.324  48.114  24.510  1.00  0.00     0.038 C 
ATOM     18  C   UNL     1      51.969  48.099  25.894  1.00  0.00     0.007 C 
ENDBRANCH  16  17
ENDBRANCH  15  16
ENDBRANCH  13  15
ENDBRANCH   6  13
TORSDOF 8
ENDMDL
MODEL 3
REMARK VINA RESULT:    -1.768      1.696      4.332
REMARK INTER + INTRA:          -3.216
REMARK INTER:                  -3.145
REMARK INTRA:                  -0.071
REMARK UNBOUND:                -0.622
REMARK SMILES CCCOC(=O)c1ccccc1C(=O)OCCC
REMARK SMILES IDX 7 1 8 2 9 3 10 4 11 5 12 6 5 7 6 8 4 9 3 10 2 11 1 12 13 13
REMARK SMILES IDX 14 14 15 15 16 16 17 17 18 18
REMARK H PARENT
REMARK Flexibility Score: inf
ROOT
ATOM      1  C   UNL     1      48.268  50.767  27.616  1.00  0.00     0.074 A 
ATOM      2  C   UNL     1      48.154  51.919  28.416  1.00  0.00     0.016 A 
ATOM      3  C   UNL     1      47.992  51.815  29.798  1.00  0.00     0.001 A 
ATOM      4  C   UNL     1      47.942  50.562  30.403  1.00  0.00     0.001 A 
ATOM      5  C   UNL     1      48.075  49.407  29.631  1.00  0.00     0.016 A 
ATOM      6  C   UNL     1      48.259  49.489  28.239  1.00  0.00     0.074 A 
ENDROOT
BRANCH   1   7
ATOM      7  C   UNL     1      48.323  50.935  26.147  1.00  0.00     0.339 C 
ATOM      8  O   UNL     1      47.339  51.437  25.537  1.00  0.00    -0.246 OA
BRANCH   7   9
ATOM      9  O   UNL     1      49.447  50.499  25.434  1.00  0.00    -0.462 OA
BRANCH   9  10
ATOM     10  C   UNL     1      49.386  49.977  24.108  1.00  0.00     0.233 C 
BRANCH  10  11
ATOM     11  C   UNL     1      50.789  49.628  23.604  1.00  0.00     0.038 C 
ATOM     12  C   UNL     1      51.115  48.160  23.854  1.00  0.00     0.007 C 
ENDBRANCH  10  11
ENDBRANCH   9  10
ENDBRANCH   7   9
ENDBRANCH   1   7
BRANCH   6  13
ATOM     13  C   UNL     1      48.510  48.237  27.490  1.00  0.00     0.339 C 
ATOM     14  O   UNL     1      47.596  47.372  27.392  1.00  0.00    -0.246 OA
BRANCH  13  15
ATOM     15  O   UNL     1      49.772  47.997  26.932  1.00  0.00    -0.462 OA
BRANCH  15  16
ATOM     16  C   UNL     1      51.000  48.412  27.531  1.00  0.00     0.233 C 
BRANCH  16  17
ATOM     17  C   UNL     1      52.201  47.807  26.797  1.00  0.00     0.038 C 
ATOM     18  C   UNL     1      53.472  47.820  27.643  1.00  0.00     0.007 C 
ENDBRANCH  16  17
ENDBRANCH  15  16
ENDBRANCH  13  15
ENDBRANCH   6  13
TORSDOF 8
ENDMDL
MODEL 4
REMARK VINA RESULT:    -1.737      1.684      4.620
REMARK INTER + INTRA:          -3.171
REMARK INTER:                  -3.205
REMARK INTRA:                   0.033
REMARK UNBOUND:                -0.622
REMARK SMILES CCCOC(=O)c1ccccc1C(=O)OCCC
REMARK SMILES IDX 7 1 8 2 9 3 10 4 11 5 12 6 5 7 6 8 4 9 3 10 2 11 1 12 13 13
REMARK SMILES IDX 14 14 15 15 16 16 17 17 18 18
REMARK H PARENT
REMARK Flexibility Score: inf
ROOT
ATOM      1  C   UNL     1      48.256  49.459  28.235  1.00  0.00     0.074 A 
ATOM      2  C   UNL     1      48.049  49.378  29.624  1.00  0.00     0.016 A 
ATOM      3  C   UNL     1      47.936  50.534  30.397  1.00  0.00     0.001 A 
ATOM      4  C   UNL     1      48.027  51.787  29.798  1.00  0.00     0.001 A 
ATOM      5  C   UNL     1      48.210  51.891  28.419  1.00  0.00     0.016 A 
ATOM      6  C   UNL     1      48.308  50.739  27.616  1.00  0.00     0.074 A 
ENDROOT
BRANCH   1   7
ATOM      7  C   UNL     1      48.482  48.204  27.484  1.00  0.00     0.339 C 
ATOM      8  O   UNL     1      47.522  47.409  27.289  1.00  0.00    -0.246 OA
BRANCH   7   9
ATOM      9  O   UNL     1      49.767  47.882  27.030  1.00  0.00    -0.462 OA
BRANCH   9  10
ATOM     10  C   UNL     1      50.959  48.452  27.566  1.00  0.00     0.233 C 
BRANCH  10  11
ATOM     11  C   UNL     1      52.169  48.070  26.710  1.00  0.00     0.038 C 
ATOM     12  C   UNL     1      53.373  47.724  27.579  1.00  0.00     0.007 C 
ENDBRANCH  10  11
ENDBRANCH   9  10
ENDBRANCH   7   9
ENDBRANCH   1   7
BRANCH   6  13
ATOM     13  C   UNL     1      48.385  50.911  26.148  1.00  0.00     0.339 C 
ATOM     14  O   UNL     1      47.435  51.470  25.534  1.00  0.00    -0.246 OA
BRANCH  13  15
ATOM     15  O   UNL     1      49.488  50.413  25.443  1.00  0.00    -0.462 OA
BRANCH  15  16
ATOM     16  C   UNL     1      49.422  49.919  24.106  1.00  0.00     0.233 C 
BRANCH  16  17
ATOM     17  C   UNL     1      50.818  49.571  23.579  1.00  0.00     0.038 C 
ATOM     18  C   UNL     1      51.202  48.119  23.849  1.00  0.00     0.007 C 
ENDBRANCH  16  17
ENDBRANCH  15  16
ENDBRANCH  13  15
ENDBRANCH   6  13
TORSDOF 8
ENDMDL
MODEL 5
REMARK VINA RESULT:    -1.692      2.072      6.382
REMARK INTER + INTRA:          -3.106
REMARK INTER:                  -2.951
REMARK INTRA:                  -0.155
REMARK UNBOUND:                -0.622
REMARK SMILES CCCOC(=O)c1ccccc1C(=O)OCCC
REMARK SMILES IDX 7 1 8 2 9 3 10 4 11 5 12 6 5 7 6 8 4 9 3 10 2 11 1 12 13 13
REMARK SMILES IDX 14 14 15 15 16 16 17 17 18 18
REMARK H PARENT
REMARK Flexibility Score: inf
ROOT
ATOM      1  C   UNL     1      47.203  50.263  28.782  1.00  0.00     0.074 A 
ATOM      2  C   UNL     1      46.281  51.324  28.724  1.00  0.00     0.016 A 
ATOM      3  C   UNL     1      45.911  51.882  27.501  1.00  0.00     0.001 A 
ATOM      4  C   UNL     1      46.454  51.392  26.316  1.00  0.00     0.001 A 
ATOM      5  C   UNL     1      47.355  50.327  26.348  1.00  0.00     0.016 A 
ATOM      6  C   UNL     1      47.727  49.735  27.569  1.00  0.00     0.074 A 
ENDROOT
BRANCH   1   7
ATOM      7  C   UNL     1      47.645  49.787  30.112  1.00  0.00     0.339 C 
ATOM      8  O   UNL     1      48.832  49.991  30.487  1.00  0.00    -0.246 OA
BRANCH   7   9
ATOM      9  O   UNL     1      46.759  49.075  30.930  1.00  0.00    -0.462 OA
BRANCH   9  10
ATOM     10  C   UNL     1      46.110  49.638  32.068  1.00  0.00     0.233 C 
BRANCH  10  11
ATOM     11  C   UNL     1      46.419  51.134  32.175  1.00  0.00     0.038 C 
ATOM     12  C   UNL     1      45.875  51.717  33.475  1.00  0.00     0.007 C 
ENDBRANCH  10  11
ENDBRANCH   9  10
ENDBRANCH   7   9
ENDBRANCH   1   7
BRANCH   6  13
ATOM     13  C   UNL     1      48.594  48.536  27.532  1.00  0.00     0.339 C 
ATOM     14  O   UNL     1      48.115  47.409  27.834  1.00  0.00    -0.246 OA
BRANCH  13  15
ATOM     15  O   UNL     1      49.950  48.663  27.206  1.00  0.00    -0.462 OA
BRANCH  15  16
ATOM     16  C   UNL     1      50.427  49.188  25.967  1.00  0.00     0.233 C 
BRANCH  16  17
ATOM     17  C   UNL     1      50.689  48.065  24.959  1.00  0.00     0.038 C 
ATOM     18  C   UNL     1      51.509  48.533  23.759  1.00  0.00     0.007 C 
ENDBRANCH  16  17
ENDBRANCH  15  16
ENDBRANCH  13  15
ENDBRANCH   6  13
TORSDOF 8
ENDMDL
MODEL 6
REMARK VINA RESULT:    -1.401      1.955      5.093
REMARK INTER + INTRA:          -2.678
REMARK INTER:                  -2.885
REMARK INTRA:                   0.208
REMARK UNBOUND:                -0.622
REMARK SMILES CCCOC(=O)c1ccccc1C(=O)OCCC
REMARK SMILES IDX 7 1 8 2 9 3 10 4 11 5 12 6 5 7 6 8 4 9 3 10 2 11 1 12 13 13
REMARK SMILES IDX 14 14 15 15 16 16 17 17 18 18
REMARK H PARENT
REMARK Flexibility Score: inf
ROOT
ATOM      1  C   UNL     1      48.168  49.266  28.110  1.00  0.00     0.074 A 
ATOM      2  C   UNL     1      47.687  49.228  29.432  1.00  0.00     0.016 A 
ATOM      3  C   UNL     1      47.383  50.406  30.114  1.00  0.00     0.001 A 
ATOM      4  C   UNL     1      47.553  51.639  29.490  1.00  0.00     0.001 A 
ATOM      5  C   UNL     1      48.008  51.699  28.173  1.00  0.00     0.016 A 
ATOM      6  C   UNL     1      48.303  50.523  27.458  1.00  0.00     0.074 A 
ENDROOT
BRANCH   1   7
ATOM      7  C   UNL     1      48.582  47.994  27.476  1.00  0.00     0.339 C 
ATOM      8  O   UNL     1      49.803  47.781  27.240  1.00  0.00    -0.246 OA
BRANCH   7   9
ATOM      9  O   UNL     1      47.616  47.051  27.102  1.00  0.00    -0.462 OA
BRANCH   9  10
ATOM     10  C   UNL     1      47.817  45.642  27.182  1.00  0.00     0.233 C 
BRANCH  10  11
ATOM     11  C   UNL     1      47.100  44.932  26.031  1.00  0.00     0.038 C 
ATOM     12  C   UNL     1      47.087  43.421  26.238  1.00  0.00     0.007 C 
ENDBRANCH  10  11
ENDBRANCH   9  10
ENDBRANCH   7   9
ENDBRANCH   1   7
BRANCH   6  13
ATOM     13  C   UNL     1      48.670  50.643  26.030  1.00  0.00     0.339 C 
ATOM     14  O   UNL     1      47.902  51.254  25.236  1.00  0.00    -0.246 OA
BRANCH  13  15
ATOM     15  O   UNL     1      49.843  50.042  25.556  1.00  0.00    -0.462 OA
BRANCH  15  16
ATOM     16  C   UNL     1      50.016  49.577  24.218  1.00  0.00     0.233 C 
BRANCH  16  17
ATOM     17  C   UNL     1      51.176  48.579  24.128  1.00  0.00     0.038 C 
ATOM     18  C   UNL     1      52.044  48.575  25.384  1.00  0.00     0.007 C 
ENDBRANCH  16  17
ENDBRANCH  15  16
ENDBRANCH  13  15
ENDBRANCH   6  13
TORSDOF 8
ENDMDL
MODEL 7
REMARK VINA RESULT:    -1.396      1.809      4.449
REMARK INTER + INTRA:          -2.671
REMARK INTER:                  -2.899
REMARK INTRA:                   0.228
REMARK UNBOUND:                -0.622
REMARK SMILES CCCOC(=O)c1ccccc1C(=O)OCCC
REMARK SMILES IDX 7 1 8 2 9 3 10 4 11 5 12 6 5 7 6 8 4 9 3 10 2 11 1 12 13 13
REMARK SMILES IDX 14 14 15 15 16 16 17 17 18 18
REMARK H PARENT
REMARK Flexibility Score: inf
ROOT
ATOM      1  C   UNL     1      49.251  48.592  26.661  1.00  0.00     0.074 A 
ATOM      2  C   UNL     1      50.211  47.745  26.077  1.00  0.00     0.016 A 
ATOM      3  C   UNL     1      50.958  48.166  24.977  1.00  0.00     0.001 A 
ATOM      4  C   UNL     1      50.760  49.436  24.442  1.00  0.00     0.001 A 
ATOM      5  C   UNL     1      49.828  50.300  25.019  1.00  0.00     0.016 A 
ATOM      6  C   UNL     1      49.078  49.904  26.141  1.00  0.00     0.074 A 
ENDROOT
BRANCH   1   7
ATOM      7  C   UNL     1      48.410  48.052  27.753  1.00  0.00     0.339 C 
ATOM      8  O   UNL     1      47.858  46.925  27.619  1.00  0.00    -0.246 OA
BRANCH   7   9
ATOM      9  O   UNL     1      48.194  48.810  28.911  1.00  0.00    -0.462 OA
BRANCH   9  10
ATOM     10  C   UNL     1      46.908  49.010  29.495  1.00  0.00     0.233 C 
BRANCH  10  11
ATOM     11  C   UNL     1      47.045  49.540  30.924  1.00  0.00     0.038 C 
ATOM     12  C   UNL     1      45.876  49.091  31.793  1.00  0.00     0.007 C 
ENDBRANCH  10  11
ENDBRANCH   9  10
ENDBRANCH   7   9
ENDBRANCH   1   7
BRANCH   6  13
ATOM     13  C   UNL     1      48.191  50.903  26.780  1.00  0.00     0.339 C 
ATOM     14  O   UNL     1      46.957  50.904  26.514  1.00  0.00    -0.246 OA
BRANCH  13  15
ATOM     15  O   UNL     1      48.730  51.869  27.638  1.00  0.00    -0.462 OA
BRANCH  15  16
ATOM     16  C   UNL     1      48.376  51.999  29.015  1.00  0.00     0.233 C 
BRANCH  16  17
ATOM     17  C   UNL     1      46.978  52.607  29.168  1.00  0.00     0.038 C 
ATOM     18  C   UNL     1      46.659  52.987  30.612  1.00  0.00     0.007 C 
ENDBRANCH  16  17
ENDBRANCH  15  16
ENDBRANCH  13  15
ENDBRANCH   6  13
TORSDOF 8
ENDMDL
MODEL 8
REMARK VINA RESULT:    -1.352      2.008      2.829
REMARK INTER + INTRA:          -2.606
REMARK INTER:                  -1.964
REMARK INTRA:                  -0.642
REMARK UNBOUND:                -0.622
REMARK SMILES CCCOC(=O)c1ccccc1C(=O)OCCC
REMARK SMILES IDX 7 1 8 2 9 3 10 4 11 5 12 6 5 7 6 8 4 9 3 10 2 11 1 12 13 13
REMARK SMILES IDX 14 14 15 15 16 16 17 17 18 18
REMARK H PARENT
REMARK Flexibility Score: inf
ROOT
ATOM      1  C   UNL     1      47.781  49.815  27.591  1.00  0.00     0.074 A 
ATOM      2  C   UNL     1      47.328  50.393  26.390  1.00  0.00     0.016 A 
ATOM      3  C   UNL     1      46.422  51.453  26.405  1.00  0.00     0.001 A 
ATOM      4  C   UNL     1      45.952  51.953  27.617  1.00  0.00     0.001 A 
ATOM      5  C   UNL     1      46.403  51.409  28.820  1.00  0.00     0.016 A 
ATOM      6  C   UNL     1      47.333  50.353  28.829  1.00  0.00     0.074 A 
ENDROOT
BRANCH   1   7
ATOM      7  C   UNL     1      48.653  48.622  27.512  1.00  0.00     0.339 C 
ATOM      8  O   UNL     1      48.141  47.469  27.557  1.00  0.00    -0.246 OA
BRANCH   7   9
ATOM      9  O   UNL     1      50.042  48.775  27.430  1.00  0.00    -0.462 OA
BRANCH   9  10
ATOM     10  C   UNL     1      50.826  48.294  26.340  1.00  0.00     0.233 C 
BRANCH  10  11
ATOM     11  C   UNL     1      50.417  48.989  25.039  1.00  0.00     0.038 C 
ATOM     12  C   UNL     1      51.391  48.665  23.911  1.00  0.00     0.007 C 
ENDBRANCH  10  11
ENDBRANCH   9  10
ENDBRANCH   7   9
ENDBRANCH   1   7
BRANCH   6  13
ATOM     13  C   UNL     1      47.863  49.897  30.133  1.00  0.00     0.339 C 
ATOM     14  O   UNL     1      49.063  50.137  30.439  1.00  0.00    -0.246 OA
BRANCH  13  15
ATOM     15  O   UNL     1      47.045  49.162  31.001  1.00  0.00    -0.462 OA
BRANCH  15  16
ATOM     16  C   UNL     1      45.875  49.685  31.628  1.00  0.00     0.233 C 
BRANCH  16  17
ATOM     17  C   UNL     1      46.242  50.620  32.785  1.00  0.00     0.038 C 
ATOM     18  C   UNL     1      46.276  52.087  32.365  1.00  0.00     0.007 C 
ENDBRANCH  16  17
ENDBRANCH  15  16
ENDBRANCH  13  15
ENDBRANCH   6  13
TORSDOF 8
ENDMDL
MODEL 9
REMARK VINA RESULT:    -1.341      2.033      4.483
REMARK INTER + INTRA:          -2.589
REMARK INTER:                  -2.349
REMARK INTRA:                  -0.240
REMARK UNBOUND:                -0.622
REMARK SMILES CCCOC(=O)c1ccccc1C(=O)OCCC
REMARK SMILES IDX 7 1 8 2 9 3 10 4 11 5 12 6 5 7 6 8 4 9 3 10 2 11 1 12 13 13
REMARK SMILES IDX 14 14 15 15 16 16 17 17 18 18
REMARK H PARENT
REMARK Flexibility Score: inf
ROOT
ATOM      1  C   UNL     1      47.854  50.565  27.876  1.00  0.00     0.074 A 
ATOM      2  C   UNL     1      47.431  51.685  28.616  1.00  0.00     0.016 A 
ATOM      3  C   UNL     1      46.906  51.536  29.899  1.00  0.00     0.001 A 
ATOM      4  C   UNL     1      46.795  50.269  30.466  1.00  0.00     0.001 A 
ATOM      5  C   UNL     1      47.227  49.147  29.759  1.00  0.00     0.016 A 
ATOM      6  C   UNL     1      47.778  49.275  28.470  1.00  0.00     0.074 A 
ENDROOT
BRANCH   1   7
ATOM      7  C   UNL     1      48.295  50.772  26.479  1.00  0.00     0.339 C 
ATOM      8  O   UNL     1      47.475  51.198  25.620  1.00  0.00    -0.246 OA
BRANCH   7   9
ATOM      9  O   UNL     1      49.607  50.454  26.105  1.00  0.00    -0.462 OA
BRANCH   9  10
ATOM     10  C   UNL     1      49.931  49.650  24.972  1.00  0.00     0.233 C 
BRANCH  10  11
ATOM     11  C   UNL     1      51.232  48.880  25.216  1.00  0.00     0.038 C 
ATOM     12  C   UNL     1      51.455  47.821  24.142  1.00  0.00     0.007 C 
ENDBRANCH  10  11
ENDBRANCH   9  10
ENDBRANCH   7   9
ENDBRANCH   1   7
BRANCH   6  13
ATOM     13  C   UNL     1      48.326  48.065  27.817  1.00  0.00     0.339 C 
ATOM     14  O   UNL     1      49.573  47.874  27.800  1.00  0.00    -0.246 OA
BRANCH  13  15
ATOM     15  O   UNL     1      47.463  47.162  27.183  1.00  0.00    -0.462 OA
BRANCH  15  16
ATOM     16  C   UNL     1      47.901  46.111  26.324  1.00  0.00     0.233 C 
BRANCH  16  17
ATOM     17  C   UNL     1      47.451  44.744  26.851  1.00  0.00     0.038 C 
ATOM     18  C   UNL     1      47.080  43.776  25.731  1.00  0.00     0.007 C 
ENDBRANCH  16  17
ENDBRANCH  15  16
ENDBRANCH  13  15
ENDBRANCH   6  13
TORSDOF 8
ENDMDL
