MODEL 1
REMARK VINA RESULT:    -2.219      0.000      0.000
REMARK INTER + INTRA:          -2.496
REMARK INTER:                  -2.479
REMARK INTRA:                  -0.017
REMARK UNBOUND:                -0.017
REMARK SMILES CCCC(=O)[O-]
REMARK SMILES IDX 3 1 4 2 5 3 6 4 2 5 1 6
REMARK H PARENT
REMARK Flexibility Score: inf
ROOT
ATOM      1  C   UNL     1     148.064 154.697 160.128  1.00  0.00     0.052 C 
ENDROOT
BRANCH   1   2
ATOM      2  C   UNL     1     147.128 153.719 159.489  1.00  0.00     0.041 C 
ATOM      3  O   UNL     1     146.028 153.442 160.036  1.00  0.00    -0.550 OA
ATOM      4  O   UNL     1     147.455 153.138 158.270  1.00  0.00    -0.550 OA
ENDBRANCH   1   2
BRANCH   1   5
ATOM      5  C   UNL     1     148.439 155.833 159.168  1.00  0.00     0.003 C 
ATOM      6  C   UNL     1     149.906 156.245 159.299  1.00  0.00     0.004 C 
ENDBRANCH   1   5
TORSDOF 2
ENDMDL
MODEL 2
REMARK VINA RESULT:    -2.165      0.281      1.345
REMARK INTER + INTRA:          -2.435
REMARK INTER:                  -2.423
REMARK INTRA:                  -0.012
REMARK UNBOUND:                -0.017
REMARK SMILES CCCC(=O)[O-]
REMARK SMILES IDX 3 1 4 2 5 3 6 4 2 5 1 6
REMARK H PARENT
REMARK Flexibility Score: inf
ROOT
ATOM      1  C   UNL     1     148.088 154.884 160.109  1.00  0.00     0.052 C 
ENDROOT
BRANCH   1   2
ATOM      2  C   UNL     1     147.096 153.872 159.626  1.00  0.00     0.041 C 
ATOM      3  O   UNL     1     147.374 153.124 158.651  1.00  0.00    -0.550 OA
ATOM      4  O   UNL     1     145.875 153.730 160.274  1.00  0.00    -0.550 OA
ENDBRANCH   1   2
BRANCH   1   5
ATOM      5  C   UNL     1     148.498 155.852 158.993  1.00  0.00     0.003 C 
ATOM      6  C   UNL     1     149.892 156.440 159.215  1.00  0.00     0.004 C 
ENDBRANCH   1   5
TORSDOF 2
ENDMDL
MODEL 3
REMARK VINA RESULT:    -2.119      3.141      3.737
REMARK INTER + INTRA:          -2.384
REMARK INTER:                  -2.357
REMARK INTRA:                  -0.026
REMARK UNBOUND:                -0.017
REMARK SMILES CCCC(=O)[O-]
REMARK SMILES IDX 3 1 4 2 5 3 6 4 2 5 1 6
REMARK H PARENT
REMARK Flexibility Score: inf
ROOT
ATOM      1  C   UNL     1     146.116 155.621 160.103  1.00  0.00     0.052 C 
ENDROOT
BRANCH   1   2
ATOM      2  C   UNL     1     146.009 156.085 161.522  1.00  0.00     0.041 C 
ATOM      3  O   UNL     1     146.010 157.315 161.791  1.00  0.00    -0.550 OA
ATOM      4  O   UNL     1     145.875 155.158 162.549  1.00  0.00    -0.550 OA
ENDBRANCH   1   2
BRANCH   1   5
ATOM      5  C   UNL     1     145.972 154.098 159.992  1.00  0.00     0.003 C 
ATOM      6  C   UNL     1     147.140 153.456 159.242  1.00  0.00     0.004 C 
ENDBRANCH   1   5
TORSDOF 2
ENDMDL
MODEL 4
REMARK VINA RESULT:    -2.106      2.306      3.507
REMARK INTER + INTRA:          -2.369
REMARK INTER:                  -2.330
REMARK INTRA:                  -0.039
REMARK UNBOUND:                -0.017
REMARK SMILES CCCC(=O)[O-]
REMARK SMILES IDX 3 1 4 2 5 3 6 4 2 5 1 6
REMARK H PARENT
REMARK Flexibility Score: inf
ROOT
ATOM      1  C   UNL     1     148.147 154.919 160.114  1.00  0.00     0.052 C 
ENDROOT
BRANCH   1   2
ATOM      2  C   UNL     1     148.177 156.193 159.327  1.00  0.00     0.041 C 
ATOM      3  O   UNL     1     149.034 156.358 158.419  1.00  0.00    -0.550 OA
ATOM      4  O   UNL     1     147.236 157.185 159.573  1.00  0.00    -0.550 OA
ENDBRANCH   1   2
BRANCH   1   5
ATOM      5  C   UNL     1     147.297 153.846 159.424  1.00  0.00     0.003 C 
ATOM      6  C   UNL     1     145.893 153.742 160.020  1.00  0.00     0.004 C 
ENDBRANCH   1   5
TORSDOF 2
ENDMDL
MODEL 5
REMARK VINA RESULT:    -2.079      2.545      3.067
REMARK INTER + INTRA:          -2.339
REMARK INTER:                  -2.273
REMARK INTRA:                  -0.066
REMARK UNBOUND:                -0.017
REMARK SMILES CCCC(=O)[O-]
REMARK SMILES IDX 3 1 4 2 5 3 6 4 2 5 1 6
REMARK H PARENT
REMARK Flexibility Score: inf
ROOT
ATOM      1  C   UNL     1     147.869 155.323 160.848  1.00  0.00     0.052 C 
ENDROOT
BRANCH   1   2
ATOM      2  C   UNL     1     146.531 155.838 161.278  1.00  0.00     0.041 C 
ATOM      3  O   UNL     1     145.983 155.391 162.321  1.00  0.00    -0.550 OA
ATOM      4  O   UNL     1     145.901 156.836 160.546  1.00  0.00    -0.550 OA
ENDBRANCH   1   2
BRANCH   1   5
ATOM      5  C   UNL     1     147.838 154.797 159.407  1.00  0.00     0.003 C 
ATOM      6  C   UNL     1     147.075 153.478 159.286  1.00  0.00     0.004 C 
ENDBRANCH   1   5
TORSDOF 2
ENDMDL
MODEL 6
REMARK VINA RESULT:    -1.888     11.927     12.594
REMARK INTER + INTRA:          -2.125
REMARK INTER:                  -2.120
REMARK INTRA:                  -0.005
REMARK UNBOUND:                -0.017
REMARK SMILES CCCC(=O)[O-]
REMARK SMILES IDX 3 1 4 2 5 3 6 4 2 5 1 6
REMARK H PARENT
REMARK Flexibility Score: inf
ROOT
ATOM      1  C   UNL     1     145.970 163.629 152.308  1.00  0.00     0.052 C 
ENDROOT
BRANCH   1   2
ATOM      2  C   UNL     1     146.166 165.099 152.100  1.00  0.00     0.041 C 
ATOM      3  O   UNL     1     145.875 165.629 150.995  1.00  0.00    -0.550 OA
ATOM      4  O   UNL     1     146.639 165.892 153.138  1.00  0.00    -0.550 OA
ENDBRANCH   1   2
BRANCH   1   5
ATOM      5  C   UNL     1     146.884 162.801 151.396  1.00  0.00     0.003 C 
ATOM      6  C   UNL     1     146.993 161.345 151.849  1.00  0.00     0.004 C 
ENDBRANCH   1   5
TORSDOF 2
ENDMDL
MODEL 7
REMARK VINA RESULT:    -1.827     12.149     12.690
REMARK INTER + INTRA:          -2.057
REMARK INTER:                  -1.988
REMARK INTRA:                  -0.069
REMARK UNBOUND:                -0.017
REMARK SMILES CCCC(=O)[O-]
REMARK SMILES IDX 3 1 4 2 5 3 6 4 2 5 1 6
REMARK H PARENT
REMARK Flexibility Score: inf
ROOT
ATOM      1  C   UNL     1     147.293 164.544 153.869  1.00  0.00     0.052 C 
ENDROOT
BRANCH   1   2
ATOM      2  C   UNL     1     146.906 165.483 152.768  1.00  0.00     0.041 C 
ATOM      3  O   UNL     1     145.875 165.264 152.078  1.00  0.00    -0.550 OA
ATOM      4  O   UNL     1     147.667 166.619 152.523  1.00  0.00    -0.550 OA
ENDBRANCH   1   2
BRANCH   1   5
ATOM      5  C   UNL     1     147.385 165.264 155.220  1.00  0.00     0.003 C 
ATOM      6  C   UNL     1     146.069 165.937 155.611  1.00  0.00     0.004 C 
ENDBRANCH   1   5
TORSDOF 2
ENDMDL
MODEL 8
REMARK VINA RESULT:    -1.821      9.406      9.972
REMARK INTER + INTRA:          -2.051
REMARK INTER:                  -2.046
REMARK INTRA:                  -0.005
REMARK UNBOUND:                -0.017
REMARK SMILES CCCC(=O)[O-]
REMARK SMILES IDX 3 1 4 2 5 3 6 4 2 5 1 6
REMARK H PARENT
REMARK Flexibility Score: inf
ROOT
ATOM      1  C   UNL     1     147.561 163.883 155.619  1.00  0.00     0.052 C 
ENDROOT
BRANCH   1   2
ATOM      2  C   UNL     1     147.158 162.451 155.449  1.00  0.00     0.041 C 
ATOM      3  O   UNL     1     146.909 161.737 156.456  1.00  0.00    -0.550 OA
ATOM      4  O   UNL     1     147.025 161.913 154.176  1.00  0.00    -0.550 OA
ENDBRANCH   1   2
BRANCH   1   5
ATOM      5  C   UNL     1     146.343 164.813 155.668  1.00  0.00     0.003 C 
ATOM      6  C   UNL     1     146.723 166.281 155.476  1.00  0.00     0.004 C 
ENDBRANCH   1   5
TORSDOF 2
ENDMDL
MODEL 9
REMARK VINA RESULT:    -1.787     10.363     11.009
REMARK INTER + INTRA:          -2.013
REMARK INTER:                  -1.963
REMARK INTRA:                  -0.051
REMARK UNBOUND:                -0.017
REMARK SMILES CCCC(=O)[O-]
REMARK SMILES IDX 3 1 4 2 5 3 6 4 2 5 1 6
REMARK H PARENT
REMARK Flexibility Score: inf
ROOT
ATOM      1  C   UNL     1     147.130 163.759 155.471  1.00  0.00     0.052 C 
ENDROOT
BRANCH   1   2
ATOM      2  C   UNL     1     147.040 163.463 154.006  1.00  0.00     0.041 C 
ATOM      3  O   UNL     1     148.027 163.675 153.253  1.00  0.00    -0.550 OA
ATOM      4  O   UNL     1     145.875 162.923 153.476  1.00  0.00    -0.550 OA
ENDBRANCH   1   2
BRANCH   1   5
ATOM      5  C   UNL     1     146.122 164.835 155.895  1.00  0.00     0.003 C 
ATOM      6  C   UNL     1     146.630 166.250 155.616  1.00  0.00     0.004 C 
ENDBRANCH   1   5
TORSDOF 2
ENDMDL
