MODEL 1
REMARK VINA RESULT:    -4.300      0.000      0.000
REMARK INTER + INTRA:          -5.462
REMARK INTER:                  -5.306
REMARK INTRA:                  -0.156
REMARK UNBOUND:                -0.156
REMARK SMILES CCCCCC(=O)[O-]
REMARK SMILES IDX 4 1 5 2 6 3 7 4 8 5 3 6 2 7 1 8
REMARK H PARENT
REMARK Flexibility Score: inf
ROOT
ATOM      1  C   UNL     1     105.236 311.072 193.545  1.00  0.00     0.006 C 
ENDROOT
BRANCH   1   2
ATOM      2  C   UNL     1     105.792 311.729 194.815  1.00  0.00     0.053 C 
BRANCH   2   3
ATOM      3  C   UNL     1     104.676 312.165 195.711  1.00  0.00     0.041 C 
ATOM      4  O   UNL     1     103.974 311.309 196.309  1.00  0.00    -0.550 OA
ATOM      5  O   UNL     1     104.443 313.518 195.924  1.00  0.00    -0.550 OA
ENDBRANCH   2   3
ENDBRANCH   1   2
BRANCH   1   6
ATOM      6  C   UNL     1     104.210 311.956 192.813  1.00  0.00     0.000 C 
BRANCH   6   7
ATOM      7  C   UNL     1     104.801 313.200 192.127  1.00  0.00    -0.003 C 
ATOM      8  C   UNL     1     104.005 313.642 190.901  1.00  0.00     0.004 C 
ENDBRANCH   6   7
ENDBRANCH   1   6
TORSDOF 4
ENDMDL
MODEL 2
REMARK VINA RESULT:    -4.277     20.724     21.541
REMARK INTER + INTRA:          -5.433
REMARK INTER:                  -5.353
REMARK INTRA:                  -0.080
REMARK UNBOUND:                -0.156
REMARK SMILES CCCCCC(=O)[O-]
REMARK SMILES IDX 4 1 5 2 6 3 7 4 8 5 3 6 2 7 1 8
REMARK H PARENT
REMARK Flexibility Score: inf
ROOT
ATOM      1  C   UNL     1      87.951 326.078 193.706  1.00  0.00     0.006 C 
ENDROOT
BRANCH   1   2
ATOM      2  C   UNL     1      88.558 326.423 195.072  1.00  0.00     0.053 C 
BRANCH   2   3
ATOM      3  C   UNL     1      87.518 326.335 196.144  1.00  0.00     0.041 C 
ATOM      4  O   UNL     1      87.859 326.245 197.352  1.00  0.00    -0.550 OA
ATOM      5  O   UNL     1      86.170 326.403 195.812  1.00  0.00    -0.550 OA
ENDBRANCH   2   3
ENDBRANCH   1   2
BRANCH   1   6
ATOM      6  C   UNL     1      88.174 324.609 193.305  1.00  0.00     0.000 C 
BRANCH   6   7
ATOM      7  C   UNL     1      87.352 324.139 192.091  1.00  0.00    -0.003 C 
ATOM      8  C   UNL     1      88.209 323.879 190.853  1.00  0.00     0.004 C 
ENDBRANCH   6   7
ENDBRANCH   1   6
TORSDOF 4
ENDMDL
MODEL 3
REMARK VINA RESULT:    -4.276      2.857      4.203
REMARK INTER + INTRA:          -5.431
REMARK INTER:                  -5.330
REMARK INTRA:                  -0.101
REMARK UNBOUND:                -0.156
REMARK SMILES CCCCCC(=O)[O-]
REMARK SMILES IDX 4 1 5 2 6 3 7 4 8 5 3 6 2 7 1 8
REMARK H PARENT
REMARK Flexibility Score: inf
ROOT
ATOM      1  C   UNL     1     104.098 311.750 192.880  1.00  0.00     0.006 C 
ENDROOT
BRANCH   1   2
ATOM      2  C   UNL     1     104.103 313.272 192.682  1.00  0.00     0.053 C 
BRANCH   2   3
ATOM      3  C   UNL     1     104.584 313.619 191.308  1.00  0.00     0.041 C 
ATOM      4  O   UNL     1     103.802 313.538 190.325  1.00  0.00    -0.550 OA
ATOM      5  O   UNL     1     105.881 314.079 191.121  1.00  0.00    -0.550 OA
ENDBRANCH   2   3
ENDBRANCH   1   2
BRANCH   1   6
ATOM      6  C   UNL     1     105.395 311.225 193.523  1.00  0.00     0.000 C 
BRANCH   6   7
ATOM      7  C   UNL     1     105.725 311.830 194.899  1.00  0.00    -0.003 C 
ATOM      8  C   UNL     1     104.558 311.752 195.883  1.00  0.00     0.004 C 
ENDBRANCH   6   7
ENDBRANCH   1   6
TORSDOF 4
ENDMDL
MODEL 4
REMARK VINA RESULT:    -4.269     20.758     21.864
REMARK INTER + INTRA:          -5.423
REMARK INTER:                  -5.326
REMARK INTRA:                  -0.096
REMARK UNBOUND:                -0.156
REMARK SMILES CCCCCC(=O)[O-]
REMARK SMILES IDX 4 1 5 2 6 3 7 4 8 5 3 6 2 7 1 8
REMARK H PARENT
REMARK Flexibility Score: inf
ROOT
ATOM      1  C   UNL     1      88.102 326.099 193.715  1.00  0.00     0.006 C 
ENDROOT
BRANCH   1   2
ATOM      2  C   UNL     1      88.128 324.588 193.450  1.00  0.00     0.053 C 
BRANCH   2   3
ATOM      3  C   UNL     1      87.489 324.277 192.134  1.00  0.00     0.041 C 
ATOM      4  O   UNL     1      88.163 324.335 191.073  1.00  0.00    -0.550 OA
ATOM      5  O   UNL     1      86.160 323.872 192.085  1.00  0.00    -0.550 OA
ENDBRANCH   2   3
ENDBRANCH   1   2
BRANCH   1   6
ATOM      6  C   UNL     1      88.506 326.463 195.155  1.00  0.00     0.000 C 
BRANCH   6   7
ATOM      7  C   UNL     1      87.450 326.132 196.225  1.00  0.00    -0.003 C 
ATOM      8  C   UNL     1      86.112 326.827 195.981  1.00  0.00     0.004 C 
ENDBRANCH   6   7
ENDBRANCH   1   6
TORSDOF 4
ENDMDL
MODEL 5
REMARK VINA RESULT:    -4.258     20.695     21.665
REMARK INTER + INTRA:          -5.410
REMARK INTER:                  -5.259
REMARK INTRA:                  -0.151
REMARK UNBOUND:                -0.156
REMARK SMILES CCCCCC(=O)[O-]
REMARK SMILES IDX 4 1 5 2 6 3 7 4 8 5 3 6 2 7 1 8
REMARK H PARENT
REMARK Flexibility Score: inf
ROOT
ATOM      1  C   UNL     1      87.190 326.957 194.550  1.00  0.00     0.006 C 
ENDROOT
BRANCH   1   2
ATOM      2  C   UNL     1      86.687 326.268 195.825  1.00  0.00     0.053 C 
BRANCH   2   3
ATOM      3  C   UNL     1      87.839 325.831 196.673  1.00  0.00     0.041 C 
ATOM      4  O   UNL     1      88.085 324.606 196.825  1.00  0.00    -0.550 OA
ATOM      5  O   UNL     1      88.672 326.779 197.256  1.00  0.00    -0.550 OA
ENDBRANCH   2   3
ENDBRANCH   1   2
BRANCH   1   6
ATOM      6  C   UNL     1      88.087 326.047 193.692  1.00  0.00     0.000 C 
BRANCH   6   7
ATOM      7  C   UNL     1      87.377 324.823 193.087  1.00  0.00    -0.003 C 
ATOM      8  C   UNL     1      87.988 324.371 191.761  1.00  0.00     0.004 C 
ENDBRANCH   6   7
ENDBRANCH   1   6
TORSDOF 4
ENDMDL
MODEL 6
REMARK VINA RESULT:    -4.218     20.970     21.958
REMARK INTER + INTRA:          -5.361
REMARK INTER:                  -5.237
REMARK INTRA:                  -0.124
REMARK UNBOUND:                -0.156
REMARK SMILES CCCCCC(=O)[O-]
REMARK SMILES IDX 4 1 5 2 6 3 7 4 8 5 3 6 2 7 1 8
REMARK H PARENT
REMARK Flexibility Score: inf
ROOT
ATOM      1  C   UNL     1      88.138 325.010 193.832  1.00  0.00     0.006 C 
ENDROOT
BRANCH   1   2
ATOM      2  C   UNL     1      87.770 324.591 192.402  1.00  0.00     0.053 C 
BRANCH   2   3
ATOM      3  C   UNL     1      86.628 323.625 192.417  1.00  0.00     0.041 C 
ATOM      4  O   UNL     1      85.878 323.515 191.413  1.00  0.00    -0.550 OA
ATOM      5  O   UNL     1      86.424 322.808 193.523  1.00  0.00    -0.550 OA
ENDBRANCH   2   3
ENDBRANCH   1   2
BRANCH   1   6
ATOM      6  C   UNL     1      88.243 326.536 194.001  1.00  0.00     0.000 C 
BRANCH   6   7
ATOM      7  C   UNL     1      86.967 327.218 194.525  1.00  0.00    -0.003 C 
ATOM      8  C   UNL     1      86.336 326.480 195.705  1.00  0.00     0.004 C 
ENDBRANCH   6   7
ENDBRANCH   1   6
TORSDOF 4
ENDMDL
MODEL 7
REMARK VINA RESULT:    -4.211      1.307      1.934
REMARK INTER + INTRA:          -5.352
REMARK INTER:                  -5.231
REMARK INTRA:                  -0.121
REMARK UNBOUND:                -0.156
REMARK SMILES CCCCCC(=O)[O-]
REMARK SMILES IDX 4 1 5 2 6 3 7 4 8 5 3 6 2 7 1 8
REMARK H PARENT
REMARK Flexibility Score: inf
ROOT
ATOM      1  C   UNL     1     104.094 312.978 192.462  1.00  0.00     0.006 C 
ENDROOT
BRANCH   1   2
ATOM      2  C   UNL     1     104.292 311.575 193.050  1.00  0.00     0.053 C 
BRANCH   2   3
ATOM      3  C   UNL     1     104.428 311.647 194.539  1.00  0.00     0.041 C 
ATOM      4  O   UNL     1     103.412 311.532 195.273  1.00  0.00    -0.550 OA
ATOM      5  O   UNL     1     105.683 311.790 195.116  1.00  0.00    -0.550 OA
ENDBRANCH   2   3
ENDBRANCH   1   2
BRANCH   1   6
ATOM      6  C   UNL     1     105.383 313.563 191.858  1.00  0.00     0.000 C 
BRANCH   6   7
ATOM      7  C   UNL     1     105.175 314.425 190.600  1.00  0.00    -0.003 C 
ATOM      8  C   UNL     1     103.793 314.247 189.975  1.00  0.00     0.004 C 
ENDBRANCH   6   7
ENDBRANCH   1   6
TORSDOF 4
ENDMDL
MODEL 8
REMARK VINA RESULT:    -4.166      1.842      3.584
REMARK INTER + INTRA:          -5.296
REMARK INTER:                  -5.038
REMARK INTRA:                  -0.258
REMARK UNBOUND:                -0.156
REMARK SMILES CCCCCC(=O)[O-]
REMARK SMILES IDX 4 1 5 2 6 3 7 4 8 5 3 6 2 7 1 8
REMARK H PARENT
REMARK Flexibility Score: inf
ROOT
ATOM      1  C   UNL     1     104.155 311.704 193.098  1.00  0.00     0.006 C 
ENDROOT
BRANCH   1   2
ATOM      2  C   UNL     1     104.153 312.910 192.149  1.00  0.00     0.053 C 
BRANCH   2   3
ATOM      3  C   UNL     1     104.495 314.162 192.893  1.00  0.00     0.041 C 
ATOM      4  O   UNL     1     105.561 314.780 192.637  1.00  0.00    -0.550 OA
ATOM      5  O   UNL     1     103.610 314.675 193.834  1.00  0.00    -0.550 OA
ENDBRANCH   2   3
ENDBRANCH   1   2
BRANCH   1   6
ATOM      6  C   UNL     1     105.572 311.274 193.517  1.00  0.00     0.000 C 
BRANCH   6   7
ATOM      7  C   UNL     1     105.900 311.489 195.005  1.00  0.00    -0.003 C 
ATOM      8  C   UNL     1     104.670 311.833 195.845  1.00  0.00     0.004 C 
ENDBRANCH   6   7
ENDBRANCH   1   6
TORSDOF 4
ENDMDL
MODEL 9
REMARK VINA RESULT:    -4.074     20.648     21.612
REMARK INTER + INTRA:          -5.183
REMARK INTER:                  -5.112
REMARK INTRA:                  -0.070
REMARK UNBOUND:                -0.156
REMARK SMILES CCCCCC(=O)[O-]
REMARK SMILES IDX 4 1 5 2 6 3 7 4 8 5 3 6 2 7 1 8
REMARK H PARENT
REMARK Flexibility Score: inf
ROOT
ATOM      1  C   UNL     1      87.702 324.411 193.359  1.00  0.00     0.006 C 
ENDROOT
BRANCH   1   2
ATOM      2  C   UNL     1      86.403 325.114 193.773  1.00  0.00     0.053 C 
BRANCH   2   3
ATOM      3  C   UNL     1      86.703 326.304 194.629  1.00  0.00     0.041 C 
ATOM      4  O   UNL     1      86.113 326.457 195.730  1.00  0.00    -0.550 OA
ATOM      5  O   UNL     1      87.671 327.219 194.233  1.00  0.00    -0.550 OA
ENDBRANCH   2   3
ENDBRANCH   1   2
BRANCH   1   6
ATOM      6  C   UNL     1      88.056 324.631 191.877  1.00  0.00     0.000 C 
BRANCH   6   7
ATOM      7  C   UNL     1      87.834 323.407 190.971  1.00  0.00    -0.003 C 
ATOM      8  C   UNL     1      88.639 323.469 189.674  1.00  0.00     0.004 C 
ENDBRANCH   6   7
ENDBRANCH   1   6
TORSDOF 4
ENDMDL
