MODEL 1
REMARK VINA RESULT:    -8.150      0.000      0.000
REMARK INTER + INTRA:         -13.178
REMARK INTER:                 -11.961
REMARK INTRA:                  -1.217
REMARK UNBOUND:                -1.217
REMARK SMILES Cc1cc2c(C(C)C)c(O)c(O)c(C=O)c2c(O)c1-c1c(C)cc2c(C(C)C)c(O)c(O)c(C=O)c2c1O
REMARK SMILES IDX 1 1 2 2 3 3 4 4 16 5 13 6 11 7 9 8 5 9 17 10 19 11 20 12
REMARK SMILES IDX 37 13 21 14 36 15 23 16 22 17 24 18 33 19 25 20 31 21 29 22
REMARK SMILES IDX 38 23 34 25 35 26 26 27 27 28 28 29 32 30 30 32 18 34 6 36
REMARK SMILES IDX 7 37 8 38 14 39 15 40 10 41 12 43
REMARK H PARENT 38 24 32 31 30 33 18 35 10 42 12 44
REMARK Flexibility Score: inf
ROOT
ATOM      1  C   UNL     1      84.546  57.977   9.214  1.00  0.00     0.045 C 
ATOM      2  C   UNL     1      85.663  58.915   8.827  1.00  0.00    -0.039 A 
ATOM      3  C   UNL     1      85.444  60.294   8.857  1.00  0.00     0.013 A 
ATOM      4  C   UNL     1      86.455  61.215   8.507  1.00  0.00    -0.006 A 
ATOM      5  C   UNL     1      87.687  60.716   7.987  1.00  0.00     0.039 A 
ATOM      6  C   UNL     1      88.621  61.637   7.425  1.00  0.00     0.072 A 
ATOM      7  C   UNL     1      88.317  63.014   7.396  1.00  0.00     0.169 A 
ATOM      8  C   UNL     1      87.154  63.498   8.004  1.00  0.00     0.162 A 
ATOM      9  C   UNL     1      86.251  62.621   8.643  1.00  0.00     0.008 A 
ATOM     10  C   UNL     1      87.943  59.315   8.059  1.00  0.00     0.132 A 
ATOM     11  C   UNL     1      86.927  58.422   8.462  1.00  0.00     0.031 A 
ENDROOT
BRANCH  11  12
ATOM     12  C   UNL     1      87.180  56.958   8.487  1.00  0.00     0.031 A 
ATOM     13  C   UNL     1      86.772  56.151   7.403  1.00  0.00     0.132 A 
ATOM     14  C   UNL     1      87.793  56.373   9.606  1.00  0.00    -0.039 A 
ATOM     15  C   UNL     1      87.064  54.754   7.392  1.00  0.00     0.039 A 
ATOM     16  C   UNL     1      87.982  54.991   9.644  1.00  0.00     0.013 A 
ATOM     17  C   UNL     1      88.179  57.204  10.806  1.00  0.00     0.045 C 
ATOM     18  C   UNL     1      87.668  54.163   8.543  1.00  0.00    -0.006 A 
ATOM     19  C   UNL     1      86.726  53.919   6.287  1.00  0.00     0.072 A 
ATOM     20  C   UNL     1      87.904  52.754   8.586  1.00  0.00     0.008 A 
ATOM     21  C   UNL     1      86.821  52.521   6.407  1.00  0.00     0.169 A 
ATOM     22  C   UNL     1      87.326  51.943   7.585  1.00  0.00     0.162 A 
BRANCH  13  23
ATOM     23  O   UNL     1      86.037  56.728   6.361  1.00  0.00    -0.507 OA
ATOM     24  H   UNL     1      85.911  57.724   6.243  1.00  0.00     0.293 HD
ENDBRANCH  13  23
BRANCH  19  25
ATOM     25  C   UNL     1      86.355  54.478   4.963  1.00  0.00     0.264 C 
ATOM     26  O   UNL     1      85.171  54.411   4.537  1.00  0.00    -0.298 OA
ENDBRANCH  19  25
BRANCH  20  27
ATOM     27  C   UNL     1      88.720  52.102   9.718  1.00  0.00     0.017 C 
ATOM     28  C   UNL     1      87.807  51.332  10.678  1.00  0.00     0.012 C 
ATOM     29  C   UNL     1      89.880  51.217   9.220  1.00  0.00     0.012 C 
ENDBRANCH  20  27
BRANCH  21  30
ATOM     30  O   UNL     1      86.452  51.726   5.317  1.00  0.00    -0.504 OA
ATOM     31  H   UNL     1      86.186  50.753   5.388  1.00  0.00     0.293 HD
ENDBRANCH  21  30
BRANCH  22  32
ATOM     32  O   UNL     1      87.254  50.561   7.785  1.00  0.00    -0.504 OA
ATOM     33  H   UNL     1      86.452  50.085   8.173  1.00  0.00     0.293 HD
ENDBRANCH  22  32
ENDBRANCH  11  12
BRANCH  10  34
ATOM     34  O   UNL     1      89.216  58.811   7.762  1.00  0.00    -0.507 OA
ATOM     35  H   UNL     1      89.557  58.657   6.821  1.00  0.00     0.293 HD
ENDBRANCH  10  34
BRANCH   9  36
ATOM     36  C   UNL     1      85.070  63.194   9.447  1.00  0.00     0.017 C 
ATOM     37  C   UNL     1      84.937  62.490  10.801  1.00  0.00     0.012 C 
ATOM     38  C   UNL     1      83.736  63.187   8.678  1.00  0.00     0.012 C 
ENDBRANCH   9  36
BRANCH   6  39
ATOM     39  C   UNL     1      89.868  61.182   6.776  1.00  0.00     0.264 C 
ATOM     40  O   UNL     1      90.986  61.388   7.320  1.00  0.00    -0.298 OA
ENDBRANCH   6  39
BRANCH   8  41
ATOM     41  O   UNL     1      86.875  64.866   7.950  1.00  0.00    -0.504 OA
ATOM     42  H   UNL     1      86.674  65.357   7.087  1.00  0.00     0.293 HD
ENDBRANCH   8  41
BRANCH   7  43
ATOM     43  O   UNL     1      89.149  63.935   6.747  1.00  0.00    -0.504 OA
ATOM     44  H   UNL     1      90.147  63.814   6.631  1.00  0.00     0.293 HD
ENDBRANCH   7  43
TORSDOF 11
ENDMDL
MODEL 2
REMARK VINA RESULT:    -8.089      0.593      9.038
REMARK INTER + INTRA:         -13.088
REMARK INTER:                 -11.809
REMARK INTRA:                  -1.279
REMARK UNBOUND:                -1.217
REMARK SMILES Cc1cc2c(C(C)C)c(O)c(O)c(C=O)c2c(O)c1-c1c(C)cc2c(C(C)C)c(O)c(O)c(C=O)c2c1O
REMARK SMILES IDX 1 1 2 2 3 3 4 4 16 5 13 6 11 7 9 8 5 9 17 10 19 11 20 12
REMARK SMILES IDX 37 13 21 14 36 15 23 16 22 17 24 18 33 19 25 20 31 21 29 22
REMARK SMILES IDX 38 23 34 25 35 26 26 27 27 28 28 29 32 30 30 32 18 34 6 36
REMARK SMILES IDX 7 37 8 38 14 39 15 40 10 41 12 43
REMARK H PARENT 38 24 32 31 30 33 18 35 10 42 12 44
REMARK Flexibility Score: inf
ROOT
ATOM      1  C   UNL     1      88.430  57.226  10.700  1.00  0.00     0.045 C 
ATOM      2  C   UNL     1      87.830  56.425   9.570  1.00  0.00    -0.039 A 
ATOM      3  C   UNL     1      87.880  55.031   9.615  1.00  0.00     0.013 A 
ATOM      4  C   UNL     1      87.332  54.234   8.587  1.00  0.00    -0.006 A 
ATOM      5  C   UNL     1      86.832  54.876   7.415  1.00  0.00     0.039 A 
ATOM      6  C   UNL     1      86.485  54.076   6.284  1.00  0.00     0.072 A 
ATOM      7  C   UNL     1      86.637  52.675   6.345  1.00  0.00     0.169 A 
ATOM      8  C   UNL     1      87.029  52.052   7.535  1.00  0.00     0.162 A 
ATOM      9  C   UNL     1      87.297  52.810   8.695  1.00  0.00     0.008 A 
ATOM     10  C   UNL     1      86.686  56.295   7.421  1.00  0.00     0.132 A 
ATOM     11  C   UNL     1      87.199  57.061   8.489  1.00  0.00     0.031 A 
ENDROOT
BRANCH  11  12
ATOM     12  C   UNL     1      87.093  58.544   8.469  1.00  0.00     0.031 A 
ATOM     13  C   UNL     1      88.169  59.324   7.996  1.00  0.00     0.132 A 
ATOM     14  C   UNL     1      85.932  59.168   8.954  1.00  0.00    -0.039 A 
ATOM     15  C   UNL     1      88.053  60.745   7.919  1.00  0.00     0.039 A 
ATOM     16  C   UNL     1      85.859  60.561   8.978  1.00  0.00     0.013 A 
ATOM     17  C   UNL     1      84.793  58.359   9.525  1.00  0.00     0.045 C 
ATOM     18  C   UNL     1      86.878  61.373   8.434  1.00  0.00    -0.006 A 
ATOM     19  C   UNL     1      89.093  61.561   7.386  1.00  0.00     0.072 A 
ATOM     20  C   UNL     1      86.768  62.798   8.434  1.00  0.00     0.008 A 
ATOM     21  C   UNL     1      89.036  62.959   7.536  1.00  0.00     0.169 A 
ATOM     22  C   UNL     1      87.918  63.563   8.136  1.00  0.00     0.162 A 
BRANCH  13  23
ATOM     23  O   UNL     1      89.370  58.694   7.650  1.00  0.00    -0.507 OA
ATOM     24  H   UNL     1      90.260  58.897   8.085  1.00  0.00     0.293 HD
ENDBRANCH  13  23
BRANCH  19  25
ATOM     25  C   UNL     1      90.210  60.994   6.591  1.00  0.00     0.264 C 
ATOM     26  O   UNL     1      91.395  61.022   7.020  1.00  0.00    -0.298 OA
ENDBRANCH  19  25
BRANCH  20  27
ATOM     27  C   UNL     1      85.454  63.511   8.801  1.00  0.00     0.017 C 
ATOM     28  C   UNL     1      84.387  63.281   7.726  1.00  0.00     0.012 C 
ATOM     29  C   UNL     1      84.921  63.155  10.202  1.00  0.00     0.012 C 
ENDBRANCH  20  27
BRANCH  21  30
ATOM     30  O   UNL     1      90.088  63.732   7.033  1.00  0.00    -0.504 OA
ATOM     31  H   UNL     1      90.614  64.399   7.580  1.00  0.00     0.293 HD
ENDBRANCH  21  30
BRANCH  22  32
ATOM     32  O   UNL     1      87.931  64.924   8.453  1.00  0.00    -0.504 OA
ATOM     33  H   UNL     1      87.931  65.287   9.396  1.00  0.00     0.293 HD
ENDBRANCH  22  32
ENDBRANCH  11  12
BRANCH  10  34
ATOM     34  O   UNL     1      86.003  56.941   6.383  1.00  0.00    -0.507 OA
ATOM     35  H   UNL     1      86.212  57.880   6.067  1.00  0.00     0.293 HD
ENDBRANCH  10  34
BRANCH   9  36
ATOM     36  C   UNL     1      87.560  52.094  10.032  1.00  0.00     0.017 C 
ATOM     37  C   UNL     1      88.965  51.485  10.058  1.00  0.00     0.012 C 
ATOM     38  C   UNL     1      86.489  51.051  10.398  1.00  0.00     0.012 C 
ENDBRANCH   9  36
BRANCH   6  39
ATOM     39  C   UNL     1      86.060  54.679   5.005  1.00  0.00     0.264 C 
ATOM     40  O   UNL     1      84.866  54.578   4.614  1.00  0.00    -0.298 OA
ENDBRANCH   6  39
BRANCH   8  41
ATOM     41  O   UNL     1      87.180  50.664   7.560  1.00  0.00    -0.504 OA
ATOM     42  H   UNL     1      86.861  50.058   6.814  1.00  0.00     0.293 HD
ENDBRANCH   8  41
BRANCH   7  43
ATOM     43  O   UNL     1      86.424  51.865   5.221  1.00  0.00    -0.504 OA
ATOM     44  H   UNL     1      86.614  50.872   5.195  1.00  0.00     0.293 HD
ENDBRANCH   7  43
TORSDOF 11
ENDMDL
MODEL 3
REMARK VINA RESULT:    -7.961      2.765      4.688
REMARK INTER + INTRA:         -12.901
REMARK INTER:                 -11.478
REMARK INTRA:                  -1.423
REMARK UNBOUND:                -1.217
REMARK SMILES Cc1cc2c(C(C)C)c(O)c(O)c(C=O)c2c(O)c1-c1c(C)cc2c(C(C)C)c(O)c(O)c(C=O)c2c1O
REMARK SMILES IDX 1 1 2 2 3 3 4 4 16 5 13 6 11 7 9 8 5 9 17 10 19 11 20 12
REMARK SMILES IDX 37 13 21 14 36 15 23 16 22 17 24 18 33 19 25 20 31 21 29 22
REMARK SMILES IDX 38 23 34 25 35 26 26 27 27 28 28 29 32 30 30 32 18 34 6 36
REMARK SMILES IDX 7 37 8 38 14 39 15 40 10 41 12 43
REMARK H PARENT 38 24 32 31 30 33 18 35 10 42 12 44
REMARK Flexibility Score: inf
ROOT
ATOM      1  C   UNL     1      87.985  57.296  10.682  1.00  0.00     0.045 C 
ATOM      2  C   UNL     1      87.848  57.469   9.188  1.00  0.00    -0.039 A 
ATOM      3  C   UNL     1      88.389  58.600   8.576  1.00  0.00     0.013 A 
ATOM      4  C   UNL     1      88.292  58.810   7.183  1.00  0.00    -0.006 A 
ATOM      5  C   UNL     1      87.509  57.904   6.407  1.00  0.00     0.039 A 
ATOM      6  C   UNL     1      87.222  58.231   5.047  1.00  0.00     0.072 A 
ATOM      7  C   UNL     1      87.716  59.432   4.495  1.00  0.00     0.169 A 
ATOM      8  C   UNL     1      88.568  60.257   5.237  1.00  0.00     0.162 A 
ATOM      9  C   UNL     1      88.939  59.918   6.556  1.00  0.00     0.008 A 
ATOM     10  C   UNL     1      87.051  56.698   7.016  1.00  0.00     0.132 A 
ATOM     11  C   UNL     1      87.209  56.495   8.404  1.00  0.00     0.031 A 
ENDROOT
BRANCH  11  12
ATOM     12  C   UNL     1      86.685  55.261   9.046  1.00  0.00     0.031 A 
ATOM     13  C   UNL     1      87.478  54.094   9.089  1.00  0.00     0.132 A 
ATOM     14  C   UNL     1      85.386  55.248   9.579  1.00  0.00    -0.039 A 
ATOM     15  C   UNL     1      87.006  52.923   9.755  1.00  0.00     0.039 A 
ATOM     16  C   UNL     1      84.883  54.072  10.135  1.00  0.00     0.013 A 
ATOM     17  C   UNL     1      84.494  56.462   9.487  1.00  0.00     0.045 C 
ATOM     18  C   UNL     1      85.676  52.911  10.275  1.00  0.00    -0.006 A 
ATOM     19  C   UNL     1      87.803  51.748   9.876  1.00  0.00     0.072 A 
ATOM     20  C   UNL     1      85.154  51.727  10.881  1.00  0.00     0.008 A 
ATOM     21  C   UNL     1      87.225  50.550  10.332  1.00  0.00     0.169 A 
ATOM     22  C   UNL     1      85.883  50.524  10.749  1.00  0.00     0.162 A 
BRANCH  13  23
ATOM     23  O   UNL     1      88.713  54.083   8.429  1.00  0.00    -0.507 OA
ATOM     24  H   UNL     1      89.152  53.246   8.068  1.00  0.00     0.293 HD
ENDBRANCH  13  23
BRANCH  19  25
ATOM     25  C   UNL     1      89.265  51.758   9.617  1.00  0.00     0.264 C 
ATOM     26  O   UNL     1      89.750  51.195   8.599  1.00  0.00    -0.298 OA
ENDBRANCH  19  25
BRANCH  20  27
ATOM     27  C   UNL     1      83.803  51.721  11.621  1.00  0.00     0.017 C 
ATOM     28  C   UNL     1      82.696  51.143  10.735  1.00  0.00     0.012 C 
ATOM     29  C   UNL     1      83.846  51.018  12.992  1.00  0.00     0.012 C 
ENDBRANCH  20  27
BRANCH  21  30
ATOM     30  O   UNL     1      88.024  49.404  10.409  1.00  0.00    -0.504 OA
ATOM     31  H   UNL     1      87.951  48.618   9.779  1.00  0.00     0.293 HD
ENDBRANCH  21  30
BRANCH  22  32
ATOM     32  O   UNL     1      85.250  49.310  11.030  1.00  0.00    -0.504 OA
ATOM     33  H   UNL     1      85.225  48.881  11.944  1.00  0.00     0.293 HD
ENDBRANCH  22  32
ENDBRANCH  11  12
BRANCH  10  34
ATOM     34  O   UNL     1      86.470  55.688   6.239  1.00  0.00    -0.507 OA
ATOM     35  H   UNL     1      85.472  55.536   6.166  1.00  0.00     0.293 HD
ENDBRANCH  10  34
BRANCH   9  36
ATOM     36  C   UNL     1      90.007  60.750   7.288  1.00  0.00     0.017 C 
ATOM     37  C   UNL     1      89.454  62.123   7.683  1.00  0.00     0.012 C 
ATOM     38  C   UNL     1      91.331  60.881   6.512  1.00  0.00     0.012 C 
ENDBRANCH   9  36
BRANCH   6  39
ATOM     39  C   UNL     1      86.333  57.393   4.216  1.00  0.00     0.264 C 
ATOM     40  O   UNL     1      86.802  56.705   3.269  1.00  0.00    -0.298 OA
ENDBRANCH   6  39
BRANCH   8  41
ATOM     41  O   UNL     1      89.033  61.445   4.667  1.00  0.00    -0.504 OA
ATOM     42  H   UNL     1      88.706  62.360   4.952  1.00  0.00     0.293 HD
ENDBRANCH   8  41
BRANCH   7  43
ATOM     43  O   UNL     1      87.358  59.849   3.207  1.00  0.00    -0.504 OA
ATOM     44  H   UNL     1      87.613  60.743   2.810  1.00  0.00     0.293 HD
ENDBRANCH   7  43
TORSDOF 11
ENDMDL
MODEL 4
REMARK VINA RESULT:    -7.802      2.968      8.481
REMARK INTER + INTRA:         -12.667
REMARK INTER:                 -11.256
REMARK INTRA:                  -1.411
REMARK UNBOUND:                -1.217
REMARK SMILES Cc1cc2c(C(C)C)c(O)c(O)c(C=O)c2c(O)c1-c1c(C)cc2c(C(C)C)c(O)c(O)c(C=O)c2c1O
REMARK SMILES IDX 1 1 2 2 3 3 4 4 16 5 13 6 11 7 9 8 5 9 17 10 19 11 20 12
REMARK SMILES IDX 37 13 21 14 36 15 23 16 22 17 24 18 33 19 25 20 31 21 29 22
REMARK SMILES IDX 38 23 34 25 35 26 26 27 27 28 28 29 32 30 30 32 18 34 6 36
REMARK SMILES IDX 7 37 8 38 14 39 15 40 10 41 12 43
REMARK H PARENT 38 24 32 31 30 33 18 35 10 42 12 44
REMARK Flexibility Score: inf
ROOT
ATOM      1  C   UNL     1      86.520  58.213  10.758  1.00  0.00     0.045 C 
ATOM      2  C   UNL     1      85.791  57.599   9.587  1.00  0.00    -0.039 A 
ATOM      3  C   UNL     1      84.803  56.641   9.820  1.00  0.00     0.013 A 
ATOM      4  C   UNL     1      84.089  56.038   8.762  1.00  0.00    -0.006 A 
ATOM      5  C   UNL     1      84.481  56.323   7.420  1.00  0.00     0.039 A 
ATOM      6  C   UNL     1      83.919  55.553   6.358  1.00  0.00     0.072 A 
ATOM      7  C   UNL     1      82.989  54.533   6.649  1.00  0.00     0.169 A 
ATOM      8  C   UNL     1      82.537  54.335   7.958  1.00  0.00     0.162 A 
ATOM      9  C   UNL     1      83.011  55.138   9.018  1.00  0.00     0.008 A 
ATOM     10  C   UNL     1      85.413  57.378   7.188  1.00  0.00     0.132 A 
ATOM     11  C   UNL     1      86.074  57.998   8.271  1.00  0.00     0.031 A 
ENDROOT
BRANCH  11  12
ATOM     12  C   UNL     1      87.083  59.061   8.025  1.00  0.00     0.031 A 
ATOM     13  C   UNL     1      86.687  60.415   7.970  1.00  0.00     0.132 A 
ATOM     14  C   UNL     1      88.427  58.713   7.814  1.00  0.00    -0.039 A 
ATOM     15  C   UNL     1      87.658  61.445   7.792  1.00  0.00     0.039 A 
ATOM     16  C   UNL     1      89.360  59.712   7.534  1.00  0.00     0.013 A 
ATOM     17  C   UNL     1      88.866  57.269   7.804  1.00  0.00     0.045 C 
ATOM     18  C   UNL     1      89.019  61.083   7.556  1.00  0.00    -0.006 A 
ATOM     19  C   UNL     1      87.304  62.826   7.796  1.00  0.00     0.072 A 
ATOM     20  C   UNL     1      89.997  62.093   7.304  1.00  0.00     0.008 A 
ATOM     21  C   UNL     1      88.243  63.794   7.393  1.00  0.00     0.169 A 
ATOM     22  C   UNL     1      89.557  63.414   7.066  1.00  0.00     0.162 A 
BRANCH  13  23
ATOM     23  O   UNL     1      85.325  60.731   8.041  1.00  0.00    -0.507 OA
ATOM     24  H   UNL     1      84.918  61.316   8.759  1.00  0.00     0.293 HD
ENDBRANCH  13  23
BRANCH  19  25
ATOM     25  C   UNL     1      85.991  63.302   8.297  1.00  0.00     0.264 C 
ATOM     26  O   UNL     1      85.104  63.720   7.506  1.00  0.00    -0.298 OA
ENDBRANCH  19  25
BRANCH  20  27
ATOM     27  C   UNL     1      91.501  61.768   7.232  1.00  0.00     0.017 C 
ATOM     28  C   UNL     1      91.981  61.715   5.778  1.00  0.00     0.012 C 
ATOM     29  C   UNL     1      92.383  62.707   8.078  1.00  0.00     0.012 C 
ENDBRANCH  20  27
BRANCH  21  30
ATOM     30  O   UNL     1      87.857  65.139   7.375  1.00  0.00    -0.504 OA
ATOM     31  H   UNL     1      87.967  65.749   6.578  1.00  0.00     0.293 HD
ENDBRANCH  21  30
BRANCH  22  32
ATOM     32  O   UNL     1      90.439  64.334   6.494  1.00  0.00    -0.504 OA
ATOM     33  H   UNL     1      90.231  64.886   5.673  1.00  0.00     0.293 HD
ENDBRANCH  22  32
ENDBRANCH  11  12
BRANCH  10  34
ATOM     34  O   UNL     1      85.660  57.833   5.887  1.00  0.00    -0.507 OA
ATOM     35  H   UNL     1      85.818  58.804   5.648  1.00  0.00     0.293 HD
ENDBRANCH  10  34
BRANCH   9  36
ATOM     36  C   UNL     1      82.375  55.013  10.414  1.00  0.00     0.017 C 
ATOM     37  C   UNL     1      82.696  53.654  11.042  1.00  0.00     0.012 C 
ATOM     38  C   UNL     1      80.862  55.298  10.433  1.00  0.00     0.012 C 
ENDBRANCH   9  36
BRANCH   6  39
ATOM     39  C   UNL     1      84.355  55.723   4.957  1.00  0.00     0.264 C 
ATOM     40  O   UNL     1      85.247  54.980   4.468  1.00  0.00    -0.298 OA
ENDBRANCH   6  39
BRANCH   8  41
ATOM     41  O   UNL     1      81.624  53.309   8.216  1.00  0.00    -0.504 OA
ATOM     42  H   UNL     1      80.627  53.465   8.303  1.00  0.00     0.293 HD
ENDBRANCH   8  41
BRANCH   7  43
ATOM     43  O   UNL     1      82.506  53.675   5.652  1.00  0.00    -0.504 OA
ATOM     44  H   UNL     1      83.096  53.160   5.012  1.00  0.00     0.293 HD
ENDBRANCH   7  43
TORSDOF 11
ENDMDL
MODEL 5
REMARK VINA RESULT:    -7.727      2.715      8.482
REMARK INTER + INTRA:         -12.557
REMARK INTER:                 -11.179
REMARK INTRA:                  -1.378
REMARK UNBOUND:                -1.217
REMARK SMILES Cc1cc2c(C(C)C)c(O)c(O)c(C=O)c2c(O)c1-c1c(C)cc2c(C(C)C)c(O)c(O)c(C=O)c2c1O
REMARK SMILES IDX 1 1 2 2 3 3 4 4 16 5 13 6 11 7 9 8 5 9 17 10 19 11 20 12
REMARK SMILES IDX 37 13 21 14 36 15 23 16 22 17 24 18 33 19 25 20 31 21 29 22
REMARK SMILES IDX 38 23 34 25 35 26 26 27 27 28 28 29 32 30 30 32 18 34 6 36
REMARK SMILES IDX 7 37 8 38 14 39 15 40 10 41 12 43
REMARK H PARENT 38 24 32 31 30 33 18 35 10 42 12 44
REMARK Flexibility Score: inf
ROOT
ATOM      1  C   UNL     1      84.769  56.774   9.826  1.00  0.00     0.045 C 
ATOM      2  C   UNL     1      85.512  55.465   9.699  1.00  0.00    -0.039 A 
ATOM      3  C   UNL     1      84.955  54.305  10.240  1.00  0.00     0.013 A 
ATOM      4  C   UNL     1      85.606  53.056  10.148  1.00  0.00    -0.006 A 
ATOM      5  C   UNL     1      86.924  53.008   9.602  1.00  0.00     0.039 A 
ATOM      6  C   UNL     1      87.672  51.797   9.710  1.00  0.00     0.072 A 
ATOM      7  C   UNL     1      87.100  50.675  10.346  1.00  0.00     0.169 A 
ATOM      8  C   UNL     1      85.771  50.705  10.782  1.00  0.00     0.162 A 
ATOM      9  C   UNL     1      84.979  51.860  10.612  1.00  0.00     0.008 A 
ATOM     10  C   UNL     1      87.440  54.171   8.957  1.00  0.00     0.132 A 
ATOM     11  C   UNL     1      86.740  55.395   9.023  1.00  0.00     0.031 A 
ENDROOT
BRANCH  11  12
ATOM     12  C   UNL     1      87.305  56.618   8.395  1.00  0.00     0.031 A 
ATOM     13  C   UNL     1      87.058  56.893   7.033  1.00  0.00     0.132 A 
ATOM     14  C   UNL     1      88.115  57.481   9.151  1.00  0.00    -0.039 A 
ATOM     15  C   UNL     1      87.548  58.094   6.438  1.00  0.00     0.039 A 
ATOM     16  C   UNL     1      88.683  58.600   8.542  1.00  0.00     0.013 A 
ATOM     17  C   UNL     1      88.448  57.175  10.591  1.00  0.00     0.045 C 
ATOM     18  C   UNL     1      88.389  58.956   7.206  1.00  0.00    -0.006 A 
ATOM     19  C   UNL     1      87.264  58.438   5.084  1.00  0.00     0.072 A 
ATOM     20  C   UNL     1      88.951  60.127   6.611  1.00  0.00     0.008 A 
ATOM     21  C   UNL     1      87.947  59.504   4.471  1.00  0.00     0.169 A 
ATOM     22  C   UNL     1      88.850  60.287   5.212  1.00  0.00     0.162 A 
BRANCH  13  23
ATOM     23  O   UNL     1      86.368  55.951   6.261  1.00  0.00    -0.507 OA
ATOM     24  H   UNL     1      85.849  55.175   6.648  1.00  0.00     0.293 HD
ENDBRANCH  13  23
BRANCH  19  25
ATOM     25  C   UNL     1      86.196  57.760   4.307  1.00  0.00     0.264 C 
ATOM     26  O   UNL     1      86.477  56.956   3.378  1.00  0.00    -0.298 OA
ENDBRANCH  19  25
BRANCH  20  27
ATOM     27  C   UNL     1      89.704  61.180   7.445  1.00  0.00     0.017 C 
ATOM     28  C   UNL     1      91.187  61.220   7.067  1.00  0.00     0.012 C 
ATOM     29  C   UNL     1      89.074  62.586   7.390  1.00  0.00     0.012 C 
ENDBRANCH  20  27
BRANCH  21  30
ATOM     30  O   UNL     1      87.671  59.798   3.131  1.00  0.00    -0.504 OA
ATOM     31  H   UNL     1      87.030  60.517   2.828  1.00  0.00     0.293 HD
ENDBRANCH  21  30
BRANCH  22  32
ATOM     32  O   UNL     1      89.664  61.226   4.572  1.00  0.00    -0.504 OA
ATOM     33  H   UNL     1      90.390  61.756   5.035  1.00  0.00     0.293 HD
ENDBRANCH  22  32
ENDBRANCH  11  12
BRANCH  10  34
ATOM     34  O   UNL     1      88.632  54.104   8.224  1.00  0.00    -0.507 OA
ATOM     35  H   UNL     1      89.510  54.498   8.536  1.00  0.00     0.293 HD
ENDBRANCH  10  34
BRANCH   9  36
ATOM     36  C   UNL     1      83.477  51.812  10.946  1.00  0.00     0.017 C 
ATOM     37  C   UNL     1      83.255  51.493  12.427  1.00  0.00     0.012 C 
ATOM     38  C   UNL     1      82.671  50.862  10.040  1.00  0.00     0.012 C 
ENDBRANCH   9  36
BRANCH   6  39
ATOM     39  C   UNL     1      89.076  51.707   9.261  1.00  0.00     0.264 C 
ATOM     40  O   UNL     1      89.373  51.084   8.206  1.00  0.00    -0.298 OA
ENDBRANCH   6  39
BRANCH   8  41
ATOM     41  O   UNL     1      85.237  49.581  11.417  1.00  0.00    -0.504 OA
ATOM     42  H   UNL     1      84.784  48.826  10.918  1.00  0.00     0.293 HD
ENDBRANCH   8  41
BRANCH   7  43
ATOM     43  O   UNL     1      87.841  49.509  10.580  1.00  0.00    -0.504 OA
ATOM     44  H   UNL     1      88.503  49.117   9.924  1.00  0.00     0.293 HD
ENDBRANCH   7  43
TORSDOF 11
ENDMDL
MODEL 6
REMARK VINA RESULT:    -7.682      2.042      9.172
REMARK INTER + INTRA:         -12.491
REMARK INTER:                 -11.210
REMARK INTRA:                  -1.282
REMARK UNBOUND:                -1.217
REMARK SMILES Cc1cc2c(C(C)C)c(O)c(O)c(C=O)c2c(O)c1-c1c(C)cc2c(C(C)C)c(O)c(O)c(C=O)c2c1O
REMARK SMILES IDX 1 1 2 2 3 3 4 4 16 5 13 6 11 7 9 8 5 9 17 10 19 11 20 12
REMARK SMILES IDX 37 13 21 14 36 15 23 16 22 17 24 18 33 19 25 20 31 21 29 22
REMARK SMILES IDX 38 23 34 25 35 26 26 27 27 28 28 29 32 30 30 32 18 34 6 36
REMARK SMILES IDX 7 37 8 38 14 39 15 40 10 41 12 43
REMARK H PARENT 38 24 32 31 30 33 18 35 10 42 12 44
REMARK Flexibility Score: inf
ROOT
ATOM      1  C   UNL     1      88.626  57.008  10.166  1.00  0.00     0.045 C 
ATOM      2  C   UNL     1      87.944  56.097   9.175  1.00  0.00    -0.039 A 
ATOM      3  C   UNL     1      88.244  54.733   9.178  1.00  0.00     0.013 A 
ATOM      4  C   UNL     1      87.634  53.836   8.274  1.00  0.00    -0.006 A 
ATOM      5  C   UNL     1      86.789  54.362   7.252  1.00  0.00     0.039 A 
ATOM      6  C   UNL     1      86.350  53.496   6.206  1.00  0.00     0.072 A 
ATOM      7  C   UNL     1      86.753  52.143   6.201  1.00  0.00     0.169 A 
ATOM      8  C   UNL     1      87.495  51.618   7.265  1.00  0.00     0.162 A 
ATOM      9  C   UNL     1      87.871  52.431   8.356  1.00  0.00     0.008 A 
ATOM     10  C   UNL     1      86.403  55.734   7.320  1.00  0.00     0.132 A 
ATOM     11  C   UNL     1      86.994  56.595   8.270  1.00  0.00     0.031 A 
ENDROOT
BRANCH  11  12
ATOM     12  C   UNL     1      86.629  58.036   8.305  1.00  0.00     0.031 A 
ATOM     13  C   UNL     1      85.458  58.453   8.973  1.00  0.00     0.132 A 
ATOM     14  C   UNL     1      87.435  58.977   7.644  1.00  0.00    -0.039 A 
ATOM     15  C   UNL     1      85.131  59.840   9.061  1.00  0.00     0.039 A 
ATOM     16  C   UNL     1      87.059  60.321   7.639  1.00  0.00     0.013 A 
ATOM     17  C   UNL     1      88.656  58.549   6.869  1.00  0.00     0.045 C 
ATOM     18  C   UNL     1      85.943  60.789   8.368  1.00  0.00    -0.006 A 
ATOM     19  C   UNL     1      83.992  60.304   9.782  1.00  0.00     0.072 A 
ATOM     20  C   UNL     1      85.596  62.175   8.382  1.00  0.00     0.008 A 
ATOM     21  C   UNL     1      83.579  61.643   9.657  1.00  0.00     0.169 A 
ATOM     22  C   UNL     1      84.332  62.549   8.888  1.00  0.00     0.162 A 
BRANCH  13  23
ATOM     23  O   UNL     1      84.594  57.488   9.504  1.00  0.00    -0.507 OA
ATOM     24  H   UNL     1      83.799  57.704  10.090  1.00  0.00     0.293 HD
ENDBRANCH  13  23
BRANCH  19  25
ATOM     25  C   UNL     1      83.262  59.440  10.743  1.00  0.00     0.264 C 
ATOM     26  O   UNL     1      82.110  59.002  10.480  1.00  0.00    -0.298 OA
ENDBRANCH  19  25
BRANCH  20  27
ATOM     27  C   UNL     1      86.536  63.253   7.812  1.00  0.00     0.017 C 
ATOM     28  C   UNL     1      85.925  63.914   6.572  1.00  0.00     0.012 C 
ATOM     29  C   UNL     1      86.977  64.306   8.847  1.00  0.00     0.012 C 
ENDBRANCH  20  27
BRANCH  21  30
ATOM     30  O   UNL     1      82.438  62.062  10.350  1.00  0.00    -0.504 OA
ATOM     31  H   UNL     1      81.503  62.038   9.969  1.00  0.00     0.293 HD
ENDBRANCH  21  30
BRANCH  22  32
ATOM     32  O   UNL     1      83.836  63.825   8.610  1.00  0.00    -0.504 OA
ATOM     33  H   UNL     1      83.363  64.410   9.284  1.00  0.00     0.293 HD
ENDBRANCH  22  32
ENDBRANCH  11  12
BRANCH  10  34
ATOM     34  O   UNL     1      85.410  56.234   6.469  1.00  0.00    -0.507 OA
ATOM     35  H   UNL     1      85.333  55.994   5.488  1.00  0.00     0.293 HD
ENDBRANCH  10  34
BRANCH   9  36
ATOM     36  C   UNL     1      88.538  51.793   9.588  1.00  0.00     0.017 C 
ATOM     37  C   UNL     1      89.960  51.329   9.262  1.00  0.00     0.012 C 
ATOM     38  C   UNL     1      87.710  50.662  10.226  1.00  0.00     0.012 C 
ENDBRANCH   9  36
BRANCH   6  39
ATOM     39  C   UNL     1      85.560  53.994   5.061  1.00  0.00     0.264 C 
ATOM     40  O   UNL     1      84.341  53.698   4.947  1.00  0.00    -0.298 OA
ENDBRANCH   6  39
BRANCH   8  41
ATOM     41  O   UNL     1      87.887  50.278   7.226  1.00  0.00    -0.504 OA
ATOM     42  H   UNL     1      88.090  49.737   8.058  1.00  0.00     0.293 HD
ENDBRANCH   8  41
BRANCH   7  43
ATOM     43  O   UNL     1      86.447  51.291   5.133  1.00  0.00    -0.504 OA
ATOM     44  H   UNL     1      86.866  50.381   4.996  1.00  0.00     0.293 HD
ENDBRANCH   7  43
TORSDOF 11
ENDMDL
MODEL 7
REMARK VINA RESULT:    -7.671      1.788      2.446
REMARK INTER + INTRA:         -12.475
REMARK INTER:                 -11.099
REMARK INTRA:                  -1.376
REMARK UNBOUND:                -1.217
REMARK SMILES Cc1cc2c(C(C)C)c(O)c(O)c(C=O)c2c(O)c1-c1c(C)cc2c(C(C)C)c(O)c(O)c(C=O)c2c1O
REMARK SMILES IDX 1 1 2 2 3 3 4 4 16 5 13 6 11 7 9 8 5 9 17 10 19 11 20 12
REMARK SMILES IDX 37 13 21 14 36 15 23 16 22 17 24 18 33 19 25 20 31 21 29 22
REMARK SMILES IDX 38 23 34 25 35 26 26 27 27 28 28 29 32 30 30 32 18 34 6 36
REMARK SMILES IDX 7 37 8 38 14 39 15 40 10 41 12 43
REMARK H PARENT 38 24 32 31 30 33 18 35 10 42 12 44
REMARK Flexibility Score: inf
ROOT
ATOM      1  C   UNL     1      83.476  55.584   9.941  1.00  0.00     0.045 C 
ATOM      2  C   UNL     1      84.255  56.822   9.569  1.00  0.00    -0.039 A 
ATOM      3  C   UNL     1      83.722  58.080   9.854  1.00  0.00     0.013 A 
ATOM      4  C   UNL     1      84.410  59.270   9.529  1.00  0.00    -0.006 A 
ATOM      5  C   UNL     1      85.618  59.179   8.774  1.00  0.00     0.039 A 
ATOM      6  C   UNL     1      86.197  60.375   8.252  1.00  0.00     0.072 A 
ATOM      7  C   UNL     1      85.573  61.617   8.491  1.00  0.00     0.169 A 
ATOM      8  C   UNL     1      84.448  61.701   9.319  1.00  0.00     0.162 A 
ATOM      9  C   UNL     1      83.902  60.546   9.919  1.00  0.00     0.008 A 
ATOM     10  C   UNL     1      86.210  57.895   8.581  1.00  0.00     0.132 A 
ATOM     11  C   UNL     1      85.519  56.725   8.964  1.00  0.00     0.031 A 
ENDROOT
BRANCH  11  12
ATOM     12  C   UNL     1      86.114  55.386   8.714  1.00  0.00     0.031 A 
ATOM     13  C   UNL     1      85.794  54.679   7.535  1.00  0.00     0.132 A 
ATOM     14  C   UNL     1      86.968  54.812   9.669  1.00  0.00    -0.039 A 
ATOM     15  C   UNL     1      86.407  53.419   7.260  1.00  0.00     0.039 A 
ATOM     16  C   UNL     1      87.483  53.534   9.450  1.00  0.00     0.013 A 
ATOM     17  C   UNL     1      87.274  55.519  10.966  1.00  0.00     0.045 C 
ATOM     18  C   UNL     1      87.257  52.831   8.245  1.00  0.00    -0.006 A 
ATOM     19  C   UNL     1      86.159  52.706   6.051  1.00  0.00     0.072 A 
ATOM     20  C   UNL     1      87.824  51.539   8.025  1.00  0.00     0.008 A 
ATOM     21  C   UNL     1      86.596  51.376   5.917  1.00  0.00     0.169 A 
ATOM     22  C   UNL     1      87.349  50.770   6.939  1.00  0.00     0.162 A 
BRANCH  13  23
ATOM     23  O   UNL     1      84.833  55.203   6.663  1.00  0.00    -0.507 OA
ATOM     24  H   UNL     1      84.970  56.038   6.108  1.00  0.00     0.293 HD
ENDBRANCH  13  23
BRANCH  19  25
ATOM     25  C   UNL     1      85.522  53.348   4.874  1.00  0.00     0.264 C 
ATOM     26  O   UNL     1      84.335  53.079   4.547  1.00  0.00    -0.298 OA
ENDBRANCH  19  25
BRANCH  20  27
ATOM     27  C   UNL     1      88.890  50.948   8.966  1.00  0.00     0.017 C 
ATOM     28  C   UNL     1      88.312  49.797   9.795  1.00  0.00     0.012 C 
ATOM     29  C   UNL     1      90.188  50.525   8.250  1.00  0.00     0.012 C 
ENDBRANCH  20  27
BRANCH  21  30
ATOM     30  O   UNL     1      86.309  50.689   4.732  1.00  0.00    -0.504 OA
ATOM     31  H   UNL     1      86.029  51.137   3.871  1.00  0.00     0.293 HD
ENDBRANCH  21  30
BRANCH  22  32
ATOM     32  O   UNL     1      87.631  49.402   6.897  1.00  0.00    -0.504 OA
ATOM     33  H   UNL     1      86.997  48.704   6.535  1.00  0.00     0.293 HD
ENDBRANCH  22  32
ENDBRANCH  11  12
BRANCH  10  34
ATOM     34  O   UNL     1      87.496  57.783   8.039  1.00  0.00    -0.507 OA
ATOM     35  H   UNL     1      87.751  58.111   7.116  1.00  0.00     0.293 HD
ENDBRANCH  10  34
BRANCH   9  36
ATOM     36  C   UNL     1      82.773  60.684  10.956  1.00  0.00     0.017 C 
ATOM     37  C   UNL     1      83.183  60.069  12.297  1.00  0.00     0.012 C 
ATOM     38  C   UNL     1      81.419  60.132  10.475  1.00  0.00     0.012 C 
ENDBRANCH   9  36
BRANCH   6  39
ATOM     39  C   UNL     1      87.387  60.346   7.378  1.00  0.00     0.264 C 
ATOM     40  O   UNL     1      88.500  60.763   7.797  1.00  0.00    -0.298 OA
ENDBRANCH   6  39
BRANCH   8  41
ATOM     41  O   UNL     1      83.846  62.944   9.528  1.00  0.00    -0.504 OA
ATOM     42  H   UNL     1      84.144  63.790   9.057  1.00  0.00     0.293 HD
ENDBRANCH   8  41
BRANCH   7  43
ATOM     43  O   UNL     1      86.038  62.797   7.897  1.00  0.00    -0.504 OA
ATOM     44  H   UNL     1      85.823  63.078   6.949  1.00  0.00     0.293 HD
ENDBRANCH   7  43
TORSDOF 11
ENDMDL
MODEL 8
REMARK VINA RESULT:    -7.571      3.056      4.471
REMARK INTER + INTRA:         -12.328
REMARK INTER:                 -10.876
REMARK INTRA:                  -1.452
REMARK UNBOUND:                -1.217
REMARK SMILES Cc1cc2c(C(C)C)c(O)c(O)c(C=O)c2c(O)c1-c1c(C)cc2c(C(C)C)c(O)c(O)c(C=O)c2c1O
REMARK SMILES IDX 1 1 2 2 3 3 4 4 16 5 13 6 11 7 9 8 5 9 17 10 19 11 20 12
REMARK SMILES IDX 37 13 21 14 36 15 23 16 22 17 24 18 33 19 25 20 31 21 29 22
REMARK SMILES IDX 38 23 34 25 35 26 26 27 27 28 28 29 32 30 30 32 18 34 6 36
REMARK SMILES IDX 7 37 8 38 14 39 15 40 10 41 12 43
REMARK H PARENT 38 24 32 31 30 33 18 35 10 42 12 44
REMARK Flexibility Score: inf
ROOT
ATOM      1  C   UNL     1      88.888  57.584   8.299  1.00  0.00     0.045 C 
ATOM      2  C   UNL     1      88.422  58.998   8.046  1.00  0.00    -0.039 A 
ATOM      3  C   UNL     1      89.363  59.992   7.772  1.00  0.00     0.013 A 
ATOM      4  C   UNL     1      88.981  61.329   7.526  1.00  0.00    -0.006 A 
ATOM      5  C   UNL     1      87.611  61.692   7.691  1.00  0.00     0.039 A 
ATOM      6  C   UNL     1      87.255  63.074   7.663  1.00  0.00     0.072 A 
ATOM      7  C   UNL     1      88.254  64.051   7.473  1.00  0.00     0.169 A 
ATOM      8  C   UNL     1      89.576  63.675   7.209  1.00  0.00     0.162 A 
ATOM      9  C   UNL     1      89.943  62.313   7.145  1.00  0.00     0.008 A 
ATOM     10  C   UNL     1      86.644  60.657   7.863  1.00  0.00     0.132 A 
ATOM     11  C   UNL     1      87.056  59.320   8.056  1.00  0.00     0.031 A 
ENDROOT
BRANCH  11  12
ATOM     12  C   UNL     1      86.049  58.251   8.288  1.00  0.00     0.031 A 
ATOM     13  C   UNL     1      85.539  57.510   7.200  1.00  0.00     0.132 A 
ATOM     14  C   UNL     1      85.580  58.003   9.588  1.00  0.00    -0.039 A 
ATOM     15  C   UNL     1      84.617  56.444   7.421  1.00  0.00     0.039 A 
ATOM     16  C   UNL     1      84.599  57.033   9.792  1.00  0.00     0.013 A 
ATOM     17  C   UNL     1      86.061  58.825  10.759  1.00  0.00     0.045 C 
ATOM     18  C   UNL     1      84.129  56.212   8.743  1.00  0.00    -0.006 A 
ATOM     19  C   UNL     1      84.131  55.632   6.355  1.00  0.00     0.072 A 
ATOM     20  C   UNL     1      83.150  55.198   8.978  1.00  0.00     0.008 A 
ATOM     21  C   UNL     1      83.059  54.748   6.577  1.00  0.00     0.169 A 
ATOM     22  C   UNL     1      82.517  54.600   7.866  1.00  0.00     0.162 A 
BRANCH  13  23
ATOM     23  O   UNL     1      85.911  57.866   5.898  1.00  0.00    -0.507 OA
ATOM     24  H   UNL     1      85.551  58.674   5.409  1.00  0.00     0.293 HD
ENDBRANCH  13  23
BRANCH  19  25
ATOM     25  C   UNL     1      84.776  55.617   5.019  1.00  0.00     0.264 C 
ATOM     26  O   UNL     1      84.218  56.145   4.020  1.00  0.00    -0.298 OA
ENDBRANCH  19  25
BRANCH  20  27
ATOM     27  C   UNL     1      82.735  54.785  10.403  1.00  0.00     0.017 C 
ATOM     28  C   UNL     1      81.320  55.276  10.725  1.00  0.00     0.012 C 
ATOM     29  C   UNL     1      82.881  53.276  10.682  1.00  0.00     0.012 C 
ENDBRANCH  20  27
BRANCH  21  30
ATOM     30  O   UNL     1      82.581  53.988   5.504  1.00  0.00    -0.504 OA
ATOM     31  H   UNL     1      83.019  53.141   5.170  1.00  0.00     0.293 HD
ENDBRANCH  21  30
BRANCH  22  32
ATOM     32  O   UNL     1      81.343  53.868   8.062  1.00  0.00    -0.504 OA
ATOM     33  H   UNL     1      81.088  53.050   7.527  1.00  0.00     0.293 HD
ENDBRANCH  22  32
ENDBRANCH  11  12
BRANCH  10  34
ATOM     34  O   UNL     1      85.275  60.950   7.811  1.00  0.00    -0.507 OA
ATOM     35  H   UNL     1      84.708  60.852   6.979  1.00  0.00     0.293 HD
ENDBRANCH  10  34
BRANCH   9  36
ATOM     36  C   UNL     1      91.360  61.924   6.689  1.00  0.00     0.017 C 
ATOM     37  C   UNL     1      92.407  62.381   7.709  1.00  0.00     0.012 C 
ATOM     38  C   UNL     1      91.710  62.410   5.269  1.00  0.00     0.012 C 
ENDBRANCH   9  36
BRANCH   6  39
ATOM     39  C   UNL     1      85.874  63.528   7.929  1.00  0.00     0.264 C 
ATOM     40  O   UNL     1      85.187  64.057   7.015  1.00  0.00    -0.298 OA
ENDBRANCH   6  39
BRANCH   8  41
ATOM     41  O   UNL     1      90.545  64.665   7.035  1.00  0.00    -0.504 OA
ATOM     42  H   UNL     1      90.505  65.566   7.496  1.00  0.00     0.293 HD
ENDBRANCH   8  41
BRANCH   7  43
ATOM     43  O   UNL     1      87.968  65.419   7.561  1.00  0.00    -0.504 OA
ATOM     44  H   UNL     1      87.038  65.797   7.678  1.00  0.00     0.293 HD
ENDBRANCH   7  43
TORSDOF 11
ENDMDL
MODEL 9
REMARK VINA RESULT:    -7.519      1.975      3.273
REMARK INTER + INTRA:         -12.253
REMARK INTER:                 -11.083
REMARK INTRA:                  -1.170
REMARK UNBOUND:                -1.217
REMARK SMILES Cc1cc2c(C(C)C)c(O)c(O)c(C=O)c2c(O)c1-c1c(C)cc2c(C(C)C)c(O)c(O)c(C=O)c2c1O
REMARK SMILES IDX 1 1 2 2 3 3 4 4 16 5 13 6 11 7 9 8 5 9 17 10 19 11 20 12
REMARK SMILES IDX 37 13 21 14 36 15 23 16 22 17 24 18 33 19 25 20 31 21 29 22
REMARK SMILES IDX 38 23 34 25 35 26 26 27 27 28 28 29 32 30 30 32 18 34 6 36
REMARK SMILES IDX 7 37 8 38 14 39 15 40 10 41 12 43
REMARK H PARENT 38 24 32 31 30 33 18 35 10 42 12 44
REMARK Flexibility Score: inf
ROOT
ATOM      1  C   UNL     1      88.989  58.335   7.695  1.00  0.00     0.045 C 
ATOM      2  C   UNL     1      87.621  58.772   8.160  1.00  0.00    -0.039 A 
ATOM      3  C   UNL     1      87.301  60.131   8.166  1.00  0.00     0.013 A 
ATOM      4  C   UNL     1      86.036  60.594   8.588  1.00  0.00    -0.006 A 
ATOM      5  C   UNL     1      85.113  59.657   9.143  1.00  0.00     0.039 A 
ATOM      6  C   UNL     1      83.929  60.146   9.774  1.00  0.00     0.072 A 
ATOM      7  C   UNL     1      83.690  61.535   9.835  1.00  0.00     0.169 A 
ATOM      8  C   UNL     1      84.551  62.434   9.196  1.00  0.00     0.162 A 
ATOM      9  C   UNL     1      85.685  61.975   8.491  1.00  0.00     0.008 A 
ATOM     10  C   UNL     1      85.402  58.265   9.035  1.00  0.00     0.132 A 
ATOM     11  C   UNL     1      86.659  57.831   8.560  1.00  0.00     0.031 A 
ENDROOT
BRANCH  11  12
ATOM     12  C   UNL     1      86.978  56.381   8.497  1.00  0.00     0.031 A 
ATOM     13  C   UNL     1      86.567  55.613   7.387  1.00  0.00     0.132 A 
ATOM     14  C   UNL     1      87.660  55.769   9.562  1.00  0.00    -0.039 A 
ATOM     15  C   UNL     1      86.919  54.233   7.292  1.00  0.00     0.039 A 
ATOM     16  C   UNL     1      87.912  54.397   9.519  1.00  0.00     0.013 A 
ATOM     17  C   UNL     1      88.053  56.554  10.789  1.00  0.00     0.045 C 
ATOM     18  C   UNL     1      87.593  53.612   8.388  1.00  0.00    -0.006 A 
ATOM     19  C   UNL     1      86.578  53.441   6.157  1.00  0.00     0.072 A 
ATOM     20  C   UNL     1      87.893  52.216   8.348  1.00  0.00     0.008 A 
ATOM     21  C   UNL     1      86.740  52.045   6.199  1.00  0.00     0.169 A 
ATOM     22  C   UNL     1      87.314  51.431   7.326  1.00  0.00     0.162 A 
BRANCH  13  23
ATOM     23  O   UNL     1      85.767  56.207   6.404  1.00  0.00    -0.507 OA
ATOM     24  H   UNL     1      84.827  55.906   6.182  1.00  0.00     0.293 HD
ENDBRANCH  13  23
BRANCH  19  25
ATOM     25  C   UNL     1      86.132  54.049   4.878  1.00  0.00     0.264 C 
ATOM     26  O   UNL     1      84.938  53.947   4.490  1.00  0.00    -0.298 OA
ENDBRANCH  19  25
BRANCH  20  27
ATOM     27  C   UNL     1      88.780  51.545   9.413  1.00  0.00     0.017 C 
ATOM     28  C   UNL     1      87.943  50.665  10.346  1.00  0.00     0.012 C 
ATOM     29  C   UNL     1      89.973  50.764   8.829  1.00  0.00     0.012 C 
ENDBRANCH  20  27
BRANCH  21  30
ATOM     30  O   UNL     1      86.365  51.290   5.082  1.00  0.00    -0.504 OA
ATOM     31  H   UNL     1      86.819  50.433   4.798  1.00  0.00     0.293 HD
ENDBRANCH  21  30
BRANCH  22  32
ATOM     32  O   UNL     1      87.312  50.040   7.454  1.00  0.00    -0.504 OA
ATOM     33  H   UNL     1      86.690  49.424   6.950  1.00  0.00     0.293 HD
ENDBRANCH  22  32
ENDBRANCH  11  12
BRANCH  10  34
ATOM     34  O   UNL     1      84.432  57.312   9.368  1.00  0.00    -0.507 OA
ATOM     35  H   UNL     1      83.585  57.157   8.836  1.00  0.00     0.293 HD
ENDBRANCH  10  34
BRANCH   9  36
ATOM     36  C   UNL     1      86.519  62.964   7.658  1.00  0.00     0.017 C 
ATOM     37  C   UNL     1      87.445  63.790   8.555  1.00  0.00     0.012 C 
ATOM     38  C   UNL     1      85.674  63.868   6.740  1.00  0.00     0.012 C 
ENDBRANCH   9  36
BRANCH   6  39
ATOM     39  C   UNL     1      82.982  59.242  10.459  1.00  0.00     0.264 C 
ATOM     40  O   UNL     1      82.559  59.514  11.615  1.00  0.00    -0.298 OA
ENDBRANCH   6  39
BRANCH   8  41
ATOM     41  O   UNL     1      84.294  63.804   9.284  1.00  0.00    -0.504 OA
ATOM     42  H   UNL     1      84.922  64.509   8.918  1.00  0.00     0.293 HD
ENDBRANCH   8  41
BRANCH   7  43
ATOM     43  O   UNL     1      82.606  62.062  10.549  1.00  0.00    -0.504 OA
ATOM     44  H   UNL     1      81.755  62.398  10.119  1.00  0.00     0.293 HD
ENDBRANCH   7  43
TORSDOF 11
ENDMDL
