MODEL 1
REMARK VINA RESULT:    -4.098      0.000      0.000
REMARK INTER + INTRA:          -6.921
REMARK INTER:                  -6.493
REMARK INTRA:                  -0.428
REMARK UNBOUND:                -0.428
REMARK SMILES CCCCCCCCCCCC(=O)[O-]
REMARK SMILES IDX 7 1 8 2 9 3 10 4 11 5 12 6 13 7 14 8 6 9 5 10 4 11 3 12 2 13
REMARK SMILES IDX 1 14
REMARK H PARENT
REMARK Flexibility Score: inf
ROOT
ATOM      1  C   UNL     1     -30.600 -16.095  12.606  1.00  0.00     0.000 C 
ENDROOT
BRANCH   1   2
ATOM      2  C   UNL     1     -30.215 -15.331  13.886  1.00  0.00     0.000 C 
BRANCH   2   3
ATOM      3  C   UNL     1     -31.122 -14.132  14.231  1.00  0.00     0.000 C 
BRANCH   3   4
ATOM      4  C   UNL     1     -30.517 -12.749  13.933  1.00  0.00     0.006 C 
BRANCH   4   5
ATOM      5  C   UNL     1     -30.970 -12.181  12.582  1.00  0.00     0.053 C 
BRANCH   5   6
ATOM      6  C   UNL     1     -30.300 -10.870  12.317  1.00  0.00     0.041 C 
ATOM      7  O   UNL     1     -30.782  -9.805  12.786  1.00  0.00    -0.550 OA
ATOM      8  O   UNL     1     -29.115 -10.828  11.593  1.00  0.00    -0.550 OA
ENDBRANCH   5   6
ENDBRANCH   4   5
ENDBRANCH   3   4
ENDBRANCH   2   3
ENDBRANCH   1   2
BRANCH   1   9
ATOM      9  C   UNL     1     -31.125 -17.510  12.890  1.00  0.00     0.000 C 
BRANCH   9  10
ATOM     10  C   UNL     1     -30.372 -18.149  14.066  1.00  0.00    -0.000 C 
BRANCH  10  11
ATOM     11  C   UNL     1     -29.947 -19.598  13.780  1.00  0.00    -0.000 C 
BRANCH  11  12
ATOM     12  C   UNL     1     -31.122 -20.480  13.324  1.00  0.00    -0.000 C 
BRANCH  12  13
ATOM     13  C   UNL     1     -30.656 -21.823  12.739  1.00  0.00    -0.003 C 
ATOM     14  C   UNL     1     -31.076 -22.008  11.282  1.00  0.00     0.004 C 
ENDBRANCH  12  13
ENDBRANCH  11  12
ENDBRANCH  10  11
ENDBRANCH   9  10
ENDBRANCH   1   9
TORSDOF 10
ENDMDL
MODEL 2
REMARK VINA RESULT:    -3.715      2.574      3.783
REMARK INTER + INTRA:          -6.315
REMARK INTER:                  -6.118
REMARK INTRA:                  -0.196
REMARK UNBOUND:                -0.428
REMARK SMILES CCCCCCCCCCCC(=O)[O-]
REMARK SMILES IDX 7 1 8 2 9 3 10 4 11 5 12 6 13 7 14 8 6 9 5 10 4 11 3 12 2 13
REMARK SMILES IDX 1 14
REMARK H PARENT
REMARK Flexibility Score: inf
ROOT
ATOM      1  C   UNL     1     -30.073 -19.391  13.602  1.00  0.00     0.000 C 
ENDROOT
BRANCH   1   2
ATOM      2  C   UNL     1     -30.838 -18.140  13.135  1.00  0.00     0.000 C 
BRANCH   2   3
ATOM      3  C   UNL     1     -30.000 -16.847  13.071  1.00  0.00     0.000 C 
BRANCH   3   4
ATOM      4  C   UNL     1     -30.811 -15.551  12.894  1.00  0.00     0.006 C 
BRANCH   4   5
ATOM      5  C   UNL     1     -31.054 -14.816  14.218  1.00  0.00     0.053 C 
BRANCH   5   6
ATOM      6  C   UNL     1     -30.960 -13.336  14.018  1.00  0.00     0.041 C 
ATOM      7  O   UNL     1     -30.775 -12.864  12.866  1.00  0.00    -0.550 OA
ATOM      8  O   UNL     1     -31.125 -12.476  15.096  1.00  0.00    -0.550 OA
ENDBRANCH   5   6
ENDBRANCH   4   5
ENDBRANCH   3   4
ENDBRANCH   2   3
ENDBRANCH   1   2
BRANCH   1   9
ATOM      9  C   UNL     1     -30.785 -20.700  13.229  1.00  0.00     0.000 C 
BRANCH   9  10
ATOM     10  C   UNL     1     -31.119 -21.520  14.484  1.00  0.00    -0.000 C 
BRANCH  10  11
ATOM     11  C   UNL     1     -30.993 -23.034  14.253  1.00  0.00    -0.000 C 
BRANCH  11  12
ATOM     12  C   UNL     1     -30.786 -23.817  15.561  1.00  0.00    -0.000 C 
BRANCH  12  13
ATOM     13  C   UNL     1     -31.035 -25.324  15.389  1.00  0.00    -0.003 C 
ATOM     14  C   UNL     1     -29.976 -26.180  16.082  1.00  0.00     0.004 C 
ENDBRANCH  12  13
ENDBRANCH  11  12
ENDBRANCH  10  11
ENDBRANCH   9  10
ENDBRANCH   1   9
TORSDOF 10
ENDMDL
MODEL 3
REMARK VINA RESULT:    -3.703     15.948     18.556
REMARK INTER + INTRA:          -6.296
REMARK INTER:                  -6.039
REMARK INTRA:                  -0.257
REMARK UNBOUND:                -0.428
REMARK SMILES CCCCCCCCCCCC(=O)[O-]
REMARK SMILES IDX 7 1 8 2 9 3 10 4 11 5 12 6 13 7 14 8 6 9 5 10 4 11 3 12 2 13
REMARK SMILES IDX 1 14
REMARK H PARENT
REMARK Flexibility Score: inf
ROOT
ATOM      1  C   UNL     1     -18.356 -26.971  11.635  1.00  0.00     0.000 C 
ENDROOT
BRANCH   1   2
ATOM      2  C   UNL     1     -17.020 -27.734  11.656  1.00  0.00     0.000 C 
BRANCH   2   3
ATOM      3  C   UNL     1     -15.763 -26.858  11.475  1.00  0.00     0.000 C 
BRANCH   3   4
ATOM      4  C   UNL     1     -14.806 -26.833  12.678  1.00  0.00     0.006 C 
BRANCH   4   5
ATOM      5  C   UNL     1     -13.708 -27.901  12.588  1.00  0.00     0.053 C 
BRANCH   5   6
ATOM      6  C   UNL     1     -12.712 -27.719  13.688  1.00  0.00     0.041 C 
ATOM      7  O   UNL     1     -11.495 -27.536  13.418  1.00  0.00    -0.550 OA
ATOM      8  O   UNL     1     -13.132 -27.703  15.013  1.00  0.00    -0.550 OA
ENDBRANCH   5   6
ENDBRANCH   4   5
ENDBRANCH   3   4
ENDBRANCH   2   3
ENDBRANCH   1   2
BRANCH   1   9
ATOM      9  C   UNL     1     -19.547 -27.841  12.064  1.00  0.00     0.000 C 
BRANCH   9  10
ATOM     10  C   UNL     1     -19.591 -27.997  13.591  1.00  0.00    -0.000 C 
BRANCH  10  11
ATOM     11  C   UNL     1     -20.742 -27.208  14.234  1.00  0.00    -0.000 C 
BRANCH  11  12
ATOM     12  C   UNL     1     -21.388 -27.956  15.413  1.00  0.00    -0.000 C 
BRANCH  12  13
ATOM     13  C   UNL     1     -22.495 -27.136  16.094  1.00  0.00    -0.003 C 
ATOM     14  C   UNL     1     -23.354 -27.976  17.038  1.00  0.00     0.004 C 
ENDBRANCH  12  13
ENDBRANCH  11  12
ENDBRANCH  10  11
ENDBRANCH   9  10
ENDBRANCH   1   9
TORSDOF 10
ENDMDL
MODEL 4
REMARK VINA RESULT:    -3.560      4.399      8.378
REMARK INTER + INTRA:          -6.070
REMARK INTER:                  -5.743
REMARK INTRA:                  -0.327
REMARK UNBOUND:                -0.428
REMARK SMILES CCCCCCCCCCCC(=O)[O-]
REMARK SMILES IDX 7 1 8 2 9 3 10 4 11 5 12 6 13 7 14 8 6 9 5 10 4 11 3 12 2 13
REMARK SMILES IDX 1 14
REMARK H PARENT
REMARK Flexibility Score: inf
ROOT
ATOM      1  C   UNL     1     -29.791 -15.667  14.095  1.00  0.00     0.000 C 
ENDROOT
BRANCH   1   2
ATOM      2  C   UNL     1     -30.252 -16.631  12.986  1.00  0.00     0.000 C 
BRANCH   2   3
ATOM      3  C   UNL     1     -31.072 -17.843  13.472  1.00  0.00     0.000 C 
BRANCH   3   4
ATOM      4  C   UNL     1     -30.242 -19.081  13.854  1.00  0.00     0.006 C 
BRANCH   4   5
ATOM      5  C   UNL     1     -31.112 -20.276  14.268  1.00  0.00     0.053 C 
BRANCH   5   6
ATOM      6  C   UNL     1     -30.902 -21.423  13.332  1.00  0.00     0.041 C 
ATOM      7  O   UNL     1     -30.937 -21.239  12.087  1.00  0.00    -0.550 OA
ATOM      8  O   UNL     1     -30.619 -22.687  13.833  1.00  0.00    -0.550 OA
ENDBRANCH   5   6
ENDBRANCH   4   5
ENDBRANCH   3   4
ENDBRANCH   2   3
ENDBRANCH   1   2
BRANCH   1   9
ATOM      9  C   UNL     1     -30.799 -14.539  14.362  1.00  0.00     0.000 C 
BRANCH   9  10
ATOM     10  C   UNL     1     -30.941 -13.627  13.135  1.00  0.00    -0.000 C 
BRANCH  10  11
ATOM     11  C   UNL     1     -31.116 -12.148  13.514  1.00  0.00    -0.000 C 
BRANCH  11  12
ATOM     12  C   UNL     1     -31.005 -11.209  12.300  1.00  0.00    -0.000 C 
BRANCH  12  13
ATOM     13  C   UNL     1     -29.632 -10.525  12.211  1.00  0.00    -0.003 C 
ATOM     14  C   UNL     1     -29.512  -9.598  11.002  1.00  0.00     0.004 C 
ENDBRANCH  12  13
ENDBRANCH  11  12
ENDBRANCH  10  11
ENDBRANCH   9  10
ENDBRANCH   1   9
TORSDOF 10
ENDMDL
MODEL 5
REMARK VINA RESULT:    -3.467      5.718      8.344
REMARK INTER + INTRA:          -5.921
REMARK INTER:                  -5.549
REMARK INTRA:                  -0.372
REMARK UNBOUND:                -0.428
REMARK SMILES CCCCCCCCCCCC(=O)[O-]
REMARK SMILES IDX 7 1 8 2 9 3 10 4 11 5 12 6 13 7 14 8 6 9 5 10 4 11 3 12 2 13
REMARK SMILES IDX 1 14
REMARK H PARENT
REMARK Flexibility Score: inf
ROOT
ATOM      1  C   UNL     1     -30.088 -24.245  15.407  1.00  0.00     0.000 C 
ENDROOT
BRANCH   1   2
ATOM      2  C   UNL     1     -31.123 -23.176  15.013  1.00  0.00     0.000 C 
BRANCH   2   3
ATOM      3  C   UNL     1     -30.630 -22.137  13.985  1.00  0.00     0.000 C 
BRANCH   3   4
ATOM      4  C   UNL     1     -31.122 -20.698  14.223  1.00  0.00     0.006 C 
BRANCH   4   5
ATOM      5  C   UNL     1     -30.385 -19.667  13.359  1.00  0.00     0.053 C 
BRANCH   5   6
ATOM      6  C   UNL     1     -30.380 -18.331  14.031  1.00  0.00     0.041 C 
ATOM      7  O   UNL     1     -29.800 -17.352  13.492  1.00  0.00    -0.550 OA
ATOM      8  O   UNL     1     -31.058 -18.153  15.231  1.00  0.00    -0.550 OA
ENDBRANCH   5   6
ENDBRANCH   4   5
ENDBRANCH   3   4
ENDBRANCH   2   3
ENDBRANCH   1   2
BRANCH   1   9
ATOM      9  C   UNL     1     -30.712 -25.635  15.604  1.00  0.00     0.000 C 
BRANCH   9  10
ATOM     10  C   UNL     1     -29.673 -26.632  16.139  1.00  0.00    -0.000 C 
BRANCH  10  11
ATOM     11  C   UNL     1     -30.219 -27.499  17.284  1.00  0.00    -0.000 C 
BRANCH  11  12
ATOM     12  C   UNL     1     -30.830 -26.660  18.421  1.00  0.00    -0.000 C 
BRANCH  12  13
ATOM     13  C   UNL     1     -29.763 -26.080  19.362  1.00  0.00    -0.003 C 
ATOM     14  C   UNL     1     -30.022 -26.422  20.829  1.00  0.00     0.004 C 
ENDBRANCH  12  13
ENDBRANCH  11  12
ENDBRANCH  10  11
ENDBRANCH   9  10
ENDBRANCH   1   9
TORSDOF 10
ENDMDL
MODEL 6
REMARK VINA RESULT:    -3.441      3.497      5.208
REMARK INTER + INTRA:          -5.881
REMARK INTER:                  -5.534
REMARK INTRA:                  -0.347
REMARK UNBOUND:                -0.428
REMARK SMILES CCCCCCCCCCCC(=O)[O-]
REMARK SMILES IDX 7 1 8 2 9 3 10 4 11 5 12 6 13 7 14 8 6 9 5 10 4 11 3 12 2 13
REMARK SMILES IDX 1 14
REMARK H PARENT
REMARK Flexibility Score: inf
ROOT
ATOM      1  C   UNL     1     -30.361 -21.054  13.372  1.00  0.00     0.000 C 
ENDROOT
BRANCH   1   2
ATOM      2  C   UNL     1     -31.121 -20.083  14.292  1.00  0.00     0.000 C 
BRANCH   2   3
ATOM      3  C   UNL     1     -30.359 -18.792  14.653  1.00  0.00     0.000 C 
BRANCH   3   4
ATOM      4  C   UNL     1     -30.044 -17.865  13.467  1.00  0.00     0.006 C 
BRANCH   4   5
ATOM      5  C   UNL     1     -29.916 -16.392  13.879  1.00  0.00     0.053 C 
BRANCH   5   6
ATOM      6  C   UNL     1     -30.620 -15.512  12.896  1.00  0.00     0.041 C 
ATOM      7  O   UNL     1     -30.718 -14.276  13.109  1.00  0.00    -0.550 OA
ATOM      8  O   UNL     1     -31.125 -16.050  11.718  1.00  0.00    -0.550 OA
ENDBRANCH   5   6
ENDBRANCH   4   5
ENDBRANCH   3   4
ENDBRANCH   2   3
ENDBRANCH   1   2
BRANCH   1   9
ATOM      9  C   UNL     1     -30.782 -22.518  13.569  1.00  0.00     0.000 C 
BRANCH   9  10
ATOM     10  C   UNL     1     -30.895 -22.860  15.063  1.00  0.00    -0.000 C 
BRANCH  10  11
ATOM     11  C   UNL     1     -30.778 -24.368  15.335  1.00  0.00    -0.000 C 
BRANCH  11  12
ATOM     12  C   UNL     1     -30.002 -24.678  16.626  1.00  0.00    -0.000 C 
BRANCH  12  13
ATOM     13  C   UNL     1     -29.957 -26.182  16.938  1.00  0.00    -0.003 C 
ATOM     14  C   UNL     1     -29.927 -27.045  15.677  1.00  0.00     0.004 C 
ENDBRANCH  12  13
ENDBRANCH  11  12
ENDBRANCH  10  11
ENDBRANCH   9  10
ENDBRANCH   1   9
TORSDOF 10
ENDMDL
MODEL 7
REMARK VINA RESULT:    -3.437     19.159     20.359
REMARK INTER + INTRA:          -5.874
REMARK INTER:                  -5.086
REMARK INTRA:                  -0.788
REMARK UNBOUND:                -0.428
REMARK SMILES CCCCCCCCCCCC(=O)[O-]
REMARK SMILES IDX 7 1 8 2 9 3 10 4 11 5 12 6 13 7 14 8 6 9 5 10 4 11 3 12 2 13
REMARK SMILES IDX 1 14
REMARK H PARENT
REMARK Flexibility Score: inf
ROOT
ATOM      1  C   UNL     1     -11.740 -21.038  17.896  1.00  0.00     0.000 C 
ENDROOT
BRANCH   1   2
ATOM      2  C   UNL     1     -13.046 -20.970  18.709  1.00  0.00     0.000 C 
BRANCH   2   3
ATOM      3  C   UNL     1     -13.135 -21.959  19.889  1.00  0.00     0.000 C 
BRANCH   3   4
ATOM      4  C   UNL     1     -13.332 -21.312  21.270  1.00  0.00     0.006 C 
BRANCH   4   5
ATOM      5  C   UNL     1     -13.759 -19.841  21.182  1.00  0.00     0.053 C 
BRANCH   5   6
ATOM      6  C   UNL     1     -12.791 -18.972  21.919  1.00  0.00     0.041 C 
ATOM      7  O   UNL     1     -11.932 -19.486  22.683  1.00  0.00    -0.550 OA
ATOM      8  O   UNL     1     -12.803 -17.596  21.725  1.00  0.00    -0.550 OA
ENDBRANCH   5   6
ENDBRANCH   4   5
ENDBRANCH   3   4
ENDBRANCH   2   3
ENDBRANCH   1   2
BRANCH   1   9
ATOM      9  C   UNL     1     -11.069 -19.667  17.728  1.00  0.00     0.000 C 
BRANCH   9  10
ATOM     10  C   UNL     1     -11.997 -18.540  18.204  1.00  0.00    -0.000 C 
BRANCH  10  11
ATOM     11  C   UNL     1     -11.662 -17.186  17.558  1.00  0.00    -0.000 C 
BRANCH  11  12
ATOM     12  C   UNL     1     -11.197 -17.325  16.098  1.00  0.00    -0.000 C 
BRANCH  12  13
ATOM     13  C   UNL     1     -12.051 -16.492  15.128  1.00  0.00    -0.003 C 
ATOM     14  C   UNL     1     -11.559 -16.583  13.684  1.00  0.00     0.004 C 
ENDBRANCH  12  13
ENDBRANCH  11  12
ENDBRANCH  10  11
ENDBRANCH   9  10
ENDBRANCH   1   9
TORSDOF 10
ENDMDL
MODEL 8
REMARK VINA RESULT:    -3.423     18.260     19.066
REMARK INTER + INTRA:          -5.853
REMARK INTER:                  -5.235
REMARK INTRA:                  -0.617
REMARK UNBOUND:                -0.428
REMARK SMILES CCCCCCCCCCCC(=O)[O-]
REMARK SMILES IDX 7 1 8 2 9 3 10 4 11 5 12 6 13 7 14 8 6 9 5 10 4 11 3 12 2 13
REMARK SMILES IDX 1 14
REMARK H PARENT
REMARK Flexibility Score: inf
ROOT
ATOM      1  C   UNL     1     -11.434 -19.029  17.947  1.00  0.00     0.000 C 
ENDROOT
BRANCH   1   2
ATOM      2  C   UNL     1     -10.905 -18.232  16.742  1.00  0.00     0.000 C 
BRANCH   2   3
ATOM      3  C   UNL     1     -11.578 -16.863  16.516  1.00  0.00     0.000 C 
BRANCH   3   4
ATOM      4  C   UNL     1     -11.912 -16.532  15.051  1.00  0.00     0.006 C 
BRANCH   4   5
ATOM      5  C   UNL     1     -11.272 -15.221  14.576  1.00  0.00     0.053 C 
BRANCH   5   6
ATOM      6  C   UNL     1     -12.308 -14.322  13.979  1.00  0.00     0.041 C 
ATOM      7  O   UNL     1     -12.744 -14.541  12.819  1.00  0.00    -0.550 OA
ATOM      8  O   UNL     1     -12.829 -13.270  14.723  1.00  0.00    -0.550 OA
ENDBRANCH   5   6
ENDBRANCH   4   5
ENDBRANCH   3   4
ENDBRANCH   2   3
ENDBRANCH   1   2
BRANCH   1   9
ATOM      9  C   UNL     1     -12.352 -18.199  18.856  1.00  0.00     0.000 C 
BRANCH   9  10
ATOM     10  C   UNL     1     -12.396 -18.784  20.275  1.00  0.00    -0.000 C 
BRANCH  10  11
ATOM     11  C   UNL     1     -13.668 -19.605  20.538  1.00  0.00    -0.000 C 
BRANCH  11  12
ATOM     12  C   UNL     1     -13.363 -21.018  21.064  1.00  0.00    -0.000 C 
BRANCH  12  13
ATOM     13  C   UNL     1     -12.776 -21.935  19.978  1.00  0.00    -0.003 C 
ATOM     14  C   UNL     1     -13.542 -21.851  18.659  1.00  0.00     0.004 C 
ENDBRANCH  12  13
ENDBRANCH  11  12
ENDBRANCH  10  11
ENDBRANCH   9  10
ENDBRANCH   1   9
TORSDOF 10
ENDMDL
MODEL 9
REMARK VINA RESULT:    -3.404     18.926     20.154
REMARK INTER + INTRA:          -5.822
REMARK INTER:                  -5.301
REMARK INTRA:                  -0.521
REMARK UNBOUND:                -0.428
REMARK SMILES CCCCCCCCCCCC(=O)[O-]
REMARK SMILES IDX 7 1 8 2 9 3 10 4 11 5 12 6 13 7 14 8 6 9 5 10 4 11 3 12 2 13
REMARK SMILES IDX 1 14
REMARK H PARENT
REMARK Flexibility Score: inf
ROOT
ATOM      1  C   UNL     1     -12.036 -16.296  15.102  1.00  0.00     0.000 C 
ENDROOT
BRANCH   1   2
ATOM      2  C   UNL     1     -11.492 -17.306  16.129  1.00  0.00     0.000 C 
BRANCH   2   3
ATOM      3  C   UNL     1     -10.893 -16.682  17.406  1.00  0.00     0.000 C 
BRANCH   3   4
ATOM      4  C   UNL     1     -11.233 -17.418  18.713  1.00  0.00     0.006 C 
BRANCH   4   5
ATOM      5  C   UNL     1     -12.489 -18.292  18.594  1.00  0.00     0.053 C 
BRANCH   5   6
ATOM      6  C   UNL     1     -12.975 -18.694  19.951  1.00  0.00     0.041 C 
ATOM      7  O   UNL     1     -13.581 -19.786  20.109  1.00  0.00    -0.550 OA
ATOM      8  O   UNL     1     -12.716 -17.885  21.050  1.00  0.00    -0.550 OA
ENDBRANCH   5   6
ENDBRANCH   4   5
ENDBRANCH   3   4
ENDBRANCH   2   3
ENDBRANCH   1   2
BRANCH   1   9
ATOM      9  C   UNL     1     -11.664 -14.844  15.438  1.00  0.00     0.000 C 
BRANCH   9  10
ATOM     10  C   UNL     1     -12.587 -13.858  14.706  1.00  0.00    -0.000 C 
BRANCH  10  11
ATOM     11  C   UNL     1     -12.052 -12.417  14.731  1.00  0.00    -0.000 C 
BRANCH  11  12
ATOM     12  C   UNL     1     -11.586 -11.935  13.347  1.00  0.00    -0.000 C 
BRANCH  12  13
ATOM     13  C   UNL     1     -11.699 -13.029  12.274  1.00  0.00    -0.003 C 
ATOM     14  C   UNL     1     -12.117 -12.478  10.912  1.00  0.00     0.004 C 
ENDBRANCH  12  13
ENDBRANCH  11  12
ENDBRANCH  10  11
ENDBRANCH   9  10
ENDBRANCH   1   9
TORSDOF 10
ENDMDL
