MODEL 1
REMARK VINA RESULT:    -3.473      0.000      0.000
REMARK INTER + INTRA:          -5.725
REMARK INTER:                  -4.996
REMARK INTRA:                  -0.729
REMARK UNBOUND:                -0.729
REMARK SMILES O=C(CO)[C@@H](O)[C@@H](O)[C@H](O)CO
REMARK SMILES IDX 7 1 9 2 11 3 12 4 10 6 5 8 2 9 1 10 3 11 4 12 6 14 8 16
REMARK H PARENT 12 5 10 7 4 13 6 15 8 17
REMARK Flexibility Score: inf
ROOT
ATOM      1  C   UNL     1     120.815  71.944   3.805  1.00  0.00     0.181 C 
ENDROOT
BRANCH   1   2
ATOM      2  C   UNL     1     120.130  71.309   2.564  1.00  0.00     0.171 C 
BRANCH   2   3
ATOM      3  C   UNL     1     120.881  71.599   1.248  1.00  0.00     0.190 C 
BRANCH   3   4
ATOM      4  O   UNL     1     121.204  70.401   0.595  1.00  0.00    -0.394 OA
ATOM      5  H   UNL     1     121.112  69.677   1.267  1.00  0.00     0.210 HD
ENDBRANCH   3   4
ENDBRANCH   2   3
BRANCH   2   6
ATOM      6  O   UNL     1     120.000  69.920   2.744  1.00  0.00    -0.388 OA
ATOM      7  H   UNL     1     120.789  69.610   3.262  1.00  0.00     0.211 HD
ENDBRANCH   2   6
ENDBRANCH   1   2
BRANCH   1   8
ATOM      8  C   UNL     1     119.884  72.061   5.039  1.00  0.00     0.214 C 
BRANCH   8   9
ATOM      9  C   UNL     1     120.089  70.921   6.017  1.00  0.00     0.189 C 
ATOM     10  O   UNL     1     120.020  69.766   5.621  1.00  0.00    -0.294 OA
BRANCH   9  11
ATOM     11  C   UNL     1     120.381  71.180   7.469  1.00  0.00     0.234 C 
BRANCH  11  12
ATOM     12  O   UNL     1     121.766  71.235   7.680  1.00  0.00    -0.388 OA
ATOM     13  H   UNL     1     121.939  70.800   8.555  1.00  0.00     0.211 HD
ENDBRANCH  11  12
ENDBRANCH   9  11
ENDBRANCH   8   9
BRANCH   8  14
ATOM     14  O   UNL     1     120.131  73.281   5.688  1.00  0.00    -0.382 OA
ATOM     15  H   UNL     1     119.664  73.986   5.166  1.00  0.00     0.211 HD
ENDBRANCH   8  14
ENDBRANCH   1   8
BRANCH   1  16
ATOM     16  O   UNL     1     121.952  71.183   4.132  1.00  0.00    -0.387 OA
ATOM     17  H   UNL     1     122.071  70.511   3.410  1.00  0.00     0.211 HD
ENDBRANCH   1  16
TORSDOF 10
ENDMDL
MODEL 2
REMARK VINA RESULT:    -3.217      1.615      5.284
REMARK INTER + INTRA:          -5.357
REMARK INTER:                  -4.737
REMARK INTRA:                  -0.621
REMARK UNBOUND:                -0.729
REMARK SMILES O=C(CO)[C@@H](O)[C@@H](O)[C@H](O)CO
REMARK SMILES IDX 7 1 9 2 11 3 12 4 10 6 5 8 2 9 1 10 3 11 4 12 6 14 8 16
REMARK H PARENT 12 5 10 7 4 13 6 15 8 17
REMARK Flexibility Score: inf
ROOT
ATOM      1  C   UNL     1     120.559  71.022   7.662  1.00  0.00     0.181 C 
ENDROOT
BRANCH   1   2
ATOM      2  C   UNL     1     119.879  72.107   8.543  1.00  0.00     0.171 C 
BRANCH   2   3
ATOM      3  C   UNL     1     119.886  71.753  10.044  1.00  0.00     0.190 C 
BRANCH   3   4
ATOM      4  O   UNL     1     120.254  70.413  10.230  1.00  0.00    -0.394 OA
ATOM      5  H   UNL     1     121.168  70.421  10.619  1.00  0.00     0.210 HD
ENDBRANCH   3   4
ENDBRANCH   2   3
BRANCH   2   6
ATOM      6  O   UNL     1     120.505  73.350   8.341  1.00  0.00    -0.388 OA
ATOM      7  H   UNL     1     120.346  73.616   7.397  1.00  0.00     0.211 HD
ENDBRANCH   2   6
ENDBRANCH   1   2
BRANCH   1   8
ATOM      8  C   UNL     1     119.875  70.818   6.286  1.00  0.00     0.214 C 
BRANCH   8   9
ATOM      9  C   UNL     1     120.242  71.911   5.301  1.00  0.00     0.189 C 
ATOM     10  O   UNL     1     120.124  73.083   5.627  1.00  0.00    -0.294 OA
BRANCH   9  11
ATOM     11  C   UNL     1     120.755  71.583   3.926  1.00  0.00     0.234 C 
BRANCH  11  12
ATOM     12  O   UNL     1     122.119  71.266   3.983  1.00  0.00    -0.388 OA
ATOM     13  H   UNL     1     122.246  70.690   4.781  1.00  0.00     0.211 HD
ENDBRANCH  11  12
ENDBRANCH   9  11
ENDBRANCH   8   9
BRANCH   8  14
ATOM     14  O   UNL     1     120.256  69.572   5.762  1.00  0.00    -0.382 OA
ATOM     15  H   UNL     1     121.130  69.704   5.310  1.00  0.00     0.211 HD
ENDBRANCH   8  14
ENDBRANCH   1   8
BRANCH   1  16
ATOM     16  O   UNL     1     121.910  71.369   7.481  1.00  0.00    -0.387 OA
ATOM     17  H   UNL     1     121.975  71.846   6.612  1.00  0.00     0.211 HD
ENDBRANCH   1  16
TORSDOF 10
ENDMDL
MODEL 3
REMARK VINA RESULT:    -3.117      1.332      4.558
REMARK INTER + INTRA:          -5.214
REMARK INTER:                  -4.963
REMARK INTRA:                  -0.250
REMARK UNBOUND:                -0.729
REMARK SMILES O=C(CO)[C@@H](O)[C@@H](O)[C@H](O)CO
REMARK SMILES IDX 7 1 9 2 11 3 12 4 10 6 5 8 2 9 1 10 3 11 4 12 6 14 8 16
REMARK H PARENT 12 5 10 7 4 13 6 15 8 17
REMARK Flexibility Score: inf
ROOT
ATOM      1  C   UNL     1     120.516  71.254   5.151  1.00  0.00     0.181 C 
ENDROOT
BRANCH   1   2
ATOM      2  C   UNL     1     120.136  72.055   6.426  1.00  0.00     0.171 C 
BRANCH   2   3
ATOM      3  C   UNL     1     120.848  71.542   7.694  1.00  0.00     0.190 C 
BRANCH   3   4
ATOM      4  O   UNL     1     120.581  70.179   7.888  1.00  0.00    -0.394 OA
ATOM      5  H   UNL     1     120.762  69.728   7.022  1.00  0.00     0.210 HD
ENDBRANCH   3   4
ENDBRANCH   2   3
BRANCH   2   6
ATOM      6  O   UNL     1     120.419  73.420   6.238  1.00  0.00    -0.388 OA
ATOM      7  H   UNL     1     121.096  73.489   5.513  1.00  0.00     0.211 HD
ENDBRANCH   2   6
ENDBRANCH   1   2
BRANCH   1   8
ATOM      8  C   UNL     1     120.728  72.140   3.897  1.00  0.00     0.214 C 
BRANCH   8   9
ATOM      9  C   UNL     1     120.427  71.393   2.613  1.00  0.00     0.189 C 
ATOM     10  O   UNL     1     120.060  70.228   2.664  1.00  0.00    -0.294 OA
BRANCH   9  11
ATOM     11  C   UNL     1     120.565  72.058   1.271  1.00  0.00     0.234 C 
BRANCH  11  12
ATOM     12  O   UNL     1     120.947  73.397   1.433  1.00  0.00    -0.388 OA
ATOM     13  H   UNL     1     121.479  73.641   0.632  1.00  0.00     0.211 HD
ENDBRANCH  11  12
ENDBRANCH   9  11
ENDBRANCH   8   9
BRANCH   8  14
ATOM     14  O   UNL     1     119.897  73.269   3.985  1.00  0.00    -0.382 OA
ATOM     15  H   UNL     1     120.493  74.064   4.026  1.00  0.00     0.211 HD
ENDBRANCH   8  14
ENDBRANCH   1   8
BRANCH   1  16
ATOM     16  O   UNL     1     121.681  70.511   5.416  1.00  0.00    -0.387 OA
ATOM     17  H   UNL     1     121.594  70.150   6.337  1.00  0.00     0.211 HD
ENDBRANCH   1  16
TORSDOF 10
ENDMDL
MODEL 4
REMARK VINA RESULT:    -2.626      9.961     11.956
REMARK INTER + INTRA:          -4.507
REMARK INTER:                  -3.513
REMARK INTRA:                  -0.993
REMARK UNBOUND:                -0.729
REMARK SMILES O=C(CO)[C@@H](O)[C@@H](O)[C@H](O)CO
REMARK SMILES IDX 7 1 9 2 11 3 12 4 10 6 5 8 2 9 1 10 3 11 4 12 6 14 8 16
REMARK H PARENT 12 5 10 7 4 13 6 15 8 17
REMARK Flexibility Score: inf
ROOT
ATOM      1  C   UNL     1     120.905  66.293  -7.039  1.00  0.00     0.181 C 
ENDROOT
BRANCH   1   2
ATOM      2  C   UNL     1     120.264  64.879  -7.083  1.00  0.00     0.171 C 
BRANCH   2   3
ATOM      3  C   UNL     1     121.076  63.876  -7.928  1.00  0.00     0.190 C 
BRANCH   3   4
ATOM      4  O   UNL     1     122.434  63.934  -7.585  1.00  0.00    -0.394 OA
ATOM      5  H   UNL     1     122.682  64.895  -7.563  1.00  0.00     0.210 HD
ENDBRANCH   3   4
ENDBRANCH   2   3
BRANCH   2   6
ATOM      6  O   UNL     1     120.104  64.383  -5.776  1.00  0.00    -0.388 OA
ATOM      7  H   UNL     1     119.206  64.664  -5.457  1.00  0.00     0.211 HD
ENDBRANCH   2   6
ENDBRANCH   1   2
BRANCH   1   8
ATOM      8  C   UNL     1     119.885  67.432  -6.783  1.00  0.00     0.214 C 
BRANCH   8   9
ATOM      9  C   UNL     1     119.933  67.930  -5.352  1.00  0.00     0.189 C 
ATOM     10  O   UNL     1     119.902  67.126  -4.432  1.00  0.00    -0.294 OA
BRANCH   9  11
ATOM     11  C   UNL     1     120.025  69.398  -5.039  1.00  0.00     0.234 C 
BRANCH  11  12
ATOM     12  O   UNL     1     121.191  69.939  -5.599  1.00  0.00    -0.388 OA
ATOM     13  H   UNL     1     121.914  69.275  -5.451  1.00  0.00     0.211 HD
ENDBRANCH  11  12
ENDBRANCH   9  11
ENDBRANCH   8   9
BRANCH   8  14
ATOM     14  O   UNL     1     120.156  68.498  -7.657  1.00  0.00    -0.382 OA
ATOM     15  H   UNL     1     120.301  69.303  -7.093  1.00  0.00     0.211 HD
ENDBRANCH   8  14
ENDBRANCH   1   8
BRANCH   1  16
ATOM     16  O   UNL     1     121.899  66.307  -6.043  1.00  0.00    -0.387 OA
ATOM     17  H   UNL     1     121.554  65.776  -5.278  1.00  0.00     0.211 HD
ENDBRANCH   1  16
TORSDOF 10
ENDMDL
MODEL 5
REMARK VINA RESULT:    -2.454      9.393     12.773
REMARK INTER + INTRA:          -4.259
REMARK INTER:                  -3.504
REMARK INTRA:                  -0.755
REMARK UNBOUND:                -0.729
REMARK SMILES O=C(CO)[C@@H](O)[C@@H](O)[C@H](O)CO
REMARK SMILES IDX 7 1 9 2 11 3 12 4 10 6 5 8 2 9 1 10 3 11 4 12 6 14 8 16
REMARK H PARENT 12 5 10 7 4 13 6 15 8 17
REMARK Flexibility Score: inf
ROOT
ATOM      1  C   UNL     1     120.953  66.777  -6.264  1.00  0.00     0.181 C 
ENDROOT
BRANCH   1   2
ATOM      2  C   UNL     1     120.165  68.094  -6.027  1.00  0.00     0.171 C 
BRANCH   2   3
ATOM      3  C   UNL     1     119.914  68.385  -4.532  1.00  0.00     0.190 C 
BRANCH   3   4
ATOM      4  O   UNL     1     120.480  69.615  -4.172  1.00  0.00    -0.394 OA
ATOM      5  H   UNL     1     119.886  70.320  -4.541  1.00  0.00     0.210 HD
ENDBRANCH   3   4
ENDBRANCH   2   3
BRANCH   2   6
ATOM      6  O   UNL     1     120.845  69.174  -6.616  1.00  0.00    -0.388 OA
ATOM      7  H   UNL     1     120.162  69.782  -7.006  1.00  0.00     0.211 HD
ENDBRANCH   2   6
ENDBRANCH   1   2
BRANCH   1   8
ATOM      8  C   UNL     1     120.066  65.594  -6.729  1.00  0.00     0.214 C 
BRANCH   8   9
ATOM      9  C   UNL     1     120.454  65.100  -8.109  1.00  0.00     0.189 C 
ATOM     10  O   UNL     1     120.067  65.705  -9.098  1.00  0.00    -0.294 OA
BRANCH   9  11
ATOM     11  C   UNL     1     121.314  63.879  -8.288  1.00  0.00     0.234 C 
BRANCH  11  12
ATOM     12  O   UNL     1     122.485  63.997  -7.526  1.00  0.00    -0.388 OA
ATOM     13  H   UNL     1     122.611  63.129  -7.061  1.00  0.00     0.211 HD
ENDBRANCH  11  12
ENDBRANCH   9  11
ENDBRANCH   8   9
BRANCH   8  14
ATOM     14  O   UNL     1     120.182  64.541  -5.807  1.00  0.00    -0.382 OA
ATOM     15  H   UNL     1     119.874  64.890  -4.930  1.00  0.00     0.211 HD
ENDBRANCH   8  14
ENDBRANCH   1   8
BRANCH   1  16
ATOM     16  O   UNL     1     121.964  67.021  -7.211  1.00  0.00    -0.387 OA
ATOM     17  H   UNL     1     122.160  66.156  -7.659  1.00  0.00     0.211 HD
ENDBRANCH   1  16
TORSDOF 10
ENDMDL
MODEL 6
REMARK VINA RESULT:    -2.097      1.219      2.143
REMARK INTER + INTRA:          -3.745
REMARK INTER:                  -4.189
REMARK INTRA:                   0.443
REMARK UNBOUND:                -0.729
REMARK SMILES O=C(CO)[C@@H](O)[C@@H](O)[C@H](O)CO
REMARK SMILES IDX 7 1 9 2 11 3 12 4 10 6 5 8 2 9 1 10 3 11 4 12 6 14 8 16
REMARK H PARENT 12 5 10 7 4 13 6 15 8 17
REMARK Flexibility Score: inf
ROOT
ATOM      1  C   UNL     1     120.409  72.679   2.440  1.00  0.00     0.181 C 
ENDROOT
BRANCH   1   2
ATOM      2  C   UNL     1     119.983  71.349   1.759  1.00  0.00     0.171 C 
BRANCH   2   3
ATOM      3  C   UNL     1     120.799  71.036   0.488  1.00  0.00     0.190 C 
BRANCH   3   4
ATOM      4  O   UNL     1     121.129  69.675   0.441  1.00  0.00    -0.394 OA
ATOM      5  H   UNL     1     121.589  69.465   1.296  1.00  0.00     0.210 HD
ENDBRANCH   3   4
ENDBRANCH   2   3
BRANCH   2   6
ATOM      6  O   UNL     1     120.093  70.285   2.672  1.00  0.00    -0.388 OA
ATOM      7  H   UNL     1     120.381  69.482   2.162  1.00  0.00     0.211 HD
ENDBRANCH   2   6
ENDBRANCH   1   2
BRANCH   1   8
ATOM      8  C   UNL     1     121.232  72.478   3.738  1.00  0.00     0.214 C 
BRANCH   8   9
ATOM      9  C   UNL     1     120.347  72.389   4.965  1.00  0.00     0.189 C 
ATOM     10  O   UNL     1     119.879  73.410   5.448  1.00  0.00    -0.294 OA
BRANCH   9  11
ATOM     11  C   UNL     1     120.025  71.065   5.602  1.00  0.00     0.234 C 
BRANCH  11  12
ATOM     12  O   UNL     1     120.994  70.744   6.563  1.00  0.00    -0.388 OA
ATOM     13  H   UNL     1     121.184  71.578   7.067  1.00  0.00     0.211 HD
ENDBRANCH  11  12
ENDBRANCH   9  11
ENDBRANCH   8   9
BRANCH   8  14
ATOM     14  O   UNL     1     121.992  71.303   3.625  1.00  0.00    -0.382 OA
ATOM     15  H   UNL     1     122.643  71.449   2.889  1.00  0.00     0.211 HD
ENDBRANCH   8  14
ENDBRANCH   1   8
BRANCH   1  16
ATOM     16  O   UNL     1     121.147  73.442   1.517  1.00  0.00    -0.387 OA
ATOM     17  H   UNL     1     122.101  73.386   1.787  1.00  0.00     0.211 HD
ENDBRANCH   1  16
TORSDOF 10
ENDMDL
