MODEL 1
REMARK VINA RESULT:    -5.822      0.000      0.000
REMARK INTER + INTRA:          -8.918
REMARK INTER:                  -8.204
REMARK INTRA:                  -0.714
REMARK UNBOUND:                -0.714
REMARK SMILES COc1c(O[C@@H]2O[C@@H](C(=O)[O-])[C@@H](O)[C@H](O)[C@H]2O)cc(O)c2c(=O)cc(-c3ccccc3)oc12
REMARK SMILES IDX 5 1 6 2 8 3 12 4 7 5 14 6 16 7 9 8 10 9 11 10 13 11 15 13
REMARK SMILES IDX 17 15 4 17 3 18 18 19 33 20 19 21 21 22 32 23 22 24 25 25
REMARK SMILES IDX 24 26 23 27 2 28 1 29 20 30 26 32 27 33 31 34 28 35 30 36
REMARK SMILES IDX 29 37
REMARK H PARENT 13 12 15 14 17 16 20 31
REMARK Flexibility Score: inf
ROOT
ATOM      1  O   UNL     1       6.324  20.536  20.232  1.00  0.00    -0.458 OA
ENDROOT
BRANCH   1   2
ATOM      2  C   UNL     1       7.031  21.760  19.996  1.00  0.00     0.339 C 
ATOM      3  C   UNL     1       8.062  21.729  22.106  1.00  0.00     0.199 C 
ATOM      4  C   UNL     1       7.365  23.022  22.589  1.00  0.00     0.180 C 
ATOM      5  O   UNL     1       8.260  21.776  20.703  1.00  0.00    -0.328 OA
ATOM      6  C   UNL     1       6.014  23.216  21.861  1.00  0.00     0.181 C 
ATOM      7  C   UNL     1       6.145  22.985  20.333  1.00  0.00     0.214 C 
BRANCH   3   8
ATOM      8  C   UNL     1       9.397  21.511  22.766  1.00  0.00     0.073 C 
ATOM      9  O   UNL     1       9.954  22.419  23.440  1.00  0.00    -0.547 OA
ATOM     10  O   UNL     1       9.999  20.261  22.685  1.00  0.00    -0.547 OA
ENDBRANCH   3   8
BRANCH   4  11
ATOM     11  O   UNL     1       8.198  24.125  22.332  1.00  0.00    -0.387 OA
ATOM     12  H   UNL     1       9.129  23.827  22.524  1.00  0.00     0.211 HD
ENDBRANCH   4  11
BRANCH   6  13
ATOM     13  O   UNL     1       4.999  22.411  22.415  1.00  0.00    -0.387 OA
ATOM     14  H   UNL     1       4.854  22.701  23.350  1.00  0.00     0.211 HD
ENDBRANCH   6  13
BRANCH   7  15
ATOM     15  O   UNL     1       6.695  24.125  19.727  1.00  0.00    -0.384 OA
ATOM     16  H   UNL     1       6.034  24.431  19.053  1.00  0.00     0.211 HD
ENDBRANCH   7  15
ENDBRANCH   1   2
BRANCH   1  17
ATOM     17  C   UNL     1       6.943  19.279  20.289  1.00  0.00     0.172 A 
ATOM     18  C   UNL     1       6.320  18.247  20.996  1.00  0.00     0.205 A 
ATOM     19  C   UNL     1       8.162  19.050  19.640  1.00  0.00     0.097 A 
ATOM     20  C   UNL     1       6.956  16.991  21.103  1.00  0.00     0.188 A 
ATOM     21  C   UNL     1       8.768  17.793  19.665  1.00  0.00     0.134 A 
ATOM     22  C   UNL     1       8.195  16.751  20.446  1.00  0.00     0.111 A 
ATOM     23  O   UNL     1       6.396  16.039  21.845  1.00  0.00    -0.452 OA
ATOM     24  C   UNL     1       8.810  15.496  20.666  1.00  0.00     0.197 A 
ATOM     25  C   UNL     1       6.929  14.837  22.028  1.00  0.00     0.138 A 
ATOM     26  C   UNL     1       8.164  14.533  21.441  1.00  0.00     0.100 A 
ATOM     27  O   UNL     1       9.952  15.222  20.209  1.00  0.00    -0.289 OA
BRANCH  18  28
ATOM     28  O   UNL     1       5.068  18.511  21.571  1.00  0.00    -0.490 OA
ATOM     29  C   UNL     1       4.881  19.042  22.881  1.00  0.00     0.278 C 
ENDBRANCH  18  28
BRANCH  21  30
ATOM     30  O   UNL     1       9.916  17.633  18.883  1.00  0.00    -0.507 OA
ATOM     31  H   UNL     1      10.822  17.382  19.254  1.00  0.00     0.293 HD
ENDBRANCH  21  30
BRANCH  25  32
ATOM     32  C   UNL     1       6.209  13.858  22.880  1.00  0.00     0.017 A 
ATOM     33  C   UNL     1       6.166  12.505  22.496  1.00  0.00     0.012 A 
ATOM     34  C   UNL     1       5.592  14.244  24.089  1.00  0.00     0.012 A 
ATOM     35  C   UNL     1       5.508  11.561  23.293  1.00  0.00     0.001 A 
ATOM     36  C   UNL     1       4.935  13.296  24.881  1.00  0.00     0.001 A 
ATOM     37  C   UNL     1       4.893  11.957  24.484  1.00  0.00     0.000 A 
ENDBRANCH  25  32
ENDBRANCH   1  17
TORSDOF 9
ENDMDL
MODEL 2
REMARK VINA RESULT:    -5.620      2.494      8.662
REMARK INTER + INTRA:          -8.633
REMARK INTER:                  -7.552
REMARK INTRA:                  -1.081
REMARK UNBOUND:                -0.714
REMARK SMILES COc1c(O[C@@H]2O[C@@H](C(=O)[O-])[C@@H](O)[C@H](O)[C@H]2O)cc(O)c2c(=O)cc(-c3ccccc3)oc12
REMARK SMILES IDX 5 1 6 2 8 3 12 4 7 5 14 6 16 7 9 8 10 9 11 10 13 11 15 13
REMARK SMILES IDX 17 15 4 17 3 18 18 19 33 20 19 21 21 22 32 23 22 24 25 25
REMARK SMILES IDX 24 26 23 27 2 28 1 29 20 30 26 32 27 33 31 34 28 35 30 36
REMARK SMILES IDX 29 37
REMARK H PARENT 13 12 15 14 17 16 20 31
REMARK Flexibility Score: inf
ROOT
ATOM      1  O   UNL     1       7.201  16.568  21.470  1.00  0.00    -0.458 OA
ENDROOT
BRANCH   1   2
ATOM      2  C   UNL     1       6.029  15.791  21.192  1.00  0.00     0.339 C 
ATOM      3  C   UNL     1       6.343  14.401  23.059  1.00  0.00     0.199 C 
ATOM      4  C   UNL     1       6.557  13.125  22.214  1.00  0.00     0.180 C 
ATOM      5  O   UNL     1       5.462  15.289  22.391  1.00  0.00    -0.328 OA
ATOM      6  C   UNL     1       7.114  13.486  20.816  1.00  0.00     0.181 C 
ATOM      7  C   UNL     1       6.340  14.665  20.175  1.00  0.00     0.214 C 
BRANCH   3   8
ATOM      8  C   UNL     1       5.771  14.104  24.421  1.00  0.00     0.073 C 
ATOM      9  O   UNL     1       5.975  13.000  24.993  1.00  0.00    -0.547 OA
ATOM     10  O   UNL     1       5.060  15.093  25.089  1.00  0.00    -0.547 OA
ENDBRANCH   3   8
BRANCH   4  11
ATOM     11  O   UNL     1       5.331  12.451  22.069  1.00  0.00    -0.387 OA
ATOM     12  H   UNL     1       4.935  12.384  22.980  1.00  0.00     0.211 HD
ENDBRANCH   4  11
BRANCH   6  13
ATOM     13  O   UNL     1       8.499  13.744  20.856  1.00  0.00    -0.387 OA
ATOM     14  H   UNL     1       8.854  13.657  19.936  1.00  0.00     0.211 HD
ENDBRANCH   6  13
BRANCH   7  15
ATOM     15  O   UNL     1       5.133  14.199  19.630  1.00  0.00    -0.384 OA
ATOM     16  H   UNL     1       4.419  14.455  20.270  1.00  0.00     0.211 HD
ENDBRANCH   7  15
ENDBRANCH   1   2
BRANCH   1  17
ATOM     17  C   UNL     1       7.179  17.950  21.707  1.00  0.00     0.172 A 
ATOM     18  C   UNL     1       8.250  18.732  21.265  1.00  0.00     0.205 A 
ATOM     19  C   UNL     1       6.097  18.548  22.364  1.00  0.00     0.097 A 
ATOM     20  C   UNL     1       8.263  20.117  21.539  1.00  0.00     0.188 A 
ATOM     21  C   UNL     1       6.053  19.927  22.574  1.00  0.00     0.134 A 
ATOM     22  C   UNL     1       7.168  20.731  22.207  1.00  0.00     0.111 A 
ATOM     23  O   UNL     1       9.324  20.839  21.187  1.00  0.00    -0.452 OA
ATOM     24  C   UNL     1       7.290  22.106  22.518  1.00  0.00     0.197 A 
ATOM     25  C   UNL     1       9.442  22.140  21.425  1.00  0.00     0.138 A 
ATOM     26  C   UNL     1       8.420  22.812  22.107  1.00  0.00     0.100 A 
ATOM     27  O   UNL     1       6.419  22.718  23.192  1.00  0.00    -0.289 OA
BRANCH  18  28
ATOM     28  O   UNL     1       9.275  18.092  20.552  1.00  0.00    -0.490 OA
ATOM     29  C   UNL     1       9.491  18.237  19.151  1.00  0.00     0.278 C 
ENDBRANCH  18  28
BRANCH  21  30
ATOM     30  O   UNL     1       4.875  20.441  23.126  1.00  0.00    -0.507 OA
ATOM     31  H   UNL     1       3.999  19.938  23.154  1.00  0.00     0.293 HD
ENDBRANCH  21  30
BRANCH  25  32
ATOM     32  C   UNL     1      10.675  22.838  20.984  1.00  0.00     0.017 A 
ATOM     33  C   UNL     1      11.670  23.150  21.929  1.00  0.00     0.012 A 
ATOM     34  C   UNL     1      10.893  23.167  19.630  1.00  0.00     0.012 A 
ATOM     35  C   UNL     1      12.849  23.793  21.533  1.00  0.00     0.001 A 
ATOM     36  C   UNL     1      12.074  23.810  19.240  1.00  0.00     0.001 A 
ATOM     37  C   UNL     1      13.050  24.122  20.190  1.00  0.00     0.000 A 
ENDBRANCH  25  32
ENDBRANCH   1  17
TORSDOF 9
ENDMDL
MODEL 3
REMARK VINA RESULT:    -5.097      2.288      8.300
REMARK INTER + INTRA:          -7.896
REMARK INTER:                  -6.509
REMARK INTRA:                  -1.387
REMARK UNBOUND:                -0.714
REMARK SMILES COc1c(O[C@@H]2O[C@@H](C(=O)[O-])[C@@H](O)[C@H](O)[C@H]2O)cc(O)c2c(=O)cc(-c3ccccc3)oc12
REMARK SMILES IDX 5 1 6 2 8 3 12 4 7 5 14 6 16 7 9 8 10 9 11 10 13 11 15 13
REMARK SMILES IDX 17 15 4 17 3 18 18 19 33 20 19 21 21 22 32 23 22 24 25 25
REMARK SMILES IDX 24 26 23 27 2 28 1 29 20 30 26 32 27 33 31 34 28 35 30 36
REMARK SMILES IDX 29 37
REMARK H PARENT 13 12 15 14 17 16 20 31
REMARK Flexibility Score: inf
ROOT
ATOM      1  O   UNL     1       5.611  17.317  21.510  1.00  0.00    -0.458 OA
ENDROOT
BRANCH   1   2
ATOM      2  C   UNL     1       5.850  16.080  22.194  1.00  0.00     0.339 C 
ATOM      3  C   UNL     1       7.622  15.481  20.772  1.00  0.00     0.199 C 
ATOM      4  C   UNL     1       6.895  14.239  20.207  1.00  0.00     0.180 C 
ATOM      5  O   UNL     1       7.219  15.716  22.111  1.00  0.00    -0.328 OA
ATOM      6  C   UNL     1       5.361  14.425  20.283  1.00  0.00     0.181 C 
ATOM      7  C   UNL     1       4.915  14.966  21.666  1.00  0.00     0.214 C 
BRANCH   3   8
ATOM      8  C   UNL     1       9.120  15.336  20.748  1.00  0.00     0.073 C 
ATOM      9  O   UNL     1       9.723  14.600  21.574  1.00  0.00    -0.547 OA
ATOM     10  O   UNL     1       9.848  15.974  19.751  1.00  0.00    -0.547 OA
ENDBRANCH   3   8
BRANCH   4  11
ATOM     11  O   UNL     1       7.266  13.104  20.950  1.00  0.00    -0.387 OA
ATOM     12  H   UNL     1       8.261  13.065  20.929  1.00  0.00     0.211 HD
ENDBRANCH   4  11
BRANCH   6  13
ATOM     13  O   UNL     1       4.879  15.236  19.236  1.00  0.00    -0.387 OA
ATOM     14  H   UNL     1       3.891  15.205  19.255  1.00  0.00     0.211 HD
ENDBRANCH   6  13
BRANCH   7  15
ATOM     15  O   UNL     1       4.886  13.916  22.598  1.00  0.00    -0.384 OA
ATOM     16  H   UNL     1       5.775  13.477  22.554  1.00  0.00     0.211 HD
ENDBRANCH   7  15
ENDBRANCH   1   2
BRANCH   1  17
ATOM     17  C   UNL     1       5.973  18.571  22.023  1.00  0.00     0.172 A 
ATOM     18  C   UNL     1       6.981  19.301  21.386  1.00  0.00     0.205 A 
ATOM     19  C   UNL     1       5.329  19.099  23.149  1.00  0.00     0.097 A 
ATOM     20  C   UNL     1       7.387  20.543  21.919  1.00  0.00     0.188 A 
ATOM     21  C   UNL     1       5.661  20.361  23.645  1.00  0.00     0.134 A 
ATOM     22  C   UNL     1       6.739  21.084  23.064  1.00  0.00     0.111 A 
ATOM     23  O   UNL     1       8.403  21.192  21.356  1.00  0.00    -0.452 OA
ATOM     24  C   UNL     1       7.255  22.293  23.587  1.00  0.00     0.197 A 
ATOM     25  C   UNL     1       8.875  22.350  21.799  1.00  0.00     0.138 A 
ATOM     26  C   UNL     1       8.311  22.934  22.940  1.00  0.00     0.100 A 
ATOM     27  O   UNL     1       6.814  22.802  24.652  1.00  0.00    -0.289 OA
BRANCH  18  28
ATOM     28  O   UNL     1       7.545  18.756  20.223  1.00  0.00    -0.490 OA
ATOM     29  C   UNL     1       7.187  19.143  18.898  1.00  0.00     0.278 C 
ENDBRANCH  18  28
BRANCH  21  30
ATOM     30  O   UNL     1       4.875  20.849  24.694  1.00  0.00    -0.507 OA
ATOM     31  H   UNL     1       4.003  20.432  24.987  1.00  0.00     0.293 HD
ENDBRANCH  21  30
BRANCH  25  32
ATOM     32  C   UNL     1      10.014  22.978  21.084  1.00  0.00     0.017 A 
ATOM     33  C   UNL     1      11.253  23.113  21.738  1.00  0.00     0.012 A 
ATOM     34  C   UNL     1       9.897  23.415  19.748  1.00  0.00     0.012 A 
ATOM     35  C   UNL     1      12.346  23.686  21.077  1.00  0.00     0.001 A 
ATOM     36  C   UNL     1      10.993  23.988  19.093  1.00  0.00     0.001 A 
ATOM     37  C   UNL     1      12.216  24.123  19.757  1.00  0.00     0.000 A 
ENDBRANCH  25  32
ENDBRANCH   1  17
TORSDOF 9
ENDMDL
MODEL 4
REMARK VINA RESULT:    -4.173      2.828      5.301
REMARK INTER + INTRA:          -6.595
REMARK INTER:                  -6.021
REMARK INTRA:                  -0.574
REMARK UNBOUND:                -0.714
REMARK SMILES COc1c(O[C@@H]2O[C@@H](C(=O)[O-])[C@@H](O)[C@H](O)[C@H]2O)cc(O)c2c(=O)cc(-c3ccccc3)oc12
REMARK SMILES IDX 5 1 6 2 8 3 12 4 7 5 14 6 16 7 9 8 10 9 11 10 13 11 15 13
REMARK SMILES IDX 17 15 4 17 3 18 18 19 33 20 19 21 21 22 32 23 22 24 25 25
REMARK SMILES IDX 24 26 23 27 2 28 1 29 20 30 26 32 27 33 31 34 28 35 30 36
REMARK SMILES IDX 29 37
REMARK H PARENT 13 12 15 14 17 16 20 31
REMARK Flexibility Score: inf
ROOT
ATOM      1  O   UNL     1       4.875  22.605  25.061  1.00  0.00    -0.458 OA
ENDROOT
BRANCH   1   2
ATOM      2  C   UNL     1       5.575  23.448  25.986  1.00  0.00     0.339 C 
ATOM      3  C   UNL     1       7.646  22.426  25.560  1.00  0.00     0.199 C 
ATOM      4  C   UNL     1       7.798  21.880  26.998  1.00  0.00     0.180 C 
ATOM      5  O   UNL     1       6.918  23.642  25.572  1.00  0.00    -0.328 OA
ATOM      6  C   UNL     1       6.412  21.670  27.650  1.00  0.00     0.181 C 
ATOM      7  C   UNL     1       5.480  22.888  27.426  1.00  0.00     0.214 C 
BRANCH   3   8
ATOM      8  C   UNL     1       8.972  22.676  24.892  1.00  0.00     0.073 C 
ATOM      9  O   UNL     1       9.730  23.611  25.264  1.00  0.00    -0.547 OA
ATOM     10  O   UNL     1       9.400  21.815  23.888  1.00  0.00    -0.547 OA
ENDBRANCH   3   8
BRANCH   4  11
ATOM     11  O   UNL     1       8.543  22.793  27.766  1.00  0.00    -0.387 OA
ATOM     12  H   UNL     1       8.094  23.676  27.670  1.00  0.00     0.211 HD
ENDBRANCH   4  11
BRANCH   6  13
ATOM     13  O   UNL     1       5.804  20.475  27.215  1.00  0.00    -0.387 OA
ATOM     14  H   UNL     1       5.434  20.630  26.311  1.00  0.00     0.211 HD
ENDBRANCH   6  13
BRANCH   7  15
ATOM     15  O   UNL     1       5.809  23.909  28.333  1.00  0.00    -0.384 OA
ATOM     16  H   UNL     1       5.526  23.589  29.229  1.00  0.00     0.211 HD
ENDBRANCH   7  15
ENDBRANCH   1   2
BRANCH   1  17
ATOM     17  C   UNL     1       5.350  22.296  23.779  1.00  0.00     0.172 A 
ATOM     18  C   UNL     1       5.674  20.970  23.475  1.00  0.00     0.205 A 
ATOM     19  C   UNL     1       5.488  23.293  22.805  1.00  0.00     0.097 A 
ATOM     20  C   UNL     1       6.198  20.653  22.204  1.00  0.00     0.188 A 
ATOM     21  C   UNL     1       5.928  22.987  21.516  1.00  0.00     0.134 A 
ATOM     22  C   UNL     1       6.342  21.661  21.210  1.00  0.00     0.111 A 
ATOM     23  O   UNL     1       6.581  19.404  21.951  1.00  0.00    -0.452 OA
ATOM     24  C   UNL     1       6.949  21.282  19.990  1.00  0.00     0.197 A 
ATOM     25  C   UNL     1       7.109  19.013  20.798  1.00  0.00     0.138 A 
ATOM     26  C   UNL     1       7.313  19.953  19.779  1.00  0.00     0.100 A 
ATOM     27  O   UNL     1       7.210  22.120  19.085  1.00  0.00    -0.289 OA
BRANCH  18  28
ATOM     28  O   UNL     1       5.453  20.001  24.465  1.00  0.00    -0.490 OA
ATOM     29  C   UNL     1       4.882  18.718  24.221  1.00  0.00     0.278 C 
ENDBRANCH  18  28
BRANCH  21  30
ATOM     30  O   UNL     1       5.912  24.029  20.584  1.00  0.00    -0.507 OA
ATOM     31  H   UNL     1       5.085  24.328  20.086  1.00  0.00     0.293 HD
ENDBRANCH  21  30
BRANCH  25  32
ATOM     32  C   UNL     1       7.497  17.590  20.635  1.00  0.00     0.017 A 
ATOM     33  C   UNL     1       7.933  17.130  19.378  1.00  0.00     0.012 A 
ATOM     34  C   UNL     1       7.474  16.689  21.720  1.00  0.00     0.012 A 
ATOM     35  C   UNL     1       8.321  15.796  19.206  1.00  0.00     0.001 A 
ATOM     36  C   UNL     1       7.862  15.357  21.541  1.00  0.00     0.001 A 
ATOM     37  C   UNL     1       8.285  14.911  20.286  1.00  0.00     0.000 A 
ENDBRANCH  25  32
ENDBRANCH   1  17
TORSDOF 9
ENDMDL
MODEL 5
REMARK VINA RESULT:    -3.025      2.409      8.472
REMARK INTER + INTRA:          -4.978
REMARK INTER:                  -3.938
REMARK INTRA:                  -1.040
REMARK UNBOUND:                -0.714
REMARK SMILES COc1c(O[C@@H]2O[C@@H](C(=O)[O-])[C@@H](O)[C@H](O)[C@H]2O)cc(O)c2c(=O)cc(-c3ccccc3)oc12
REMARK SMILES IDX 5 1 6 2 8 3 12 4 7 5 14 6 16 7 9 8 10 9 11 10 13 11 15 13
REMARK SMILES IDX 17 15 4 17 3 18 18 19 33 20 19 21 21 22 32 23 22 24 25 25
REMARK SMILES IDX 24 26 23 27 2 28 1 29 20 30 26 32 27 33 31 34 28 35 30 36
REMARK SMILES IDX 29 37
REMARK H PARENT 13 12 15 14 17 16 20 31
REMARK Flexibility Score: inf
ROOT
ATOM      1  O   UNL     1       7.389  16.457  20.377  1.00  0.00    -0.458 OA
ENDROOT
BRANCH   1   2
ATOM      2  C   UNL     1       6.253  15.585  20.320  1.00  0.00     0.339 C 
ATOM      3  C   UNL     1       6.428  14.989  22.586  1.00  0.00     0.199 C 
ATOM      4  C   UNL     1       6.726  13.502  22.287  1.00  0.00     0.180 C 
ATOM      5  O   UNL     1       5.595  15.534  21.576  1.00  0.00    -0.328 OA
ATOM      6  C   UNL     1       7.393  13.349  20.900  1.00  0.00     0.181 C 
ATOM      7  C   UNL     1       6.660  14.179  19.815  1.00  0.00     0.214 C 
BRANCH   3   8
ATOM      8  C   UNL     1       5.750  15.188  23.916  1.00  0.00     0.073 C 
ATOM      9  O   UNL     1       4.875  16.080  24.082  1.00  0.00    -0.547 OA
ATOM     10  O   UNL     1       6.047  14.326  24.965  1.00  0.00    -0.547 OA
ENDBRANCH   3   8
BRANCH   4  11
ATOM     11  O   UNL     1       5.524  12.772  22.313  1.00  0.00    -0.387 OA
ATOM     12  H   UNL     1       5.749  11.848  22.014  1.00  0.00     0.211 HD
ENDBRANCH   4  11
BRANCH   6  13
ATOM     13  O   UNL     1       8.767  13.660  20.941  1.00  0.00    -0.387 OA
ATOM     14  H   UNL     1       9.232  12.932  21.423  1.00  0.00     0.211 HD
ENDBRANCH   6  13
BRANCH   7  15
ATOM     15  O   UNL     1       5.508  13.496  19.394  1.00  0.00    -0.384 OA
ATOM     16  H   UNL     1       5.136  13.050  20.199  1.00  0.00     0.211 HD
ENDBRANCH   7  15
ENDBRANCH   1   2
BRANCH   1  17
ATOM     17  C   UNL     1       7.320  17.838  20.144  1.00  0.00     0.172 A 
ATOM     18  C   UNL     1       8.462  18.619  20.347  1.00  0.00     0.205 A 
ATOM     19  C   UNL     1       6.133  18.433  19.701  1.00  0.00     0.097 A 
ATOM     20  C   UNL     1       8.395  20.017  20.162  1.00  0.00     0.188 A 
ATOM     21  C   UNL     1       6.067  19.802  19.435  1.00  0.00     0.134 A 
ATOM     22  C   UNL     1       7.191  20.628  19.714  1.00  0.00     0.111 A 
ATOM     23  O   UNL     1       9.462  20.762  20.437  1.00  0.00    -0.452 OA
ATOM     24  C   UNL     1       7.177  22.040  19.630  1.00  0.00     0.197 A 
ATOM     25  C   UNL     1       9.489  22.084  20.321  1.00  0.00     0.138 A 
ATOM     26  C   UNL     1       8.334  22.764  19.915  1.00  0.00     0.100 A 
ATOM     27  O   UNL     1       6.132  22.681  19.337  1.00  0.00    -0.289 OA
BRANCH  18  28
ATOM     28  O   UNL     1       9.643  17.962  20.726  1.00  0.00    -0.490 OA
ATOM     29  C   UNL     1      10.400  17.111  19.868  1.00  0.00     0.278 C 
ENDBRANCH  18  28
BRANCH  21  30
ATOM     30  O   UNL     1       4.875  20.276  18.878  1.00  0.00    -0.507 OA
ATOM     31  H   UNL     1       4.330  21.031  19.270  1.00  0.00     0.293 HD
ENDBRANCH  21  30
BRANCH  25  32
ATOM     32  C   UNL     1      10.741  22.806  20.657  1.00  0.00     0.017 A 
ATOM     33  C   UNL     1      11.173  22.857  21.996  1.00  0.00     0.012 A 
ATOM     34  C   UNL     1      11.532  23.415  19.661  1.00  0.00     0.012 A 
ATOM     35  C   UNL     1      12.360  23.517  22.334  1.00  0.00     0.001 A 
ATOM     36  C   UNL     1      12.718  24.074  20.006  1.00  0.00     0.001 A 
ATOM     37  C   UNL     1      13.131  24.125  21.340  1.00  0.00     0.000 A 
ENDBRANCH  25  32
ENDBRANCH   1  17
TORSDOF 9
ENDMDL
