MODEL 1
REMARK VINA RESULT:     4.084      0.000      0.000
REMARK INTER + INTRA:           4.587
REMARK INTER:                   5.517
REMARK INTRA:                  -0.929
REMARK UNBOUND:                -0.929
REMARK SMILES CC[C@@H](CC[C@@H](C)[C@H]1CC[C@H]2[C@@H]3CC(=O)C4=CC(=O)CC[C@@]4(C)[C@@H]3CC[C@@]12C)C(C)C
REMARK SMILES IDX 4 1 3 2 2 3 1 4 29 5 30 6 31 7 5 8 6 9 7 10 8 11 9 12 27 13
REMARK SMILES IDX 10 14 11 15 26 16 28 17 12 18 25 19 24 20 13 21 22 22 14 23
REMARK SMILES IDX 16 24 21 25 23 26 15 27 17 28 20 29 18 30 19 31
REMARK H PARENT
REMARK Flexibility Score: inf
ROOT
ATOM      1  C   UNL     1      18.162  10.883  13.702  1.00  0.00     0.004 C 
ENDROOT
BRANCH   1   2
ATOM      2  C   UNL     1      18.755  10.064  12.511  1.00  0.00    -0.009 C 
BRANCH   2   3
ATOM      3  C   UNL     1      17.674   9.856  11.412  1.00  0.00     0.000 C 
ATOM      4  C   UNL     1      18.020  10.522  10.080  1.00  0.00     0.004 C 
ENDBRANCH   2   3
BRANCH   2   5
ATOM      5  C   UNL     1      19.394   8.680  12.938  1.00  0.00    -0.014 C 
ATOM      6  C   UNL     1      19.962   8.607  14.368  1.00  0.00     0.007 C 
ATOM      7  C   UNL     1      20.495   8.259  11.950  1.00  0.00     0.007 C 
ENDBRANCH   2   5
ENDBRANCH   1   2
BRANCH   1   8
ATOM      8  C   UNL     1      16.620  10.872  13.836  1.00  0.00     0.004 C 
BRANCH   8   9
ATOM      9  C   UNL     1      16.056  10.852  15.287  1.00  0.00    -0.011 C 
ATOM     10  C   UNL     1      16.691   9.708  16.104  1.00  0.00     0.008 C 
BRANCH   9  11
ATOM     11  C   UNL     1      15.967  12.246  16.024  1.00  0.00    -0.002 C 
ATOM     12  C   UNL     1      17.069  13.203  15.551  1.00  0.00     0.005 C 
ATOM     13  C   UNL     1      14.660  13.129  16.019  1.00  0.00    -0.026 C 
ATOM     14  C   UNL     1      16.412  14.198  14.611  1.00  0.00     0.005 C 
ATOM     15  C   UNL     1      14.926  14.291  15.002  1.00  0.00    -0.001 C 
ATOM     16  C   UNL     1      13.339  12.377  15.703  1.00  0.00     0.007 C 
ATOM     17  C   UNL     1      14.527  13.748  17.446  1.00  0.00     0.012 C 
ATOM     18  C   UNL     1      13.996  14.306  13.741  1.00  0.00     0.004 C 
ATOM     19  C   UNL     1      12.199  13.344  15.382  1.00  0.00     0.005 C 
ATOM     20  C   UNL     1      12.462  14.129  14.071  1.00  0.00     0.003 C 
ATOM     21  C   UNL     1      14.318  15.532  12.842  1.00  0.00     0.085 C 
ATOM     22  C   UNL     1      11.574  15.423  13.923  1.00  0.00    -0.000 C 
ATOM     23  C   UNL     1      13.178  15.921  11.960  1.00  0.00     0.159 C 
ATOM     24  C   UNL     1      11.817  16.014  12.531  1.00  0.00     0.005 C 
ATOM     25  C   UNL     1      10.067  15.028  14.062  1.00  0.00     0.020 C 
ATOM     26  C   UNL     1      11.922  16.493  14.991  1.00  0.00     0.017 C 
ATOM     27  O   UNL     1      13.401  16.226  10.755  1.00  0.00    -0.295 OA
ATOM     28  C   UNL     1      10.847  16.660  11.855  1.00  0.00     0.055 C 
ATOM     29  C   UNL     1       9.110  16.171  13.701  1.00  0.00     0.081 C 
ATOM     30  C   UNL     1       9.479  16.776  12.384  1.00  0.00     0.156 C 
ATOM     31  O   UNL     1       8.621  17.440  11.741  1.00  0.00    -0.295 OA
ENDBRANCH   9  11
ENDBRANCH   8   9
ENDBRANCH   1   8
TORSDOF 6
ENDMDL
MODEL 2
REMARK VINA RESULT:     4.181      0.456      1.528
REMARK INTER + INTRA:           4.718
REMARK INTER:                   5.669
REMARK INTRA:                  -0.951
REMARK UNBOUND:                -0.929
REMARK SMILES CC[C@@H](CC[C@@H](C)[C@H]1CC[C@H]2[C@@H]3CC(=O)C4=CC(=O)CC[C@@]4(C)[C@@H]3CC[C@@]12C)C(C)C
REMARK SMILES IDX 4 1 3 2 2 3 1 4 29 5 30 6 31 7 5 8 6 9 7 10 8 11 9 12 27 13
REMARK SMILES IDX 10 14 11 15 26 16 28 17 12 18 25 19 24 20 13 21 22 22 14 23
REMARK SMILES IDX 16 24 21 25 23 26 15 27 17 28 20 29 18 30 19 31
REMARK H PARENT
REMARK Flexibility Score: inf
ROOT
ATOM      1  C   UNL     1      17.861  10.870  13.601  1.00  0.00     0.004 C 
ENDROOT
BRANCH   1   2
ATOM      2  C   UNL     1      18.349   9.797  12.575  1.00  0.00    -0.009 C 
BRANCH   2   3
ATOM      3  C   UNL     1      19.741   9.247  12.996  1.00  0.00     0.000 C 
ATOM      4  C   UNL     1      19.747   8.589  14.376  1.00  0.00     0.004 C 
ENDBRANCH   2   3
BRANCH   2   5
ATOM      5  C   UNL     1      18.377  10.307  11.076  1.00  0.00    -0.014 C 
ATOM      6  C   UNL     1      17.287   9.741  10.146  1.00  0.00     0.007 C 
ATOM      7  C   UNL     1      19.752  10.046  10.437  1.00  0.00     0.007 C 
ENDBRANCH   2   5
ENDBRANCH   1   2
BRANCH   1   8
ATOM      8  C   UNL     1      16.345  10.880  13.907  1.00  0.00     0.004 C 
BRANCH   8   9
ATOM      9  C   UNL     1      15.947  10.872  15.413  1.00  0.00    -0.011 C 
ATOM     10  C   UNL     1      16.727   9.784  16.177  1.00  0.00     0.008 C 
BRANCH   9  11
ATOM     11  C   UNL     1      15.869  12.280  16.125  1.00  0.00    -0.002 C 
ATOM     12  C   UNL     1      16.990  13.213  15.651  1.00  0.00     0.005 C 
ATOM     13  C   UNL     1      14.575  13.181  16.087  1.00  0.00    -0.026 C 
ATOM     14  C   UNL     1      16.360  14.201  14.686  1.00  0.00     0.005 C 
ATOM     15  C   UNL     1      14.871  14.321  15.055  1.00  0.00    -0.001 C 
ATOM     16  C   UNL     1      13.247  12.443  15.767  1.00  0.00     0.007 C 
ATOM     17  C   UNL     1      14.432  13.826  17.503  1.00  0.00     0.012 C 
ATOM     18  C   UNL     1      13.959  14.328  13.782  1.00  0.00     0.004 C 
ATOM     19  C   UNL     1      12.125  13.420  15.414  1.00  0.00     0.005 C 
ATOM     20  C   UNL     1      12.418  14.179  14.093  1.00  0.00     0.003 C 
ATOM     21  C   UNL     1      14.310  15.534  12.866  1.00  0.00     0.085 C 
ATOM     22  C   UNL     1      11.550  15.483  13.912  1.00  0.00    -0.000 C 
ATOM     23  C   UNL     1      13.187  15.924  11.963  1.00  0.00     0.159 C 
ATOM     24  C   UNL     1      11.821  16.046  12.514  1.00  0.00     0.005 C 
ATOM     25  C   UNL     1      10.036  15.111  14.037  1.00  0.00     0.020 C 
ATOM     26  C   UNL     1      11.899  16.566  14.967  1.00  0.00     0.017 C 
ATOM     27  O   UNL     1      13.431  16.206  10.756  1.00  0.00    -0.295 OA
ATOM     28  C   UNL     1      10.869  16.695  11.814  1.00  0.00     0.055 C 
ATOM     29  C   UNL     1       9.100  16.262  13.644  1.00  0.00     0.081 C 
ATOM     30  C   UNL     1       9.495  16.839  12.322  1.00  0.00     0.156 C 
ATOM     31  O   UNL     1       8.657  17.504  11.657  1.00  0.00    -0.295 OA
ENDBRANCH   9  11
ENDBRANCH   8   9
ENDBRANCH   1   8
TORSDOF 6
ENDMDL
MODEL 3
REMARK VINA RESULT:     5.332      3.264      8.318
REMARK INTER + INTRA:           6.273
REMARK INTER:                   7.467
REMARK INTRA:                  -1.194
REMARK UNBOUND:                -0.929
REMARK SMILES CC[C@@H](CC[C@@H](C)[C@H]1CC[C@H]2[C@@H]3CC(=O)C4=CC(=O)CC[C@@]4(C)[C@@H]3CC[C@@]12C)C(C)C
REMARK SMILES IDX 4 1 3 2 2 3 1 4 29 5 30 6 31 7 5 8 6 9 7 10 8 11 9 12 27 13
REMARK SMILES IDX 10 14 11 15 26 16 28 17 12 18 25 19 24 20 13 21 22 22 14 23
REMARK SMILES IDX 16 24 21 25 23 26 15 27 17 28 20 29 18 30 19 31
REMARK H PARENT
REMARK Flexibility Score: inf
ROOT
ATOM      1  C   UNL     1      11.761  15.774  14.060  1.00  0.00     0.004 C 
ENDROOT
BRANCH   1   2
ATOM      2  C   UNL     1      11.495  16.139  12.564  1.00  0.00    -0.009 C 
BRANCH   2   3
ATOM      3  C   UNL     1      10.013  16.572  12.374  1.00  0.00     0.000 C 
ATOM      4  C   UNL     1       9.411  17.250  13.605  1.00  0.00     0.004 C 
ENDBRANCH   2   3
BRANCH   2   5
ATOM      5  C   UNL     1      11.879  14.990  11.544  1.00  0.00    -0.014 C 
ATOM      6  C   UNL     1      13.297  15.060  10.946  1.00  0.00     0.007 C 
ATOM      7  C   UNL     1      10.863  14.922  10.391  1.00  0.00     0.007 C 
ENDBRANCH   2   5
ENDBRANCH   1   2
BRANCH   1   8
ATOM      8  C   UNL     1      11.900  14.267  14.379  1.00  0.00     0.004 C 
BRANCH   8   9
ATOM      9  C   UNL     1      12.491  13.910  15.775  1.00  0.00    -0.011 C 
ATOM     10  C   UNL     1      12.257  12.422  16.102  1.00  0.00     0.008 C 
BRANCH   9  11
ATOM     11  C   UNL     1      13.943  14.454  16.081  1.00  0.00    -0.002 C 
ATOM     12  C   UNL     1      14.345  14.195  17.538  1.00  0.00     0.005 C 
ATOM     13  C   UNL     1      15.208  14.014  15.248  1.00  0.00    -0.026 C 
ATOM     14  C   UNL     1      15.306  13.020  17.527  1.00  0.00     0.005 C 
ATOM     15  C   UNL     1      15.985  12.992  16.146  1.00  0.00    -0.001 C 
ATOM     16  C   UNL     1      14.920  13.437  13.836  1.00  0.00     0.007 C 
ATOM     17  C   UNL     1      16.097  15.286  15.070  1.00  0.00     0.012 C 
ATOM     18  C   UNL     1      16.081  11.536  15.578  1.00  0.00     0.004 C 
ATOM     19  C   UNL     1      16.143  12.730  13.251  1.00  0.00     0.005 C 
ATOM     20  C   UNL     1      16.518  11.463  14.063  1.00  0.00     0.003 C 
ATOM     21  C   UNL     1      16.919  10.635  16.528  1.00  0.00     0.085 C 
ATOM     22  C   UNL     1      17.987  10.956  13.795  1.00  0.00    -0.000 C 
ATOM     23  C   UNL     1      17.505   9.449  15.836  1.00  0.00     0.159 C 
ATOM     24  C   UNL     1      18.175   9.627  14.531  1.00  0.00     0.005 C 
ATOM     25  C   UNL     1      18.177  10.730  12.259  1.00  0.00     0.020 C 
ATOM     26  C   UNL     1      19.052  11.965  14.299  1.00  0.00     0.017 C 
ATOM     27  O   UNL     1      17.474   8.322  16.405  1.00  0.00    -0.295 OA
ATOM     28  C   UNL     1      18.977   8.657  14.049  1.00  0.00     0.055 C 
ATOM     29  C   UNL     1      19.491  10.016  11.915  1.00  0.00     0.081 C 
ATOM     30  C   UNL     1      19.663   8.789  12.754  1.00  0.00     0.156 C 
ATOM     31  O   UNL     1      20.448   7.880  12.373  1.00  0.00    -0.295 OA
ENDBRANCH   9  11
ENDBRANCH   8   9
ENDBRANCH   1   8
TORSDOF 6
ENDMDL
MODEL 4
REMARK VINA RESULT:     5.879      3.281      8.496
REMARK INTER + INTRA:           7.012
REMARK INTER:                   7.738
REMARK INTRA:                  -0.726
REMARK UNBOUND:                -0.929
REMARK SMILES CC[C@@H](CC[C@@H](C)[C@H]1CC[C@H]2[C@@H]3CC(=O)C4=CC(=O)CC[C@@]4(C)[C@@H]3CC[C@@]12C)C(C)C
REMARK SMILES IDX 4 1 3 2 2 3 1 4 29 5 30 6 31 7 5 8 6 9 7 10 8 11 9 12 27 13
REMARK SMILES IDX 10 14 11 15 26 16 28 17 12 18 25 19 24 20 13 21 22 22 14 23
REMARK SMILES IDX 16 24 21 25 23 26 15 27 17 28 20 29 18 30 19 31
REMARK H PARENT
REMARK Flexibility Score: inf
ROOT
ATOM      1  C   UNL     1      12.192  15.472  13.720  1.00  0.00     0.004 C 
ENDROOT
BRANCH   1   2
ATOM      2  C   UNL     1      11.143  15.815  12.614  1.00  0.00    -0.009 C 
BRANCH   2   3
ATOM      3  C   UNL     1      11.857  16.051  11.252  1.00  0.00     0.000 C 
ATOM      4  C   UNL     1      13.035  15.107  11.009  1.00  0.00     0.004 C 
ENDBRANCH   2   3
BRANCH   2   5
ATOM      5  C   UNL     1      10.206  17.040  12.975  1.00  0.00    -0.014 C 
ATOM      6  C   UNL     1       9.018  16.734  13.906  1.00  0.00     0.007 C 
ATOM      7  C   UNL     1       9.669  17.711  11.698  1.00  0.00     0.007 C 
ENDBRANCH   2   5
ENDBRANCH   1   2
BRANCH   1   8
ATOM      8  C   UNL     1      11.623  14.933  15.054  1.00  0.00     0.004 C 
BRANCH   8   9
ATOM      9  C   UNL     1      12.548  13.971  15.857  1.00  0.00    -0.011 C 
ATOM     10  C   UNL     1      12.457  12.535  15.302  1.00  0.00     0.008 C 
BRANCH   9  11
ATOM     11  C   UNL     1      14.009  14.492  16.158  1.00  0.00    -0.002 C 
ATOM     12  C   UNL     1      14.418  14.213  17.609  1.00  0.00     0.005 C 
ATOM     13  C   UNL     1      15.262  14.045  15.310  1.00  0.00    -0.026 C 
ATOM     14  C   UNL     1      15.364  13.026  17.579  1.00  0.00     0.005 C 
ATOM     15  C   UNL     1      16.032  13.004  16.192  1.00  0.00    -0.001 C 
ATOM     16  C   UNL     1      14.956  13.488  13.895  1.00  0.00     0.007 C 
ATOM     17  C   UNL     1      16.166  15.308  15.140  1.00  0.00     0.012 C 
ATOM     18  C   UNL     1      16.105  11.553  15.608  1.00  0.00     0.004 C 
ATOM     19  C   UNL     1      16.165  12.771  13.293  1.00  0.00     0.005 C 
ATOM     20  C   UNL     1      16.530  11.491  14.088  1.00  0.00     0.003 C 
ATOM     21  C   UNL     1      16.939  10.631  16.541  1.00  0.00     0.085 C 
ATOM     22  C   UNL     1      17.990  10.968  13.804  1.00  0.00    -0.000 C 
ATOM     23  C   UNL     1      17.504   9.445  15.832  1.00  0.00     0.159 C 
ATOM     24  C   UNL     1      18.167   9.628  14.524  1.00  0.00     0.005 C 
ATOM     25  C   UNL     1      18.166  10.756  12.264  1.00  0.00     0.020 C 
ATOM     26  C   UNL     1      19.072  11.958  14.310  1.00  0.00     0.017 C 
ATOM     27  O   UNL     1      17.463   8.312  16.389  1.00  0.00    -0.295 OA
ATOM     28  C   UNL     1      18.952   8.653  14.025  1.00  0.00     0.055 C 
ATOM     29  C   UNL     1      19.467  10.029  11.902  1.00  0.00     0.081 C 
ATOM     30  C   UNL     1      19.630   8.791  12.726  1.00  0.00     0.156 C 
ATOM     31  O   UNL     1      20.400   7.876  12.330  1.00  0.00    -0.295 OA
ENDBRANCH   9  11
ENDBRANCH   8   9
ENDBRANCH   1   8
TORSDOF 6
ENDMDL
MODEL 5
REMARK VINA RESULT:     6.447      1.221      2.059
REMARK INTER + INTRA:           7.779
REMARK INTER:                   7.552
REMARK INTRA:                   0.227
REMARK UNBOUND:                -0.929
REMARK SMILES CC[C@@H](CC[C@@H](C)[C@H]1CC[C@H]2[C@@H]3CC(=O)C4=CC(=O)CC[C@@]4(C)[C@@H]3CC[C@@]12C)C(C)C
REMARK SMILES IDX 4 1 3 2 2 3 1 4 29 5 30 6 31 7 5 8 6 9 7 10 8 11 9 12 27 13
REMARK SMILES IDX 10 14 11 15 26 16 28 17 12 18 25 19 24 20 13 21 22 22 14 23
REMARK SMILES IDX 16 24 21 25 23 26 15 27 17 28 20 29 18 30 19 31
REMARK H PARENT
REMARK Flexibility Score: inf
ROOT
ATOM      1  C   UNL     1      17.415  11.257  14.503  1.00  0.00     0.004 C 
ENDROOT
BRANCH   1   2
ATOM      2  C   UNL     1      17.989  10.116  13.603  1.00  0.00    -0.009 C 
BRANCH   2   3
ATOM      3  C   UNL     1      19.449   9.785  14.024  1.00  0.00     0.000 C 
ATOM      4  C   UNL     1      19.607   8.395  14.640  1.00  0.00     0.004 C 
ENDBRANCH   2   3
BRANCH   2   5
ATOM      5  C   UNL     1      17.910  10.421  12.051  1.00  0.00    -0.014 C 
ATOM      6  C   UNL     1      17.339   9.296  11.166  1.00  0.00     0.007 C 
ATOM      7  C   UNL     1      19.289  10.825  11.502  1.00  0.00     0.007 C 
ENDBRANCH   2   5
ENDBRANCH   1   2
BRANCH   1   8
ATOM      8  C   UNL     1      16.271  10.855  15.464  1.00  0.00     0.004 C 
BRANCH   8   9
ATOM      9  C   UNL     1      14.998  11.751  15.432  1.00  0.00    -0.011 C 
ATOM     10  C   UNL     1      13.847  11.093  16.220  1.00  0.00     0.008 C 
BRANCH   9  11
ATOM     11  C   UNL     1      15.218  13.291  15.708  1.00  0.00    -0.002 C 
ATOM     12  C   UNL     1      16.234  13.899  14.733  1.00  0.00     0.005 C 
ATOM     13  C   UNL     1      14.031  14.330  15.726  1.00  0.00    -0.026 C 
ATOM     14  C   UNL     1      15.439  14.686  13.705  1.00  0.00     0.005 C 
ATOM     15  C   UNL     1      14.118  15.111  14.371  1.00  0.00    -0.001 C 
ATOM     16  C   UNL     1      12.616  13.734  15.958  1.00  0.00     0.007 C 
ATOM     17  C   UNL     1      14.323  15.331  16.889  1.00  0.00     0.012 C 
ATOM     18  C   UNL     1      12.898  14.922  13.407  1.00  0.00     0.004 C 
ATOM     19  C   UNL     1      11.514  14.739  15.621  1.00  0.00     0.005 C 
ATOM     20  C   UNL     1      11.493  15.083  14.108  1.00  0.00     0.003 C 
ATOM     21  C   UNL     1      13.076  15.788  12.128  1.00  0.00     0.085 C 
ATOM     22  C   UNL     1      10.705  16.407  13.775  1.00  0.00    -0.000 C 
ATOM     23  C   UNL     1      11.782  16.091  11.448  1.00  0.00     0.159 C 
ATOM     24  C   UNL     1      10.628  16.547  12.252  1.00  0.00     0.005 C 
ATOM     25  C   UNL     1       9.259  16.303  14.360  1.00  0.00     0.020 C 
ATOM     26  C   UNL     1      11.405  17.663  14.360  1.00  0.00     0.017 C 
ATOM     27  O   UNL     1      11.709  16.014  10.190  1.00  0.00    -0.295 OA
ATOM     28  C   UNL     1       9.572  17.124  11.646  1.00  0.00     0.055 C 
ATOM     29  C   UNL     1       8.338  17.437  13.891  1.00  0.00     0.081 C 
ATOM     30  C   UNL     1       8.401  17.592  12.405  1.00  0.00     0.156 C 
ATOM     31  O   UNL     1       7.464  18.177  11.799  1.00  0.00    -0.295 OA
ENDBRANCH   9  11
ENDBRANCH   8   9
ENDBRANCH   1   8
TORSDOF 6
ENDMDL
