MODEL 1
REMARK VINA RESULT:    -7.443      0.000      0.000
REMARK INTER + INTRA:          -7.998
REMARK INTER:                  -8.096
REMARK INTRA:                   0.098
REMARK UNBOUND:                 0.098
REMARK SMILES C[C@H]1[C@H](C)CC[C@]2(C(=O)[O-])CC[C@@]3(C)C(=CC[C@H]4[C@@]5(C)CC[C@@H](O)C(C)(C)[C@H]5CC[C@]43C)[C@H]12
REMARK SMILES IDX 7 1 6 2 11 3 33 4 5 5 12 6 15 7 2 8 3 9 13 10 16 11 1 12
REMARK SMILES IDX 4 13 14 14 31 15 17 16 18 17 30 18 32 19 19 20 29 21 28 22
REMARK SMILES IDX 21 23 20 24 25 25 22 26 23 27 26 28 27 29 8 30 9 31 10 32
REMARK SMILES IDX 24 33
REMARK H PARENT 24 34
REMARK Flexibility Score: inf
ROOT
ATOM      1  C   UNL     1     107.748  41.702 138.065  1.00  0.00     0.017 C 
ATOM      2  C   UNL     1     107.346  40.278 138.592  1.00  0.00     0.014 C 
ATOM      3  C   UNL     1     107.015  42.707 138.993  1.00  0.00     0.014 C 
ATOM      4  C   UNL     1     107.380  41.967 136.540  1.00  0.00     0.030 C 
ATOM      5  C   UNL     1     107.684  39.166 137.619  1.00  0.00     0.004 C 
ATOM      6  C   UNL     1     107.067  44.145 138.501  1.00  0.00     0.013 C 
ATOM      7  C   UNL     1     106.256  43.010 136.362  1.00  0.00    -0.063 C 
ATOM      8  C   UNL     1     107.422  40.678 135.599  1.00  0.00    -0.003 C 
ATOM      9  C   UNL     1     106.962  39.359 136.269  1.00  0.00    -0.011 C 
ATOM     10  C   UNL     1     106.457  44.365 137.061  1.00  0.00    -0.006 C 
ATOM     11  C   UNL     1     105.233  42.833 135.523  1.00  0.00    -0.027 C 
ATOM     12  C   UNL     1     108.826  40.491 134.968  1.00  0.00     0.008 C 
ATOM     13  C   UNL     1     105.435  39.267 136.433  1.00  0.00     0.008 C 
ATOM     14  C   UNL     1     107.529  45.121 136.208  1.00  0.00     0.017 C 
ATOM     15  C   UNL     1     105.092  45.220 137.105  1.00  0.00    -0.020 C 
ATOM     16  C   UNL     1     104.287  43.928 135.077  1.00  0.00     0.032 C 
ATOM     17  C   UNL     1     104.509  45.365 135.663  1.00  0.00     0.006 C 
ATOM     18  C   UNL     1     104.021  44.468 137.962  1.00  0.00     0.008 C 
ATOM     19  C   UNL     1     105.358  46.630 137.758  1.00  0.00     0.012 C 
ATOM     20  C   UNL     1     103.192  46.283 135.537  1.00  0.00    -0.025 C 
ATOM     21  C   UNL     1     102.512  44.731 137.595  1.00  0.00     0.005 C 
ATOM     22  C   UNL     1     102.192  46.016 136.752  1.00  0.00     0.003 C 
ATOM     23  C   UNL     1     102.550  46.079 134.114  1.00  0.00     0.010 C 
ATOM     24  C   UNL     1     103.591  47.805 135.571  1.00  0.00     0.012 C 
ATOM     25  C   UNL     1     100.626  46.242 136.469  1.00  0.00    -0.006 C 
ATOM     26  C   UNL     1     101.118  46.601 133.990  1.00  0.00     0.033 C 
ATOM     27  C   UNL     1     100.221  45.892 135.002  1.00  0.00     0.120 C 
ATOM     28  C   UNL     1      99.705  45.392 137.399  1.00  0.00     0.014 C 
ATOM     29  C   UNL     1     100.266  47.727 136.766  1.00  0.00     0.014 C 
ENDROOT
BRANCH   1  30
ATOM     30  C   UNL     1     109.267  41.836 138.211  1.00  0.00     0.048 C 
ATOM     31  O   UNL     1     109.808  41.687 139.360  1.00  0.00    -0.550 OA
ATOM     32  O   UNL     1     109.981  41.709 139.396  1.00  0.00    -0.550 OA
ENDBRANCH   1  30
BRANCH  27  33
ATOM     33  O   UNL     1     100.287  44.503 134.802  1.00  0.00    -0.393 OA
ATOM     34  H   UNL     1     100.347  44.086 135.699  1.00  0.00     0.210 HD
ENDBRANCH  27  33
TORSDOF 2
ENDMDL
MODEL 2
REMARK VINA RESULT:    -7.270      1.752      3.230
REMARK INTER + INTRA:          -7.810
REMARK INTER:                  -7.736
REMARK INTRA:                  -0.074
REMARK UNBOUND:                 0.098
REMARK SMILES C[C@H]1[C@H](C)CC[C@]2(C(=O)[O-])CC[C@@]3(C)C(=CC[C@H]4[C@@]5(C)CC[C@@H](O)C(C)(C)[C@H]5CC[C@]43C)[C@H]12
REMARK SMILES IDX 7 1 6 2 11 3 33 4 5 5 12 6 15 7 2 8 3 9 13 10 16 11 1 12
REMARK SMILES IDX 4 13 14 14 31 15 17 16 18 17 30 18 32 19 19 20 29 21 28 22
REMARK SMILES IDX 21 23 20 24 25 25 22 26 23 27 26 28 27 29 8 30 9 31 10 32
REMARK SMILES IDX 24 33
REMARK H PARENT 24 34
REMARK Flexibility Score: inf
ROOT
ATOM      1  C   UNL     1     106.712  40.225 136.612  1.00  0.00     0.017 C 
ATOM      2  C   UNL     1     107.470  39.820 135.296  1.00  0.00     0.014 C 
ATOM      3  C   UNL     1     105.203  40.156 136.255  1.00  0.00     0.014 C 
ATOM      4  C   UNL     1     107.096  41.663 137.175  1.00  0.00     0.030 C 
ATOM      5  C   UNL     1     108.948  40.151 135.336  1.00  0.00     0.004 C 
ATOM      6  C   UNL     1     104.295  40.755 137.318  1.00  0.00     0.013 C 
ATOM      7  C   UNL     1     105.945  42.686 137.055  1.00  0.00    -0.063 C 
ATOM      8  C   UNL     1     108.598  42.122 136.893  1.00  0.00    -0.003 C 
ATOM      9  C   UNL     1     109.183  41.663 135.534  1.00  0.00    -0.011 C 
ATOM     10  C   UNL     1     104.590  42.270 137.650  1.00  0.00    -0.006 C 
ATOM     11  C   UNL     1     106.130  43.930 136.610  1.00  0.00    -0.027 C 
ATOM     12  C   UNL     1     109.540  41.694 138.049  1.00  0.00     0.008 C 
ATOM     13  C   UNL     1     108.645  42.474 134.343  1.00  0.00     0.008 C 
ATOM     14  C   UNL     1     104.760  42.387 139.201  1.00  0.00     0.017 C 
ATOM     15  C   UNL     1     103.402  43.240 137.157  1.00  0.00    -0.020 C 
ATOM     16  C   UNL     1     105.128  45.055 136.761  1.00  0.00     0.032 C 
ATOM     17  C   UNL     1     103.768  44.728 137.467  1.00  0.00     0.006 C 
ATOM     18  C   UNL     1     103.226  43.122 135.608  1.00  0.00     0.008 C 
ATOM     19  C   UNL     1     102.046  42.830 137.849  1.00  0.00     0.012 C 
ATOM     20  C   UNL     1     102.626  45.809 137.118  1.00  0.00    -0.025 C 
ATOM     21  C   UNL     1     102.661  44.389 134.862  1.00  0.00     0.005 C 
ATOM     22  C   UNL     1     101.913  45.461 135.733  1.00  0.00     0.003 C 
ATOM     23  C   UNL     1     103.244  47.256 137.181  1.00  0.00     0.010 C 
ATOM     24  C   UNL     1     101.521  45.806 138.238  1.00  0.00     0.012 C 
ATOM     25  C   UNL     1     101.318  46.693 134.890  1.00  0.00    -0.006 C 
ATOM     26  C   UNL     1     102.380  48.337 136.528  1.00  0.00     0.033 C 
ATOM     27  C   UNL     1     102.157  47.999 135.057  1.00  0.00     0.120 C 
ATOM     28  C   UNL     1     101.239  46.407 133.358  1.00  0.00     0.014 C 
ATOM     29  C   UNL     1      99.853  46.957 135.343  1.00  0.00     0.014 C 
ENDROOT
BRANCH   1  30
ATOM     30  C   UNL     1     107.065  39.191 137.684  1.00  0.00     0.048 C 
ATOM     31  O   UNL     1     106.984  39.507 138.920  1.00  0.00    -0.550 OA
ATOM     32  O   UNL     1     107.030  39.402 139.057  1.00  0.00    -0.550 OA
ENDBRANCH   1  30
BRANCH  27  33
ATOM     33  O   UNL     1     103.396  47.861 134.408  1.00  0.00    -0.393 OA
ATOM     34  H   UNL     1     103.478  48.623 133.779  1.00  0.00     0.210 HD
ENDBRANCH  27  33
TORSDOF 2
ENDMDL
MODEL 3
REMARK VINA RESULT:    -7.092      1.733      7.904
REMARK INTER + INTRA:          -7.617
REMARK INTER:                  -7.540
REMARK INTRA:                  -0.076
REMARK UNBOUND:                 0.098
REMARK SMILES C[C@H]1[C@H](C)CC[C@]2(C(=O)[O-])CC[C@@]3(C)C(=CC[C@H]4[C@@]5(C)CC[C@@H](O)C(C)(C)[C@H]5CC[C@]43C)[C@H]12
REMARK SMILES IDX 7 1 6 2 11 3 33 4 5 5 12 6 15 7 2 8 3 9 13 10 16 11 1 12
REMARK SMILES IDX 4 13 14 14 31 15 17 16 18 17 30 18 32 19 19 20 29 21 28 22
REMARK SMILES IDX 21 23 20 24 25 25 22 26 23 27 26 28 27 29 8 30 9 31 10 32
REMARK SMILES IDX 24 33
REMARK H PARENT 24 34
REMARK Flexibility Score: inf
ROOT
ATOM      1  C   UNL     1     101.274  45.086 136.760  1.00  0.00     0.017 C 
ATOM      2  C   UNL     1     101.478  46.601 137.122  1.00  0.00     0.014 C 
ATOM      3  C   UNL     1     101.821  44.293 137.977  1.00  0.00     0.014 C 
ATOM      4  C   UNL     1     101.994  44.629 135.416  1.00  0.00     0.030 C 
ATOM      5  C   UNL     1     101.320  47.524 135.931  1.00  0.00     0.004 C 
ATOM      6  C   UNL     1     101.950  42.799 137.726  1.00  0.00     0.013 C 
ATOM      7  C   UNL     1     103.176  43.667 135.661  1.00  0.00    -0.063 C 
ATOM      8  C   UNL     1     102.109  45.756 134.292  1.00  0.00    -0.003 C 
ATOM      9  C   UNL     1     102.341  47.193 134.822  1.00  0.00    -0.011 C 
ATOM     10  C   UNL     1     102.883  42.418 136.510  1.00  0.00    -0.006 C 
ATOM     11  C   UNL     1     104.354  43.801 135.049  1.00  0.00    -0.027 C 
ATOM     12  C   UNL     1     100.880  45.731 133.347  1.00  0.00     0.008 C 
ATOM     13  C   UNL     1     103.783  47.433 135.300  1.00  0.00     0.008 C 
ATOM     14  C   UNL     1     102.072  41.459 135.578  1.00  0.00     0.017 C 
ATOM     15  C   UNL     1     104.240  41.695 136.992  1.00  0.00    -0.020 C 
ATOM     16  C   UNL     1     105.428  42.733 135.006  1.00  0.00     0.032 C 
ATOM     17  C   UNL     1     105.145  41.386 135.755  1.00  0.00     0.006 C 
ATOM     18  C   UNL     1     105.050  42.651 137.927  1.00  0.00     0.008 C 
ATOM     19  C   UNL     1     103.897  40.380 137.792  1.00  0.00     0.012 C 
ATOM     20  C   UNL     1     106.496  40.570 136.073  1.00  0.00    -0.025 C 
ATOM     21  C   UNL     1     106.613  42.461 137.948  1.00  0.00     0.005 C 
ATOM     22  C   UNL     1     107.178  41.096 137.417  1.00  0.00     0.003 C 
ATOM     23  C   UNL     1     107.437  40.613 134.811  1.00  0.00     0.010 C 
ATOM     24  C   UNL     1     106.172  39.043 136.267  1.00  0.00     0.012 C 
ATOM     25  C   UNL     1     108.776  40.960 137.524  1.00  0.00    -0.006 C 
ATOM     26  C   UNL     1     108.883  40.198 135.090  1.00  0.00     0.033 C 
ATOM     27  C   UNL     1     109.489  41.120 136.145  1.00  0.00     0.120 C 
ATOM     28  C   UNL     1     109.418  42.011 138.482  1.00  0.00     0.014 C 
ATOM     29  C   UNL     1     109.127  39.570 138.131  1.00  0.00     0.014 C 
ENDROOT
BRANCH   1  30
ATOM     30  C   UNL     1      99.770  44.850 136.590  1.00  0.00     0.048 C 
ATOM     31  O   UNL     1      99.359  43.875 135.873  1.00  0.00    -0.550 OA
ATOM     32  O   UNL     1      99.188  43.839 135.835  1.00  0.00    -0.550 OA
ENDBRANCH   1  30
BRANCH  27  33
ATOM     33  O   UNL     1     109.407  42.455 135.712  1.00  0.00    -0.393 OA
ATOM     34  H   UNL     1     108.862  42.456 134.884  1.00  0.00     0.210 HD
ENDBRANCH  27  33
TORSDOF 2
ENDMDL
MODEL 4
REMARK VINA RESULT:    -7.035      3.374      7.644
REMARK INTER + INTRA:          -7.554
REMARK INTER:                  -7.650
REMARK INTRA:                   0.095
REMARK UNBOUND:                 0.098
REMARK SMILES C[C@H]1[C@H](C)CC[C@]2(C(=O)[O-])CC[C@@]3(C)C(=CC[C@H]4[C@@]5(C)CC[C@@H](O)C(C)(C)[C@H]5CC[C@]43C)[C@H]12
REMARK SMILES IDX 7 1 6 2 11 3 33 4 5 5 12 6 15 7 2 8 3 9 13 10 16 11 1 12
REMARK SMILES IDX 4 13 14 14 31 15 17 16 18 17 30 18 32 19 19 20 29 21 28 22
REMARK SMILES IDX 21 23 20 24 25 25 22 26 23 27 26 28 27 29 8 30 9 31 10 32
REMARK SMILES IDX 24 33
REMARK H PARENT 24 34
REMARK Flexibility Score: inf
ROOT
ATOM      1  C   UNL     1     106.725  48.896 139.512  1.00  0.00     0.017 C 
ATOM      2  C   UNL     1     106.190  49.970 138.498  1.00  0.00     0.014 C 
ATOM      3  C   UNL     1     108.038  48.355 138.886  1.00  0.00     0.014 C 
ATOM      4  C   UNL     1     105.707  47.709 139.809  1.00  0.00     0.030 C 
ATOM      5  C   UNL     1     104.752  50.370 138.757  1.00  0.00     0.004 C 
ATOM      6  C   UNL     1     108.588  47.122 139.587  1.00  0.00     0.013 C 
ATOM      7  C   UNL     1     106.177  46.353 139.238  1.00  0.00    -0.063 C 
ATOM      8  C   UNL     1     104.163  48.106 139.739  1.00  0.00    -0.003 C 
ATOM      9  C   UNL     1     103.802  49.157 138.659  1.00  0.00    -0.011 C 
ATOM     10  C   UNL     1     107.593  45.896 139.628  1.00  0.00    -0.006 C 
ATOM     11  C   UNL     1     105.364  45.529 138.575  1.00  0.00    -0.027 C 
ATOM     12  C   UNL     1     103.640  48.566 141.124  1.00  0.00     0.008 C 
ATOM     13  C   UNL     1     103.783  48.576 137.235  1.00  0.00     0.008 C 
ATOM     14  C   UNL     1     107.487  45.427 141.116  1.00  0.00     0.017 C 
ATOM     15  C   UNL     1     108.099  44.676 138.705  1.00  0.00    -0.020 C 
ATOM     16  C   UNL     1     105.673  44.078 138.271  1.00  0.00     0.032 C 
ATOM     17  C   UNL     1     107.055  43.513 138.745  1.00  0.00     0.006 C 
ATOM     18  C   UNL     1     108.210  45.144 137.218  1.00  0.00     0.008 C 
ATOM     19  C   UNL     1     109.518  44.186 139.186  1.00  0.00     0.012 C 
ATOM     20  C   UNL     1     107.475  42.179 137.945  1.00  0.00    -0.025 C 
ATOM     21  C   UNL     1     108.013  44.039 136.113  1.00  0.00     0.005 C 
ATOM     22  C   UNL     1     108.175  42.542 136.557  1.00  0.00     0.003 C 
ATOM     23  C   UNL     1     106.219  41.239 137.809  1.00  0.00     0.010 C 
ATOM     24  C   UNL     1     108.500  41.341 138.794  1.00  0.00     0.012 C 
ATOM     25  C   UNL     1     108.015  41.480 135.362  1.00  0.00    -0.006 C 
ATOM     26  C   UNL     1     106.378  40.124 136.774  1.00  0.00     0.033 C 
ATOM     27  C   UNL     1     106.646  40.730 135.399  1.00  0.00     0.120 C 
ATOM     28  C   UNL     1     108.129  42.128 133.947  1.00  0.00     0.014 C 
ATOM     29  C   UNL     1     109.175  40.445 135.443  1.00  0.00     0.014 C 
ENDROOT
BRANCH   1  30
ATOM     30  C   UNL     1     107.009  49.612 140.836  1.00  0.00     0.048 C 
ATOM     31  O   UNL     1     107.924  50.502 140.890  1.00  0.00    -0.550 OA
ATOM     32  O   UNL     1     107.976  50.588 141.038  1.00  0.00    -0.550 OA
ENDBRANCH   1  30
BRANCH  27  33
ATOM     33  O   UNL     1     105.605  41.611 135.058  1.00  0.00    -0.393 OA
ATOM     34  H   UNL     1     105.548  41.619 134.069  1.00  0.00     0.210 HD
ENDBRANCH  27  33
TORSDOF 2
ENDMDL
MODEL 5
REMARK VINA RESULT:    -6.938      2.835      8.914
REMARK INTER + INTRA:          -7.449
REMARK INTER:                  -7.377
REMARK INTRA:                  -0.073
REMARK UNBOUND:                 0.098
REMARK SMILES C[C@H]1[C@H](C)CC[C@]2(C(=O)[O-])CC[C@@]3(C)C(=CC[C@H]4[C@@]5(C)CC[C@@H](O)C(C)(C)[C@H]5CC[C@]43C)[C@H]12
REMARK SMILES IDX 7 1 6 2 11 3 33 4 5 5 12 6 15 7 2 8 3 9 13 10 16 11 1 12
REMARK SMILES IDX 4 13 14 14 31 15 17 16 18 17 30 18 32 19 19 20 29 21 28 22
REMARK SMILES IDX 21 23 20 24 25 25 22 26 23 27 26 28 27 29 8 30 9 31 10 32
REMARK SMILES IDX 24 33
REMARK H PARENT 24 34
REMARK Flexibility Score: inf
ROOT
ATOM      1  C   UNL     1     100.476  49.976 133.938  1.00  0.00     0.017 C 
ATOM      2  C   UNL     1     101.143  50.817 132.791  1.00  0.00     0.014 C 
ATOM      3  C   UNL     1     101.481  50.018 135.119  1.00  0.00     0.014 C 
ATOM      4  C   UNL     1     100.135  48.474 133.538  1.00  0.00     0.030 C 
ATOM      5  C   UNL     1     100.480  50.618 131.444  1.00  0.00     0.004 C 
ATOM      6  C   UNL     1     101.143  49.055 136.246  1.00  0.00     0.013 C 
ATOM      7  C   UNL     1     101.014  47.438 134.273  1.00  0.00    -0.063 C 
ATOM      8  C   UNL     1      99.763  48.250 132.002  1.00  0.00    -0.003 C 
ATOM      9  C   UNL     1     100.538  49.141 131.000  1.00  0.00    -0.011 C 
ATOM     10  C   UNL     1     101.059  47.540 135.807  1.00  0.00    -0.006 C 
ATOM     11  C   UNL     1     101.583  46.404 133.652  1.00  0.00    -0.027 C 
ATOM     12  C   UNL     1      98.236  48.393 131.770  1.00  0.00     0.008 C 
ATOM     13  C   UNL     1     101.989  48.679 130.781  1.00  0.00     0.008 C 
ATOM     14  C   UNL     1      99.685  46.982 136.304  1.00  0.00     0.017 C 
ATOM     15  C   UNL     1     102.262  46.663 136.425  1.00  0.00    -0.020 C 
ATOM     16  C   UNL     1     102.183  45.203 134.353  1.00  0.00     0.032 C 
ATOM     17  C   UNL     1     102.157  45.188 135.920  1.00  0.00     0.006 C 
ATOM     18  C   UNL     1     103.636  47.222 135.933  1.00  0.00     0.008 C 
ATOM     19  C   UNL     1     102.226  46.731 138.000  1.00  0.00     0.012 C 
ATOM     20  C   UNL     1     103.239  44.166 136.536  1.00  0.00    -0.025 C 
ATOM     21  C   UNL     1     104.823  46.191 135.832  1.00  0.00     0.005 C 
ATOM     22  C   UNL     1     104.678  44.849 136.634  1.00  0.00     0.003 C 
ATOM     23  C   UNL     1     103.214  42.824 135.712  1.00  0.00     0.010 C 
ATOM     24  C   UNL     1     102.811  43.740 137.990  1.00  0.00     0.012 C 
ATOM     25  C   UNL     1     105.953  43.878 136.526  1.00  0.00    -0.006 C 
ATOM     26  C   UNL     1     104.422  41.918 135.953  1.00  0.00     0.033 C 
ATOM     27  C   UNL     1     105.705  42.658 135.583  1.00  0.00     0.120 C 
ATOM     28  C   UNL     1     107.230  44.599 135.992  1.00  0.00     0.014 C 
ATOM     29  C   UNL     1     106.325  43.366 137.948  1.00  0.00     0.014 C 
ENDROOT
BRANCH   1  30
ATOM     30  C   UNL     1      99.164  50.669 134.316  1.00  0.00     0.048 C 
ATOM     31  O   UNL     1      98.222  49.993 134.852  1.00  0.00    -0.550 OA
ATOM     32  O   UNL     1      98.059  50.056 134.894  1.00  0.00    -0.550 OA
ENDBRANCH   1  30
BRANCH  27  33
ATOM     33  O   UNL     1     105.636  43.088 134.247  1.00  0.00    -0.393 OA
ATOM     34  H   UNL     1     106.567  43.127 133.909  1.00  0.00     0.210 HD
ENDBRANCH  27  33
TORSDOF 2
ENDMDL
MODEL 6
REMARK VINA RESULT:    -6.766      2.402      8.149
REMARK INTER + INTRA:          -7.262
REMARK INTER:                  -7.182
REMARK INTRA:                  -0.080
REMARK UNBOUND:                 0.098
REMARK SMILES C[C@H]1[C@H](C)CC[C@]2(C(=O)[O-])CC[C@@]3(C)C(=CC[C@H]4[C@@]5(C)CC[C@@H](O)C(C)(C)[C@H]5CC[C@]43C)[C@H]12
REMARK SMILES IDX 7 1 6 2 11 3 33 4 5 5 12 6 15 7 2 8 3 9 13 10 16 11 1 12
REMARK SMILES IDX 4 13 14 14 31 15 17 16 18 17 30 18 32 19 19 20 29 21 28 22
REMARK SMILES IDX 21 23 20 24 25 25 22 26 23 27 26 28 27 29 8 30 9 31 10 32
REMARK SMILES IDX 24 33
REMARK H PARENT 24 34
REMARK Flexibility Score: inf
ROOT
ATOM      1  C   UNL     1     101.600  48.964 135.257  1.00  0.00     0.017 C 
ATOM      2  C   UNL     1     101.952  49.800 133.974  1.00  0.00     0.014 C 
ATOM      3  C   UNL     1     102.914  48.896 136.079  1.00  0.00     0.014 C 
ATOM      4  C   UNL     1     101.044  47.503 134.957  1.00  0.00     0.030 C 
ATOM      5  C   UNL     1     100.901  49.694 132.888  1.00  0.00     0.004 C 
ATOM      6  C   UNL     1     102.861  47.917 137.241  1.00  0.00     0.013 C 
ATOM      7  C   UNL     1     102.024  46.385 135.377  1.00  0.00    -0.063 C 
ATOM      8  C   UNL     1     100.211  47.360 133.603  1.00  0.00    -0.003 C 
ATOM      9  C   UNL     1     100.713  48.233 132.426  1.00  0.00    -0.011 C 
ATOM     10  C   UNL     1     102.536  46.428 136.826  1.00  0.00    -0.006 C 
ATOM     11  C   UNL     1     102.301  45.338 134.597  1.00  0.00    -0.027 C 
ATOM     12  C   UNL     1      98.701  47.613 133.846  1.00  0.00     0.008 C 
ATOM     13  C   UNL     1     101.992  47.684 131.771  1.00  0.00     0.008 C 
ATOM     14  C   UNL     1     101.338  45.945 137.708  1.00  0.00     0.017 C 
ATOM     15  C   UNL     1     103.800  45.451 137.039  1.00  0.00    -0.020 C 
ATOM     16  C   UNL     1     102.993  44.076 135.067  1.00  0.00     0.032 C 
ATOM     17  C   UNL     1     103.438  44.005 136.567  1.00  0.00     0.006 C 
ATOM     18  C   UNL     1     105.000  45.935 136.162  1.00  0.00     0.008 C 
ATOM     19  C   UNL     1     104.245  45.464 138.551  1.00  0.00     0.012 C 
ATOM     20  C   UNL     1     104.576  42.893 136.813  1.00  0.00    -0.025 C 
ATOM     21  C   UNL     1     106.021  44.832 135.692  1.00  0.00     0.005 C 
ATOM     22  C   UNL     1     106.025  43.474 136.480  1.00  0.00     0.003 C 
ATOM     23  C   UNL     1     104.205  41.586 136.016  1.00  0.00     0.010 C 
ATOM     24  C   UNL     1     104.575  42.444 138.321  1.00  0.00     0.012 C 
ATOM     25  C   UNL     1     107.133  42.425 135.977  1.00  0.00    -0.006 C 
ATOM     26  C   UNL     1     105.359  40.593 135.866  1.00  0.00     0.033 C 
ATOM     27  C   UNL     1     106.522  41.259 135.136  1.00  0.00     0.120 C 
ATOM     28  C   UNL     1     108.240  43.078 135.092  1.00  0.00     0.014 C 
ATOM     29  C   UNL     1     107.876  41.839 137.213  1.00  0.00     0.014 C 
ENDROOT
BRANCH   1  30
ATOM     30  C   UNL     1     100.518  49.729 136.024  1.00  0.00     0.048 C 
ATOM     31  O   UNL     1      99.735  49.098 136.814  1.00  0.00    -0.550 OA
ATOM     32  O   UNL     1      99.598  49.170 136.903  1.00  0.00    -0.550 OA
ENDBRANCH   1  30
BRANCH  27  33
ATOM     33  O   UNL     1     106.087  41.741 133.890  1.00  0.00    -0.393 OA
ATOM     34  H   UNL     1     106.870  41.720 133.284  1.00  0.00     0.210 HD
ENDBRANCH  27  33
TORSDOF 2
ENDMDL
MODEL 7
REMARK VINA RESULT:    -6.737      2.897      9.153
REMARK INTER + INTRA:          -7.230
REMARK INTER:                  -7.153
REMARK INTRA:                  -0.077
REMARK UNBOUND:                 0.098
REMARK SMILES C[C@H]1[C@H](C)CC[C@]2(C(=O)[O-])CC[C@@]3(C)C(=CC[C@H]4[C@@]5(C)CC[C@@H](O)C(C)(C)[C@H]5CC[C@]43C)[C@H]12
REMARK SMILES IDX 7 1 6 2 11 3 33 4 5 5 12 6 15 7 2 8 3 9 13 10 16 11 1 12
REMARK SMILES IDX 4 13 14 14 31 15 17 16 18 17 30 18 32 19 19 20 29 21 28 22
REMARK SMILES IDX 21 23 20 24 25 25 22 26 23 27 26 28 27 29 8 30 9 31 10 32
REMARK SMILES IDX 24 33
REMARK H PARENT 24 34
REMARK Flexibility Score: inf
ROOT
ATOM      1  C   UNL     1      98.982  48.921 133.562  1.00  0.00     0.017 C 
ATOM      2  C   UNL     1      99.012  50.377 134.152  1.00  0.00     0.014 C 
ATOM      3  C   UNL     1      98.582  48.003 134.748  1.00  0.00     0.014 C 
ATOM      4  C   UNL     1     100.357  48.445 132.916  1.00  0.00     0.030 C 
ATOM      5  C   UNL     1      99.705  51.372 133.244  1.00  0.00     0.004 C 
ATOM      6  C   UNL     1      98.740  46.519 134.455  1.00  0.00     0.013 C 
ATOM      7  C   UNL     1     101.051  47.329 133.727  1.00  0.00    -0.063 C 
ATOM      8  C   UNL     1     101.232  49.605 132.255  1.00  0.00    -0.003 C 
ATOM      9  C   UNL     1     101.172  50.971 132.982  1.00  0.00    -0.011 C 
ATOM     10  C   UNL     1     100.204  46.086 134.050  1.00  0.00    -0.006 C 
ATOM     11  C   UNL     1     102.356  47.342 134.003  1.00  0.00    -0.027 C 
ATOM     12  C   UNL     1     100.879  49.786 130.755  1.00  0.00     0.008 C 
ATOM     13  C   UNL     1     101.999  51.000 134.279  1.00  0.00     0.008 C 
ATOM     14  C   UNL     1     100.103  45.287 132.709  1.00  0.00     0.017 C 
ATOM     15  C   UNL     1     100.899  45.171 135.180  1.00  0.00    -0.020 C 
ATOM     16  C   UNL     1     103.140  46.150 134.509  1.00  0.00     0.032 C 
ATOM     17  C   UNL     1     102.358  44.813 134.750  1.00  0.00     0.006 C 
ATOM     18  C   UNL     1     100.996  45.966 136.523  1.00  0.00     0.008 C 
ATOM     19  C   UNL     1     100.041  43.872 135.426  1.00  0.00     0.012 C 
ATOM     20  C   UNL     1     103.146  43.816 135.739  1.00  0.00    -0.025 C 
ATOM     21  C   UNL     1     102.178  45.578 137.489  1.00  0.00     0.005 C 
ATOM     22  C   UNL     1     102.858  44.181 137.266  1.00  0.00     0.003 C 
ATOM     23  C   UNL     1     104.674  43.803 135.354  1.00  0.00     0.010 C 
ATOM     24  C   UNL     1     102.671  42.335 135.503  1.00  0.00     0.012 C 
ATOM     25  C   UNL     1     104.014  43.836 138.328  1.00  0.00    -0.006 C 
ATOM     26  C   UNL     1     105.585  43.193 136.421  1.00  0.00     0.033 C 
ATOM     27  C   UNL     1     105.448  43.975 137.725  1.00  0.00     0.120 C 
ATOM     28  C   UNL     1     103.975  44.746 139.595  1.00  0.00     0.014 C 
ATOM     29  C   UNL     1     103.809  42.383 138.848  1.00  0.00     0.014 C 
ENDROOT
BRANCH   1  30
ATOM     30  C   UNL     1      97.914  48.889 132.466  1.00  0.00     0.048 C 
ATOM     31  O   UNL     1      97.986  48.014 131.537  1.00  0.00    -0.550 OA
ATOM     32  O   UNL     1      97.875  48.002 131.397  1.00  0.00    -0.550 OA
ENDBRANCH   1  30
BRANCH  27  33
ATOM     33  O   UNL     1     105.747  45.329 137.499  1.00  0.00    -0.393 OA
ATOM     34  H   UNL     1     106.724  45.434 137.628  1.00  0.00     0.210 HD
ENDBRANCH  27  33
TORSDOF 2
ENDMDL
MODEL 8
REMARK VINA RESULT:    -6.626      2.513      7.649
REMARK INTER + INTRA:          -7.110
REMARK INTER:                  -7.091
REMARK INTRA:                  -0.018
REMARK UNBOUND:                 0.098
REMARK SMILES C[C@H]1[C@H](C)CC[C@]2(C(=O)[O-])CC[C@@]3(C)C(=CC[C@H]4[C@@]5(C)CC[C@@H](O)C(C)(C)[C@H]5CC[C@]43C)[C@H]12
REMARK SMILES IDX 7 1 6 2 11 3 33 4 5 5 12 6 15 7 2 8 3 9 13 10 16 11 1 12
REMARK SMILES IDX 4 13 14 14 31 15 17 16 18 17 30 18 32 19 19 20 29 21 28 22
REMARK SMILES IDX 21 23 20 24 25 25 22 26 23 27 26 28 27 29 8 30 9 31 10 32
REMARK SMILES IDX 24 33
REMARK H PARENT 24 34
REMARK Flexibility Score: inf
ROOT
ATOM      1  C   UNL     1     103.633  47.715 139.316  1.00  0.00     0.017 C 
ATOM      2  C   UNL     1     103.858  47.975 140.849  1.00  0.00     0.014 C 
ATOM      3  C   UNL     1     103.047  46.281 139.224  1.00  0.00     0.014 C 
ATOM      4  C   UNL     1     104.946  47.849 138.427  1.00  0.00     0.030 C 
ATOM      5  C   UNL     1     104.733  49.181 141.125  1.00  0.00     0.004 C 
ATOM      6  C   UNL     1     102.990  45.733 137.806  1.00  0.00     0.013 C 
ATOM      7  C   UNL     1     105.426  46.499 137.850  1.00  0.00    -0.063 C 
ATOM      8  C   UNL     1     106.015  48.911 138.952  1.00  0.00    -0.003 C 
ATOM      9  C   UNL     1     106.132  49.019 140.493  1.00  0.00    -0.011 C 
ATOM     10  C   UNL     1     104.387  45.675 137.071  1.00  0.00    -0.006 C 
ATOM     11  C   UNL     1     106.705  46.119 137.872  1.00  0.00    -0.027 C 
ATOM     12  C   UNL     1     105.759  50.313 138.340  1.00  0.00     0.008 C 
ATOM     13  C   UNL     1     106.897  47.843 141.123  1.00  0.00     0.008 C 
ATOM     14  C   UNL     1     104.224  46.401 135.695  1.00  0.00     0.017 C 
ATOM     15  C   UNL     1     104.885  44.161 136.835  1.00  0.00    -0.020 C 
ATOM     16  C   UNL     1     107.276  44.975 137.060  1.00  0.00     0.032 C 
ATOM     17  C   UNL     1     106.290  44.165 136.151  1.00  0.00     0.006 C 
ATOM     18  C   UNL     1     105.044  43.433 138.209  1.00  0.00     0.008 C 
ATOM     19  C   UNL     1     103.829  43.374 135.968  1.00  0.00     0.012 C 
ATOM     20  C   UNL     1     106.873  42.715 135.761  1.00  0.00    -0.025 C 
ATOM     21  C   UNL     1     106.109  42.274 138.276  1.00  0.00     0.005 C 
ATOM     22  C   UNL     1     106.578  41.652 136.913  1.00  0.00     0.003 C 
ATOM     23  C   UNL     1     108.396  42.854 135.383  1.00  0.00     0.010 C 
ATOM     24  C   UNL     1     106.189  42.195 134.442  1.00  0.00     0.012 C 
ATOM     25  C   UNL     1     107.621  40.439 137.069  1.00  0.00    -0.006 C 
ATOM     26  C   UNL     1     109.157  41.527 135.345  1.00  0.00     0.033 C 
ATOM     27  C   UNL     1     109.084  40.852 136.712  1.00  0.00     0.120 C 
ATOM     28  C   UNL     1     107.666  39.851 138.514  1.00  0.00     0.014 C 
ATOM     29  C   UNL     1     107.175  39.264 136.152  1.00  0.00     0.014 C 
ENDROOT
BRANCH   1  30
ATOM     30  C   UNL     1     102.620  48.749 138.816  1.00  0.00     0.048 C 
ATOM     31  O   UNL     1     102.697  49.181 137.616  1.00  0.00    -0.550 OA
ATOM     32  O   UNL     1     102.593  49.308 137.545  1.00  0.00    -0.550 OA
ENDBRANCH   1  30
BRANCH  27  33
ATOM     33  O   UNL     1     109.595  41.716 137.695  1.00  0.00    -0.393 OA
ATOM     34  H   UNL     1     110.554  41.855 137.486  1.00  0.00     0.210 HD
ENDBRANCH  27  33
TORSDOF 2
ENDMDL
MODEL 9
REMARK VINA RESULT:    -6.500      2.339      4.469
REMARK INTER + INTRA:          -6.972
REMARK INTER:                  -7.069
REMARK INTRA:                   0.096
REMARK UNBOUND:                 0.098
REMARK SMILES C[C@H]1[C@H](C)CC[C@]2(C(=O)[O-])CC[C@@]3(C)C(=CC[C@H]4[C@@]5(C)CC[C@@H](O)C(C)(C)[C@H]5CC[C@]43C)[C@H]12
REMARK SMILES IDX 7 1 6 2 11 3 33 4 5 5 12 6 15 7 2 8 3 9 13 10 16 11 1 12
REMARK SMILES IDX 4 13 14 14 31 15 17 16 18 17 30 18 32 19 19 20 29 21 28 22
REMARK SMILES IDX 21 23 20 24 25 25 22 26 23 27 26 28 27 29 8 30 9 31 10 32
REMARK SMILES IDX 24 33
REMARK H PARENT 24 34
REMARK Flexibility Score: inf
ROOT
ATOM      1  C   UNL     1     106.241  42.954 136.296  1.00  0.00     0.017 C 
ATOM      2  C   UNL     1     107.681  43.271 135.752  1.00  0.00     0.014 C 
ATOM      3  C   UNL     1     105.289  43.165 135.088  1.00  0.00     0.014 C 
ATOM      4  C   UNL     1     105.794  43.850 137.532  1.00  0.00     0.030 C 
ATOM      5  C   UNL     1     108.706  43.451 136.853  1.00  0.00     0.004 C 
ATOM      6  C   UNL     1     103.815  43.155 135.462  1.00  0.00     0.013 C 
ATOM      7  C   UNL     1     104.662  44.841 137.184  1.00  0.00    -0.063 C 
ATOM      8  C   UNL     1     106.978  44.309 138.500  1.00  0.00    -0.003 C 
ATOM      9  C   UNL     1     108.324  44.612 137.795  1.00  0.00    -0.011 C 
ATOM     10  C   UNL     1     103.405  44.245 136.529  1.00  0.00    -0.006 C 
ATOM     11  C   UNL     1     104.679  46.119 137.564  1.00  0.00    -0.027 C 
ATOM     12  C   UNL     1     107.196  43.283 139.642  1.00  0.00     0.008 C 
ATOM     13  C   UNL     1     108.325  45.958 137.052  1.00  0.00     0.008 C 
ATOM     14  C   UNL     1     102.641  43.511 137.680  1.00  0.00     0.017 C 
ATOM     15  C   UNL     1     102.466  45.390 135.894  1.00  0.00    -0.020 C 
ATOM     16  C   UNL     1     103.480  47.044 137.528  1.00  0.00     0.032 C 
ATOM     17  C   UNL     1     102.131  46.464 136.979  1.00  0.00     0.006 C 
ATOM     18  C   UNL     1     103.225  46.122 134.740  1.00  0.00     0.008 C 
ATOM     19  C   UNL     1     101.153  44.747 135.303  1.00  0.00     0.012 C 
ATOM     20  C   UNL     1     101.115  47.624 136.515  1.00  0.00    -0.025 C 
ATOM     21  C   UNL     1     102.821  47.620 134.467  1.00  0.00     0.005 C 
ATOM     22  C   UNL     1     101.436  48.103 135.027  1.00  0.00     0.003 C 
ATOM     23  C   UNL     1     101.125  48.781 137.583  1.00  0.00     0.010 C 
ATOM     24  C   UNL     1      99.636  47.086 136.536  1.00  0.00     0.012 C 
ATOM     25  C   UNL     1     101.072  49.624 134.657  1.00  0.00    -0.006 C 
ATOM     26  C   UNL     1     100.494  50.088 137.100  1.00  0.00     0.033 C 
ATOM     27  C   UNL     1     101.239  50.596 135.868  1.00  0.00     0.120 C 
ATOM     28  C   UNL     1     101.948  50.201 133.501  1.00  0.00     0.014 C 
ATOM     29  C   UNL     1      99.605  49.685 134.142  1.00  0.00     0.014 C 
ENDROOT
BRANCH   1  30
ATOM     30  C   UNL     1     106.229  41.491 136.748  1.00  0.00     0.048 C 
ATOM     31  O   UNL     1     106.500  40.567 135.907  1.00  0.00    -0.550 OA
ATOM     32  O   UNL     1     106.493  40.391 135.941  1.00  0.00    -0.550 OA
ENDBRANCH   1  30
BRANCH  27  33
ATOM     33  O   UNL     1     102.601  50.758 136.172  1.00  0.00    -0.393 OA
ATOM     34  H   UNL     1     103.012  49.856 136.143  1.00  0.00     0.210 HD
ENDBRANCH  27  33
TORSDOF 2
ENDMDL
