MODEL 1
REMARK VINA RESULT:    -3.631      0.000      0.000
REMARK INTER + INTRA:          -4.754
REMARK INTER:                  -5.117
REMARK INTRA:                   0.363
REMARK UNBOUND:                 0.363
REMARK SMILES CC1=CCC(=C(C)C)C(=O)CC(C)=CCC1
REMARK SMILES IDX 12 1 14 2 13 3 15 4 16 5 2 6 1 7 3 8 11 10 9 11 10 12 5 13
REMARK SMILES IDX 6 14 7 15 8 16 4 17
REMARK H PARENT
REMARK Flexibility Score: 60.00
ROOT
ATOM      1  C   UNL     1      -9.161  -4.780  20.144  1.00  0.00    -0.070 C 
ATOM      2  C   UNL     1      -7.904  -5.282  20.135  1.00  0.00    -0.027 C 
ATOM      3  C   UNL     1      -9.377  -3.459  20.842  1.00  0.00     0.039 C 
ENDROOT
BRANCH   2   4
ATOM      4  C   UNL     1      -7.443  -6.524  19.411  1.00  0.00     0.032 C 
BRANCH   4   5
ATOM      5  C   UNL     1      -7.176  -6.274  17.914  1.00  0.00     0.034 C 
BRANCH   5   6
ATOM      6  C   UNL     1      -7.746  -7.374  17.040  1.00  0.00    -0.077 C 
ATOM      7  C   UNL     1      -7.114  -8.742  17.110  1.00  0.00     0.039 C 
ATOM      8  C   UNL     1      -8.775  -7.194  16.182  1.00  0.00    -0.023 CG0
ATOM      9  G   UNL     1      -9.510  -5.896  15.947  1.00  0.00     0.000 G0
ENDBRANCH   5   6
ENDBRANCH   4   5
ENDBRANCH   2   4
BRANCH   1  10
ATOM     10  C   UNL     1     -10.338  -5.435  19.441  1.00  0.00     0.111 C 
BRANCH  10  11
ATOM     11  C   UNL     1     -10.533  -4.879  18.052  1.00  0.00     0.163 C 
ATOM     12  O   UNL     1     -10.600  -3.628  17.917  1.00  0.00    -0.294 OA
BRANCH  11  13
ATOM     13  C   UNL     1     -10.698  -5.768  16.859  1.00  0.00    -0.002 C 
ATOM     14  C   UNL     1     -11.885  -6.387  16.582  1.00  0.00    -0.069 C 
ATOM     15  C   UNL     1     -12.033  -7.314  15.396  1.00  0.00     0.039 C 
ATOM     16  C   UNL     1     -13.119  -6.151  17.427  1.00  0.00     0.039 C 
BRANCH  13  17
ATOM     17  C   UNL     1      -9.510  -5.893  15.923  1.00  0.00     0.066 CG0
ATOM     18  G   UNL     1      -8.782  -7.189  16.188  1.00  0.00     0.000 G0
ENDBRANCH  13  17
ENDBRANCH  11  13
ENDBRANCH  10  11
ENDBRANCH   1  10
TORSDOF 0
ENDMDL
MODEL 2
REMARK VINA RESULT:    -3.573      1.600      3.811
REMARK INTER + INTRA:          -4.672
REMARK INTER:                  -5.023
REMARK INTRA:                   0.351
REMARK UNBOUND:                 0.363
REMARK SMILES CC1=CCC(=C(C)C)C(=O)CC(C)=CCC1
REMARK SMILES IDX 12 1 14 2 13 3 15 4 16 5 2 6 1 7 3 8 11 10 9 11 10 12 5 13
REMARK SMILES IDX 6 14 7 15 8 16 4 17
REMARK H PARENT
REMARK Flexibility Score: 60.00
ROOT
ATOM      1  C   UNL     1      -9.759  -4.425  18.424  1.00  0.00    -0.070 C 
ATOM      2  C   UNL     1     -10.831  -4.106  17.661  1.00  0.00    -0.027 C 
ATOM      3  C   UNL     1      -9.029  -3.293  19.106  1.00  0.00     0.039 C 
ENDROOT
BRANCH   2   4
ATOM      4  C   UNL     1     -11.763  -5.078  16.979  1.00  0.00     0.032 C 
BRANCH   4   5
ATOM      5  C   UNL     1     -11.228  -5.555  15.615  1.00  0.00     0.034 C 
BRANCH   5   6
ATOM      6  C   UNL     1     -11.139  -7.066  15.533  1.00  0.00    -0.077 C 
ATOM      7  C   UNL     1     -12.423  -7.856  15.485  1.00  0.00     0.039 C 
ATOM      8  C   UNL     1      -9.974  -7.751  15.524  1.00  0.00    -0.023 CG0
ATOM      9  G   UNL     1      -8.593  -7.143  15.600  1.00  0.00     0.000 G0
ENDBRANCH   5   6
ENDBRANCH   4   5
ENDBRANCH   2   4
BRANCH   1  10
ATOM     10  C   UNL     1      -9.300  -5.851  18.681  1.00  0.00     0.111 C 
BRANCH  10  11
ATOM     11  C   UNL     1      -8.047  -6.178  17.907  1.00  0.00     0.163 C 
ATOM     12  O   UNL     1      -7.053  -5.412  18.036  1.00  0.00    -0.294 OA
BRANCH  11  13
ATOM     13  C   UNL     1      -7.976  -7.340  16.968  1.00  0.00    -0.002 C 
ATOM     14  C   UNL     1      -7.460  -8.546  17.353  1.00  0.00    -0.069 C 
ATOM     15  C   UNL     1      -7.357  -9.705  16.386  1.00  0.00     0.039 C 
ATOM     16  C   UNL     1      -6.997  -8.794  18.772  1.00  0.00     0.039 C 
BRANCH  13  17
ATOM     17  C   UNL     1      -8.575  -7.147  15.586  1.00  0.00     0.066 CG0
ATOM     18  G   UNL     1      -9.960  -7.747  15.540  1.00  0.00     0.000 G0
ENDBRANCH  13  17
ENDBRANCH  11  13
ENDBRANCH  10  11
ENDBRANCH   1  10
TORSDOF 0
ENDMDL
MODEL 3
REMARK VINA RESULT:    -3.451      2.095      4.209
REMARK INTER + INTRA:          -4.501
REMARK INTER:                  -5.103
REMARK INTRA:                   0.602
REMARK UNBOUND:                 0.363
REMARK SMILES CC1=CCC(=C(C)C)C(=O)CC(C)=CCC1
REMARK SMILES IDX 12 1 14 2 13 3 15 4 16 5 2 6 1 7 3 8 11 10 9 11 10 12 5 13
REMARK SMILES IDX 6 14 7 15 8 16 4 17
REMARK H PARENT
REMARK Flexibility Score: 60.00
ROOT
ATOM      1  C   UNL     1      -7.583  -9.428  15.980  1.00  0.00    -0.070 C 
ATOM      2  C   UNL     1      -6.896  -9.781  17.091  1.00  0.00    -0.027 C 
ATOM      3  C   UNL     1      -7.028  -9.873  14.648  1.00  0.00     0.039 C 
ENDROOT
BRANCH   2   4
ATOM      4  C   UNL     1      -7.320  -9.537  18.520  1.00  0.00     0.032 C 
BRANCH   4   5
ATOM      5  C   UNL     1      -6.275  -8.734  19.319  1.00  0.00     0.034 C 
BRANCH   5   6
ATOM      6  C   UNL     1      -5.944  -7.410  18.658  1.00  0.00    -0.077 C 
ATOM      7  C   UNL     1      -4.497  -7.095  18.374  1.00  0.00     0.039 C 
ATOM      8  C   UNL     1      -6.871  -6.483  18.330  1.00  0.00    -0.023 CG0
ATOM      9  G   UNL     1      -8.358  -6.599  18.565  1.00  0.00     0.000 G0
ENDBRANCH   5   6
ENDBRANCH   4   5
ENDBRANCH   2   4
BRANCH   1  10
ATOM     10  C   UNL     1      -8.902  -8.675  16.006  1.00  0.00     0.111 C 
BRANCH  10  11
ATOM     11  C   UNL     1      -8.688  -7.184  16.094  1.00  0.00     0.163 C 
ATOM     12  O   UNL     1      -8.075  -6.615  15.150  1.00  0.00    -0.294 OA
BRANCH  11  13
ATOM     13  C   UNL     1      -9.133  -6.388  17.281  1.00  0.00    -0.002 C 
ATOM     14  C   UNL     1     -10.219  -5.560  17.225  1.00  0.00    -0.069 C 
ATOM     15  C   UNL     1     -10.640  -4.730  18.418  1.00  0.00     0.039 C 
ATOM     16  C   UNL     1     -11.075  -5.456  15.981  1.00  0.00     0.039 C 
BRANCH  13  17
ATOM     17  C   UNL     1      -8.371  -6.598  18.577  1.00  0.00     0.066 CG0
ATOM     18  G   UNL     1      -6.888  -6.469  18.326  1.00  0.00     0.000 G0
ENDBRANCH  13  17
ENDBRANCH  11  13
ENDBRANCH  10  11
ENDBRANCH   1  10
TORSDOF 0
ENDMDL
MODEL 4
REMARK VINA RESULT:    -3.390     19.606     21.145
REMARK INTER + INTRA:          -4.414
REMARK INTER:                  -5.094
REMARK INTRA:                   0.679
REMARK UNBOUND:                 0.363
REMARK SMILES CC1=CCC(=C(C)C)C(=O)CC(C)=CCC1
REMARK SMILES IDX 12 1 14 2 13 3 15 4 16 5 2 6 1 7 3 8 11 10 9 11 10 12 5 13
REMARK SMILES IDX 6 14 7 15 8 16 4 17
REMARK H PARENT
REMARK Flexibility Score: 60.00
ROOT
ATOM      1  C   UNL     1       2.241   4.313  29.948  1.00  0.00    -0.070 C 
ATOM      2  C   UNL     1       1.735   5.564  30.050  1.00  0.00    -0.027 C 
ATOM      3  C   UNL     1       2.167   3.431  31.172  1.00  0.00     0.039 C 
ENDROOT
BRANCH   2   4
ATOM      4  C   UNL     1       1.608   6.571  28.932  1.00  0.00     0.032 C 
BRANCH   4   5
ATOM      5  C   UNL     1       2.498   7.810  29.146  1.00  0.00     0.034 C 
BRANCH   5   6
ATOM      6  C   UNL     1       3.874   7.442  29.665  1.00  0.00    -0.077 C 
ATOM      7  C   UNL     1       4.232   7.830  31.078  1.00  0.00     0.039 C 
ATOM      8  C   UNL     1       4.810   6.807  28.926  1.00  0.00    -0.023 CG0
ATOM      9  G   UNL     1       4.653   6.371  27.489  1.00  0.00     0.000 G0
ENDBRANCH   5   6
ENDBRANCH   4   5
ENDBRANCH   2   4
BRANCH   1  10
ATOM     10  C   UNL     1       2.809   3.733  28.664  1.00  0.00     0.111 C 
BRANCH  10  11
ATOM     11  C   UNL     1       4.279   4.043  28.519  1.00  0.00     0.163 C 
ATOM     12  O   UNL     1       5.063   3.632  29.417  1.00  0.00    -0.294 OA
BRANCH  11  13
ATOM     13  C   UNL     1       4.808   4.857  27.381  1.00  0.00    -0.002 C 
ATOM     14  C   UNL     1       5.327   4.272  26.259  1.00  0.00    -0.069 C 
ATOM     15  C   UNL     1       5.896   5.101  25.128  1.00  0.00     0.039 C 
ATOM     16  C   UNL     1       5.328   2.770  26.075  1.00  0.00     0.039 C 
BRANCH  13  17
ATOM     17  C   UNL     1       4.676   6.365  27.490  1.00  0.00     0.066 CG0
ATOM     18  G   UNL     1       4.821   6.789  28.932  1.00  0.00     0.000 G0
ENDBRANCH  13  17
ENDBRANCH  11  13
ENDBRANCH  10  11
ENDBRANCH   1  10
TORSDOF 0
ENDMDL
MODEL 5
REMARK VINA RESULT:    -3.374      1.538      2.378
REMARK INTER + INTRA:          -4.391
REMARK INTER:                  -4.823
REMARK INTRA:                   0.431
REMARK UNBOUND:                 0.363
REMARK SMILES CC1=CCC(=C(C)C)C(=O)CC(C)=CCC1
REMARK SMILES IDX 12 1 14 2 13 3 15 4 16 5 2 6 1 7 3 8 11 10 9 11 10 12 5 13
REMARK SMILES IDX 6 14 7 15 8 16 4 17
REMARK H PARENT
REMARK Flexibility Score: 60.00
ROOT
ATOM      1  C   UNL     1      -9.977  -4.667  18.182  1.00  0.00    -0.070 C 
ATOM      2  C   UNL     1      -8.901  -4.698  19.004  1.00  0.00    -0.027 C 
ATOM      3  C   UNL     1     -10.550  -3.312  17.839  1.00  0.00     0.039 C 
ENDROOT
BRANCH   2   4
ATOM      4  C   UNL     1      -8.109  -5.924  19.391  1.00  0.00     0.032 C 
BRANCH   4   5
ATOM      5  C   UNL     1      -6.924  -6.187  18.441  1.00  0.00     0.034 C 
BRANCH   5   6
ATOM      6  C   UNL     1      -6.846  -7.641  18.015  1.00  0.00    -0.077 C 
ATOM      7  C   UNL     1      -6.264  -8.639  18.984  1.00  0.00     0.039 C 
ATOM      8  C   UNL     1      -7.248  -8.091  16.806  1.00  0.00    -0.023 CG0
ATOM      9  G   UNL     1      -7.821  -7.244  15.695  1.00  0.00     0.000 G0
ENDBRANCH   5   6
ENDBRANCH   4   5
ENDBRANCH   2   4
BRANCH   1  10
ATOM     10  C   UNL     1     -10.587  -5.902  17.542  1.00  0.00     0.111 C 
BRANCH  10  11
ATOM     11  C   UNL     1     -10.090  -6.098  16.131  1.00  0.00     0.163 C 
ATOM     12  O   UNL     1     -10.352  -5.205  15.279  1.00  0.00    -0.294 OA
BRANCH  11  13
ATOM     13  C   UNL     1      -9.351  -7.331  15.716  1.00  0.00    -0.002 C 
ATOM     14  C   UNL     1     -10.007  -8.463  15.319  1.00  0.00    -0.069 C 
ATOM     15  C   UNL     1      -9.253  -9.718  14.937  1.00  0.00     0.039 C 
ATOM     16  C   UNL     1     -11.515  -8.509  15.209  1.00  0.00     0.039 C 
BRANCH  13  17
ATOM     17  C   UNL     1      -7.836  -7.248  15.680  1.00  0.00     0.066 CG0
ATOM     18  G   UNL     1      -7.250  -8.074  16.800  1.00  0.00     0.000 G0
ENDBRANCH  13  17
ENDBRANCH  11  13
ENDBRANCH  10  11
ENDBRANCH   1  10
TORSDOF 0
ENDMDL
MODEL 6
REMARK VINA RESULT:    -3.329      2.015      4.736
REMARK INTER + INTRA:          -4.329
REMARK INTER:                  -4.967
REMARK INTRA:                   0.638
REMARK UNBOUND:                 0.363
REMARK SMILES CC1=CCC(=C(C)C)C(=O)CC(C)=CCC1
REMARK SMILES IDX 12 1 14 2 13 3 15 4 16 5 2 6 1 7 3 8 11 10 9 11 10 12 5 13
REMARK SMILES IDX 6 14 7 15 8 16 4 17
REMARK H PARENT
REMARK Flexibility Score: 60.00
ROOT
ATOM      1  C   UNL     1      -7.588  -9.249  16.839  1.00  0.00    -0.070 C 
ATOM      2  C   UNL     1      -8.654  -9.754  16.175  1.00  0.00    -0.027 C 
ATOM      3  C   UNL     1      -7.359  -9.727  18.254  1.00  0.00     0.039 C 
ENDROOT
BRANCH   2   4
ATOM      4  C   UNL     1      -9.009  -9.498  14.730  1.00  0.00     0.032 C 
BRANCH   4   5
ATOM      5  C   UNL     1      -9.294  -8.011  14.444  1.00  0.00     0.034 C 
BRANCH   5   6
ATOM      6  C   UNL     1     -10.214  -7.396  15.480  1.00  0.00    -0.077 C 
ATOM      7  C   UNL     1     -11.619  -7.932  15.597  1.00  0.00     0.039 C 
ATOM      8  C   UNL     1      -9.856  -6.376  16.292  1.00  0.00    -0.023 CG0
ATOM      9  G   UNL     1      -8.513  -5.686  16.300  1.00  0.00     0.000 G0
ENDBRANCH   5   6
ENDBRANCH   4   5
ENDBRANCH   2   4
BRANCH   1  10
ATOM     10  C   UNL     1      -6.584  -8.291  16.222  1.00  0.00     0.111 C 
BRANCH  10  11
ATOM     11  C   UNL     1      -6.458  -7.023  17.029  1.00  0.00     0.163 C 
ATOM     12  O   UNL     1      -5.306  -6.666  17.399  1.00  0.00    -0.294 OA
BRANCH  11  13
ATOM     13  C   UNL     1      -7.653  -6.222  17.438  1.00  0.00    -0.002 C 
ATOM     14  C   UNL     1      -7.920  -5.945  18.750  1.00  0.00    -0.069 C 
ATOM     15  C   UNL     1      -9.151  -5.166  19.158  1.00  0.00     0.039 C 
ATOM     16  C   UNL     1      -6.981  -6.371  19.857  1.00  0.00     0.039 C 
BRANCH  13  17
ATOM     17  C   UNL     1      -8.521  -5.661  16.326  1.00  0.00     0.066 CG0
ATOM     18  G   UNL     1      -9.852  -6.375  16.304  1.00  0.00     0.000 G0
ENDBRANCH  13  17
ENDBRANCH  11  13
ENDBRANCH  10  11
ENDBRANCH   1  10
TORSDOF 0
ENDMDL
MODEL 7
REMARK VINA RESULT:    -3.283      1.932      4.662
REMARK INTER + INTRA:          -4.263
REMARK INTER:                  -4.938
REMARK INTRA:                   0.674
REMARK UNBOUND:                 0.363
REMARK SMILES CC1=CCC(=C(C)C)C(=O)CC(C)=CCC1
REMARK SMILES IDX 12 1 14 2 13 3 15 4 16 5 2 6 1 7 3 8 11 10 9 11 10 12 5 13
REMARK SMILES IDX 6 14 7 15 8 16 4 17
REMARK H PARENT
REMARK Flexibility Score: 60.00
ROOT
ATOM      1  C   UNL     1     -10.866  -5.547  16.158  1.00  0.00    -0.070 C 
ATOM      2  C   UNL     1     -11.088  -4.303  16.644  1.00  0.00    -0.027 C 
ATOM      3  C   UNL     1     -11.048  -5.756  14.674  1.00  0.00     0.039 C 
ENDROOT
BRANCH   2   4
ATOM      4  C   UNL     1     -10.865  -3.847  18.066  1.00  0.00     0.032 C 
BRANCH   4   5
ATOM      5  C   UNL     1      -9.371  -3.712  18.418  1.00  0.00     0.034 C 
BRANCH   5   6
ATOM      6  C   UNL     1      -8.978  -4.595  19.587  1.00  0.00    -0.077 C 
ATOM      7  C   UNL     1      -9.608  -4.324  20.931  1.00  0.00     0.039 C 
ATOM      8  C   UNL     1      -8.077  -5.597  19.500  1.00  0.00    -0.023 CG0
ATOM      9  G   UNL     1      -7.318  -5.997  18.257  1.00  0.00     0.000 G0
ENDBRANCH   5   6
ENDBRANCH   4   5
ENDBRANCH   2   4
BRANCH   1  10
ATOM     10  C   UNL     1     -10.386  -6.712  17.007  1.00  0.00     0.111 C 
BRANCH  10  11
ATOM     11  C   UNL     1      -8.981  -7.122  16.641  1.00  0.00     0.163 C 
ATOM     12  O   UNL     1      -8.731  -7.373  15.431  1.00  0.00    -0.294 OA
BRANCH  11  13
ATOM     13  C   UNL     1      -7.909  -7.284  17.673  1.00  0.00    -0.002 C 
ATOM     14  C   UNL     1      -7.431  -8.515  18.027  1.00  0.00    -0.069 C 
ATOM     15  C   UNL     1      -6.375  -8.673  19.099  1.00  0.00     0.039 C 
ATOM     16  C   UNL     1      -7.908  -9.778  17.343  1.00  0.00     0.039 C 
BRANCH  13  17
ATOM     17  C   UNL     1      -7.318  -6.014  18.258  1.00  0.00     0.066 CG0
ATOM     18  G   UNL     1      -8.093  -5.607  19.488  1.00  0.00     0.000 G0
ENDBRANCH  13  17
ENDBRANCH  11  13
ENDBRANCH  10  11
ENDBRANCH   1  10
TORSDOF 0
ENDMDL
MODEL 8
REMARK VINA RESULT:    -3.230      1.718      3.222
REMARK INTER + INTRA:          -4.188
REMARK INTER:                  -5.032
REMARK INTRA:                   0.844
REMARK UNBOUND:                 0.363
REMARK SMILES CC1=CCC(=C(C)C)C(=O)CC(C)=CCC1
REMARK SMILES IDX 12 1 14 2 13 3 15 4 16 5 2 6 1 7 3 8 11 10 9 11 10 12 5 13
REMARK SMILES IDX 6 14 7 15 8 16 4 17
REMARK H PARENT
REMARK Flexibility Score: 60.00
ROOT
ATOM      1  C   UNL     1      -6.149  -7.541  18.743  1.00  0.00    -0.070 C 
ATOM      2  C   UNL     1      -6.414  -8.785  18.280  1.00  0.00    -0.027 C 
ATOM      3  C   UNL     1      -4.701  -7.122  18.826  1.00  0.00     0.039 C 
ENDROOT
BRANCH   2   4
ATOM      4  C   UNL     1      -7.781  -9.368  18.017  1.00  0.00     0.032 C 
BRANCH   4   5
ATOM      5  C   UNL     1      -8.007  -9.701  16.529  1.00  0.00     0.034 C 
BRANCH   5   6
ATOM      6  C   UNL     1      -7.694  -8.523  15.627  1.00  0.00    -0.077 C 
ATOM      7  C   UNL     1      -6.524  -8.638  14.681  1.00  0.00     0.039 C 
ATOM      8  C   UNL     1      -8.388  -7.364  15.637  1.00  0.00    -0.023 CG0
ATOM      9  G   UNL     1      -9.562  -7.046  16.532  1.00  0.00     0.000 G0
ENDBRANCH   5   6
ENDBRANCH   4   5
ENDBRANCH   2   4
BRANCH   1  10
ATOM     10  C   UNL     1      -7.223  -6.532  19.115  1.00  0.00     0.111 C 
BRANCH  10  11
ATOM     11  C   UNL     1      -7.763  -5.822  17.898  1.00  0.00     0.163 C 
ATOM     12  O   UNL     1      -6.975  -5.088  17.241  1.00  0.00    -0.294 OA
BRANCH  11  13
ATOM     13  C   UNL     1      -9.198  -5.927  17.492  1.00  0.00    -0.002 C 
ATOM     14  C   UNL     1     -10.135  -5.027  17.920  1.00  0.00    -0.069 C 
ATOM     15  C   UNL     1     -11.592  -5.162  17.535  1.00  0.00     0.039 C 
ATOM     16  C   UNL     1      -9.758  -3.833  18.769  1.00  0.00     0.039 C 
BRANCH  13  17
ATOM     17  C   UNL     1      -9.561  -7.034  16.518  1.00  0.00     0.066 CG0
ATOM     18  G   UNL     1      -8.373  -7.358  15.644  1.00  0.00     0.000 G0
ENDBRANCH  13  17
ENDBRANCH  11  13
ENDBRANCH  10  11
ENDBRANCH   1  10
TORSDOF 0
ENDMDL
MODEL 9
REMARK VINA RESULT:    -3.218     20.200     22.239
REMARK INTER + INTRA:          -4.173
REMARK INTER:                  -4.786
REMARK INTRA:                   0.614
REMARK UNBOUND:                 0.363
REMARK SMILES CC1=CCC(=C(C)C)C(=O)CC(C)=CCC1
REMARK SMILES IDX 12 1 14 2 13 3 15 4 16 5 2 6 1 7 3 8 11 10 9 11 10 12 5 13
REMARK SMILES IDX 6 14 7 15 8 16 4 17
REMARK H PARENT
REMARK Flexibility Score: 60.00
ROOT
ATOM      1  C   UNL     1       1.192   5.913  29.769  1.00  0.00    -0.070 C 
ATOM      2  C   UNL     1       1.901   5.174  28.883  1.00  0.00    -0.027 C 
ATOM      3  C   UNL     1       0.456   7.119  29.236  1.00  0.00     0.039 C 
ENDROOT
BRANCH   2   4
ATOM      4  C   UNL     1       2.620   3.878  29.174  1.00  0.00     0.032 C 
BRANCH   4   5
ATOM      5  C   UNL     1       3.790   4.059  30.161  1.00  0.00     0.034 C 
BRANCH   5   6
ATOM      6  C   UNL     1       4.656   5.253  29.808  1.00  0.00    -0.077 C 
ATOM      7  C   UNL     1       5.421   5.222  28.508  1.00  0.00     0.039 C 
ATOM      8  C   UNL     1       4.801   6.335  30.603  1.00  0.00    -0.023 CG0
ATOM      9  G   UNL     1       4.149   6.535  31.951  1.00  0.00     0.000 G0
ENDBRANCH   5   6
ENDBRANCH   4   5
ENDBRANCH   2   4
BRANCH   1  10
ATOM     10  C   UNL     1       1.044   5.558  31.238  1.00  0.00     0.111 C 
BRANCH  10  11
ATOM     11  C   UNL     1       1.602   6.640  32.129  1.00  0.00     0.163 C 
ATOM     12  O   UNL     1       0.936   6.973  33.147  1.00  0.00    -0.294 OA
BRANCH  11  13
ATOM     13  C   UNL     1       2.878   7.351  31.808  1.00  0.00    -0.002 C 
ATOM     14  C   UNL     1       2.898   8.674  31.464  1.00  0.00    -0.069 C 
ATOM     15  C   UNL     1       4.189   9.376  31.104  1.00  0.00     0.039 C 
ATOM     16  C   UNL     1       1.638   9.512  31.461  1.00  0.00     0.039 C 
BRANCH  13  17
ATOM     17  C   UNL     1       4.164   6.558  31.954  1.00  0.00     0.066 CG0
ATOM     18  G   UNL     1       4.795   6.349  30.598  1.00  0.00     0.000 G0
ENDBRANCH  13  17
ENDBRANCH  11  13
ENDBRANCH  10  11
ENDBRANCH   1  10
TORSDOF 0
ENDMDL
