MODEL 1
REMARK VINA RESULT:    -3.891      0.000      0.000
REMARK INTER + INTRA:          -4.775
REMARK INTER:                  -4.687
REMARK INTRA:                  -0.088
REMARK UNBOUND:                -0.088
REMARK SMILES OCCc1ccc(O)c(O)c1
REMARK SMILES IDX 3 1 4 2 5 3 6 4 7 5 11 6 9 7 8 8 10 10 2 12 1 13
REMARK H PARENT 8 9 10 11 1 14
REMARK Flexibility Score: inf
ROOT
ATOM      1  C   UNL     1      75.335  40.974  18.584  1.00  0.00     0.064 C 
ENDROOT
BRANCH   1   2
ATOM      2  C   UNL     1      75.527  40.997  20.078  1.00  0.00    -0.042 A 
ATOM      3  C   UNL     1      76.608  41.689  20.643  1.00  0.00     0.008 A 
ATOM      4  C   UNL     1      76.800  41.687  22.027  1.00  0.00     0.050 A 
ATOM      5  C   UNL     1      75.923  40.986  22.862  1.00  0.00     0.157 A 
ATOM      6  C   UNL     1      74.652  40.284  20.914  1.00  0.00     0.054 A 
ATOM      7  C   UNL     1      74.843  40.280  22.304  1.00  0.00     0.157 A 
BRANCH   5   8
ATOM      8  O   UNL     1      76.139  41.001  24.239  1.00  0.00    -0.504 OA
ATOM      9  H   UNL     1      76.527  41.808  24.714  1.00  0.00     0.293 HD
ENDBRANCH   5   8
BRANCH   7  10
ATOM     10  O   UNL     1      73.968  39.576  23.129  1.00  0.00    -0.504 OA
ATOM     11  H   UNL     1      73.088  39.213  22.782  1.00  0.00     0.293 HD
ENDBRANCH   7  10
ENDBRANCH   1   2
BRANCH   1  12
ATOM     12  C   UNL     1      74.574  39.721  18.140  1.00  0.00     0.161 C 
BRANCH  12  13
ATOM     13  O   UNL     1      75.457  38.658  17.897  1.00  0.00    -0.396 OA
ATOM     14  H   UNL     1      76.081  38.626  18.668  1.00  0.00     0.210 HD
ENDBRANCH  12  13
ENDBRANCH   1  12
TORSDOF 5
ENDMDL
MODEL 2
REMARK VINA RESULT:    -3.800      1.552      1.904
REMARK INTER + INTRA:          -4.665
REMARK INTER:                  -4.584
REMARK INTRA:                  -0.082
REMARK UNBOUND:                -0.088
REMARK SMILES OCCc1ccc(O)c(O)c1
REMARK SMILES IDX 3 1 4 2 5 3 6 4 7 5 11 6 9 7 8 8 10 10 2 12 1 13
REMARK H PARENT 8 9 10 11 1 14
REMARK Flexibility Score: inf
ROOT
ATOM      1  C   UNL     1      74.772  38.340  18.393  1.00  0.00     0.064 C 
ENDROOT
BRANCH   1   2
ATOM      2  C   UNL     1      74.913  39.291  19.552  1.00  0.00    -0.042 A 
ATOM      3  C   UNL     1      75.675  40.462  19.421  1.00  0.00     0.008 A 
ATOM      4  C   UNL     1      75.827  41.329  20.506  1.00  0.00     0.050 A 
ATOM      5  C   UNL     1      75.230  41.034  21.737  1.00  0.00     0.157 A 
ATOM      6  C   UNL     1      74.323  38.988  20.790  1.00  0.00     0.054 A 
ATOM      7  C   UNL     1      74.475  39.857  21.881  1.00  0.00     0.157 A 
BRANCH   5   8
ATOM      8  O   UNL     1      75.399  41.917  22.801  1.00  0.00    -0.504 OA
ATOM      9  H   UNL     1      74.660  42.105  23.467  1.00  0.00     0.293 HD
ENDBRANCH   5   8
BRANCH   7  10
ATOM     10  O   UNL     1      73.881  39.555  23.106  1.00  0.00    -0.504 OA
ATOM     11  H   UNL     1      72.885  39.669  23.254  1.00  0.00     0.293 HD
ENDBRANCH   7  10
ENDBRANCH   1   2
BRANCH   1  12
ATOM     12  C   UNL     1      73.302  38.146  18.008  1.00  0.00     0.161 C 
BRANCH  12  13
ATOM     13  O   UNL     1      72.867  36.851  18.327  1.00  0.00    -0.396 OA
ATOM     14  H   UNL     1      72.041  36.691  17.799  1.00  0.00     0.210 HD
ENDBRANCH  12  13
ENDBRANCH   1  12
TORSDOF 5
ENDMDL
MODEL 3
REMARK VINA RESULT:    -3.775      2.428      2.940
REMARK INTER + INTRA:          -4.635
REMARK INTER:                  -4.523
REMARK INTRA:                  -0.112
REMARK UNBOUND:                -0.088
REMARK SMILES OCCc1ccc(O)c(O)c1
REMARK SMILES IDX 3 1 4 2 5 3 6 4 7 5 11 6 9 7 8 8 10 10 2 12 1 13
REMARK H PARENT 8 9 10 11 1 14
REMARK Flexibility Score: inf
ROOT
ATOM      1  C   UNL     1      73.044  37.600  19.201  1.00  0.00     0.064 C 
ENDROOT
BRANCH   1   2
ATOM      2  C   UNL     1      73.115  38.762  20.156  1.00  0.00    -0.042 A 
ATOM      3  C   UNL     1      72.600  40.014  19.790  1.00  0.00     0.008 A 
ATOM      4  C   UNL     1      72.692  41.098  20.666  1.00  0.00     0.050 A 
ATOM      5  C   UNL     1      73.306  40.948  21.914  1.00  0.00     0.157 A 
ATOM      6  C   UNL     1      73.741  38.613  21.404  1.00  0.00     0.054 A 
ATOM      7  C   UNL     1      73.835  39.700  22.286  1.00  0.00     0.157 A 
BRANCH   5   8
ATOM      8  O   UNL     1      73.382  42.047  22.769  1.00  0.00    -0.504 OA
ATOM      9  H   UNL     1      72.584  42.373  23.299  1.00  0.00     0.293 HD
ENDBRANCH   5   8
BRANCH   7  10
ATOM     10  O   UNL     1      74.452  39.545  23.526  1.00  0.00    -0.504 OA
ATOM     11  H   UNL     1      74.774  40.344  24.061  1.00  0.00     0.293 HD
ENDBRANCH   7  10
ENDBRANCH   1   2
BRANCH   1  12
ATOM     12  C   UNL     1      73.795  37.902  17.900  1.00  0.00     0.161 C 
BRANCH  12  13
ATOM     13  O   UNL     1      75.148  38.171  18.153  1.00  0.00    -0.396 OA
ATOM     14  H   UNL     1      75.189  38.596  19.050  1.00  0.00     0.210 HD
ENDBRANCH  12  13
ENDBRANCH   1  12
TORSDOF 5
ENDMDL
MODEL 4
REMARK VINA RESULT:    -3.672      3.754      4.746
REMARK INTER + INTRA:          -4.511
REMARK INTER:                  -4.454
REMARK INTRA:                  -0.058
REMARK UNBOUND:                -0.088
REMARK SMILES OCCc1ccc(O)c(O)c1
REMARK SMILES IDX 3 1 4 2 5 3 6 4 7 5 11 6 9 7 8 8 10 10 2 12 1 13
REMARK H PARENT 8 9 10 11 1 14
REMARK Flexibility Score: inf
ROOT
ATOM      1  C   UNL     1      69.732  39.885  22.012  1.00  0.00     0.064 C 
ENDROOT
BRANCH   1   2
ATOM      2  C   UNL     1      71.215  40.146  22.000  1.00  0.00    -0.042 A 
ATOM      3  C   UNL     1      71.710  41.441  22.216  1.00  0.00     0.008 A 
ATOM      4  C   UNL     1      73.084  41.687  22.177  1.00  0.00     0.050 A 
ATOM      5  C   UNL     1      73.982  40.647  21.912  1.00  0.00     0.157 A 
ATOM      6  C   UNL     1      72.115  39.104  21.722  1.00  0.00     0.054 A 
ATOM      7  C   UNL     1      73.495  39.348  21.682  1.00  0.00     0.157 A 
BRANCH   5   8
ATOM      8  O   UNL     1      75.348  40.922  21.879  1.00  0.00    -0.504 OA
ATOM      9  H   UNL     1      75.939  40.622  21.113  1.00  0.00     0.293 HD
ENDBRANCH   5   8
BRANCH   7  10
ATOM     10  O   UNL     1      74.384  38.308  21.413  1.00  0.00    -0.504 OA
ATOM     11  H   UNL     1      74.184  37.612  20.704  1.00  0.00     0.293 HD
ENDBRANCH   7  10
ENDBRANCH   1   2
BRANCH   1  12
ATOM     12  C   UNL     1      68.985  40.878  21.117  1.00  0.00     0.161 C 
BRANCH  12  13
ATOM     13  O   UNL     1      67.710  40.394  20.785  1.00  0.00    -0.396 OA
ATOM     14  H   UNL     1      67.482  39.708  21.466  1.00  0.00     0.210 HD
ENDBRANCH  12  13
ENDBRANCH   1  12
TORSDOF 5
ENDMDL
MODEL 5
REMARK VINA RESULT:    -3.654      1.819      2.341
REMARK INTER + INTRA:          -4.490
REMARK INTER:                  -4.406
REMARK INTRA:                  -0.085
REMARK UNBOUND:                -0.088
REMARK SMILES OCCc1ccc(O)c(O)c1
REMARK SMILES IDX 3 1 4 2 5 3 6 4 7 5 11 6 9 7 8 8 10 10 2 12 1 13
REMARK H PARENT 8 9 10 11 1 14
REMARK Flexibility Score: inf
ROOT
ATOM      1  C   UNL     1      75.892  40.655  17.968  1.00  0.00     0.064 C 
ENDROOT
BRANCH   1   2
ATOM      2  C   UNL     1      75.378  40.356  19.352  1.00  0.00    -0.042 A 
ATOM      3  C   UNL     1      75.541  41.289  20.386  1.00  0.00     0.008 A 
ATOM      4  C   UNL     1      75.089  40.998  21.676  1.00  0.00     0.050 A 
ATOM      5  C   UNL     1      74.477  39.770  21.951  1.00  0.00     0.157 A 
ATOM      6  C   UNL     1      74.774  39.119  19.629  1.00  0.00     0.054 A 
ATOM      7  C   UNL     1      74.319  38.824  20.923  1.00  0.00     0.157 A 
BRANCH   5   8
ATOM      8  O   UNL     1      74.035  39.508  23.246  1.00  0.00    -0.504 OA
ATOM      9  H   UNL     1      73.142  39.067  23.431  1.00  0.00     0.293 HD
ENDBRANCH   5   8
BRANCH   7  10
ATOM     10  O   UNL     1      73.715  37.597  21.191  1.00  0.00    -0.504 OA
ATOM     11  H   UNL     1      72.707  37.495  21.207  1.00  0.00     0.293 HD
ENDBRANCH   7  10
ENDBRANCH   1   2
BRANCH   1  12
ATOM     12  C   UNL     1      76.446  42.081  17.876  1.00  0.00     0.161 C 
BRANCH  12  13
ATOM     13  O   UNL     1      77.849  42.075  17.880  1.00  0.00    -0.396 OA
ATOM     14  H   UNL     1      78.135  42.166  16.934  1.00  0.00     0.210 HD
ENDBRANCH  12  13
ENDBRANCH   1  12
TORSDOF 5
ENDMDL
MODEL 6
REMARK VINA RESULT:    -3.651      1.913      4.528
REMARK INTER + INTRA:          -4.486
REMARK INTER:                  -4.404
REMARK INTRA:                  -0.082
REMARK UNBOUND:                -0.088
REMARK SMILES OCCc1ccc(O)c(O)c1
REMARK SMILES IDX 3 1 4 2 5 3 6 4 7 5 11 6 9 7 8 8 10 10 2 12 1 13
REMARK H PARENT 8 9 10 11 1 14
REMARK Flexibility Score: inf
ROOT
ATOM      1  C   UNL     1      74.593  41.005  22.254  1.00  0.00     0.064 C 
ENDROOT
BRANCH   1   2
ATOM      2  C   UNL     1      74.404  39.990  21.158  1.00  0.00    -0.042 A 
ATOM      3  C   UNL     1      75.058  40.145  19.926  1.00  0.00     0.008 A 
ATOM      4  C   UNL     1      74.859  39.218  18.901  1.00  0.00     0.050 A 
ATOM      5  C   UNL     1      73.999  38.130  19.088  1.00  0.00     0.157 A 
ATOM      6  C   UNL     1      73.532  38.904  21.343  1.00  0.00     0.054 A 
ATOM      7  C   UNL     1      73.331  37.971  20.314  1.00  0.00     0.157 A 
BRANCH   5   8
ATOM      8  O   UNL     1      73.821  37.219  18.047  1.00  0.00    -0.504 OA
ATOM      9  H   UNL     1      73.955  37.478  17.077  1.00  0.00     0.293 HD
ENDBRANCH   5   8
BRANCH   7  10
ATOM     10  O   UNL     1      72.470  36.892  20.506  1.00  0.00    -0.504 OA
ATOM     11  H   UNL     1      72.815  35.982  20.787  1.00  0.00     0.293 HD
ENDBRANCH   7  10
ENDBRANCH   1   2
BRANCH   1  12
ATOM     12  C   UNL     1      75.830  40.686  23.100  1.00  0.00     0.161 C 
BRANCH  12  13
ATOM     13  O   UNL     1      75.503  39.828  24.161  1.00  0.00    -0.396 OA
ATOM     14  H   UNL     1      76.157  39.082  24.133  1.00  0.00     0.210 HD
ENDBRANCH  12  13
ENDBRANCH   1  12
TORSDOF 5
ENDMDL
MODEL 7
REMARK VINA RESULT:    -3.555      1.950      5.007
REMARK INTER + INTRA:          -4.371
REMARK INTER:                  -4.384
REMARK INTRA:                   0.013
REMARK UNBOUND:                -0.088
REMARK SMILES OCCc1ccc(O)c(O)c1
REMARK SMILES IDX 3 1 4 2 5 3 6 4 7 5 11 6 9 7 8 8 10 10 2 12 1 13
REMARK H PARENT 8 9 10 11 1 14
REMARK Flexibility Score: inf
ROOT
ATOM      1  C   UNL     1      74.333  40.924  21.939  1.00  0.00     0.064 C 
ENDROOT
BRANCH   1   2
ATOM      2  C   UNL     1      73.955  39.792  21.019  1.00  0.00    -0.042 A 
ATOM      3  C   UNL     1      72.863  38.966  21.323  1.00  0.00     0.008 A 
ATOM      4  C   UNL     1      72.530  37.899  20.484  1.00  0.00     0.050 A 
ATOM      5  C   UNL     1      73.288  37.639  19.337  1.00  0.00     0.157 A 
ATOM      6  C   UNL     1      74.723  39.525  19.874  1.00  0.00     0.054 A 
ATOM      7  C   UNL     1      74.391  38.455  19.030  1.00  0.00     0.157 A 
BRANCH   5   8
ATOM      8  O   UNL     1      72.932  36.569  18.518  1.00  0.00    -0.504 OA
ATOM      9  H   UNL     1      73.535  36.236  17.776  1.00  0.00     0.293 HD
ENDBRANCH   5   8
BRANCH   7  10
ATOM     10  O   UNL     1      75.153  38.198  17.891  1.00  0.00    -0.504 OA
ATOM     11  H   UNL     1      75.646  38.938  17.406  1.00  0.00     0.293 HD
ENDBRANCH   7  10
ENDBRANCH   1   2
BRANCH   1  12
ATOM     12  C   UNL     1      75.354  40.471  22.988  1.00  0.00     0.161 C 
BRANCH  12  13
ATOM     13  O   UNL     1      74.773  39.574  23.897  1.00  0.00    -0.396 OA
ATOM     14  H   UNL     1      73.927  39.260  23.484  1.00  0.00     0.210 HD
ENDBRANCH  12  13
ENDBRANCH   1  12
TORSDOF 5
ENDMDL
MODEL 8
REMARK VINA RESULT:    -3.169      4.516      6.021
REMARK INTER + INTRA:          -3.905
REMARK INTER:                  -3.850
REMARK INTRA:                  -0.055
REMARK UNBOUND:                -0.088
REMARK SMILES OCCc1ccc(O)c(O)c1
REMARK SMILES IDX 3 1 4 2 5 3 6 4 7 5 11 6 9 7 8 8 10 10 2 12 1 13
REMARK H PARENT 8 9 10 11 1 14
REMARK Flexibility Score: inf
ROOT
ATOM      1  C   UNL     1      73.166  41.302  21.763  1.00  0.00     0.064 C 
ENDROOT
BRANCH   1   2
ATOM      2  C   UNL     1      71.700  41.091  21.488  1.00  0.00    -0.042 A 
ATOM      3  C   UNL     1      70.943  40.233  22.300  1.00  0.00     0.008 A 
ATOM      4  C   UNL     1      69.590  40.017  22.026  1.00  0.00     0.050 A 
ATOM      5  C   UNL     1      68.979  40.646  20.936  1.00  0.00     0.157 A 
ATOM      6  C   UNL     1      71.090  41.714  20.387  1.00  0.00     0.054 A 
ATOM      7  C   UNL     1      69.732  41.499  20.111  1.00  0.00     0.157 A 
BRANCH   5   8
ATOM      8  O   UNL     1      67.627  40.412  20.689  1.00  0.00    -0.504 OA
ATOM      9  H   UNL     1      67.198  40.628  19.797  1.00  0.00     0.293 HD
ENDBRANCH   5   8
BRANCH   7  10
ATOM     10  O   UNL     1      69.131  42.125  19.021  1.00  0.00    -0.504 OA
ATOM     11  H   UNL     1      68.933  43.119  19.023  1.00  0.00     0.293 HD
ENDBRANCH   7  10
ENDBRANCH   1   2
BRANCH   1  12
ATOM     12  C   UNL     1      73.921  39.970  21.810  1.00  0.00     0.161 C 
BRANCH  12  13
ATOM     13  O   UNL     1      74.197  39.596  23.134  1.00  0.00    -0.396 OA
ATOM     14  H   UNL     1      74.543  38.666  23.099  1.00  0.00     0.210 HD
ENDBRANCH  12  13
ENDBRANCH   1  12
TORSDOF 5
ENDMDL
MODEL 9
REMARK VINA RESULT:    -1.855      1.898      2.933
REMARK INTER + INTRA:          -2.323
REMARK INTER:                  -2.260
REMARK INTRA:                  -0.063
REMARK UNBOUND:                -0.088
REMARK SMILES OCCc1ccc(O)c(O)c1
REMARK SMILES IDX 3 1 4 2 5 3 6 4 7 5 11 6 9 7 8 8 10 10 2 12 1 13
REMARK H PARENT 8 9 10 11 1 14
REMARK Flexibility Score: inf
ROOT
ATOM      1  C   UNL     1      76.879  41.825  18.546  1.00  0.00     0.064 C 
ENDROOT
BRANCH   1   2
ATOM      2  C   UNL     1      76.084  41.210  19.669  1.00  0.00    -0.042 A 
ATOM      3  C   UNL     1      75.021  40.338  19.391  1.00  0.00     0.008 A 
ATOM      4  C   UNL     1      74.268  39.790  20.432  1.00  0.00     0.050 A 
ATOM      5  C   UNL     1      74.560  40.113  21.762  1.00  0.00     0.157 A 
ATOM      6  C   UNL     1      76.371  41.543  21.002  1.00  0.00     0.054 A 
ATOM      7  C   UNL     1      75.617  40.995  22.050  1.00  0.00     0.157 A 
BRANCH   5   8
ATOM      8  O   UNL     1      73.792  39.551  22.780  1.00  0.00    -0.504 OA
ATOM      9  H   UNL     1      73.705  39.986  23.691  1.00  0.00     0.293 HD
ENDBRANCH   5   8
BRANCH   7  10
ATOM     10  O   UNL     1      75.910  41.324  23.372  1.00  0.00    -0.504 OA
ATOM     11  H   UNL     1      76.317  42.219  23.617  1.00  0.00     0.293 HD
ENDBRANCH   7  10
ENDBRANCH   1   2
BRANCH   1  12
ATOM     12  C   UNL     1      78.318  42.120  18.979  1.00  0.00     0.161 C 
BRANCH  12  13
ATOM     13  O   UNL     1      79.183  42.123  17.875  1.00  0.00    -0.396 OA
ATOM     14  H   UNL     1      79.839  42.852  18.031  1.00  0.00     0.210 HD
ENDBRANCH  12  13
ENDBRANCH   1  12
TORSDOF 5
ENDMDL
