MODEL 1
REMARK VINA RESULT:    -4.807      0.000      0.000
REMARK INTER + INTRA:          -4.948
REMARK INTER:                  -4.948
REMARK INTRA:                   0.000
REMARK UNBOUND:                 0.000
REMARK SMILES Cc1cccc(O)c1C
REMARK SMILES IDX 1 1 2 2 8 3 6 4 5 5 4 6 3 7 9 8 7 9
REMARK H PARENT 7 10
REMARK Flexibility Score: inf
ROOT
ATOM      1  C   UNL     1      21.457  30.488 -20.850  1.00  0.00     0.045 C 
ATOM      2  C   UNL     1      22.388  29.934 -19.802  1.00  0.00    -0.045 A 
ATOM      3  C   UNL     1      22.861  28.593 -19.844  1.00  0.00    -0.006 A 
ATOM      4  C   UNL     1      23.735  28.139 -18.823  1.00  0.00     0.118 A 
ATOM      5  C   UNL     1      24.119  29.003 -17.794  1.00  0.00     0.046 A 
ATOM      6  C   UNL     1      23.653  30.314 -17.759  1.00  0.00     0.004 A 
ATOM      7  C   UNL     1      22.794  30.777 -18.753  1.00  0.00     0.004 A 
ATOM      8  C   UNL     1      22.458  27.641 -20.947  1.00  0.00     0.048 C 
ENDROOT
BRANCH   4   9
ATOM      9  O   UNL     1      24.238  26.835 -18.800  1.00  0.00    -0.508 OA
ATOM     10  H   UNL     1      23.718  26.042 -18.449  1.00  0.00     0.293 HD
ENDBRANCH   4   9
TORSDOF 1
ENDMDL
MODEL 2
REMARK VINA RESULT:    -4.752      7.626      8.357
REMARK INTER + INTRA:          -4.891
REMARK INTER:                  -4.891
REMARK INTRA:                   0.000
REMARK UNBOUND:                 0.000
REMARK SMILES Cc1cccc(O)c1C
REMARK SMILES IDX 1 1 2 2 8 3 6 4 5 5 4 6 3 7 9 8 7 9
REMARK H PARENT 7 10
REMARK Flexibility Score: inf
ROOT
ATOM      1  C   UNL     1      20.856  29.215 -12.742  1.00  0.00     0.045 C 
ATOM      2  C   UNL     1      19.585  28.530 -13.172  1.00  0.00    -0.045 A 
ATOM      3  C   UNL     1      18.843  27.693 -12.292  1.00  0.00    -0.006 A 
ATOM      4  C   UNL     1      17.654  27.080 -12.766  1.00  0.00     0.118 A 
ATOM      5  C   UNL     1      17.227  27.300 -14.079  1.00  0.00     0.046 A 
ATOM      6  C   UNL     1      17.958  28.119 -14.933  1.00  0.00     0.004 A 
ATOM      7  C   UNL     1      19.127  28.730 -14.486  1.00  0.00     0.004 A 
ATOM      8  C   UNL     1      19.286  27.441 -10.869  1.00  0.00     0.048 C 
ENDROOT
BRANCH   4   9
ATOM      9  O   UNL     1      16.875  26.246 -11.959  1.00  0.00    -0.508 OA
ATOM     10  H   UNL     1      16.750  25.258 -12.134  1.00  0.00     0.293 HD
ENDBRANCH   4   9
TORSDOF 1
ENDMDL
MODEL 3
REMARK VINA RESULT:    -4.716     12.859     14.373
REMARK INTER + INTRA:          -4.854
REMARK INTER:                  -4.854
REMARK INTRA:                   0.000
REMARK UNBOUND:                 0.000
REMARK SMILES Cc1cccc(O)c1C
REMARK SMILES IDX 1 1 2 2 8 3 6 4 5 5 4 6 3 7 9 8 7 9
REMARK H PARENT 7 10
REMARK Flexibility Score: inf
ROOT
ATOM      1  C   UNL     1      33.110  30.013 -12.459  1.00  0.00     0.045 C 
ATOM      2  C   UNL     1      34.298  30.842 -12.877  1.00  0.00    -0.045 A 
ATOM      3  C   UNL     1      35.049  31.610 -11.944  1.00  0.00    -0.006 A 
ATOM      4  C   UNL     1      36.155  32.367 -12.409  1.00  0.00     0.118 A 
ATOM      5  C   UNL     1      36.493  32.354 -13.764  1.00  0.00     0.046 A 
ATOM      6  C   UNL     1      35.754  31.601 -14.672  1.00  0.00     0.004 A 
ATOM      7  C   UNL     1      34.665  30.850 -14.234  1.00  0.00     0.004 A 
ATOM      8  C   UNL     1      34.701  31.639 -10.473  1.00  0.00     0.048 C 
ENDROOT
BRANCH   4   9
ATOM      9  O   UNL     1      36.937  33.144 -11.550  1.00  0.00    -0.508 OA
ATOM     10  H   UNL     1      36.588  33.953 -11.054  1.00  0.00     0.293 HD
ENDBRANCH   4   9
TORSDOF 1
ENDMDL
MODEL 4
REMARK VINA RESULT:    -4.628      2.110      2.951
REMARK INTER + INTRA:          -4.763
REMARK INTER:                  -4.763
REMARK INTRA:                   0.000
REMARK UNBOUND:                 0.000
REMARK SMILES Cc1cccc(O)c1C
REMARK SMILES IDX 1 1 2 2 8 3 6 4 5 5 4 6 3 7 9 8 7 9
REMARK H PARENT 7 10
REMARK Flexibility Score: inf
ROOT
ATOM      1  C   UNL     1      22.598  30.748 -18.744  1.00  0.00     0.045 C 
ATOM      2  C   UNL     1      22.618  29.582 -17.788  1.00  0.00    -0.045 A 
ATOM      3  C   UNL     1      23.831  28.958 -17.383  1.00  0.00    -0.006 A 
ATOM      4  C   UNL     1      23.774  27.865 -16.480  1.00  0.00     0.118 A 
ATOM      5  C   UNL     1      22.540  27.415 -16.002  1.00  0.00     0.046 A 
ATOM      6  C   UNL     1      21.358  28.030 -16.402  1.00  0.00     0.004 A 
ATOM      7  C   UNL     1      21.394  29.105 -17.287  1.00  0.00     0.004 A 
ATOM      8  C   UNL     1      25.176  29.428 -17.888  1.00  0.00     0.048 C 
ENDROOT
BRANCH   4   9
ATOM      9  O   UNL     1      24.924  27.203 -16.040  1.00  0.00    -0.508 OA
ATOM     10  H   UNL     1      24.969  26.674 -15.179  1.00  0.00     0.293 HD
ENDBRANCH   4   9
TORSDOF 1
ENDMDL
MODEL 5
REMARK VINA RESULT:    -4.625      7.498      7.780
REMARK INTER + INTRA:          -4.760
REMARK INTER:                  -4.760
REMARK INTRA:                   0.000
REMARK UNBOUND:                 0.000
REMARK SMILES Cc1cccc(O)c1C
REMARK SMILES IDX 1 1 2 2 8 3 6 4 5 5 4 6 3 7 9 8 7 9
REMARK H PARENT 7 10
REMARK Flexibility Score: inf
ROOT
ATOM      1  C   UNL     1      19.490  28.493 -15.680  1.00  0.00     0.045 C 
ATOM      2  C   UNL     1      19.205  28.168 -14.236  1.00  0.00    -0.045 A 
ATOM      3  C   UNL     1      18.125  27.325 -13.851  1.00  0.00    -0.006 A 
ATOM      4  C   UNL     1      17.916  27.063 -12.472  1.00  0.00     0.118 A 
ATOM      5  C   UNL     1      18.763  27.629 -11.515  1.00  0.00     0.046 A 
ATOM      6  C   UNL     1      19.817  28.452 -11.899  1.00  0.00     0.004 A 
ATOM      7  C   UNL     1      20.038  28.720 -13.248  1.00  0.00     0.004 A 
ATOM      8  C   UNL     1      17.197  26.703 -14.869  1.00  0.00     0.048 C 
ENDROOT
BRANCH   4   9
ATOM      9  O   UNL     1      16.876  26.246 -12.020  1.00  0.00    -0.508 OA
ATOM     10  H   UNL     1      16.992  25.266 -11.797  1.00  0.00     0.293 HD
ENDBRANCH   4   9
TORSDOF 1
ENDMDL
MODEL 6
REMARK VINA RESULT:    -4.445     11.870     12.537
REMARK INTER + INTRA:          -4.575
REMARK INTER:                  -4.575
REMARK INTRA:                   0.000
REMARK UNBOUND:                 0.000
REMARK SMILES Cc1cccc(O)c1C
REMARK SMILES IDX 1 1 2 2 8 3 6 4 5 5 4 6 3 7 9 8 7 9
REMARK H PARENT 7 10
REMARK Flexibility Score: inf
ROOT
ATOM      1  C   UNL     1      31.355  38.616 -25.481  1.00  0.00     0.045 C 
ATOM      2  C   UNL     1      30.629  38.475 -24.167  1.00  0.00    -0.045 A 
ATOM      3  C   UNL     1      31.261  37.946 -23.008  1.00  0.00    -0.006 A 
ATOM      4  C   UNL     1      30.515  37.843 -21.805  1.00  0.00     0.118 A 
ATOM      5  C   UNL     1      29.181  38.256 -21.769  1.00  0.00     0.046 A 
ATOM      6  C   UNL     1      28.569  38.772 -22.907  1.00  0.00     0.004 A 
ATOM      7  C   UNL     1      29.285  38.882 -24.097  1.00  0.00     0.004 A 
ATOM      8  C   UNL     1      32.703  37.493 -23.023  1.00  0.00     0.048 C 
ENDROOT
BRANCH   4   9
ATOM      9  O   UNL     1      31.071  37.333 -20.628  1.00  0.00    -0.508 OA
ATOM     10  H   UNL     1      30.863  36.411 -20.266  1.00  0.00     0.293 HD
ENDBRANCH   4   9
TORSDOF 1
ENDMDL
MODEL 7
REMARK VINA RESULT:    -4.424      7.482      8.613
REMARK INTER + INTRA:          -4.554
REMARK INTER:                  -4.554
REMARK INTRA:                   0.000
REMARK UNBOUND:                 0.000
REMARK SMILES Cc1cccc(O)c1C
REMARK SMILES IDX 1 1 2 2 8 3 6 4 5 5 4 6 3 7 9 8 7 9
REMARK H PARENT 7 10
REMARK Flexibility Score: inf
ROOT
ATOM      1  C   UNL     1      22.852  23.434 -27.946  1.00  0.00     0.045 C 
ATOM      2  C   UNL     1      22.986  23.397 -26.445  1.00  0.00    -0.045 A 
ATOM      3  C   UNL     1      24.247  23.503 -25.796  1.00  0.00    -0.006 A 
ATOM      4  C   UNL     1      24.297  23.461 -24.378  1.00  0.00     0.118 A 
ATOM      5  C   UNL     1      23.119  23.315 -23.640  1.00  0.00     0.046 A 
ATOM      6  C   UNL     1      21.889  23.212 -24.281  1.00  0.00     0.004 A 
ATOM      7  C   UNL     1      21.820  23.252 -25.672  1.00  0.00     0.004 A 
ATOM      8  C   UNL     1      25.533  23.661 -26.575  1.00  0.00     0.048 C 
ENDROOT
BRANCH   4   9
ATOM      9  O   UNL     1      25.500  23.558 -23.674  1.00  0.00    -0.508 OA
ATOM     10  H   UNL     1      26.302  24.076 -24.007  1.00  0.00     0.293 HD
ENDBRANCH   4   9
TORSDOF 1
ENDMDL
MODEL 8
REMARK VINA RESULT:    -4.416     11.966     12.602
REMARK INTER + INTRA:          -4.545
REMARK INTER:                  -4.545
REMARK INTRA:                   0.000
REMARK UNBOUND:                 0.000
REMARK SMILES Cc1cccc(O)c1C
REMARK SMILES IDX 1 1 2 2 8 3 6 4 5 5 4 6 3 7 9 8 7 9
REMARK H PARENT 7 10
REMARK Flexibility Score: inf
ROOT
ATOM      1  C   UNL     1      30.644  39.046 -25.849  1.00  0.00     0.045 C 
ATOM      2  C   UNL     1      30.595  38.607 -24.408  1.00  0.00    -0.045 A 
ATOM      3  C   UNL     1      29.428  38.764 -23.610  1.00  0.00    -0.006 A 
ATOM      4  C   UNL     1      29.454  38.328 -22.260  1.00  0.00     0.118 A 
ATOM      5  C   UNL     1      30.614  37.755 -21.731  1.00  0.00     0.046 A 
ATOM      6  C   UNL     1      31.752  37.604 -22.518  1.00  0.00     0.004 A 
ATOM      7  C   UNL     1      31.745  38.026 -23.846  1.00  0.00     0.004 A 
ATOM      8  C   UNL     1      28.163  39.382 -24.161  1.00  0.00     0.048 C 
ENDROOT
BRANCH   4   9
ATOM      9  O   UNL     1      28.346  38.451 -21.417  1.00  0.00    -0.508 OA
ATOM     10  H   UNL     1      27.390  38.437 -21.746  1.00  0.00     0.293 HD
ENDBRANCH   4   9
TORSDOF 1
ENDMDL
MODEL 9
REMARK VINA RESULT:    -4.397      5.376      6.333
REMARK INTER + INTRA:          -4.526
REMARK INTER:                  -4.526
REMARK INTRA:                   0.000
REMARK UNBOUND:                 0.000
REMARK SMILES Cc1cccc(O)c1C
REMARK SMILES IDX 1 1 2 2 8 3 6 4 5 5 4 6 3 7 9 8 7 9
REMARK H PARENT 7 10
REMARK Flexibility Score: inf
ROOT
ATOM      1  C   UNL     1      20.258  29.630 -12.076  1.00  0.00     0.045 C 
ATOM      2  C   UNL     1      20.058  28.875 -13.365  1.00  0.00    -0.045 A 
ATOM      3  C   UNL     1      21.152  28.433 -14.159  1.00  0.00    -0.006 A 
ATOM      4  C   UNL     1      20.889  27.727 -15.361  1.00  0.00     0.118 A 
ATOM      5  C   UNL     1      19.571  27.475 -15.751  1.00  0.00     0.046 A 
ATOM      6  C   UNL     1      18.505  27.909 -14.969  1.00  0.00     0.004 A 
ATOM      7  C   UNL     1      18.744  28.603 -13.785  1.00  0.00     0.004 A 
ATOM      8  C   UNL     1      22.586  28.695 -13.757  1.00  0.00     0.048 C 
ENDROOT
BRANCH   4   9
ATOM      9  O   UNL     1      21.913  27.264 -16.192  1.00  0.00    -0.508 OA
ATOM     10  H   UNL     1      22.169  26.289 -16.273  1.00  0.00     0.293 HD
ENDBRANCH   4   9
TORSDOF 1
ENDMDL
