MODEL 1
REMARK VINA RESULT:    -5.190      0.000      0.000
REMARK INTER + INTRA:          -7.122
REMARK INTER:                  -7.313
REMARK INTRA:                   0.191
REMARK UNBOUND:                 0.191
REMARK SMILES CC1=CCC(=C(C)C)C(=O)CC(C)=CCC1
REMARK SMILES IDX 12 1 14 2 13 3 15 4 16 5 2 6 1 7 3 8 11 10 9 11 10 12 5 13
REMARK SMILES IDX 6 14 7 15 8 16 4 17
REMARK H PARENT
REMARK Flexibility Score: 60.00
ROOT
ATOM      1  C   UNL     1      -7.580  30.219  22.699  1.00  0.00    -0.070 C 
ATOM      2  C   UNL     1      -7.228  31.208  21.848  1.00  0.00    -0.027 C 
ATOM      3  C   UNL     1      -6.477  29.451  23.384  1.00  0.00     0.039 C 
ENDROOT
BRANCH   2   4
ATOM      4  C   UNL     1      -8.178  32.022  20.997  1.00  0.00     0.032 C 
BRANCH   4   5
ATOM      5  C   UNL     1      -9.240  32.813  21.787  1.00  0.00     0.034 C 
BRANCH   5   6
ATOM      6  C   UNL     1      -8.652  33.631  22.924  1.00  0.00    -0.077 C 
ATOM      7  C   UNL     1      -7.686  34.734  22.568  1.00  0.00     0.039 C 
ATOM      8  C   UNL     1      -8.885  33.391  24.237  1.00  0.00    -0.023 CG0
ATOM      9  G   UNL     1      -9.825  32.358  24.826  1.00  0.00     0.000 G0
ENDBRANCH   5   6
ENDBRANCH   4   5
ENDBRANCH   2   4
BRANCH   1  10
ATOM     10  C   UNL     1      -9.014  29.786  22.921  1.00  0.00     0.111 C 
BRANCH  10  11
ATOM     11  C   UNL     1      -9.395  29.856  24.377  1.00  0.00     0.163 C 
ATOM     12  O   UNL     1     -10.009  28.876  24.878  1.00  0.00    -0.294 OA
BRANCH  11  13
ATOM     13  C   UNL     1      -9.129  31.060  25.218  1.00  0.00    -0.002 C 
ATOM     14  C   UNL     1      -8.346  30.974  26.336  1.00  0.00    -0.069 C 
ATOM     15  C   UNL     1      -7.597  29.703  26.672  1.00  0.00     0.039 C 
ATOM     16  C   UNL     1      -8.186  32.134  27.293  1.00  0.00     0.039 C 
BRANCH  13  17
ATOM     17  C   UNL     1      -9.838  32.349  24.833  1.00  0.00     0.066 CG0
ATOM     18  G   UNL     1      -8.891  33.372  24.237  1.00  0.00     0.000 G0
ENDBRANCH  13  17
ENDBRANCH  11  13
ENDBRANCH  10  11
ENDBRANCH   1  10
TORSDOF 0
ENDMDL
MODEL 2
REMARK VINA RESULT:    -5.057      2.240      5.152
REMARK INTER + INTRA:          -6.935
REMARK INTER:                  -7.453
REMARK INTRA:                   0.518
REMARK UNBOUND:                 0.191
REMARK SMILES CC1=CCC(=C(C)C)C(=O)CC(C)=CCC1
REMARK SMILES IDX 12 1 14 2 13 3 15 4 16 5 2 6 1 7 3 8 11 10 9 11 10 12 5 13
REMARK SMILES IDX 6 14 7 15 8 16 4 17
REMARK H PARENT
REMARK Flexibility Score: 60.00
ROOT
ATOM      1  C   UNL     1      -8.222  34.891  25.177  1.00  0.00    -0.070 C 
ATOM      2  C   UNL     1      -8.624  34.278  26.313  1.00  0.00    -0.027 C 
ATOM      3  C   UNL     1      -8.714  36.293  24.919  1.00  0.00     0.039 C 
ENDROOT
BRANCH   2   4
ATOM      4  C   UNL     1      -8.320  32.848  26.701  1.00  0.00     0.032 C 
BRANCH   4   5
ATOM      5  C   UNL     1      -9.438  31.836  26.376  1.00  0.00     0.034 C 
BRANCH   5   6
ATOM      6  C   UNL     1      -9.030  30.808  25.335  1.00  0.00    -0.077 C 
ATOM      7  C   UNL     1      -8.396  29.530  25.824  1.00  0.00     0.039 C 
ATOM      8  C   UNL     1      -9.136  30.993  23.997  1.00  0.00    -0.023 CG0
ATOM      9  G   UNL     1      -9.754  32.179  23.283  1.00  0.00     0.000 G0
ENDBRANCH   5   6
ENDBRANCH   4   5
ENDBRANCH   2   4
BRANCH   1  10
ATOM     10  C   UNL     1      -7.384  34.207  24.117  1.00  0.00     0.111 C 
BRANCH  10  11
ATOM     11  C   UNL     1      -8.115  34.121  22.803  1.00  0.00     0.163 C 
ATOM     12  O   UNL     1      -8.218  35.169  22.110  1.00  0.00    -0.294 OA
BRANCH  11  13
ATOM     13  C   UNL     1      -8.770  32.864  22.330  1.00  0.00    -0.002 C 
ATOM     14  C   UNL     1      -8.558  32.400  21.062  1.00  0.00    -0.069 C 
ATOM     15  C   UNL     1      -7.538  33.047  20.150  1.00  0.00     0.039 C 
ATOM     16  C   UNL     1      -9.325  31.223  20.502  1.00  0.00     0.039 C 
BRANCH  13  17
ATOM     17  C   UNL     1      -9.745  32.188  23.280  1.00  0.00     0.066 CG0
ATOM     18  G   UNL     1      -9.129  30.996  23.986  1.00  0.00     0.000 G0
ENDBRANCH  13  17
ENDBRANCH  11  13
ENDBRANCH  10  11
ENDBRANCH   1  10
TORSDOF 0
ENDMDL
MODEL 3
REMARK VINA RESULT:    -5.047      1.680      3.034
REMARK INTER + INTRA:          -6.921
REMARK INTER:                  -7.444
REMARK INTRA:                   0.523
REMARK UNBOUND:                 0.191
REMARK SMILES CC1=CCC(=C(C)C)C(=O)CC(C)=CCC1
REMARK SMILES IDX 12 1 14 2 13 3 15 4 16 5 2 6 1 7 3 8 11 10 9 11 10 12 5 13
REMARK SMILES IDX 6 14 7 15 8 16 4 17
REMARK H PARENT
REMARK Flexibility Score: 60.00
ROOT
ATOM      1  C   UNL     1      -7.713  33.215  21.172  1.00  0.00    -0.070 C 
ATOM      2  C   UNL     1      -7.661  34.480  21.648  1.00  0.00    -0.027 C 
ATOM      3  C   UNL     1      -7.917  33.027  19.690  1.00  0.00     0.039 C 
ENDROOT
BRANCH   2   4
ATOM      4  C   UNL     1      -7.561  34.872  23.106  1.00  0.00     0.032 C 
BRANCH   4   5
ATOM      5  C   UNL     1      -8.828  34.592  23.940  1.00  0.00     0.034 C 
BRANCH   5   6
ATOM      6  C   UNL     1      -8.527  33.980  25.297  1.00  0.00    -0.077 C 
ATOM      7  C   UNL     1      -7.586  34.727  26.209  1.00  0.00     0.039 C 
ATOM      8  C   UNL     1      -8.992  32.778  25.713  1.00  0.00    -0.023 CG0
ATOM      9  G   UNL     1      -9.958  31.867  24.980  1.00  0.00     0.000 G0
ENDBRANCH   5   6
ENDBRANCH   4   5
ENDBRANCH   2   4
BRANCH   1  10
ATOM     10  C   UNL     1      -7.672  31.991  22.063  1.00  0.00     0.111 C 
BRANCH  10  11
ATOM     11  C   UNL     1      -9.042  31.630  22.574  1.00  0.00     0.163 C 
ATOM     12  O   UNL     1     -10.039  31.924  21.861  1.00  0.00    -0.294 OA
BRANCH  11  13
ATOM     13  C   UNL     1      -9.259  31.000  23.910  1.00  0.00    -0.002 C 
ATOM     14  C   UNL     1      -8.921  29.694  24.131  1.00  0.00    -0.069 C 
ATOM     15  C   UNL     1      -8.175  28.890  23.088  1.00  0.00     0.039 C 
ATOM     16  C   UNL     1      -9.270  28.982  25.419  1.00  0.00     0.039 C 
BRANCH  13  17
ATOM     17  C   UNL     1      -9.952  31.840  24.972  1.00  0.00     0.066 CG0
ATOM     18  G   UNL     1      -8.993  32.768  25.690  1.00  0.00     0.000 G0
ENDBRANCH  13  17
ENDBRANCH  11  13
ENDBRANCH  10  11
ENDBRANCH   1  10
TORSDOF 0
ENDMDL
MODEL 4
REMARK VINA RESULT:    -5.004      1.596      2.926
REMARK INTER + INTRA:          -6.860
REMARK INTER:                  -7.342
REMARK INTRA:                   0.482
REMARK UNBOUND:                 0.191
REMARK SMILES CC1=CCC(=C(C)C)C(=O)CC(C)=CCC1
REMARK SMILES IDX 12 1 14 2 13 3 15 4 16 5 2 6 1 7 3 8 11 10 9 11 10 12 5 13
REMARK SMILES IDX 6 14 7 15 8 16 4 17
REMARK H PARENT
REMARK Flexibility Score: 60.00
ROOT
ATOM      1  C   UNL     1      -8.869  29.761  24.442  1.00  0.00    -0.070 C 
ATOM      2  C   UNL     1      -9.032  29.349  23.164  1.00  0.00    -0.027 C 
ATOM      3  C   UNL     1      -9.697  29.092  25.510  1.00  0.00     0.039 C 
ENDROOT
BRANCH   2   4
ATOM      4  C   UNL     1      -8.369  29.958  21.948  1.00  0.00     0.032 C 
BRANCH   4   5
ATOM      5  C   UNL     1      -9.183  31.071  21.256  1.00  0.00     0.034 C 
BRANCH   5   6
ATOM      6  C   UNL     1      -8.484  32.419  21.269  1.00  0.00    -0.077 C 
ATOM      7  C   UNL     1      -7.458  32.686  20.195  1.00  0.00     0.039 C 
ATOM      8  C   UNL     1      -8.671  33.368  22.217  1.00  0.00    -0.023 CG0
ATOM      9  G   UNL     1      -9.656  33.328  23.369  1.00  0.00     0.000 G0
ENDBRANCH   5   6
ENDBRANCH   4   5
ENDBRANCH   2   4
BRANCH   1  10
ATOM     10  C   UNL     1      -7.970  30.916  24.834  1.00  0.00     0.111 C 
BRANCH  10  11
ATOM     11  C   UNL     1      -8.756  32.049  25.439  1.00  0.00     0.163 C 
ATOM     12  O   UNL     1      -9.301  31.862  26.561  1.00  0.00    -0.294 OA
BRANCH  11  13
ATOM     13  C   UNL     1      -8.961  33.349  24.734  1.00  0.00    -0.002 C 
ATOM     14  C   UNL     1      -8.625  34.531  25.333  1.00  0.00    -0.069 C 
ATOM     15  C   UNL     1      -7.892  34.558  26.657  1.00  0.00     0.039 C 
ATOM     16  C   UNL     1      -8.964  35.868  24.713  1.00  0.00     0.039 C 
BRANCH  13  17
ATOM     17  C   UNL     1      -9.642  33.304  23.375  1.00  0.00     0.066 CG0
ATOM     18  G   UNL     1      -8.650  33.376  22.230  1.00  0.00     0.000 G0
ENDBRANCH  13  17
ENDBRANCH  11  13
ENDBRANCH  10  11
ENDBRANCH   1  10
TORSDOF 0
ENDMDL
MODEL 5
REMARK VINA RESULT:    -4.401      2.161      3.824
REMARK INTER + INTRA:          -6.010
REMARK INTER:                  -6.934
REMARK INTRA:                   0.923
REMARK UNBOUND:                 0.191
REMARK SMILES CC1=CCC(=C(C)C)C(=O)CC(C)=CCC1
REMARK SMILES IDX 12 1 14 2 13 3 15 4 16 5 2 6 1 7 3 8 11 10 9 11 10 12 5 13
REMARK SMILES IDX 6 14 7 15 8 16 4 17
REMARK H PARENT
REMARK Flexibility Score: 60.00
ROOT
ATOM      1  C   UNL     1      -8.227  33.108  20.788  1.00  0.00    -0.070 C 
ATOM      2  C   UNL     1      -8.445  31.784  20.620  1.00  0.00    -0.027 C 
ATOM      3  C   UNL     1      -7.125  33.749  19.983  1.00  0.00     0.039 C 
ENDROOT
BRANCH   2   4
ATOM      4  C   UNL     1      -9.432  30.945  21.401  1.00  0.00     0.032 C 
BRANCH   4   5
ATOM      5  C   UNL     1      -8.818  29.730  22.127  1.00  0.00     0.034 C 
BRANCH   5   6
ATOM      6  C   UNL     1      -7.681  30.105  23.062  1.00  0.00    -0.077 C 
ATOM      7  C   UNL     1      -6.410  29.296  22.981  1.00  0.00     0.039 C 
ATOM      8  C   UNL     1      -7.758  31.072  24.008  1.00  0.00    -0.023 CG0
ATOM      9  G   UNL     1      -8.916  32.017  24.259  1.00  0.00     0.000 G0
ENDBRANCH   5   6
ENDBRANCH   4   5
ENDBRANCH   2   4
BRANCH   1  10
ATOM     10  C   UNL     1      -8.969  33.949  21.806  1.00  0.00     0.111 C 
BRANCH  10  11
ATOM     11  C   UNL     1      -8.155  34.152  23.057  1.00  0.00     0.163 C 
ATOM     12  O   UNL     1      -7.126  34.876  22.986  1.00  0.00    -0.294 OA
BRANCH  11  13
ATOM     13  C   UNL     1      -8.489  33.478  24.348  1.00  0.00    -0.002 C 
ATOM     14  C   UNL     1      -8.324  34.129  25.539  1.00  0.00    -0.069 C 
ATOM     15  C   UNL     1      -7.954  35.596  25.586  1.00  0.00     0.039 C 
ATOM     16  C   UNL     1      -8.502  33.427  26.866  1.00  0.00     0.039 C 
BRANCH  13  17
ATOM     17  C   UNL     1      -8.922  32.022  24.282  1.00  0.00     0.066 CG0
ATOM     18  G   UNL     1      -7.759  31.086  24.018  1.00  0.00     0.000 G0
ENDBRANCH  13  17
ENDBRANCH  11  13
ENDBRANCH  10  11
ENDBRANCH   1  10
TORSDOF 0
ENDMDL
MODEL 6
REMARK VINA RESULT:    -4.375      1.661      4.126
REMARK INTER + INTRA:          -5.975
REMARK INTER:                  -6.783
REMARK INTRA:                   0.808
REMARK UNBOUND:                 0.191
REMARK SMILES CC1=CCC(=C(C)C)C(=O)CC(C)=CCC1
REMARK SMILES IDX 12 1 14 2 13 3 15 4 16 5 2 6 1 7 3 8 11 10 9 11 10 12 5 13
REMARK SMILES IDX 6 14 7 15 8 16 4 17
REMARK H PARENT
REMARK Flexibility Score: 60.00
ROOT
ATOM      1  C   UNL     1      -8.208  34.350  23.381  1.00  0.00    -0.070 C 
ATOM      2  C   UNL     1      -7.570  34.722  24.514  1.00  0.00    -0.027 C 
ATOM      3  C   UNL     1      -7.566  34.701  22.062  1.00  0.00     0.039 C 
ENDROOT
BRANCH   2   4
ATOM      4  C   UNL     1      -8.097  34.549  25.921  1.00  0.00     0.032 C 
BRANCH   4   5
ATOM      5  C   UNL     1      -9.126  33.413  26.093  1.00  0.00     0.034 C 
BRANCH   5   6
ATOM      6  C   UNL     1      -8.502  32.106  26.550  1.00  0.00    -0.077 C 
ATOM      7  C   UNL     1      -7.617  32.141  27.771  1.00  0.00     0.039 C 
ATOM      8  C   UNL     1      -8.633  30.927  25.895  1.00  0.00    -0.023 CG0
ATOM      9  G   UNL     1      -9.481  30.651  24.669  1.00  0.00     0.000 G0
ENDBRANCH   5   6
ENDBRANCH   4   5
ENDBRANCH   2   4
BRANCH   1  10
ATOM     10  C   UNL     1      -9.570  33.686  23.374  1.00  0.00     0.111 C 
BRANCH  10  11
ATOM     11  C   UNL     1      -9.520  32.325  22.730  1.00  0.00     0.163 C 
ATOM     12  O   UNL     1     -10.103  32.170  21.623  1.00  0.00    -0.294 OA
BRANCH  11  13
ATOM     13  C   UNL     1      -8.866  31.153  23.384  1.00  0.00    -0.002 C 
ATOM     14  C   UNL     1      -7.808  30.522  22.791  1.00  0.00    -0.069 C 
ATOM     15  C   UNL     1      -7.164  31.079  21.540  1.00  0.00     0.039 C 
ATOM     16  C   UNL     1      -7.226  29.241  23.347  1.00  0.00     0.039 C 
BRANCH  13  17
ATOM     17  C   UNL     1      -9.484  30.642  24.676  1.00  0.00     0.066 CG0
ATOM     18  G   UNL     1      -8.613  30.924  25.884  1.00  0.00     0.000 G0
ENDBRANCH  13  17
ENDBRANCH  11  13
ENDBRANCH  10  11
ENDBRANCH   1  10
TORSDOF 0
ENDMDL
MODEL 7
REMARK VINA RESULT:    -4.187      2.002      4.257
REMARK INTER + INTRA:          -5.709
REMARK INTER:                  -6.713
REMARK INTRA:                   1.004
REMARK UNBOUND:                 0.191
REMARK SMILES CC1=CCC(=C(C)C)C(=O)CC(C)=CCC1
REMARK SMILES IDX 12 1 14 2 13 3 15 4 16 5 2 6 1 7 3 8 11 10 9 11 10 12 5 13
REMARK SMILES IDX 6 14 7 15 8 16 4 17
REMARK H PARENT
REMARK Flexibility Score: 60.00
ROOT
ATOM      1  C   UNL     1      -9.720  30.357  27.227  1.00  0.00    -0.070 C 
ATOM      2  C   UNL     1      -9.702  29.431  26.242  1.00  0.00    -0.027 C 
ATOM      3  C   UNL     1      -9.458  29.893  28.638  1.00  0.00     0.039 C 
ENDROOT
BRANCH   2   4
ATOM      4  C   UNL     1     -10.035  29.680  24.788  1.00  0.00     0.032 C 
BRANCH   4   5
ATOM      5  C   UNL     1      -9.001  29.131  23.783  1.00  0.00     0.034 C 
BRANCH   5   6
ATOM      6  C   UNL     1      -7.790  30.033  23.618  1.00  0.00    -0.077 C 
ATOM      7  C   UNL     1      -6.457  29.375  23.362  1.00  0.00     0.039 C 
ATOM      8  C   UNL     1      -7.818  31.380  23.753  1.00  0.00    -0.023 CG0
ATOM      9  G   UNL     1      -9.035  32.252  23.989  1.00  0.00     0.000 G0
ENDBRANCH   5   6
ENDBRANCH   4   5
ENDBRANCH   2   4
BRANCH   1  10
ATOM     10  C   UNL     1     -10.082  31.810  26.994  1.00  0.00     0.111 C 
BRANCH  10  11
ATOM     11  C   UNL     1      -8.889  32.615  26.551  1.00  0.00     0.163 C 
ATOM     12  O   UNL     1      -7.978  32.839  27.393  1.00  0.00    -0.294 OA
BRANCH  11  13
ATOM     13  C   UNL     1      -8.781  33.203  25.182  1.00  0.00    -0.002 C 
ATOM     14  C   UNL     1      -8.565  34.542  25.011  1.00  0.00    -0.069 C 
ATOM     15  C   UNL     1      -8.270  35.445  26.189  1.00  0.00     0.039 C 
ATOM     16  C   UNL     1      -8.608  35.192  23.647  1.00  0.00     0.039 C 
BRANCH  13  17
ATOM     17  C   UNL     1      -9.016  32.271  24.004  1.00  0.00     0.066 CG0
ATOM     18  G   UNL     1      -7.826  31.372  23.733  1.00  0.00     0.000 G0
ENDBRANCH  13  17
ENDBRANCH  11  13
ENDBRANCH  10  11
ENDBRANCH   1  10
TORSDOF 0
ENDMDL
MODEL 8
REMARK VINA RESULT:    -3.851     18.570     19.616
REMARK INTER + INTRA:          -5.235
REMARK INTER:                  -5.781
REMARK INTRA:                   0.546
REMARK UNBOUND:                 0.191
REMARK SMILES CC1=CCC(=C(C)C)C(=O)CC(C)=CCC1
REMARK SMILES IDX 12 1 14 2 13 3 15 4 16 5 2 6 1 7 3 8 11 10 9 11 10 12 5 13
REMARK SMILES IDX 6 14 7 15 8 16 4 17
REMARK H PARENT
REMARK Flexibility Score: 60.00
ROOT
ATOM      1  C   UNL     1      -2.436  46.821  14.501  1.00  0.00    -0.070 C 
ATOM      2  C   UNL     1      -1.408  46.171  13.910  1.00  0.00    -0.027 C 
ATOM      3  C   UNL     1      -3.379  47.599  13.617  1.00  0.00     0.039 C 
ENDROOT
BRANCH   2   4
ATOM      4  C   UNL     1      -0.306  45.423  14.629  1.00  0.00     0.032 C 
BRANCH   4   5
ATOM      5  C   UNL     1       1.113  45.983  14.400  1.00  0.00     0.034 C 
BRANCH   5   6
ATOM      6  C   UNL     1       1.235  47.458  14.740  1.00  0.00    -0.077 C 
ATOM      7  C   UNL     1       1.634  48.401  13.632  1.00  0.00     0.039 C 
ATOM      8  C   UNL     1       1.076  47.971  15.983  1.00  0.00    -0.023 CG0
ATOM      9  G   UNL     1       0.660  47.225  17.235  1.00  0.00     0.000 G0
ENDBRANCH   5   6
ENDBRANCH   4   5
ENDBRANCH   2   4
BRANCH   1  10
ATOM     10  C   UNL     1      -2.627  46.882  16.002  1.00  0.00     0.111 C 
BRANCH  10  11
ATOM     11  C   UNL     1      -1.751  47.933  16.631  1.00  0.00     0.163 C 
ATOM     12  O   UNL     1      -1.834  49.114  16.198  1.00  0.00    -0.294 OA
BRANCH  11  13
ATOM     13  C   UNL     1      -0.752  47.612  17.695  1.00  0.00    -0.002 C 
ATOM     14  C   UNL     1      -1.075  47.738  19.017  1.00  0.00    -0.069 C 
ATOM     15  C   UNL     1      -2.490  48.050  19.453  1.00  0.00     0.039 C 
ATOM     16  C   UNL     1      -0.045  47.573  20.112  1.00  0.00     0.039 C 
BRANCH  13  17
ATOM     17  C   UNL     1       0.650  47.236  17.243  1.00  0.00     0.066 CG0
ATOM     18  G   UNL     1       1.066  47.971  15.984  1.00  0.00     0.000 G0
ENDBRANCH  13  17
ENDBRANCH  11  13
ENDBRANCH  10  11
ENDBRANCH   1  10
TORSDOF 0
ENDMDL
MODEL 9
REMARK VINA RESULT:    -3.712     18.433     20.078
REMARK INTER + INTRA:          -5.040
REMARK INTER:                  -5.361
REMARK INTRA:                   0.321
REMARK UNBOUND:                 0.191
REMARK SMILES CC1=CCC(=C(C)C)C(=O)CC(C)=CCC1
REMARK SMILES IDX 12 1 14 2 13 3 15 4 16 5 2 6 1 7 3 8 11 10 9 11 10 12 5 13
REMARK SMILES IDX 6 14 7 15 8 16 4 17
REMARK H PARENT
REMARK Flexibility Score: 60.00
ROOT
ATOM      1  C   UNL     1       1.476  46.798  15.336  1.00  0.00    -0.070 C 
ATOM      2  C   UNL     1       1.833  46.908  16.635  1.00  0.00    -0.027 C 
ATOM      3  C   UNL     1       1.376  45.413  14.746  1.00  0.00     0.039 C 
ENDROOT
BRANCH   2   4
ATOM      4  C   UNL     1       2.082  48.203  17.377  1.00  0.00     0.032 C 
BRANCH   4   5
ATOM      5  C   UNL     1       0.812  49.012  17.710  1.00  0.00     0.034 C 
BRANCH   5   6
ATOM      6  C   UNL     1      -0.373  48.138  18.082  1.00  0.00    -0.077 C 
ATOM      7  C   UNL     1      -0.324  47.415  19.405  1.00  0.00     0.039 C 
ATOM      8  C   UNL     1      -1.438  47.912  17.276  1.00  0.00    -0.023 CG0
ATOM      9  G   UNL     1      -1.711  48.539  15.923  1.00  0.00     0.000 G0
ENDBRANCH   5   6
ENDBRANCH   4   5
ENDBRANCH   2   4
BRANCH   1  10
ATOM     10  C   UNL     1       1.267  47.992  14.428  1.00  0.00     0.111 C 
BRANCH  10  11
ATOM     11  C   UNL     1      -0.151  48.067  13.928  1.00  0.00     0.163 C 
ATOM     12  O   UNL     1      -0.354  48.564  12.787  1.00  0.00    -0.294 OA
BRANCH  11  13
ATOM     13  C   UNL     1      -1.317  47.636  14.756  1.00  0.00    -0.002 C 
ATOM     14  C   UNL     1      -2.032  46.518  14.428  1.00  0.00    -0.069 C 
ATOM     15  C   UNL     1      -1.578  45.594  13.319  1.00  0.00     0.039 C 
ATOM     16  C   UNL     1      -3.307  46.142  15.150  1.00  0.00     0.039 C 
BRANCH  13  17
ATOM     17  C   UNL     1      -1.725  48.540  15.908  1.00  0.00     0.066 CG0
ATOM     18  G   UNL     1      -1.446  47.913  17.260  1.00  0.00     0.000 G0
ENDBRANCH  13  17
ENDBRANCH  11  13
ENDBRANCH  10  11
ENDBRANCH   1  10
TORSDOF 0
ENDMDL
