MODEL 1
REMARK VINA RESULT:    -1.295      0.000      0.000
REMARK INTER + INTRA:          -1.295
REMARK INTER:                  -1.295
REMARK INTRA:                   0.000
REMARK UNBOUND:                 0.000
REMARK SMILES CC1=CC[C@]2(C)CCCC(C)(C)[C@@]23C[C@@H]13
REMARK SMILES IDX 1 1 2 2 3 3 4 4 5 5 7 6 8 7 9 8 10 9 13 10 15 11 14 12 11 13
REMARK SMILES IDX 12 14 6 15
REMARK H PARENT
REMARK Flexibility Score: inf
ROOT
ATOM      1  C   UNL     1       9.412   8.522  14.148  1.00  0.00     0.039 C 
ATOM      2  C   UNL     1       8.269   7.797  13.500  1.00  0.00    -0.074 C 
ATOM      3  C   UNL     1       8.504   6.716  12.742  1.00  0.00    -0.027 C 
ATOM      4  C   UNL     1       7.367   5.953  12.127  1.00  0.00     0.034 C 
ATOM      5  C   UNL     1       6.181   5.801  13.119  1.00  0.00    -0.022 C 
ATOM      6  C   UNL     1       5.025   5.080  12.368  1.00  0.00     0.008 C 
ATOM      7  C   UNL     1       3.691   5.279  13.076  1.00  0.00     0.001 C 
ATOM      8  C   UNL     1       3.220   6.736  13.010  1.00  0.00     0.007 C 
ATOM      9  C   UNL     1       4.347   7.829  13.051  1.00  0.00    -0.029 C 
ATOM     10  C   UNL     1       5.711   7.239  13.622  1.00  0.00    -0.012 C 
ATOM     11  C   UNL     1       6.855   8.281  13.726  1.00  0.00     0.022 C 
ATOM     12  C   UNL     1       6.226   7.738  14.997  1.00  0.00     0.017 C 
ATOM     13  C   UNL     1       4.588   8.367  11.615  1.00  0.00     0.012 C 
ATOM     14  C   UNL     1       3.782   9.021  13.875  1.00  0.00     0.012 C 
ATOM     15  C   UNL     1       6.623   4.875  14.291  1.00  0.00     0.012 C 
ENDROOT
TORSDOF 0
ENDMDL
