MODEL 1
REMARK VINA RESULT:    -3.274      0.000      0.000
REMARK INTER + INTRA:          -3.945
REMARK INTER:                  -4.614
REMARK INTRA:                   0.669
REMARK UNBOUND:                 0.669
REMARK SMILES CC1=CCCC(C)=CCC(C)(C)C=CC1
REMARK SMILES IDX 2 1 3 2 1 3 4 4 5 5 6 6 7 7 8 8 15 10 14 11 13 12 10 13
REMARK SMILES IDX 11 14 12 15 9 16
REMARK H PARENT
REMARK Flexibility Score: 60.00
ROOT
ATOM      1  C   UNL     1      22.949   3.270 103.297  1.00  0.00    -0.074 C 
ATOM      2  C   UNL     1      22.135   2.183 103.306  1.00  0.00    -0.027 C 
ATOM      3  C   UNL     1      22.501   4.475 104.089  1.00  0.00     0.039 C 
ENDROOT
BRANCH   2   4
ATOM      4  C   UNL     1      22.370   0.854 102.616  1.00  0.00     0.032 C 
BRANCH   4   5
ATOM      5  C   UNL     1      23.433   0.021 103.366  1.00  0.00     0.034 C 
BRANCH   5   6
ATOM      6  C   UNL     1      24.573  -0.415 102.459  1.00  0.00    -0.077 C 
ATOM      7  C   UNL     1      24.299  -1.413 101.363  1.00  0.00     0.039 C 
ATOM      8  C   UNL     1      25.841   0.035 102.613  1.00  0.00    -0.027 CG0
ATOM      9  G   UNL     1      26.277   1.032 103.666  1.00  0.00     0.000 G0
ENDBRANCH   5   6
ENDBRANCH   4   5
ENDBRANCH   2   4
BRANCH   1  10
ATOM     10  C   UNL     1      24.234   3.387 102.492  1.00  0.00     0.057 C 
BRANCH  10  11
ATOM     11  C   UNL     1      25.357   4.026 103.282  1.00  0.00    -0.026 C 
ATOM     12  C   UNL     1      26.597   3.535 103.523  1.00  0.00    -0.024 C 
BRANCH  12  13
ATOM     13  C   UNL     1      27.191   2.184 103.102  1.00  0.00    -0.014 C 
ATOM     14  C   UNL     1      28.596   2.071 103.745  1.00  0.00     0.016 C 
ATOM     15  C   UNL     1      27.388   2.125 101.560  1.00  0.00     0.016 C 
BRANCH  13  16
ATOM     16  C   UNL     1      26.305   1.029 103.663  1.00  0.00     0.038 CG0
ATOM     17  G   UNL     1      25.847   0.036 102.615  1.00  0.00     0.000 G0
ENDBRANCH  13  16
ENDBRANCH  12  13
ENDBRANCH  10  11
ENDBRANCH   1  10
TORSDOF 0
ENDMDL
MODEL 2
REMARK VINA RESULT:    -3.273      5.445      8.084
REMARK INTER + INTRA:          -3.943
REMARK INTER:                  -4.577
REMARK INTRA:                   0.635
REMARK UNBOUND:                 0.669
REMARK SMILES CC1=CCCC(C)=CCC(C)(C)C=CC1
REMARK SMILES IDX 2 1 3 2 1 3 4 4 5 5 6 6 7 7 8 8 15 10 14 11 13 12 10 13
REMARK SMILES IDX 11 14 12 15 9 16
REMARK H PARENT
REMARK Flexibility Score: 60.00
ROOT
ATOM      1  C   UNL     1      22.620  -6.421 104.437  1.00  0.00    -0.074 C 
ATOM      2  C   UNL     1      23.580  -5.620 104.969  1.00  0.00    -0.027 C 
ATOM      3  C   UNL     1      21.423  -6.734 105.302  1.00  0.00     0.039 C 
ENDROOT
BRANCH   2   4
ATOM      4  C   UNL     1      24.853  -5.144 104.302  1.00  0.00     0.032 C 
BRANCH   4   5
ATOM      5  C   UNL     1      24.771  -3.640 103.961  1.00  0.00     0.034 C 
BRANCH   5   6
ATOM      6  C   UNL     1      25.218  -3.343 102.537  1.00  0.00    -0.077 C 
ATOM      7  C   UNL     1      26.626  -2.863 102.295  1.00  0.00     0.039 C 
ATOM      8  C   UNL     1      24.391  -3.464 101.472  1.00  0.00    -0.027 CG0
ATOM      9  G   UNL     1      22.951  -3.929 101.552  1.00  0.00     0.000 G0
ENDBRANCH   5   6
ENDBRANCH   4   5
ENDBRANCH   2   4
BRANCH   1  10
ATOM     10  C   UNL     1      22.701  -7.082 103.069  1.00  0.00     0.057 C 
BRANCH  10  11
ATOM     11  C   UNL     1      21.507  -6.755 102.196  1.00  0.00    -0.026 C 
ATOM     12  C   UNL     1      21.452  -5.924 101.127  1.00  0.00    -0.024 C 
BRANCH  12  13
ATOM     13  C   UNL     1      22.568  -5.053 100.533  1.00  0.00    -0.014 C 
ATOM     14  C   UNL     1      22.011  -4.396  99.246  1.00  0.00     0.016 C 
ATOM     15  C   UNL     1      23.784  -5.926 100.111  1.00  0.00     0.016 C 
BRANCH  13  16
ATOM     16  C   UNL     1      22.933  -3.918 101.539  1.00  0.00     0.038 CG0
ATOM     17  G   UNL     1      24.379  -3.470 101.468  1.00  0.00     0.000 G0
ENDBRANCH  13  16
ENDBRANCH  12  13
ENDBRANCH  10  11
ENDBRANCH   1  10
TORSDOF 0
ENDMDL
MODEL 3
REMARK VINA RESULT:    -3.210      5.238      7.113
REMARK INTER + INTRA:          -3.854
REMARK INTER:                  -4.445
REMARK INTRA:                   0.591
REMARK UNBOUND:                 0.669
REMARK SMILES CC1=CCCC(C)=CCC(C)(C)C=CC1
REMARK SMILES IDX 2 1 3 2 1 3 4 4 5 5 6 6 7 7 8 8 15 10 14 11 13 12 10 13
REMARK SMILES IDX 11 14 12 15 9 16
REMARK H PARENT
REMARK Flexibility Score: 60.00
ROOT
ATOM      1  C   UNL     1      32.419   3.805 100.964  1.00  0.00    -0.074 C 
ATOM      2  C   UNL     1      31.532   2.868 100.538  1.00  0.00    -0.027 C 
ATOM      3  C   UNL     1      32.644   5.000 100.069  1.00  0.00     0.039 C 
ENDROOT
BRANCH   2   4
ATOM      4  C   UNL     1      31.118   1.601 101.259  1.00  0.00     0.032 C 
BRANCH   4   5
ATOM      5  C   UNL     1      29.746   1.779 101.946  1.00  0.00     0.034 C 
BRANCH   5   6
ATOM      6  C   UNL     1      29.724   1.202 103.353  1.00  0.00    -0.077 C 
ATOM      7  C   UNL     1      29.348  -0.244 103.548  1.00  0.00     0.039 C 
ATOM      8  C   UNL     1      30.001   1.945 104.451  1.00  0.00    -0.027 CG0
ATOM      9  G   UNL     1      30.390   3.409 104.421  1.00  0.00     0.000 G0
ENDBRANCH   5   6
ENDBRANCH   4   5
ENDBRANCH   2   4
BRANCH   1  10
ATOM     10  C   UNL     1      33.251   3.701 102.233  1.00  0.00     0.057 C 
BRANCH  10  11
ATOM     11  C   UNL     1      33.053   4.885 103.155  1.00  0.00    -0.026 C 
ATOM     12  C   UNL     1      32.444   4.912 104.365  1.00  0.00    -0.024 C 
BRANCH  12  13
ATOM     13  C   UNL     1      31.752   3.766 105.115  1.00  0.00    -0.014 C 
ATOM     14  C   UNL     1      31.456   4.260 106.553  1.00  0.00     0.016 C 
ATOM     15  C   UNL     1      32.698   2.538 105.240  1.00  0.00     0.016 C 
BRANCH  13  16
ATOM     16  C   UNL     1      30.392   3.439 104.424  1.00  0.00     0.038 CG0
ATOM     17  G   UNL     1      30.014   1.972 104.465  1.00  0.00     0.000 G0
ENDBRANCH  13  16
ENDBRANCH  12  13
ENDBRANCH  10  11
ENDBRANCH   1  10
TORSDOF 0
ENDMDL
MODEL 4
REMARK VINA RESULT:    -3.196      4.716      7.755
REMARK INTER + INTRA:          -3.835
REMARK INTER:                  -4.463
REMARK INTRA:                   0.628
REMARK UNBOUND:                 0.669
REMARK SMILES CC1=CCCC(C)=CCC(C)(C)C=CC1
REMARK SMILES IDX 2 1 3 2 1 3 4 4 5 5 6 6 7 7 8 8 15 10 14 11 13 12 10 13
REMARK SMILES IDX 11 14 12 15 9 16
REMARK H PARENT
REMARK Flexibility Score: 60.00
ROOT
ATOM      1  C   UNL     1      29.232   2.883 103.864  1.00  0.00    -0.074 C 
ATOM      2  C   UNL     1      29.313   4.074 104.512  1.00  0.00    -0.027 C 
ATOM      3  C   UNL     1      27.854   2.394 103.486  1.00  0.00     0.039 C 
ENDROOT
BRANCH   2   4
ATOM      4  C   UNL     1      30.569   4.786 104.972  1.00  0.00     0.032 C 
BRANCH   4   5
ATOM      5  C   UNL     1      31.301   5.443 103.782  1.00  0.00     0.034 C 
BRANCH   5   6
ATOM      6  C   UNL     1      32.770   5.054 103.717  1.00  0.00    -0.077 C 
ATOM      7  C   UNL     1      33.705   5.537 104.796  1.00  0.00     0.039 C 
ATOM      8  C   UNL     1      33.285   4.310 102.709  1.00  0.00    -0.027 CG0
ATOM      9  G   UNL     1      32.479   3.756 101.553  1.00  0.00     0.000 G0
ENDBRANCH   5   6
ENDBRANCH   4   5
ENDBRANCH   2   4
BRANCH   1  10
ATOM     10  C   UNL     1      30.415   1.976 103.561  1.00  0.00     0.057 C 
BRANCH  10  11
ATOM     11  C   UNL     1      30.383   1.433 102.149  1.00  0.00    -0.026 C 
ATOM     12  C   UNL     1      31.341   1.520 101.194  1.00  0.00    -0.024 C 
BRANCH  12  13
ATOM     13  C   UNL     1      32.701   2.227 101.265  1.00  0.00    -0.014 C 
ATOM     14  C   UNL     1      33.379   2.074  99.881  1.00  0.00     0.016 C 
ATOM     15  C   UNL     1      33.628   1.538 102.306  1.00  0.00     0.016 C 
BRANCH  13  16
ATOM     16  C   UNL     1      32.483   3.749 101.534  1.00  0.00     0.038 CG0
ATOM     17  G   UNL     1      33.283   4.291 102.701  1.00  0.00     0.000 G0
ENDBRANCH  13  16
ENDBRANCH  12  13
ENDBRANCH  10  11
ENDBRANCH   1  10
TORSDOF 0
ENDMDL
MODEL 5
REMARK VINA RESULT:    -3.193      4.683      6.921
REMARK INTER + INTRA:          -3.830
REMARK INTER:                  -4.550
REMARK INTRA:                   0.720
REMARK UNBOUND:                 0.669
REMARK SMILES CC1=CCCC(C)=CCC(C)(C)C=CC1
REMARK SMILES IDX 2 1 3 2 1 3 4 4 5 5 6 6 7 7 8 8 15 10 14 11 13 12 10 13
REMARK SMILES IDX 11 14 12 15 9 16
REMARK H PARENT
REMARK Flexibility Score: 60.00
ROOT
ATOM      1  C   UNL     1      23.578  -1.825 102.253  1.00  0.00    -0.074 C 
ATOM      2  C   UNL     1      22.459  -2.059 101.520  1.00  0.00    -0.027 C 
ATOM      3  C   UNL     1      23.737  -0.447 102.850  1.00  0.00     0.039 C 
ENDROOT
BRANCH   2   4
ATOM      4  C   UNL     1      22.058  -3.354 100.843  1.00  0.00     0.032 C 
BRANCH   4   5
ATOM      5  C   UNL     1      21.275  -4.266 101.812  1.00  0.00     0.034 C 
BRANCH   5   6
ATOM      6  C   UNL     1      21.625  -5.736 101.635  1.00  0.00    -0.077 C 
ATOM      7  C   UNL     1      21.133  -6.465 100.412  1.00  0.00     0.039 C 
ATOM      8  C   UNL     1      22.341  -6.431 102.551  1.00  0.00    -0.027 CG0
ATOM      9  G   UNL     1      22.900  -5.844 103.830  1.00  0.00     0.000 G0
ENDBRANCH   5   6
ENDBRANCH   4   5
ENDBRANCH   2   4
BRANCH   1  10
ATOM     10  C   UNL     1      24.711  -2.821 102.452  1.00  0.00     0.057 C 
BRANCH  10  11
ATOM     11  C   UNL     1      24.933  -3.162 103.910  1.00  0.00    -0.026 C 
ATOM     12  C   UNL     1      24.845  -4.374 104.511  1.00  0.00    -0.024 C 
BRANCH  12  13
ATOM     13  C   UNL     1      24.454  -5.723 103.891  1.00  0.00    -0.014 C 
ATOM     14  C   UNL     1      25.001  -6.837 104.818  1.00  0.00     0.016 C 
ATOM     15  C   UNL     1      25.132  -5.910 102.504  1.00  0.00     0.016 C 
BRANCH  13  16
ATOM     16  C   UNL     1      22.899  -5.846 103.849  1.00  0.00     0.038 CG0
ATOM     17  G   UNL     1      22.360  -6.423 102.557  1.00  0.00     0.000 G0
ENDBRANCH  13  16
ENDBRANCH  12  13
ENDBRANCH  10  11
ENDBRANCH   1  10
TORSDOF 0
ENDMDL
MODEL 6
REMARK VINA RESULT:    -3.003      5.224      7.386
REMARK INTER + INTRA:          -3.562
REMARK INTER:                  -4.191
REMARK INTRA:                   0.629
REMARK UNBOUND:                 0.669
REMARK SMILES CC1=CCCC(C)=CCC(C)(C)C=CC1
REMARK SMILES IDX 2 1 3 2 1 3 4 4 5 5 6 6 7 7 8 8 15 10 14 11 13 12 10 13
REMARK SMILES IDX 11 14 12 15 9 16
REMARK H PARENT
REMARK Flexibility Score: 60.00
ROOT
ATOM      1  C   UNL     1      29.734   1.019 102.587  1.00  0.00    -0.074 C 
ATOM      2  C   UNL     1      30.485   1.011 101.455  1.00  0.00    -0.027 C 
ATOM      3  C   UNL     1      29.263  -0.316 103.113  1.00  0.00     0.039 C 
ENDROOT
BRANCH   2   4
ATOM      4  C   UNL     1      31.092   2.205 100.748  1.00  0.00     0.032 C 
BRANCH   4   5
ATOM      5  C   UNL     1      32.488   2.536 101.319  1.00  0.00     0.034 C 
BRANCH   5   6
ATOM      6  C   UNL     1      32.614   3.995 101.732  1.00  0.00    -0.077 C 
ATOM      7  C   UNL     1      32.888   5.036 100.678  1.00  0.00     0.039 C 
ATOM      8  C   UNL     1      32.519   4.399 103.021  1.00  0.00    -0.027 CG0
ATOM      9  G   UNL     1      32.251   3.477 104.193  1.00  0.00     0.000 G0
ENDBRANCH   5   6
ENDBRANCH   4   5
ENDBRANCH   2   4
BRANCH   1  10
ATOM     10  C   UNL     1      29.272   2.272 103.315  1.00  0.00     0.057 C 
BRANCH  10  11
ATOM     11  C   UNL     1      29.445   2.168 104.816  1.00  0.00    -0.026 C 
ATOM     12  C   UNL     1      30.242   2.910 105.622  1.00  0.00    -0.024 C 
BRANCH  12  13
ATOM     13  C   UNL     1      31.220   4.028 105.235  1.00  0.00    -0.014 C 
ATOM     14  C   UNL     1      31.985   4.443 106.516  1.00  0.00     0.016 C 
ATOM     15  C   UNL     1      30.452   5.284 104.735  1.00  0.00     0.016 C 
BRANCH  13  16
ATOM     16  C   UNL     1      32.257   3.479 104.206  1.00  0.00     0.038 CG0
ATOM     17  G   UNL     1      32.504   4.399 103.028  1.00  0.00     0.000 G0
ENDBRANCH  13  16
ENDBRANCH  12  13
ENDBRANCH  10  11
ENDBRANCH   1  10
TORSDOF 0
ENDMDL
MODEL 7
REMARK VINA RESULT:    -2.898      4.394      7.229
REMARK INTER + INTRA:          -3.415
REMARK INTER:                  -4.359
REMARK INTRA:                   0.944
REMARK UNBOUND:                 0.669
REMARK SMILES CC1=CCCC(C)=CCC(C)(C)C=CC1
REMARK SMILES IDX 2 1 3 2 1 3 4 4 5 5 6 6 7 7 8 8 15 10 14 11 13 12 10 13
REMARK SMILES IDX 11 14 12 15 9 16
REMARK H PARENT
REMARK Flexibility Score: 60.00
ROOT
ATOM      1  C   UNL     1      23.691  -1.717 102.235  1.00  0.00    -0.074 C 
ATOM      2  C   UNL     1      24.683  -1.862 103.151  1.00  0.00    -0.027 C 
ATOM      3  C   UNL     1      22.799  -0.506 102.367  1.00  0.00     0.039 C 
ENDROOT
BRANCH   2   4
ATOM      4  C   UNL     1      25.716  -2.968 103.220  1.00  0.00     0.032 C 
BRANCH   4   5
ATOM      5  C   UNL     1      25.287  -4.065 104.219  1.00  0.00     0.034 C 
BRANCH   5   6
ATOM      6  C   UNL     1      25.399  -5.462 103.629  1.00  0.00    -0.077 C 
ATOM      7  C   UNL     1      26.749  -6.130 103.575  1.00  0.00     0.039 C 
ATOM      8  C   UNL     1      24.335  -6.127 103.118  1.00  0.00    -0.027 CG0
ATOM      9  G   UNL     1      22.919  -5.590 103.094  1.00  0.00     0.000 G0
ENDBRANCH   5   6
ENDBRANCH   4   5
ENDBRANCH   2   4
BRANCH   1  10
ATOM     10  C   UNL     1      23.368  -2.721 101.138  1.00  0.00     0.057 C 
BRANCH  10  11
ATOM     11  C   UNL     1      21.921  -3.165 101.167  1.00  0.00    -0.026 C 
ATOM     12  C   UNL     1      21.428  -4.401 101.422  1.00  0.00    -0.024 C 
BRANCH  12  13
ATOM     13  C   UNL     1      22.198  -5.699 101.707  1.00  0.00    -0.014 C 
ATOM     14  C   UNL     1      23.287  -5.845 100.616  1.00  0.00     0.016 C 
ATOM     15  C   UNL     1      21.261  -6.934 101.586  1.00  0.00     0.016 C 
BRANCH  13  16
ATOM     16  C   UNL     1      22.909  -5.588 103.091  1.00  0.00     0.038 CG0
ATOM     17  G   UNL     1      24.323  -6.130 103.105  1.00  0.00     0.000 G0
ENDBRANCH  13  16
ENDBRANCH  12  13
ENDBRANCH  10  11
ENDBRANCH   1  10
TORSDOF 0
ENDMDL
MODEL 8
REMARK VINA RESULT:    -2.754      5.983      8.042
REMARK INTER + INTRA:          -3.211
REMARK INTER:                  -4.423
REMARK INTRA:                   1.212
REMARK UNBOUND:                 0.669
REMARK SMILES CC1=CCCC(C)=CCC(C)(C)C=CC1
REMARK SMILES IDX 2 1 3 2 1 3 4 4 5 5 6 6 7 7 8 8 15 10 14 11 13 12 10 13
REMARK SMILES IDX 11 14 12 15 9 16
REMARK H PARENT
REMARK Flexibility Score: 60.00
ROOT
ATOM      1  C   UNL     1      32.924   4.403 101.176  1.00  0.00    -0.074 C 
ATOM      2  C   UNL     1      33.284   4.948 102.367  1.00  0.00    -0.027 C 
ATOM      3  C   UNL     1      32.652   5.354 100.035  1.00  0.00     0.039 C 
ENDROOT
BRANCH   2   4
ATOM      4  C   UNL     1      33.629   4.213 103.646  1.00  0.00     0.032 C 
BRANCH   4   5
ATOM      5  C   UNL     1      32.702   4.647 104.802  1.00  0.00     0.034 C 
BRANCH   5   6
ATOM      6  C   UNL     1      31.236   4.381 104.500  1.00  0.00    -0.077 C 
ATOM      7  C   UNL     1      30.266   5.535 104.496  1.00  0.00     0.039 C 
ATOM      8  C   UNL     1      30.753   3.138 104.262  1.00  0.00    -0.027 CG0
ATOM      9  G   UNL     1      31.597   1.880 104.236  1.00  0.00     0.000 G0
ENDBRANCH   5   6
ENDBRANCH   4   5
ENDBRANCH   2   4
BRANCH   1  10
ATOM     10  C   UNL     1      32.704   2.918 100.931  1.00  0.00     0.057 C 
BRANCH  10  11
ATOM     11  C   UNL     1      31.243   2.528 101.009  1.00  0.00    -0.026 C 
ATOM     12  C   UNL     1      30.641   1.705 101.901  1.00  0.00    -0.024 C 
BRANCH  12  13
ATOM     13  C   UNL     1      31.276   0.908 103.049  1.00  0.00    -0.014 C 
ATOM     14  C   UNL     1      32.610   0.320 102.526  1.00  0.00     0.016 C 
ATOM     15  C   UNL     1      30.374  -0.293 103.451  1.00  0.00     0.016 C 
BRANCH  13  16
ATOM     16  C   UNL     1      31.600   1.870 104.233  1.00  0.00     0.038 CG0
ATOM     17  G   UNL     1      30.749   3.123 104.264  1.00  0.00     0.000 G0
ENDBRANCH  13  16
ENDBRANCH  12  13
ENDBRANCH  10  11
ENDBRANCH   1  10
TORSDOF 0
ENDMDL
MODEL 9
REMARK VINA RESULT:    -2.752      5.021      6.727
REMARK INTER + INTRA:          -3.210
REMARK INTER:                  -4.177
REMARK INTRA:                   0.967
REMARK UNBOUND:                 0.669
REMARK SMILES CC1=CCCC(C)=CCC(C)(C)C=CC1
REMARK SMILES IDX 2 1 3 2 1 3 4 4 5 5 6 6 7 7 8 8 15 10 14 11 13 12 10 13
REMARK SMILES IDX 11 14 12 15 9 16
REMARK H PARENT
REMARK Flexibility Score: 60.00
ROOT
ATOM      1  C   UNL     1      21.972  -4.365 100.850  1.00  0.00    -0.074 C 
ATOM      2  C   UNL     1      21.659  -5.441 101.619  1.00  0.00    -0.027 C 
ATOM      3  C   UNL     1      21.788  -4.505  99.358  1.00  0.00     0.039 C 
ENDROOT
BRANCH   2   4
ATOM      4  C   UNL     1      21.732  -5.544 103.129  1.00  0.00     0.032 C 
BRANCH   4   5
ATOM      5  C   UNL     1      22.845  -6.521 103.564  1.00  0.00     0.034 C 
BRANCH   5   6
ATOM      6  C   UNL     1      23.781  -5.912 104.597  1.00  0.00    -0.077 C 
ATOM      7  C   UNL     1      23.528  -6.172 106.059  1.00  0.00     0.039 C 
ATOM      8  C   UNL     1      24.822  -5.115 104.258  1.00  0.00    -0.027 CG0
ATOM      9  G   UNL     1      25.202  -4.756 102.837  1.00  0.00     0.000 G0
ENDBRANCH   5   6
ENDBRANCH   4   5
ENDBRANCH   2   4
BRANCH   1  10
ATOM     10  C   UNL     1      22.562  -3.065 101.375  1.00  0.00     0.057 C 
BRANCH  10  11
ATOM     11  C   UNL     1      23.874  -2.713 100.707  1.00  0.00    -0.026 C 
ATOM     12  C   UNL     1      25.126  -2.808 101.217  1.00  0.00    -0.024 C 
BRANCH  12  13
ATOM     13  C   UNL     1      25.557  -3.253 102.621  1.00  0.00    -0.014 C 
ATOM     14  C   UNL     1      24.749  -2.417 103.645  1.00  0.00     0.016 C 
ATOM     15  C   UNL     1      27.061  -2.940 102.862  1.00  0.00     0.016 C 
BRANCH  13  16
ATOM     16  C   UNL     1      25.192  -4.756 102.825  1.00  0.00     0.038 CG0
ATOM     17  G   UNL     1      24.817  -5.114 104.249  1.00  0.00     0.000 G0
ENDBRANCH  13  16
ENDBRANCH  12  13
ENDBRANCH  10  11
ENDBRANCH   1  10
TORSDOF 0
ENDMDL
