MODEL 1
REMARK VINA RESULT:    -3.575      0.000      0.000
REMARK INTER + INTRA:          -4.469
REMARK INTER:                  -4.411
REMARK INTRA:                  -0.059
REMARK UNBOUND:                -0.059
REMARK SMILES CCCCCC(=O)[O-]
REMARK SMILES IDX 4 1 5 2 6 3 7 4 8 5 3 6 2 7 1 8
REMARK H PARENT
REMARK Flexibility Score: inf
ROOT
ATOM      1  C   UNL     1      -9.950  22.337  24.656  1.00  0.00     0.006 C 
ENDROOT
BRANCH   1   2
ATOM      2  C   UNL     1      -9.116  23.442  25.318  1.00  0.00     0.053 C 
BRANCH   2   3
ATOM      3  C   UNL     1      -8.465  22.928  26.563  1.00  0.00     0.041 C 
ATOM      4  O   UNL     1      -7.214  22.802  26.619  1.00  0.00    -0.550 OA
ATOM      5  O   UNL     1      -9.244  22.541  27.646  1.00  0.00    -0.550 OA
ENDBRANCH   2   3
ENDBRANCH   1   2
BRANCH   1   6
ATOM      6  C   UNL     1     -11.119  22.890  23.819  1.00  0.00     0.000 C 
BRANCH   6   7
ATOM      7  C   UNL     1     -10.702  23.608  22.523  1.00  0.00    -0.003 C 
ATOM      8  C   UNL     1     -11.793  23.593  21.453  1.00  0.00     0.004 C 
ENDBRANCH   6   7
ENDBRANCH   1   6
TORSDOF 4
ENDMDL
MODEL 2
REMARK VINA RESULT:    -3.343     10.856     11.878
REMARK INTER + INTRA:          -4.184
REMARK INTER:                  -3.993
REMARK INTRA:                  -0.190
REMARK UNBOUND:                -0.059
REMARK SMILES CCCCCC(=O)[O-]
REMARK SMILES IDX 4 1 5 2 6 3 7 4 8 5 3 6 2 7 1 8
REMARK H PARENT
REMARK Flexibility Score: inf
ROOT
ATOM      1  C   UNL     1     -15.387  23.248  34.011  1.00  0.00     0.006 C 
ENDROOT
BRANCH   1   2
ATOM      2  C   UNL     1     -16.671  22.961  33.222  1.00  0.00     0.053 C 
BRANCH   2   3
ATOM      3  C   UNL     1     -16.968  21.495  33.225  1.00  0.00     0.041 C 
ATOM      4  O   UNL     1     -16.197  20.690  32.642  1.00  0.00    -0.550 OA
ATOM      5  O   UNL     1     -18.125  21.022  33.833  1.00  0.00    -0.550 OA
ENDBRANCH   2   3
ENDBRANCH   1   2
BRANCH   1   6
ATOM      6  C   UNL     1     -15.421  22.673  35.439  1.00  0.00     0.000 C 
BRANCH   6   7
ATOM      7  C   UNL     1     -14.068  22.155  35.959  1.00  0.00    -0.003 C 
ATOM      8  C   UNL     1     -12.994  22.091  34.873  1.00  0.00     0.004 C 
ENDBRANCH   6   7
ENDBRANCH   1   6
TORSDOF 4
ENDMDL
MODEL 3
REMARK VINA RESULT:    -3.327     10.286     11.539
REMARK INTER + INTRA:          -4.164
REMARK INTER:                  -3.991
REMARK INTRA:                  -0.173
REMARK UNBOUND:                -0.059
REMARK SMILES CCCCCC(=O)[O-]
REMARK SMILES IDX 4 1 5 2 6 3 7 4 8 5 3 6 2 7 1 8
REMARK H PARENT
REMARK Flexibility Score: inf
ROOT
ATOM      1  C   UNL     1     -15.805  22.755  34.210  1.00  0.00     0.006 C 
ENDROOT
BRANCH   1   2
ATOM      2  C   UNL     1     -16.512  24.091  33.949  1.00  0.00     0.053 C 
BRANCH   2   3
ATOM      3  C   UNL     1     -15.821  24.842  32.855  1.00  0.00     0.041 C 
ATOM      4  O   UNL     1     -14.567  24.807  32.757  1.00  0.00    -0.550 OA
ATOM      5  O   UNL     1     -16.559  25.621  31.972  1.00  0.00    -0.550 OA
ENDBRANCH   2   3
ENDBRANCH   1   2
BRANCH   1   6
ATOM      6  C   UNL     1     -15.436  22.553  35.691  1.00  0.00     0.000 C 
BRANCH   6   7
ATOM      7  C   UNL     1     -14.014  22.013  35.934  1.00  0.00    -0.003 C 
ATOM      8  C   UNL     1     -13.030  22.402  34.832  1.00  0.00     0.004 C 
ENDBRANCH   6   7
ENDBRANCH   1   6
TORSDOF 4
ENDMDL
MODEL 4
REMARK VINA RESULT:    -3.165     10.331     10.858
REMARK INTER + INTRA:          -3.964
REMARK INTER:                  -3.902
REMARK INTRA:                  -0.062
REMARK UNBOUND:                -0.059
REMARK SMILES CCCCCC(=O)[O-]
REMARK SMILES IDX 4 1 5 2 6 3 7 4 8 5 3 6 2 7 1 8
REMARK H PARENT
REMARK Flexibility Score: inf
ROOT
ATOM      1  C   UNL     1     -15.862  23.545  34.213  1.00  0.00     0.006 C 
ENDROOT
BRANCH   1   2
ATOM      2  C   UNL     1     -14.955  22.316  34.075  1.00  0.00     0.053 C 
BRANCH   2   3
ATOM      3  C   UNL     1     -13.950  22.283  35.183  1.00  0.00     0.041 C 
ATOM      4  O   UNL     1     -14.313  22.030  36.361  1.00  0.00    -0.550 OA
ATOM      5  O   UNL     1     -12.618  22.581  34.922  1.00  0.00    -0.550 OA
ENDBRANCH   2   3
ENDBRANCH   1   2
BRANCH   1   6
ATOM      6  C   UNL     1     -15.581  24.620  33.146  1.00  0.00     0.000 C 
BRANCH   6   7
ATOM      7  C   UNL     1     -16.764  24.927  32.211  1.00  0.00    -0.003 C 
ATOM      8  C   UNL     1     -16.982  26.424  31.992  1.00  0.00     0.004 C 
ENDBRANCH   6   7
ENDBRANCH   1   6
TORSDOF 4
ENDMDL
MODEL 5
REMARK VINA RESULT:    -3.156     10.329     11.324
REMARK INTER + INTRA:          -3.953
REMARK INTER:                  -3.725
REMARK INTRA:                  -0.228
REMARK UNBOUND:                -0.059
REMARK SMILES CCCCCC(=O)[O-]
REMARK SMILES IDX 4 1 5 2 6 3 7 4 8 5 3 6 2 7 1 8
REMARK H PARENT
REMARK Flexibility Score: inf
ROOT
ATOM      1  C   UNL     1     -16.209  22.591  35.466  1.00  0.00     0.006 C 
ENDROOT
BRANCH   1   2
ATOM      2  C   UNL     1     -14.761  22.484  35.960  1.00  0.00     0.053 C 
BRANCH   2   3
ATOM      3  C   UNL     1     -13.846  22.152  34.824  1.00  0.00     0.041 C 
ATOM      4  O   UNL     1     -14.298  21.603  33.785  1.00  0.00    -0.550 OA
ATOM      5  O   UNL     1     -12.483  22.403  34.932  1.00  0.00    -0.550 OA
ENDBRANCH   2   3
ENDBRANCH   1   2
BRANCH   1   6
ATOM      6  C   UNL     1     -16.577  24.010  34.993  1.00  0.00     0.000 C 
BRANCH   6   7
ATOM      7  C   UNL     1     -16.742  24.160  33.469  1.00  0.00    -0.003 C 
ATOM      8  C   UNL     1     -15.684  25.064  32.839  1.00  0.00     0.004 C 
ENDBRANCH   6   7
ENDBRANCH   1   6
TORSDOF 4
ENDMDL
MODEL 6
REMARK VINA RESULT:    -3.023     10.631     11.734
REMARK INTER + INTRA:          -3.789
REMARK INTER:                  -3.580
REMARK INTRA:                  -0.209
REMARK UNBOUND:                -0.059
REMARK SMILES CCCCCC(=O)[O-]
REMARK SMILES IDX 4 1 5 2 6 3 7 4 8 5 3 6 2 7 1 8
REMARK H PARENT
REMARK Flexibility Score: inf
ROOT
ATOM      1  C   UNL     1     -15.336  21.749  33.733  1.00  0.00     0.006 C 
ENDROOT
BRANCH   1   2
ATOM      2  C   UNL     1     -14.362  22.879  34.089  1.00  0.00     0.053 C 
BRANCH   2   3
ATOM      3  C   UNL     1     -13.505  22.482  35.249  1.00  0.00     0.041 C 
ATOM      4  O   UNL     1     -12.258  22.644  35.200  1.00  0.00    -0.550 OA
ATOM      5  O   UNL     1     -14.079  21.888  36.366  1.00  0.00    -0.550 OA
ENDBRANCH   2   3
ENDBRANCH   1   2
BRANCH   1   6
ATOM      6  C   UNL     1     -16.807  22.120  33.996  1.00  0.00     0.000 C 
BRANCH   6   7
ATOM      7  C   UNL     1     -17.011  23.318  34.942  1.00  0.00    -0.003 C 
ATOM      8  C   UNL     1     -17.472  22.905  36.339  1.00  0.00     0.004 C 
ENDBRANCH   6   7
ENDBRANCH   1   6
TORSDOF 4
ENDMDL
MODEL 7
REMARK VINA RESULT:    -2.925      7.435      8.825
REMARK INTER + INTRA:          -3.668
REMARK INTER:                  -3.557
REMARK INTRA:                  -0.111
REMARK UNBOUND:                -0.059
REMARK SMILES CCCCCC(=O)[O-]
REMARK SMILES IDX 4 1 5 2 6 3 7 4 8 5 3 6 2 7 1 8
REMARK H PARENT
REMARK Flexibility Score: inf
ROOT
ATOM      1  C   UNL     1      -2.403  27.316  25.581  1.00  0.00     0.006 C 
ENDROOT
BRANCH   1   2
ATOM      2  C   UNL     1      -1.837  26.726  24.283  1.00  0.00     0.053 C 
BRANCH   2   3
ATOM      3  C   UNL     1      -0.474  26.157  24.521  1.00  0.00     0.041 C 
ATOM      4  O   UNL     1      -0.164  25.033  24.046  1.00  0.00    -0.550 OA
ATOM      5  O   UNL     1       0.440  26.846  25.309  1.00  0.00    -0.550 OA
ENDBRANCH   2   3
ENDBRANCH   1   2
BRANCH   1   6
ATOM      6  C   UNL     1      -3.470  26.417  26.232  1.00  0.00     0.000 C 
BRANCH   6   7
ATOM      7  C   UNL     1      -3.765  25.111  25.472  1.00  0.00    -0.003 C 
ATOM      8  C   UNL     1      -4.193  23.967  26.390  1.00  0.00     0.004 C 
ENDBRANCH   6   7
ENDBRANCH   1   6
TORSDOF 4
ENDMDL
MODEL 8
REMARK VINA RESULT:    -2.873     10.165     10.846
REMARK INTER + INTRA:          -3.603
REMARK INTER:                  -3.448
REMARK INTRA:                  -0.155
REMARK UNBOUND:                -0.059
REMARK SMILES CCCCCC(=O)[O-]
REMARK SMILES IDX 4 1 5 2 6 3 7 4 8 5 3 6 2 7 1 8
REMARK H PARENT
REMARK Flexibility Score: inf
ROOT
ATOM      1  C   UNL     1     -15.905  23.925  34.103  1.00  0.00     0.006 C 
ENDROOT
BRANCH   1   2
ATOM      2  C   UNL     1     -16.833  22.812  33.601  1.00  0.00     0.053 C 
BRANCH   2   3
ATOM      3  C   UNL     1     -16.048  21.574  33.302  1.00  0.00     0.041 C 
ATOM      4  O   UNL     1     -16.567  20.639  32.639  1.00  0.00    -0.550 OA
ATOM      5  O   UNL     1     -14.758  21.432  33.797  1.00  0.00    -0.550 OA
ENDBRANCH   2   3
ENDBRANCH   1   2
BRANCH   1   6
ATOM      6  C   UNL     1     -15.340  24.793  32.964  1.00  0.00     0.000 C 
BRANCH   6   7
ATOM      7  C   UNL     1     -16.372  25.218  31.904  1.00  0.00    -0.003 C 
ATOM      8  C   UNL     1     -17.162  26.464  32.303  1.00  0.00     0.004 C 
ENDBRANCH   6   7
ENDBRANCH   1   6
TORSDOF 4
ENDMDL
MODEL 9
REMARK VINA RESULT:    -2.862     11.595     12.372
REMARK INTER + INTRA:          -3.590
REMARK INTER:                  -3.439
REMARK INTRA:                  -0.152
REMARK UNBOUND:                -0.059
REMARK SMILES CCCCCC(=O)[O-]
REMARK SMILES IDX 4 1 5 2 6 3 7 4 8 5 3 6 2 7 1 8
REMARK H PARENT
REMARK Flexibility Score: inf
ROOT
ATOM      1  C   UNL     1     -15.411  23.287  33.806  1.00  0.00     0.006 C 
ENDROOT
BRANCH   1   2
ATOM      2  C   UNL     1     -16.907  23.350  34.136  1.00  0.00     0.053 C 
BRANCH   2   3
ATOM      3  C   UNL     1     -17.108  23.668  35.584  1.00  0.00     0.041 C 
ATOM      4  O   UNL     1     -17.181  22.741  36.433  1.00  0.00    -0.550 OA
ATOM      5  O   UNL     1     -17.265  24.987  35.991  1.00  0.00    -0.550 OA
ENDBRANCH   2   3
ENDBRANCH   1   2
BRANCH   1   6
ATOM      6  C   UNL     1     -14.818  21.876  33.976  1.00  0.00     0.000 C 
BRANCH   6   7
ATOM      7  C   UNL     1     -13.884  21.709  35.188  1.00  0.00    -0.003 C 
ATOM      8  C   UNL     1     -12.606  22.539  35.077  1.00  0.00     0.004 C 
ENDBRANCH   6   7
ENDBRANCH   1   6
TORSDOF 4
ENDMDL
