MODEL 1
REMARK VINA RESULT:    -8.011      0.000      0.000
REMARK INTER + INTRA:          -9.474
REMARK INTER:                  -9.182
REMARK INTRA:                  -0.292
REMARK UNBOUND:                -0.292
REMARK SMILES O=C1C[C@H](c2ccc(O)cc2)Oc2cc(O)cc(O)c21
REMARK SMILES IDX 3 1 4 2 12 3 13 4 14 5 15 6 17 7 18 8 20 9 2 10 1 11 5 12
REMARK SMILES IDX 6 13 11 14 7 15 10 16 8 17 9 18 19 20 16 22
REMARK H PARENT 9 19 19 21 16 23
REMARK Flexibility Score: inf
ROOT
ATOM      1  C   UNL     1      -2.365  -1.536   8.518  1.00  0.00     0.131 C 
ATOM      2  C   UNL     1      -2.497  -0.163   9.193  1.00  0.00     0.211 C 
ATOM      3  O   UNL     1      -1.761  -0.133  10.419  1.00  0.00    -0.484 OA
ATOM      4  C   UNL     1      -1.719  -1.220  11.302  1.00  0.00     0.138 A 
ATOM      5  C   UNL     1      -1.226  -1.024  12.594  1.00  0.00     0.093 A 
ATOM      6  C   UNL     1      -1.185  -2.083  13.502  1.00  0.00     0.123 A 
ATOM      7  C   UNL     1      -1.611  -3.355  13.105  1.00  0.00     0.093 A 
ATOM      8  C   UNL     1      -2.072  -3.584  11.802  1.00  0.00     0.133 A 
ATOM      9  C   UNL     1      -2.160  -2.497  10.892  1.00  0.00     0.102 A 
ATOM     10  C   UNL     1      -2.696  -2.609   9.512  1.00  0.00     0.174 C 
ATOM     11  O   UNL     1      -3.456  -3.553   9.169  1.00  0.00    -0.294 OA
ENDROOT
BRANCH   2  12
ATOM     12  C   UNL     1      -2.017   0.932   8.272  1.00  0.00    -0.007 A 
ATOM     13  C   UNL     1      -0.660   1.012   7.916  1.00  0.00     0.011 A 
ATOM     14  C   UNL     1      -2.906   1.916   7.805  1.00  0.00     0.011 A 
ATOM     15  C   UNL     1      -0.205   2.046   7.092  1.00  0.00     0.046 A 
ATOM     16  C   UNL     1      -2.448   2.947   6.979  1.00  0.00     0.046 A 
ATOM     17  C   UNL     1      -1.095   3.015   6.621  1.00  0.00     0.115 A 
BRANCH  17  18
ATOM     18  O   UNL     1      -0.628   4.042   5.804  1.00  0.00    -0.508 OA
ATOM     19  H   UNL     1       0.085   4.689   6.122  1.00  0.00     0.293 HD
ENDBRANCH  17  18
ENDBRANCH   2  12
BRANCH   8  20
ATOM     20  O   UNL     1      -2.391  -4.899  11.458  1.00  0.00    -0.507 OA
ATOM     21  H   UNL     1      -2.319  -5.270  10.522  1.00  0.00     0.293 HD
ENDBRANCH   8  20
BRANCH   6  22
ATOM     22  O   UNL     1      -0.712  -1.863  14.793  1.00  0.00    -0.508 OA
ATOM     23  H   UNL     1       0.034  -1.203  14.979  1.00  0.00     0.293 HD
ENDBRANCH   6  22
TORSDOF 4
ENDMDL
MODEL 2
REMARK VINA RESULT:    -7.964      3.121      4.141
REMARK INTER + INTRA:          -9.419
REMARK INTER:                  -9.130
REMARK INTRA:                  -0.290
REMARK UNBOUND:                -0.292
REMARK SMILES O=C1C[C@H](c2ccc(O)cc2)Oc2cc(O)cc(O)c21
REMARK SMILES IDX 3 1 4 2 12 3 13 4 14 5 15 6 17 7 18 8 20 9 2 10 1 11 5 12
REMARK SMILES IDX 6 13 11 14 7 15 10 16 8 17 9 18 19 20 16 22
REMARK H PARENT 9 19 19 21 16 23
REMARK Flexibility Score: inf
ROOT
ATOM      1  C   UNL     1      -4.976   1.265   9.457  1.00  0.00     0.131 C 
ATOM      2  C   UNL     1      -3.543   0.738   9.298  1.00  0.00     0.211 C 
ATOM      3  O   UNL     1      -3.552  -0.598   8.787  1.00  0.00    -0.484 OA
ATOM      4  C   UNL     1      -4.488  -1.557   9.196  1.00  0.00     0.138 A 
ATOM      5  C   UNL     1      -4.265  -2.899   8.879  1.00  0.00     0.093 A 
ATOM      6  C   UNL     1      -5.170  -3.880   9.284  1.00  0.00     0.123 A 
ATOM      7  C   UNL     1      -6.324  -3.513   9.987  1.00  0.00     0.093 A 
ATOM      8  C   UNL     1      -6.588  -2.170  10.282  1.00  0.00     0.133 A 
ATOM      9  C   UNL     1      -5.643  -1.175   9.912  1.00  0.00     0.102 A 
ATOM     10  C   UNL     1      -5.785   0.268  10.233  1.00  0.00     0.174 C 
ATOM     11  O   UNL     1      -6.529   0.671  11.166  1.00  0.00    -0.294 OA
ENDROOT
BRANCH   2  12
ATOM     12  C   UNL     1      -2.744   1.637   8.386  1.00  0.00    -0.007 A 
ATOM     13  C   UNL     1      -3.135   1.816   7.049  1.00  0.00     0.011 A 
ATOM     14  C   UNL     1      -1.570   2.261   8.846  1.00  0.00     0.011 A 
ATOM     15  C   UNL     1      -2.376   2.619   6.192  1.00  0.00     0.046 A 
ATOM     16  C   UNL     1      -0.815   3.065   7.987  1.00  0.00     0.046 A 
ATOM     17  C   UNL     1      -1.216   3.246   6.656  1.00  0.00     0.115 A 
BRANCH  17  18
ATOM     18  O   UNL     1      -0.469   4.041   5.791  1.00  0.00    -0.508 OA
ATOM     19  H   UNL     1      -0.890   4.490   4.985  1.00  0.00     0.293 HD
ENDBRANCH  17  18
ENDBRANCH   2  12
BRANCH   8  20
ATOM     20  O   UNL     1      -7.803  -1.877  10.903  1.00  0.00    -0.507 OA
ATOM     21  H   UNL     1      -8.478  -1.220  10.542  1.00  0.00     0.293 HD
ENDBRANCH   8  20
BRANCH   6  22
ATOM     22  O   UNL     1      -4.920  -5.215   8.978  1.00  0.00    -0.508 OA
ATOM     23  H   UNL     1      -5.482  -5.962   9.368  1.00  0.00     0.293 HD
ENDBRANCH   6  22
TORSDOF 4
ENDMDL
MODEL 3
REMARK VINA RESULT:    -7.955      3.112      4.113
REMARK INTER + INTRA:          -9.409
REMARK INTER:                  -9.117
REMARK INTRA:                  -0.292
REMARK UNBOUND:                -0.292
REMARK SMILES O=C1C[C@H](c2ccc(O)cc2)Oc2cc(O)cc(O)c21
REMARK SMILES IDX 3 1 4 2 12 3 13 4 14 5 15 6 17 7 18 8 20 9 2 10 1 11 5 12
REMARK SMILES IDX 6 13 11 14 7 15 10 16 8 17 9 18 19 20 16 22
REMARK H PARENT 9 19 19 21 16 23
REMARK Flexibility Score: inf
ROOT
ATOM      1  C   UNL     1      -1.586   1.012  11.339  1.00  0.00     0.131 C 
ATOM      2  C   UNL     1      -2.497   0.874  10.111  1.00  0.00     0.211 C 
ATOM      3  O   UNL     1      -3.832   1.283  10.426  1.00  0.00    -0.484 OA
ATOM      4  C   UNL     1      -4.445   0.983  11.650  1.00  0.00     0.138 A 
ATOM      5  C   UNL     1      -5.824   1.160  11.777  1.00  0.00     0.093 A 
ATOM      6  C   UNL     1      -6.467   0.856  12.977  1.00  0.00     0.123 A 
ATOM      7  C   UNL     1      -5.721   0.399  14.069  1.00  0.00     0.093 A 
ATOM      8  C   UNL     1      -4.331   0.252  13.977  1.00  0.00     0.133 A 
ATOM      9  C   UNL     1      -3.681   0.515  12.741  1.00  0.00     0.102 A 
ATOM     10  C   UNL     1      -2.227   0.327  12.509  1.00  0.00     0.174 C 
ATOM     11  O   UNL     1      -1.529  -0.427  13.239  1.00  0.00    -0.294 OA
ENDROOT
BRANCH   2  12
ATOM     12  C   UNL     1      -1.964   1.688   8.958  1.00  0.00    -0.007 A 
ATOM     13  C   UNL     1      -1.957   3.091   9.025  1.00  0.00     0.011 A 
ATOM     14  C   UNL     1      -1.519   1.057   7.782  1.00  0.00     0.011 A 
ATOM     15  C   UNL     1      -1.498   3.849   7.945  1.00  0.00     0.046 A 
ATOM     16  C   UNL     1      -1.058   1.818   6.704  1.00  0.00     0.046 A 
ATOM     17  C   UNL     1      -1.046   3.217   6.782  1.00  0.00     0.115 A 
BRANCH  17  18
ATOM     18  O   UNL     1      -0.594   3.985   5.711  1.00  0.00    -0.508 OA
ATOM     19  H   UNL     1      -1.235   4.372   5.028  1.00  0.00     0.293 HD
ENDBRANCH  17  18
ENDBRANCH   2  12
BRANCH   8  20
ATOM     20  O   UNL     1      -3.648  -0.119  15.137  1.00  0.00    -0.507 OA
ATOM     21  H   UNL     1      -3.163   0.530  15.739  1.00  0.00     0.293 HD
ENDBRANCH   8  20
BRANCH   6  22
ATOM     22  O   UNL     1      -7.847   1.017  13.078  1.00  0.00    -0.508 OA
ATOM     23  H   UNL     1      -8.302   1.134  13.975  1.00  0.00     0.293 HD
ENDBRANCH   6  22
TORSDOF 4
ENDMDL
MODEL 4
REMARK VINA RESULT:    -7.915      2.343      3.469
REMARK INTER + INTRA:          -9.363
REMARK INTER:                  -9.080
REMARK INTRA:                  -0.283
REMARK UNBOUND:                -0.292
REMARK SMILES O=C1C[C@H](c2ccc(O)cc2)Oc2cc(O)cc(O)c21
REMARK SMILES IDX 3 1 4 2 12 3 13 4 14 5 15 6 17 7 18 8 20 9 2 10 1 11 5 12
REMARK SMILES IDX 6 13 11 14 7 15 10 16 8 17 9 18 19 20 16 22
REMARK H PARENT 9 19 19 21 16 23
REMARK Flexibility Score: inf
ROOT
ATOM      1  C   UNL     1      -1.966   0.769  11.520  1.00  0.00     0.131 C 
ATOM      2  C   UNL     1      -2.049   0.135  10.124  1.00  0.00     0.211 C 
ATOM      3  O   UNL     1      -3.347  -0.426   9.903  1.00  0.00    -0.484 OA
ATOM      4  C   UNL     1      -4.054  -1.109  10.902  1.00  0.00     0.138 A 
ATOM      5  C   UNL     1      -5.170  -1.868  10.542  1.00  0.00     0.093 A 
ATOM      6  C   UNL     1      -5.887  -2.572  11.510  1.00  0.00     0.123 A 
ATOM      7  C   UNL     1      -5.503  -2.492  12.854  1.00  0.00     0.093 A 
ATOM      8  C   UNL     1      -4.412  -1.705  13.243  1.00  0.00     0.133 A 
ATOM      9  C   UNL     1      -3.651  -1.027  12.253  1.00  0.00     0.102 A 
ATOM     10  C   UNL     1      -2.437  -0.223  12.542  1.00  0.00     0.174 C 
ATOM     11  O   UNL     1      -1.769  -0.384  13.597  1.00  0.00    -0.294 OA
ENDROOT
BRANCH   2  12
ATOM     12  C   UNL     1      -1.737   1.156   9.057  1.00  0.00    -0.007 A 
ATOM     13  C   UNL     1      -1.400   0.741   7.758  1.00  0.00     0.011 A 
ATOM     14  C   UNL     1      -1.726   2.529   9.361  1.00  0.00     0.011 A 
ATOM     15  C   UNL     1      -1.075   1.681   6.777  1.00  0.00     0.046 A 
ATOM     16  C   UNL     1      -1.403   3.468   8.377  1.00  0.00     0.046 A 
ATOM     17  C   UNL     1      -1.076   3.046   7.081  1.00  0.00     0.115 A 
BRANCH  17  18
ATOM     18  O   UNL     1      -0.747   3.973   6.095  1.00  0.00    -0.508 OA
ATOM     19  H   UNL     1      -0.529   3.684   5.148  1.00  0.00     0.293 HD
ENDBRANCH  17  18
ENDBRANCH   2  12
BRANCH   8  20
ATOM     20  O   UNL     1      -4.151  -1.604  14.610  1.00  0.00    -0.507 OA
ATOM     21  H   UNL     1      -4.241  -2.371  15.261  1.00  0.00     0.293 HD
ENDBRANCH   8  20
BRANCH   6  22
ATOM     22  O   UNL     1      -6.983  -3.342  11.129  1.00  0.00    -0.508 OA
ATOM     23  H   UNL     1      -7.646  -3.692  11.810  1.00  0.00     0.293 HD
ENDBRANCH   6  22
TORSDOF 4
ENDMDL
MODEL 5
REMARK VINA RESULT:    -7.892      1.930      2.218
REMARK INTER + INTRA:          -9.337
REMARK INTER:                  -9.054
REMARK INTRA:                  -0.283
REMARK UNBOUND:                -0.292
REMARK SMILES O=C1C[C@H](c2ccc(O)cc2)Oc2cc(O)cc(O)c21
REMARK SMILES IDX 3 1 4 2 12 3 13 4 14 5 15 6 17 7 18 8 20 9 2 10 1 11 5 12
REMARK SMILES IDX 6 13 11 14 7 15 10 16 8 17 9 18 19 20 16 22
REMARK H PARENT 9 19 19 21 16 23
REMARK Flexibility Score: inf
ROOT
ATOM      1  C   UNL     1      -2.524  -1.686   8.971  1.00  0.00     0.131 C 
ATOM      2  C   UNL     1      -3.330  -0.380   9.000  1.00  0.00     0.211 C 
ATOM      3  O   UNL     1      -3.575   0.031  10.348  1.00  0.00    -0.484 OA
ATOM      4  C   UNL     1      -3.890  -0.877  11.369  1.00  0.00     0.138 A 
ATOM      5  C   UNL     1      -4.391  -0.389  12.577  1.00  0.00     0.093 A 
ATOM      6  C   UNL     1      -4.730  -1.266  13.607  1.00  0.00     0.123 A 
ATOM      7  C   UNL     1      -4.536  -2.642  13.439  1.00  0.00     0.093 A 
ATOM      8  C   UNL     1      -3.998  -3.151  12.251  1.00  0.00     0.133 A 
ATOM      9  C   UNL     1      -3.699  -2.263  11.183  1.00  0.00     0.102 A 
ATOM     10  C   UNL     1      -3.190  -2.697   9.857  1.00  0.00     0.174 C 
ATOM     11  O   UNL     1      -3.345  -3.875   9.439  1.00  0.00    -0.294 OA
ENDROOT
BRANCH   2  12
ATOM     12  C   UNL     1      -2.603   0.710   8.250  1.00  0.00    -0.007 A 
ATOM     13  C   UNL     1      -3.283   1.879   7.866  1.00  0.00     0.011 A 
ATOM     14  C   UNL     1      -1.257   0.547   7.878  1.00  0.00     0.011 A 
ATOM     15  C   UNL     1      -2.623   2.874   7.140  1.00  0.00     0.046 A 
ATOM     16  C   UNL     1      -0.599   1.546   7.153  1.00  0.00     0.046 A 
ATOM     17  C   UNL     1      -1.280   2.713   6.782  1.00  0.00     0.115 A 
BRANCH  17  18
ATOM     18  O   UNL     1      -0.636   3.711   6.055  1.00  0.00    -0.508 OA
ATOM     19  H   UNL     1      -0.787   4.693   6.254  1.00  0.00     0.293 HD
ENDBRANCH  17  18
ENDBRANCH   2  12
BRANCH   8  20
ATOM     20  O   UNL     1      -3.750  -4.524  12.196  1.00  0.00    -0.507 OA
ATOM     21  H   UNL     1      -3.812  -5.076  11.354  1.00  0.00     0.293 HD
ENDBRANCH   8  20
BRANCH   6  22
ATOM     22  O   UNL     1      -5.250  -0.763  14.797  1.00  0.00    -0.508 OA
ATOM     23  H   UNL     1      -4.756  -0.061  15.336  1.00  0.00     0.293 HD
ENDBRANCH   6  22
TORSDOF 4
ENDMDL
MODEL 6
REMARK VINA RESULT:    -7.889      2.511      2.937
REMARK INTER + INTRA:          -9.334
REMARK INTER:                  -9.051
REMARK INTRA:                  -0.283
REMARK UNBOUND:                -0.292
REMARK SMILES O=C1C[C@H](c2ccc(O)cc2)Oc2cc(O)cc(O)c21
REMARK SMILES IDX 3 1 4 2 12 3 13 4 14 5 15 6 17 7 18 8 20 9 2 10 1 11 5 12
REMARK SMILES IDX 6 13 11 14 7 15 10 16 8 17 9 18 19 20 16 22
REMARK H PARENT 9 19 19 21 16 23
REMARK Flexibility Score: inf
ROOT
ATOM      1  C   UNL     1      -4.996   0.899   9.757  1.00  0.00     0.131 C 
ATOM      2  C   UNL     1      -3.502   1.062  10.075  1.00  0.00     0.211 C 
ATOM      3  O   UNL     1      -2.915  -0.202  10.397  1.00  0.00    -0.484 OA
ATOM      4  C   UNL     1      -3.578  -1.168  11.166  1.00  0.00     0.138 A 
ATOM      5  C   UNL     1      -2.848  -2.244  11.677  1.00  0.00     0.093 A 
ATOM      6  C   UNL     1      -3.475  -3.214  12.459  1.00  0.00     0.123 A 
ATOM      7  C   UNL     1      -4.849  -3.125  12.708  1.00  0.00     0.093 A 
ATOM      8  C   UNL     1      -5.609  -2.077  12.173  1.00  0.00     0.133 A 
ATOM      9  C   UNL     1      -4.963  -1.062  11.417  1.00  0.00     0.102 A 
ATOM     10  C   UNL     1      -5.655   0.129  10.863  1.00  0.00     0.174 C 
ATOM     11  O   UNL     1      -6.754   0.536  11.325  1.00  0.00    -0.294 OA
ENDROOT
BRANCH   2  12
ATOM     12  C   UNL     1      -2.775   1.690   8.910  1.00  0.00    -0.007 A 
ATOM     13  C   UNL     1      -1.503   2.257   9.093  1.00  0.00     0.011 A 
ATOM     14  C   UNL     1      -3.383   1.764   7.644  1.00  0.00     0.011 A 
ATOM     15  C   UNL     1      -0.843   2.871   8.025  1.00  0.00     0.046 A 
ATOM     16  C   UNL     1      -2.719   2.377   6.577  1.00  0.00     0.046 A 
ATOM     17  C   UNL     1      -1.446   2.933   6.765  1.00  0.00     0.115 A 
BRANCH  17  18
ATOM     18  O   UNL     1      -0.778   3.551   5.711  1.00  0.00    -0.508 OA
ATOM     19  H   UNL     1      -1.259   4.171   5.069  1.00  0.00     0.293 HD
ENDBRANCH  17  18
ENDBRANCH   2  12
BRANCH   8  20
ATOM     20  O   UNL     1      -6.987  -2.110  12.390  1.00  0.00    -0.507 OA
ATOM     21  H   UNL     1      -7.443  -2.735  13.038  1.00  0.00     0.293 HD
ENDBRANCH   8  20
BRANCH   6  22
ATOM     22  O   UNL     1      -2.726  -4.268  12.978  1.00  0.00    -0.508 OA
ATOM     23  H   UNL     1      -2.160  -4.155  13.810  1.00  0.00     0.293 HD
ENDBRANCH   6  22
TORSDOF 4
ENDMDL
MODEL 7
REMARK VINA RESULT:    -7.632      3.076      6.887
REMARK INTER + INTRA:          -9.039
REMARK INTER:                  -8.751
REMARK INTRA:                  -0.288
REMARK UNBOUND:                -0.292
REMARK SMILES O=C1C[C@H](c2ccc(O)cc2)Oc2cc(O)cc(O)c21
REMARK SMILES IDX 3 1 4 2 12 3 13 4 14 5 15 6 17 7 18 8 20 9 2 10 1 11 5 12
REMARK SMILES IDX 6 13 11 14 7 15 10 16 8 17 9 18 19 20 16 22
REMARK H PARENT 9 19 19 21 16 23
REMARK Flexibility Score: inf
ROOT
ATOM      1  C   UNL     1      -5.304   0.719   9.632  1.00  0.00     0.131 C 
ATOM      2  C   UNL     1      -4.191   0.009  10.416  1.00  0.00     0.211 C 
ATOM      3  O   UNL     1      -2.943   0.689  10.246  1.00  0.00    -0.484 OA
ATOM      4  C   UNL     1      -2.542   1.235   9.019  1.00  0.00     0.138 A 
ATOM      5  C   UNL     1      -1.211   1.625   8.855  1.00  0.00     0.093 A 
ATOM      6  C   UNL     1      -0.776   2.158   7.641  1.00  0.00     0.123 A 
ATOM      7  C   UNL     1      -1.686   2.331   6.593  1.00  0.00     0.093 A 
ATOM      8  C   UNL     1      -3.034   1.985   6.748  1.00  0.00     0.133 A 
ATOM      9  C   UNL     1      -3.469   1.397   7.966  1.00  0.00     0.102 A 
ATOM     10  C   UNL     1      -4.855   0.928   8.216  1.00  0.00     0.174 C 
ATOM     11  O   UNL     1      -5.645   0.658   7.274  1.00  0.00    -0.294 OA
ENDROOT
BRANCH   2  12
ATOM     12  C   UNL     1      -4.541  -0.073  11.882  1.00  0.00    -0.007 A 
ATOM     13  C   UNL     1      -5.078   1.043  12.544  1.00  0.00     0.011 A 
ATOM     14  C   UNL     1      -4.282  -1.245  12.614  1.00  0.00     0.011 A 
ATOM     15  C   UNL     1      -5.370   0.982  13.910  1.00  0.00     0.046 A 
ATOM     16  C   UNL     1      -4.577  -1.304  13.980  1.00  0.00     0.046 A 
ATOM     17  C   UNL     1      -5.122  -0.190  14.632  1.00  0.00     0.115 A 
BRANCH  17  18
ATOM     18  O   UNL     1      -5.414  -0.236  15.993  1.00  0.00    -0.508 OA
ATOM     19  H   UNL     1      -6.359  -0.111  16.337  1.00  0.00     0.293 HD
ENDBRANCH  17  18
ENDBRANCH   2  12
BRANCH   8  20
ATOM     20  O   UNL     1      -3.896   2.274   5.688  1.00  0.00    -0.507 OA
ATOM     21  H   UNL     1      -3.886   3.142   5.173  1.00  0.00     0.293 HD
ENDBRANCH   8  20
BRANCH   6  22
ATOM     22  O   UNL     1       0.560   2.520   7.489  1.00  0.00    -0.508 OA
ATOM     23  H   UNL     1       0.869   3.475   7.624  1.00  0.00     0.293 HD
ENDBRANCH   6  22
TORSDOF 4
ENDMDL
MODEL 8
REMARK VINA RESULT:    -7.619      1.963      7.205
REMARK INTER + INTRA:          -9.025
REMARK INTER:                  -8.739
REMARK INTRA:                  -0.286
REMARK UNBOUND:                -0.292
REMARK SMILES O=C1C[C@H](c2ccc(O)cc2)Oc2cc(O)cc(O)c21
REMARK SMILES IDX 3 1 4 2 12 3 13 4 14 5 15 6 17 7 18 8 20 9 2 10 1 11 5 12
REMARK SMILES IDX 6 13 11 14 7 15 10 16 8 17 9 18 19 20 16 22
REMARK H PARENT 9 19 19 21 16 23
REMARK Flexibility Score: inf
ROOT
ATOM      1  C   UNL     1      -2.022   0.879  11.754  1.00  0.00     0.131 C 
ATOM      2  C   UNL     1      -2.932  -0.128  11.036  1.00  0.00     0.211 C 
ATOM      3  O   UNL     1      -2.656  -0.142   9.632  1.00  0.00    -0.484 OA
ATOM      4  C   UNL     1      -2.380   1.023   8.905  1.00  0.00     0.138 A 
ATOM      5  C   UNL     1      -2.404   0.972   7.509  1.00  0.00     0.093 A 
ATOM      6  C   UNL     1      -2.148   2.118   6.756  1.00  0.00     0.123 A 
ATOM      7  C   UNL     1      -1.836   3.319   7.403  1.00  0.00     0.093 A 
ATOM      8  C   UNL     1      -1.767   3.384   8.800  1.00  0.00     0.133 A 
ATOM      9  C   UNL     1      -2.074   2.230   9.570  1.00  0.00     0.102 A 
ATOM     10  C   UNL     1      -2.101   2.203  11.054  1.00  0.00     0.174 C 
ATOM     11  O   UNL     1      -2.234   3.253  11.736  1.00  0.00    -0.294 OA
ENDROOT
BRANCH   2  12
ATOM     12  C   UNL     1      -2.755  -1.512  11.613  1.00  0.00    -0.007 A 
ATOM     13  C   UNL     1      -3.877  -2.273  11.981  1.00  0.00     0.011 A 
ATOM     14  C   UNL     1      -1.469  -2.032  11.842  1.00  0.00     0.011 A 
ATOM     15  C   UNL     1      -3.716  -3.540  12.549  1.00  0.00     0.046 A 
ATOM     16  C   UNL     1      -1.311  -3.301  12.409  1.00  0.00     0.046 A 
ATOM     17  C   UNL     1      -2.435  -4.059  12.764  1.00  0.00     0.115 A 
BRANCH  17  18
ATOM     18  O   UNL     1      -2.289  -5.321  13.335  1.00  0.00    -0.508 OA
ATOM     19  H   UNL     1      -1.395  -5.798  13.345  1.00  0.00     0.293 HD
ENDBRANCH  17  18
ENDBRANCH   2  12
BRANCH   8  20
ATOM     20  O   UNL     1      -1.358   4.594   9.365  1.00  0.00    -0.507 OA
ATOM     21  H   UNL     1      -1.237   4.742  10.356  1.00  0.00     0.293 HD
ENDBRANCH   8  20
BRANCH   6  22
ATOM     22  O   UNL     1      -2.199   2.052   5.366  1.00  0.00    -0.508 OA
ATOM     23  H   UNL     1      -2.576   2.813   4.813  1.00  0.00     0.293 HD
ENDBRANCH   6  22
TORSDOF 4
ENDMDL
MODEL 9
REMARK VINA RESULT:    -7.618      2.814      6.597
REMARK INTER + INTRA:          -9.023
REMARK INTER:                  -8.741
REMARK INTRA:                  -0.283
REMARK UNBOUND:                -0.292
REMARK SMILES O=C1C[C@H](c2ccc(O)cc2)Oc2cc(O)cc(O)c21
REMARK SMILES IDX 3 1 4 2 12 3 13 4 14 5 15 6 17 7 18 8 20 9 2 10 1 11 5 12
REMARK SMILES IDX 6 13 11 14 7 15 10 16 8 17 9 18 19 20 16 22
REMARK H PARENT 9 19 19 21 16 23
REMARK Flexibility Score: inf
ROOT
ATOM      1  C   UNL     1      -2.378  -1.999   8.959  1.00  0.00     0.131 C 
ATOM      2  C   UNL     1      -3.284  -1.229   9.930  1.00  0.00     0.211 C 
ATOM      3  O   UNL     1      -3.559   0.083   9.428  1.00  0.00    -0.484 OA
ATOM      4  C   UNL     1      -2.591   0.863   8.782  1.00  0.00     0.138 A 
ATOM      5  C   UNL     1      -2.843   2.221   8.578  1.00  0.00     0.093 A 
ATOM      6  C   UNL     1      -1.893   3.029   7.952  1.00  0.00     0.123 A 
ATOM      7  C   UNL     1      -0.693   2.468   7.500  1.00  0.00     0.093 A 
ATOM      8  C   UNL     1      -0.436   1.101   7.659  1.00  0.00     0.133 A 
ATOM      9  C   UNL     1      -1.381   0.286   8.339  1.00  0.00     0.102 A 
ATOM     10  C   UNL     1      -1.182  -1.157   8.625  1.00  0.00     0.174 C 
ATOM     11  O   UNL     1      -0.037  -1.680   8.639  1.00  0.00    -0.294 OA
ENDROOT
BRANCH   2  12
ATOM     12  C   UNL     1      -4.574  -1.977  10.162  1.00  0.00    -0.007 A 
ATOM     13  C   UNL     1      -5.202  -1.932  11.417  1.00  0.00     0.011 A 
ATOM     14  C   UNL     1      -5.133  -2.771   9.145  1.00  0.00     0.011 A 
ATOM     15  C   UNL     1      -6.377  -2.653  11.647  1.00  0.00     0.046 A 
ATOM     16  C   UNL     1      -6.310  -3.490   9.376  1.00  0.00     0.046 A 
ATOM     17  C   UNL     1      -6.936  -3.432  10.629  1.00  0.00     0.115 A 
BRANCH  17  18
ATOM     18  O   UNL     1      -8.105  -4.148  10.872  1.00  0.00    -0.508 OA
ATOM     19  H   UNL     1      -8.517  -4.193  11.797  1.00  0.00     0.293 HD
ENDBRANCH  17  18
ENDBRANCH   2  12
BRANCH   8  20
ATOM     20  O   UNL     1       0.741   0.601   7.099  1.00  0.00    -0.507 OA
ATOM     21  H   UNL     1       0.899   0.508   6.106  1.00  0.00     0.293 HD
ENDBRANCH   8  20
BRANCH   6  22
ATOM     22  O   UNL     1      -2.152   4.386   7.778  1.00  0.00    -0.508 OA
ATOM     23  H   UNL     1      -3.092   4.730   7.620  1.00  0.00     0.293 HD
ENDBRANCH   6  22
TORSDOF 4
ENDMDL
