MODEL 1
REMARK VINA RESULT:    -3.633      0.000      0.000
REMARK INTER + INTRA:          -6.332
REMARK INTER:                  -5.756
REMARK INTRA:                  -0.576
REMARK UNBOUND:                -0.576
REMARK SMILES CCCCCCCCCCCC(=O)[O-]
REMARK SMILES IDX 7 1 8 2 9 3 10 4 11 5 12 6 13 7 14 8 6 9 5 10 4 11 3 12 2 13
REMARK SMILES IDX 1 14
REMARK H PARENT
REMARK Flexibility Score: inf
ROOT
ATOM      1  C   UNL     1     -43.610 -22.437  28.484  1.00  0.00     0.000 C 
ENDROOT
BRANCH   1   2
ATOM      2  C   UNL     1     -43.012 -22.052  27.123  1.00  0.00     0.000 C 
BRANCH   2   3
ATOM      3  C   UNL     1     -41.736 -21.219  27.300  1.00  0.00     0.000 C 
BRANCH   3   4
ATOM      4  C   UNL     1     -41.038 -21.555  28.623  1.00  0.00     0.006 C 
BRANCH   4   5
ATOM      5  C   UNL     1     -39.875 -20.596  28.889  1.00  0.00     0.053 C 
BRANCH   5   6
ATOM      6  C   UNL     1     -38.649 -21.044  28.157  1.00  0.00     0.041 C 
ATOM      7  O   UNL     1     -37.922 -21.954  28.637  1.00  0.00    -0.550 OA
ATOM      8  O   UNL     1     -38.281 -20.425  26.970  1.00  0.00    -0.550 OA
ENDBRANCH   5   6
ENDBRANCH   4   5
ENDBRANCH   3   4
ENDBRANCH   2   3
ENDBRANCH   1   2
BRANCH   1   9
ATOM      9  C   UNL     1     -45.141 -22.563  28.445  1.00  0.00     0.000 C 
BRANCH   9  10
ATOM     10  C   UNL     1     -45.791 -21.586  27.447  1.00  0.00    -0.000 C 
BRANCH  10  11
ATOM     11  C   UNL     1     -47.244 -21.251  27.829  1.00  0.00    -0.000 C 
BRANCH  11  12
ATOM     12  C   UNL     1     -47.645 -19.800  27.483  1.00  0.00    -0.000 C 
BRANCH  12  13
ATOM     13  C   UNL     1     -46.569 -19.042  26.686  1.00  0.00    -0.003 C 
ATOM     14  C   UNL     1     -46.760 -17.527  26.721  1.00  0.00     0.004 C 
ENDBRANCH  12  13
ENDBRANCH  11  12
ENDBRANCH  10  11
ENDBRANCH   9  10
ENDBRANCH   1   9
TORSDOF 10
ENDMDL
MODEL 2
REMARK VINA RESULT:    -3.599      3.694      7.116
REMARK INTER + INTRA:          -6.279
REMARK INTER:                  -5.523
REMARK INTRA:                  -0.757
REMARK UNBOUND:                -0.576
REMARK SMILES CCCCCCCCCCCC(=O)[O-]
REMARK SMILES IDX 7 1 8 2 9 3 10 4 11 5 12 6 13 7 14 8 6 9 5 10 4 11 3 12 2 13
REMARK SMILES IDX 1 14
REMARK H PARENT
REMARK Flexibility Score: inf
ROOT
ATOM      1  C   UNL     1     -42.281 -21.506  27.015  1.00  0.00     0.000 C 
ENDROOT
BRANCH   1   2
ATOM      2  C   UNL     1     -43.816 -21.512  27.058  1.00  0.00     0.000 C 
BRANCH   2   3
ATOM      3  C   UNL     1     -44.331 -22.436  28.169  1.00  0.00     0.000 C 
BRANCH   3   4
ATOM      4  C   UNL     1     -45.837 -22.249  28.388  1.00  0.00     0.006 C 
BRANCH   4   5
ATOM      5  C   UNL     1     -46.485 -21.557  27.186  1.00  0.00     0.053 C 
BRANCH   5   6
ATOM      6  C   UNL     1     -47.286 -20.375  27.632  1.00  0.00     0.041 C 
ATOM      7  O   UNL     1     -48.209 -20.517  28.477  1.00  0.00    -0.550 OA
ATOM      8  O   UNL     1     -47.048 -19.125  27.078  1.00  0.00    -0.550 OA
ENDBRANCH   5   6
ENDBRANCH   4   5
ENDBRANCH   3   4
ENDBRANCH   2   3
ENDBRANCH   1   2
BRANCH   1   9
ATOM      9  C   UNL     1     -41.651 -22.143  28.264  1.00  0.00     0.000 C 
BRANCH   9  10
ATOM     10  C   UNL     1     -40.660 -21.203  28.973  1.00  0.00    -0.000 C 
BRANCH  10  11
ATOM     11  C   UNL     1     -40.196 -20.055  28.058  1.00  0.00    -0.000 C 
BRANCH  11  12
ATOM     12  C   UNL     1     -38.717 -20.180  27.628  1.00  0.00    -0.000 C 
BRANCH  12  13
ATOM     13  C   UNL     1     -38.020 -21.431  28.191  1.00  0.00    -0.003 C 
ATOM     14  C   UNL     1     -37.597 -22.415  27.102  1.00  0.00     0.004 C 
ENDBRANCH  12  13
ENDBRANCH  11  12
ENDBRANCH  10  11
ENDBRANCH   9  10
ENDBRANCH   1   9
TORSDOF 10
ENDMDL
MODEL 3
REMARK VINA RESULT:    -3.557      1.631      2.320
REMARK INTER + INTRA:          -6.212
REMARK INTER:                  -5.500
REMARK INTRA:                  -0.712
REMARK UNBOUND:                -0.576
REMARK SMILES CCCCCCCCCCCC(=O)[O-]
REMARK SMILES IDX 7 1 8 2 9 3 10 4 11 5 12 6 13 7 14 8 6 9 5 10 4 11 3 12 2 13
REMARK SMILES IDX 1 14
REMARK H PARENT
REMARK Flexibility Score: inf
ROOT
ATOM      1  C   UNL     1     -42.527 -21.610  27.210  1.00  0.00     0.000 C 
ENDROOT
BRANCH   1   2
ATOM      2  C   UNL     1     -41.911 -22.213  28.481  1.00  0.00     0.000 C 
BRANCH   2   3
ATOM      3  C   UNL     1     -40.402 -21.941  28.542  1.00  0.00     0.000 C 
BRANCH   3   4
ATOM      4  C   UNL     1     -40.119 -20.454  28.786  1.00  0.00     0.006 C 
BRANCH   4   5
ATOM      5  C   UNL     1     -39.058 -19.929  27.815  1.00  0.00     0.053 C 
BRANCH   5   6
ATOM      6  C   UNL     1     -39.692 -19.094  26.748  1.00  0.00     0.041 C 
ATOM      7  O   UNL     1     -40.027 -17.905  26.989  1.00  0.00    -0.550 OA
ATOM      8  O   UNL     1     -39.959 -19.644  25.501  1.00  0.00    -0.550 OA
ENDBRANCH   5   6
ENDBRANCH   4   5
ENDBRANCH   3   4
ENDBRANCH   2   3
ENDBRANCH   1   2
BRANCH   1   9
ATOM      9  C   UNL     1     -44.062 -21.672  27.208  1.00  0.00     0.000 C 
BRANCH   9  10
ATOM     10  C   UNL     1     -44.615 -22.709  28.203  1.00  0.00    -0.000 C 
BRANCH  10  11
ATOM     11  C   UNL     1     -46.050 -22.375  28.649  1.00  0.00    -0.000 C 
BRANCH  11  12
ATOM     12  C   UNL     1     -46.952 -21.900  27.488  1.00  0.00    -0.000 C 
BRANCH  12  13
ATOM     13  C   UNL     1     -47.826 -20.686  27.850  1.00  0.00    -0.003 C 
ATOM     14  C   UNL     1     -47.306 -19.380  27.254  1.00  0.00     0.004 C 
ENDBRANCH  12  13
ENDBRANCH  11  12
ENDBRANCH  10  11
ENDBRANCH   9  10
ENDBRANCH   1   9
TORSDOF 10
ENDMDL
MODEL 4
REMARK VINA RESULT:    -3.532      1.049      1.674
REMARK INTER + INTRA:          -6.173
REMARK INTER:                  -5.498
REMARK INTRA:                  -0.675
REMARK UNBOUND:                -0.576
REMARK SMILES CCCCCCCCCCCC(=O)[O-]
REMARK SMILES IDX 7 1 8 2 9 3 10 4 11 5 12 6 13 7 14 8 6 9 5 10 4 11 3 12 2 13
REMARK SMILES IDX 1 14
REMARK H PARENT
REMARK Flexibility Score: inf
ROOT
ATOM      1  C   UNL     1     -42.712 -21.884  27.109  1.00  0.00     0.000 C 
ENDROOT
BRANCH   1   2
ATOM      2  C   UNL     1     -42.026 -22.606  28.278  1.00  0.00     0.000 C 
BRANCH   2   3
ATOM      3  C   UNL     1     -41.212 -21.621  29.128  1.00  0.00     0.000 C 
BRANCH   3   4
ATOM      4  C   UNL     1     -40.261 -20.794  28.255  1.00  0.00     0.006 C 
BRANCH   4   5
ATOM      5  C   UNL     1     -38.808 -20.973  28.704  1.00  0.00     0.053 C 
BRANCH   5   6
ATOM      6  C   UNL     1     -38.189 -22.148  28.015  1.00  0.00     0.041 C 
ATOM      7  O   UNL     1     -38.220 -23.287  28.551  1.00  0.00    -0.550 OA
ATOM      8  O   UNL     1     -37.533 -21.978  26.803  1.00  0.00    -0.550 OA
ENDBRANCH   5   6
ENDBRANCH   4   5
ENDBRANCH   3   4
ENDBRANCH   2   3
ENDBRANCH   1   2
BRANCH   1   9
ATOM      9  C   UNL     1     -44.227 -21.728  27.315  1.00  0.00     0.000 C 
BRANCH   9  10
ATOM     10  C   UNL     1     -44.768 -22.632  28.438  1.00  0.00    -0.000 C 
BRANCH  10  11
ATOM     11  C   UNL     1     -46.287 -22.471  28.628  1.00  0.00    -0.000 C 
BRANCH  11  12
ATOM     12  C   UNL     1     -46.969 -21.712  27.468  1.00  0.00    -0.000 C 
BRANCH  12  13
ATOM     13  C   UNL     1     -47.674 -20.419  27.913  1.00  0.00    -0.003 C 
ATOM     14  C   UNL     1     -47.265 -19.204  27.084  1.00  0.00     0.004 C 
ENDBRANCH  12  13
ENDBRANCH  11  12
ENDBRANCH  10  11
ENDBRANCH   9  10
ENDBRANCH   1   9
TORSDOF 10
ENDMDL
MODEL 5
REMARK VINA RESULT:    -3.502      4.021      5.541
REMARK INTER + INTRA:          -6.125
REMARK INTER:                  -4.459
REMARK INTRA:                  -1.667
REMARK UNBOUND:                -0.576
REMARK SMILES CCCCCCCCCCCC(=O)[O-]
REMARK SMILES IDX 7 1 8 2 9 3 10 4 11 5 12 6 13 7 14 8 6 9 5 10 4 11 3 12 2 13
REMARK SMILES IDX 1 14
REMARK H PARENT
REMARK Flexibility Score: inf
ROOT
ATOM      1  C   UNL     1     -38.626 -20.112  27.686  1.00  0.00     0.000 C 
ENDROOT
BRANCH   1   2
ATOM      2  C   UNL     1     -37.948 -21.416  28.133  1.00  0.00     0.000 C 
BRANCH   2   3
ATOM      3  C   UNL     1     -37.488 -22.238  26.922  1.00  0.00     0.000 C 
BRANCH   3   4
ATOM      4  C   UNL     1     -37.750 -23.732  27.138  1.00  0.00     0.006 C 
BRANCH   4   5
ATOM      5  C   UNL     1     -38.317 -23.994  28.536  1.00  0.00     0.053 C 
BRANCH   5   6
ATOM      6  C   UNL     1     -37.882 -25.336  29.035  1.00  0.00     0.041 C 
ATOM      7  O   UNL     1     -36.975 -25.971  28.436  1.00  0.00    -0.550 OA
ATOM      8  O   UNL     1     -38.511 -25.907  30.133  1.00  0.00    -0.550 OA
ENDBRANCH   5   6
ENDBRANCH   4   5
ENDBRANCH   3   4
ENDBRANCH   2   3
ENDBRANCH   1   2
BRANCH   1   9
ATOM      9  C   UNL     1     -40.116 -20.061  28.058  1.00  0.00     0.000 C 
BRANCH   9  10
ATOM     10  C   UNL     1     -40.457 -20.955  29.263  1.00  0.00    -0.000 C 
BRANCH  10  11
ATOM     11  C   UNL     1     -41.518 -22.015  28.915  1.00  0.00    -0.000 C 
BRANCH  11  12
ATOM     12  C   UNL     1     -41.941 -21.987  27.430  1.00  0.00    -0.000 C 
BRANCH  12  13
ATOM     13  C   UNL     1     -41.397 -23.175  26.616  1.00  0.00    -0.003 C 
ATOM     14  C   UNL     1     -40.857 -22.760  25.249  1.00  0.00     0.004 C 
ENDBRANCH  12  13
ENDBRANCH  11  12
ENDBRANCH  10  11
ENDBRANCH   9  10
ENDBRANCH   1   9
TORSDOF 10
ENDMDL
MODEL 6
REMARK VINA RESULT:    -3.492      4.060      6.967
REMARK INTER + INTRA:          -6.110
REMARK INTER:                  -5.302
REMARK INTRA:                  -0.808
REMARK UNBOUND:                -0.576
REMARK SMILES CCCCCCCCCCCC(=O)[O-]
REMARK SMILES IDX 7 1 8 2 9 3 10 4 11 5 12 6 13 7 14 8 6 9 5 10 4 11 3 12 2 13
REMARK SMILES IDX 1 14
REMARK H PARENT
REMARK Flexibility Score: inf
ROOT
ATOM      1  C   UNL     1     -43.099 -21.507  27.094  1.00  0.00     0.000 C 
ENDROOT
BRANCH   1   2
ATOM      2  C   UNL     1     -42.990 -20.315  26.132  1.00  0.00     0.000 C 
BRANCH   2   3
ATOM      3  C   UNL     1     -44.343 -19.605  25.984  1.00  0.00     0.000 C 
BRANCH   3   4
ATOM      4  C   UNL     1     -45.459 -20.397  26.674  1.00  0.00     0.006 C 
BRANCH   4   5
ATOM      5  C   UNL     1     -46.824 -19.745  26.435  1.00  0.00     0.053 C 
BRANCH   5   6
ATOM      6  C   UNL     1     -47.901 -20.515  27.130  1.00  0.00     0.041 C 
ATOM      7  O   UNL     1     -48.766 -21.141  26.462  1.00  0.00    -0.550 OA
ATOM      8  O   UNL     1     -47.981 -20.504  28.516  1.00  0.00    -0.550 OA
ENDBRANCH   5   6
ENDBRANCH   4   5
ENDBRANCH   3   4
ENDBRANCH   2   3
ENDBRANCH   1   2
BRANCH   1   9
ATOM      9  C   UNL     1     -41.730 -22.111  27.447  1.00  0.00     0.000 C 
BRANCH   9  10
ATOM     10  C   UNL     1     -41.316 -21.828  28.903  1.00  0.00    -0.000 C 
BRANCH  10  11
ATOM     11  C   UNL     1     -40.310 -20.667  29.002  1.00  0.00    -0.000 C 
BRANCH  11  12
ATOM     12  C   UNL     1     -38.989 -20.940  28.249  1.00  0.00    -0.000 C 
BRANCH  12  13
ATOM     13  C   UNL     1     -38.775 -20.019  27.035  1.00  0.00    -0.003 C 
ATOM     14  C   UNL     1     -39.692 -18.797  27.047  1.00  0.00     0.004 C 
ENDBRANCH  12  13
ENDBRANCH  11  12
ENDBRANCH  10  11
ENDBRANCH   9  10
ENDBRANCH   1   9
TORSDOF 10
ENDMDL
MODEL 7
REMARK VINA RESULT:    -3.468      3.663      6.385
REMARK INTER + INTRA:          -6.072
REMARK INTER:                  -4.797
REMARK INTRA:                  -1.275
REMARK UNBOUND:                -0.576
REMARK SMILES CCCCCCCCCCCC(=O)[O-]
REMARK SMILES IDX 7 1 8 2 9 3 10 4 11 5 12 6 13 7 14 8 6 9 5 10 4 11 3 12 2 13
REMARK SMILES IDX 1 14
REMARK H PARENT
REMARK Flexibility Score: inf
ROOT
ATOM      1  C   UNL     1     -40.080 -23.393  27.652  1.00  0.00     0.000 C 
ENDROOT
BRANCH   1   2
ATOM      2  C   UNL     1     -41.086 -23.627  28.789  1.00  0.00     0.000 C 
BRANCH   2   3
ATOM      3  C   UNL     1     -41.864 -22.343  29.106  1.00  0.00     0.000 C 
BRANCH   3   4
ATOM      4  C   UNL     1     -42.926 -22.063  28.037  1.00  0.00     0.006 C 
BRANCH   4   5
ATOM      5  C   UNL     1     -44.078 -23.068  28.131  1.00  0.00     0.053 C 
BRANCH   5   6
ATOM      6  C   UNL     1     -45.385 -22.354  28.269  1.00  0.00     0.041 C 
ATOM      7  O   UNL     1     -46.241 -22.753  29.102  1.00  0.00    -0.550 OA
ATOM      8  O   UNL     1     -45.680 -21.276  27.445  1.00  0.00    -0.550 OA
ENDBRANCH   5   6
ENDBRANCH   4   5
ENDBRANCH   3   4
ENDBRANCH   2   3
ENDBRANCH   1   2
BRANCH   1   9
ATOM      9  C   UNL     1     -38.623 -23.397  28.140  1.00  0.00     0.000 C 
BRANCH   9  10
ATOM     10  C   UNL     1     -38.118 -21.991  28.509  1.00  0.00    -0.000 C 
BRANCH  10  11
ATOM     11  C   UNL     1     -38.342 -20.978  27.372  1.00  0.00    -0.000 C 
BRANCH  11  12
ATOM     12  C   UNL     1     -39.135 -19.729  27.817  1.00  0.00    -0.000 C 
BRANCH  12  13
ATOM     13  C   UNL     1     -40.433 -19.512  27.019  1.00  0.00    -0.003 C 
ATOM     14  C   UNL     1     -40.473 -20.314  25.720  1.00  0.00     0.004 C 
ENDBRANCH  12  13
ENDBRANCH  11  12
ENDBRANCH  10  11
ENDBRANCH   9  10
ENDBRANCH   1   9
TORSDOF 10
ENDMDL
MODEL 8
REMARK VINA RESULT:    -3.468      3.149      6.606
REMARK INTER + INTRA:          -6.071
REMARK INTER:                  -5.416
REMARK INTRA:                  -0.655
REMARK UNBOUND:                -0.576
REMARK SMILES CCCCCCCCCCCC(=O)[O-]
REMARK SMILES IDX 7 1 8 2 9 3 10 4 11 5 12 6 13 7 14 8 6 9 5 10 4 11 3 12 2 13
REMARK SMILES IDX 1 14
REMARK H PARENT
REMARK Flexibility Score: inf
ROOT
ATOM      1  C   UNL     1     -44.063 -22.319  28.534  1.00  0.00     0.000 C 
ENDROOT
BRANCH   1   2
ATOM      2  C   UNL     1     -45.572 -22.605  28.515  1.00  0.00     0.000 C 
BRANCH   2   3
ATOM      3  C   UNL     1     -46.241 -21.938  27.305  1.00  0.00     0.000 C 
BRANCH   3   4
ATOM      4  C   UNL     1     -47.112 -20.754  27.741  1.00  0.00     0.006 C 
BRANCH   4   5
ATOM      5  C   UNL     1     -47.344 -19.786  26.577  1.00  0.00     0.053 C 
BRANCH   5   6
ATOM      6  C   UNL     1     -46.419 -18.615  26.678  1.00  0.00     0.041 C 
ATOM      7  O   UNL     1     -45.214 -18.726  26.329  1.00  0.00    -0.550 OA
ATOM      8  O   UNL     1     -46.874 -17.413  27.204  1.00  0.00    -0.550 OA
ENDBRANCH   5   6
ENDBRANCH   4   5
ENDBRANCH   3   4
ENDBRANCH   2   3
ENDBRANCH   1   2
BRANCH   1   9
ATOM      9  C   UNL     1     -43.545 -21.777  27.192  1.00  0.00     0.000 C 
BRANCH   9  10
ATOM     10  C   UNL     1     -42.028 -21.514  27.206  1.00  0.00    -0.000 C 
BRANCH  10  11
ATOM     11  C   UNL     1     -41.393 -21.859  28.565  1.00  0.00    -0.000 C 
BRANCH  11  12
ATOM     12  C   UNL     1     -40.314 -20.845  29.007  1.00  0.00    -0.000 C 
BRANCH  12  13
ATOM     13  C   UNL     1     -39.302 -20.506  27.898  1.00  0.00    -0.003 C 
ATOM     14  C   UNL     1     -37.947 -21.179  28.105  1.00  0.00     0.004 C 
ENDBRANCH  12  13
ENDBRANCH  11  12
ENDBRANCH  10  11
ENDBRANCH   9  10
ENDBRANCH   1   9
TORSDOF 10
ENDMDL
MODEL 9
REMARK VINA RESULT:    -3.426      3.816      6.454
REMARK INTER + INTRA:          -6.004
REMARK INTER:                  -5.157
REMARK INTRA:                  -0.847
REMARK UNBOUND:                -0.576
REMARK SMILES CCCCCCCCCCCC(=O)[O-]
REMARK SMILES IDX 7 1 8 2 9 3 10 4 11 5 12 6 13 7 14 8 6 9 5 10 4 11 3 12 2 13
REMARK SMILES IDX 1 14
REMARK H PARENT
REMARK Flexibility Score: inf
ROOT
ATOM      1  C   UNL     1     -41.401 -22.207  29.005  1.00  0.00     0.000 C 
ENDROOT
BRANCH   1   2
ATOM      2  C   UNL     1     -42.477 -22.176  27.910  1.00  0.00     0.000 C 
BRANCH   2   3
ATOM      3  C   UNL     1     -43.881 -22.303  28.515  1.00  0.00     0.000 C 
BRANCH   3   4
ATOM      4  C   UNL     1     -44.958 -21.924  27.493  1.00  0.00     0.006 C 
BRANCH   4   5
ATOM      5  C   UNL     1     -46.361 -22.118  28.076  1.00  0.00     0.053 C 
BRANCH   5   6
ATOM      6  C   UNL     1     -47.225 -20.937  27.762  1.00  0.00     0.041 C 
ATOM      7  O   UNL     1     -48.078 -20.537  28.598  1.00  0.00    -0.550 OA
ATOM      8  O   UNL     1     -47.123 -20.308  26.529  1.00  0.00    -0.550 OA
ENDBRANCH   5   6
ENDBRANCH   4   5
ENDBRANCH   3   4
ENDBRANCH   2   3
ENDBRANCH   1   2
BRANCH   1   9
ATOM      9  C   UNL     1     -40.487 -20.972  28.974  1.00  0.00     0.000 C 
BRANCH   9  10
ATOM     10  C   UNL     1     -39.255 -21.169  28.073  1.00  0.00    -0.000 C 
BRANCH  10  11
ATOM     11  C   UNL     1     -38.960 -19.925  27.217  1.00  0.00    -0.000 C 
BRANCH  11  12
ATOM     12  C   UNL     1     -40.198 -19.024  27.005  1.00  0.00    -0.000 C 
BRANCH  12  13
ATOM     13  C   UNL     1     -40.899 -19.256  25.655  1.00  0.00    -0.003 C 
ATOM     14  C   UNL     1     -42.422 -19.255  25.768  1.00  0.00     0.004 C 
ENDBRANCH  12  13
ENDBRANCH  11  12
ENDBRANCH  10  11
ENDBRANCH   9  10
ENDBRANCH   1   9
TORSDOF 10
ENDMDL
