MODEL 1
REMARK VINA RESULT:    -3.529      0.000      0.000
REMARK INTER + INTRA:          -4.190
REMARK INTER:                  -4.148
REMARK INTRA:                  -0.042
REMARK UNBOUND:                -0.042
REMARK SMILES O=C([O-])CCC(=O)[O-]
REMARK SMILES IDX 4 1 2 2 1 3 3 4 5 5 6 6 7 7 8 8
REMARK H PARENT
REMARK Flexibility Score: inf
ROOT
ATOM      1  C   UNL     1       3.060  -8.677  11.101  1.00  0.00     0.059 C 
ENDROOT
BRANCH   1   2
ATOM      2  C   UNL     1       1.648  -8.190  11.216  1.00  0.00     0.042 C 
ATOM      3  O   UNL     1       0.746  -8.961  11.638  1.00  0.00    -0.550 OA
ATOM      4  O   UNL     1       1.320  -6.900  10.820  1.00  0.00    -0.550 OA
ENDBRANCH   1   2
BRANCH   1   5
ATOM      5  C   UNL     1       3.135 -10.208  11.128  1.00  0.00     0.059 C 
BRANCH   5   6
ATOM      6  C   UNL     1       4.483 -10.688  11.570  1.00  0.00     0.042 C 
ATOM      7  O   UNL     1       5.489  -9.940  11.459  1.00  0.00    -0.550 OA
ATOM      8  O   UNL     1       4.634 -11.976  12.068  1.00  0.00    -0.550 OA
ENDBRANCH   5   6
ENDBRANCH   1   5
TORSDOF 3
ENDMDL
MODEL 2
REMARK VINA RESULT:    -3.507      0.132      1.622
REMARK INTER + INTRA:          -4.164
REMARK INTER:                  -4.127
REMARK INTRA:                  -0.037
REMARK UNBOUND:                -0.042
REMARK SMILES O=C([O-])CCC(=O)[O-]
REMARK SMILES IDX 4 1 2 2 1 3 3 4 5 5 6 6 7 7 8 8
REMARK H PARENT
REMARK Flexibility Score: inf
ROOT
ATOM      1  C   UNL     1       3.084  -8.705  11.140  1.00  0.00     0.059 C 
ENDROOT
BRANCH   1   2
ATOM      2  C   UNL     1       1.660  -8.247  11.229  1.00  0.00     0.042 C 
ATOM      3  O   UNL     1       1.366  -7.047  10.982  1.00  0.00    -0.550 OA
ATOM      4  O   UNL     1       0.666  -9.132  11.624  1.00  0.00    -0.550 OA
ENDBRANCH   1   2
BRANCH   1   5
ATOM      5  C   UNL     1       3.181 -10.230  11.024  1.00  0.00     0.059 C 
BRANCH   5   6
ATOM      6  C   UNL     1       4.494 -10.742  11.532  1.00  0.00     0.042 C 
ATOM      7  O   UNL     1       4.574 -11.896  12.029  1.00  0.00    -0.550 OA
ATOM      8  O   UNL     1       5.619  -9.929  11.494  1.00  0.00    -0.550 OA
ENDBRANCH   5   6
ENDBRANCH   1   5
TORSDOF 3
ENDMDL
MODEL 3
REMARK VINA RESULT:    -3.503      0.106      4.425
REMARK INTER + INTRA:          -4.159
REMARK INTER:                  -4.118
REMARK INTRA:                  -0.041
REMARK UNBOUND:                -0.042
REMARK SMILES O=C([O-])CCC(=O)[O-]
REMARK SMILES IDX 4 1 2 2 1 3 3 4 5 5 6 6 7 7 8 8
REMARK H PARENT
REMARK Flexibility Score: inf
ROOT
ATOM      1  C   UNL     1       3.209 -10.182  10.947  1.00  0.00     0.059 C 
ENDROOT
BRANCH   1   2
ATOM      2  C   UNL     1       4.511 -10.675  11.502  1.00  0.00     0.042 C 
ATOM      3  O   UNL     1       5.536  -9.945  11.453  1.00  0.00    -0.550 OA
ATOM      4  O   UNL     1       4.602 -11.954  12.036  1.00  0.00    -0.550 OA
ENDBRANCH   1   2
BRANCH   1   5
ATOM      5  C   UNL     1       3.073  -8.662  11.090  1.00  0.00     0.059 C 
BRANCH   5   6
ATOM      6  C   UNL     1       1.637  -8.239  11.147  1.00  0.00     0.042 C 
ATOM      7  O   UNL     1       0.753  -9.048  11.533  1.00  0.00    -0.550 OA
ATOM      8  O   UNL     1       1.271  -6.964  10.735  1.00  0.00    -0.550 OA
ENDBRANCH   5   6
ENDBRANCH   1   5
TORSDOF 3
ENDMDL
MODEL 4
REMARK VINA RESULT:    -3.427      1.603      4.292
REMARK INTER + INTRA:          -4.070
REMARK INTER:                  -3.974
REMARK INTRA:                  -0.096
REMARK UNBOUND:                -0.042
REMARK SMILES O=C([O-])CCC(=O)[O-]
REMARK SMILES IDX 4 1 2 2 1 3 3 4 5 5 6 6 7 7 8 8
REMARK H PARENT
REMARK Flexibility Score: inf
ROOT
ATOM      1  C   UNL     1       2.765  -8.471  11.155  1.00  0.00     0.059 C 
ENDROOT
BRANCH   1   2
ATOM      2  C   UNL     1       2.962  -9.941  10.941  1.00  0.00     0.042 C 
ATOM      3  O   UNL     1       3.770 -10.583  11.663  1.00  0.00    -0.550 OA
ATOM      4  O   UNL     1       2.284 -10.593   9.919  1.00  0.00    -0.550 OA
ENDBRANCH   1   2
BRANCH   1   5
ATOM      5  C   UNL     1       1.306  -8.138  11.487  1.00  0.00     0.059 C 
BRANCH   5   6
ATOM      6  C   UNL     1       0.583  -7.579  10.300  1.00  0.00     0.042 C 
ATOM      7  O   UNL     1       0.911  -6.458   9.829  1.00  0.00    -0.550 OA
ATOM      8  O   UNL     1      -0.478  -8.277   9.739  1.00  0.00    -0.550 OA
ENDBRANCH   5   6
ENDBRANCH   1   5
TORSDOF 3
ENDMDL
MODEL 5
REMARK VINA RESULT:    -3.414      1.833      3.961
REMARK INTER + INTRA:          -4.055
REMARK INTER:                  -3.939
REMARK INTRA:                  -0.116
REMARK UNBOUND:                -0.042
REMARK SMILES O=C([O-])CCC(=O)[O-]
REMARK SMILES IDX 4 1 2 2 1 3 3 4 5 5 6 6 7 7 8 8
REMARK H PARENT
REMARK Flexibility Score: inf
ROOT
ATOM      1  C   UNL     1       3.903 -10.611  11.125  1.00  0.00     0.059 C 
ENDROOT
BRANCH   1   2
ATOM      2  C   UNL     1       4.948  -9.539  11.073  1.00  0.00     0.042 C 
ATOM      3  O   UNL     1       4.797  -8.544  10.315  1.00  0.00    -0.550 OA
ATOM      4  O   UNL     1       6.107  -9.657  11.830  1.00  0.00    -0.550 OA
ENDBRANCH   1   2
BRANCH   1   5
ATOM      5  C   UNL     1       3.101 -10.682   9.821  1.00  0.00     0.059 C 
BRANCH   5   6
ATOM      6  C   UNL     1       1.673 -10.279  10.027  1.00  0.00     0.042 C 
ATOM      7  O   UNL     1       0.780 -10.688   9.240  1.00  0.00    -0.550 OA
ATOM      8  O   UNL     1       1.336  -9.419  11.064  1.00  0.00    -0.550 OA
ENDBRANCH   5   6
ENDBRANCH   1   5
TORSDOF 3
ENDMDL
MODEL 6
REMARK VINA RESULT:    -3.411      2.099      2.647
REMARK INTER + INTRA:          -4.051
REMARK INTER:                  -3.900
REMARK INTRA:                  -0.151
REMARK UNBOUND:                -0.042
REMARK SMILES O=C([O-])CCC(=O)[O-]
REMARK SMILES IDX 4 1 2 2 1 3 3 4 5 5 6 6 7 7 8 8
REMARK H PARENT
REMARK Flexibility Score: inf
ROOT
ATOM      1  C   UNL     1       3.172  -9.282  11.166  1.00  0.00     0.059 C 
ENDROOT
BRANCH   1   2
ATOM      2  C   UNL     1       1.795  -8.695  11.237  1.00  0.00     0.042 C 
ATOM      3  O   UNL     1       1.629  -7.454  11.105  1.00  0.00    -0.550 OA
ATOM      4  O   UNL     1       0.700  -9.513  11.488  1.00  0.00    -0.550 OA
ENDBRANCH   1   2
BRANCH   1   5
ATOM      5  C   UNL     1       3.175 -10.630  10.435  1.00  0.00     0.059 C 
BRANCH   5   6
ATOM      6  C   UNL     1       3.108 -10.453   8.949  1.00  0.00     0.042 C 
ATOM      7  O   UNL     1       4.089  -9.969   8.324  1.00  0.00    -0.550 OA
ATOM      8  O   UNL     1       1.949 -10.785   8.260  1.00  0.00    -0.550 OA
ENDBRANCH   5   6
ENDBRANCH   1   5
TORSDOF 3
ENDMDL
MODEL 7
REMARK VINA RESULT:    -3.406      1.847      2.269
REMARK INTER + INTRA:          -4.045
REMARK INTER:                  -3.930
REMARK INTRA:                  -0.115
REMARK UNBOUND:                -0.042
REMARK SMILES O=C([O-])CCC(=O)[O-]
REMARK SMILES IDX 4 1 2 2 1 3 3 4 5 5 6 6 7 7 8 8
REMARK H PARENT
REMARK Flexibility Score: inf
ROOT
ATOM      1  C   UNL     1       3.114 -10.688   9.859  1.00  0.00     0.059 C 
ENDROOT
BRANCH   1   2
ATOM      2  C   UNL     1       1.681 -10.294  10.049  1.00  0.00     0.042 C 
ATOM      3  O   UNL     1       0.799 -10.713   9.253  1.00  0.00    -0.550 OA
ATOM      4  O   UNL     1       1.324  -9.434  11.080  1.00  0.00    -0.550 OA
ENDBRANCH   1   2
BRANCH   1   5
ATOM      5  C   UNL     1       3.913 -10.559  11.161  1.00  0.00     0.059 C 
BRANCH   5   6
ATOM      6  C   UNL     1       4.954  -9.486  11.067  1.00  0.00     0.042 C 
ATOM      7  O   UNL     1       4.786  -8.507  10.294  1.00  0.00    -0.550 OA
ATOM      8  O   UNL     1       6.128  -9.588  11.803  1.00  0.00    -0.550 OA
ENDBRANCH   5   6
ENDBRANCH   1   5
TORSDOF 3
ENDMDL
MODEL 8
REMARK VINA RESULT:    -3.398      2.155      2.595
REMARK INTER + INTRA:          -4.036
REMARK INTER:                  -3.890
REMARK INTRA:                  -0.145
REMARK UNBOUND:                -0.042
REMARK SMILES O=C([O-])CCC(=O)[O-]
REMARK SMILES IDX 4 1 2 2 1 3 3 4 5 5 6 6 7 7 8 8
REMARK H PARENT
REMARK Flexibility Score: inf
ROOT
ATOM      1  C   UNL     1       3.149  -9.341  11.127  1.00  0.00     0.059 C 
ENDROOT
BRANCH   1   2
ATOM      2  C   UNL     1       1.783  -8.729  11.193  1.00  0.00     0.042 C 
ATOM      3  O   UNL     1       0.777  -9.451  11.421  1.00  0.00    -0.550 OA
ATOM      4  O   UNL     1       1.616  -7.369  10.962  1.00  0.00    -0.550 OA
ENDBRANCH   1   2
BRANCH   1   5
ATOM      5  C   UNL     1       3.138 -10.666  10.357  1.00  0.00     0.059 C 
BRANCH   5   6
ATOM      6  C   UNL     1       3.073 -10.446   8.877  1.00  0.00     0.042 C 
ATOM      7  O   UNL     1       2.041 -10.771   8.233  1.00  0.00    -0.550 OA
ATOM      8  O   UNL     1       4.167  -9.919   8.203  1.00  0.00    -0.550 OA
ENDBRANCH   5   6
ENDBRANCH   1   5
TORSDOF 3
ENDMDL
MODEL 9
REMARK VINA RESULT:    -3.397      2.162      3.747
REMARK INTER + INTRA:          -4.034
REMARK INTER:                  -3.888
REMARK INTRA:                  -0.146
REMARK UNBOUND:                -0.042
REMARK SMILES O=C([O-])CCC(=O)[O-]
REMARK SMILES IDX 4 1 2 2 1 3 3 4 5 5 6 6 7 7 8 8
REMARK H PARENT
REMARK Flexibility Score: inf
ROOT
ATOM      1  C   UNL     1       3.131 -10.684  10.354  1.00  0.00     0.059 C 
ENDROOT
BRANCH   1   2
ATOM      2  C   UNL     1       3.073 -10.447   8.875  1.00  0.00     0.042 C 
ATOM      3  O   UNL     1       2.041 -10.759   8.225  1.00  0.00    -0.550 OA
ATOM      4  O   UNL     1       4.173  -9.919   8.211  1.00  0.00    -0.550 OA
ENDBRANCH   1   2
BRANCH   1   5
ATOM      5  C   UNL     1       3.153  -9.367  11.138  1.00  0.00     0.059 C 
BRANCH   5   6
ATOM      6  C   UNL     1       1.790  -8.750  11.221  1.00  0.00     0.042 C 
ATOM      7  O   UNL     1       1.652  -7.503  11.115  1.00  0.00    -0.550 OA
ATOM      8  O   UNL     1       0.678  -9.548  11.457  1.00  0.00    -0.550 OA
ENDBRANCH   5   6
ENDBRANCH   1   5
TORSDOF 3
ENDMDL
