MODEL 1
REMARK VINA RESULT:    -5.466      0.000      0.000
REMARK INTER + INTRA:          -6.902
REMARK INTER:                  -6.744
REMARK INTRA:                  -0.158
REMARK UNBOUND:                -0.158
REMARK SMILES Oc1cc(O)c2cc(O)c(-c3cc(O)c(O)c(O)c3)[o+]c2c1
REMARK SMILES IDX 10 1 20 2 21 3 22 4 2 5 3 6 4 7 6 8 7 9 8 10 11 11 12 12
REMARK SMILES IDX 13 13 19 14 15 15 17 16 14 17 16 19 18 21 9 23 1 25 5 27
REMARK H PARENT 14 18 16 20 18 22 9 24 1 26 5 28
REMARK Flexibility Score: inf
ROOT
ATOM      1  C   UNL     1     -58.139  24.795 -12.991  1.00  0.00     0.402 A 
ATOM      2  O   UNL     1     -57.948  23.509 -12.710  1.00  0.00    -0.202 OA
ATOM      3  C   UNL     1     -58.435  22.919 -11.624  1.00  0.00     0.368 A 
ATOM      4  C   UNL     1     -58.183  21.559 -11.418  1.00  0.00     0.162 A 
ATOM      5  C   UNL     1     -58.687  20.912 -10.285  1.00  0.00     0.128 A 
ATOM      6  C   UNL     1     -59.445  21.627  -9.355  1.00  0.00     0.093 A 
ATOM      7  C   UNL     1     -59.712  22.990  -9.540  1.00  0.00     0.136 A 
ATOM      8  C   UNL     1     -59.201  23.652 -10.686  1.00  0.00     0.125 A 
ATOM      9  C   UNL     1     -59.407  25.017 -10.945  1.00  0.00     0.078 A 
ATOM     10  C   UNL     1     -58.868  25.601 -12.095  1.00  0.00     0.223 A 
ENDROOT
BRANCH   1  11
ATOM     11  C   UNL     1     -57.552  25.335 -14.238  1.00  0.00     0.091 A 
ATOM     12  C   UNL     1     -56.187  25.142 -14.498  1.00  0.00     0.068 A 
ATOM     13  C   UNL     1     -55.610  25.624 -15.682  1.00  0.00     0.162 A 
ATOM     14  C   UNL     1     -58.345  25.989 -15.196  1.00  0.00     0.068 A 
ATOM     15  C   UNL     1     -56.407  26.296 -16.625  1.00  0.00     0.200 A 
ATOM     16  C   UNL     1     -57.775  26.472 -16.382  1.00  0.00     0.162 A 
BRANCH  13  17
ATOM     17  O   UNL     1     -54.250  25.439 -15.923  1.00  0.00    -0.504 OA
ATOM     18  H   UNL     1     -53.914  25.042 -16.793  1.00  0.00     0.293 HD
ENDBRANCH  13  17
BRANCH  15  19
ATOM     19  O   UNL     1     -55.856  26.788 -17.808  1.00  0.00    -0.502 OA
ATOM     20  H   UNL     1     -56.354  26.753 -18.690  1.00  0.00     0.293 HD
ENDBRANCH  15  19
BRANCH  16  21
ATOM     21  O   UNL     1     -58.563  27.126 -17.327  1.00  0.00    -0.504 OA
ATOM     22  H   UNL     1     -58.219  27.927 -17.843  1.00  0.00     0.293 HD
ENDBRANCH  16  21
ENDBRANCH   1  11
BRANCH  10  23
ATOM     23  O   UNL     1     -59.029  26.966 -12.328  1.00  0.00    -0.500 OA
ATOM     24  H   UNL     1     -58.314  27.638 -12.076  1.00  0.00     0.294 HD
ENDBRANCH  10  23
BRANCH   5  25
ATOM     25  O   UNL     1     -58.439  19.558 -10.073  1.00  0.00    -0.507 OA
ATOM     26  H   UNL     1     -57.583  19.119 -10.393  1.00  0.00     0.293 HD
ENDBRANCH   5  25
BRANCH   7  27
ATOM     27  O   UNL     1     -60.482  23.631  -8.565  1.00  0.00    -0.507 OA
ATOM     28  H   UNL     1     -60.973  24.502  -8.708  1.00  0.00     0.293 HD
ENDBRANCH   7  27
TORSDOF 7
ENDMDL
MODEL 2
REMARK VINA RESULT:    -5.079      3.032      6.209
REMARK INTER + INTRA:          -6.425
REMARK INTER:                  -6.095
REMARK INTRA:                  -0.330
REMARK UNBOUND:                -0.158
REMARK SMILES Oc1cc(O)c2cc(O)c(-c3cc(O)c(O)c(O)c3)[o+]c2c1
REMARK SMILES IDX 10 1 20 2 21 3 22 4 2 5 3 6 4 7 6 8 7 9 8 10 11 11 12 12
REMARK SMILES IDX 13 13 19 14 15 15 17 16 14 17 16 19 18 21 9 23 1 25 5 27
REMARK H PARENT 14 18 16 20 18 22 9 24 1 26 5 28
REMARK Flexibility Score: inf
ROOT
ATOM      1  C   UNL     1     -56.438  23.974 -14.386  1.00  0.00     0.402 A 
ATOM      2  O   UNL     1     -56.568  24.776 -15.439  1.00  0.00    -0.202 OA
ATOM      3  C   UNL     1     -57.485  25.735 -15.516  1.00  0.00     0.368 A 
ATOM      4  C   UNL     1     -57.542  26.531 -16.665  1.00  0.00     0.162 A 
ATOM      5  C   UNL     1     -58.493  27.550 -16.771  1.00  0.00     0.128 A 
ATOM      6  C   UNL     1     -59.392  27.774 -15.725  1.00  0.00     0.093 A 
ATOM      7  C   UNL     1     -59.355  26.991 -14.565  1.00  0.00     0.136 A 
ATOM      8  C   UNL     1     -58.393  25.954 -14.452  1.00  0.00     0.125 A 
ATOM      9  C   UNL     1     -58.292  25.112 -13.333  1.00  0.00     0.078 A 
ATOM     10  C   UNL     1     -57.320  24.108 -13.296  1.00  0.00     0.223 A 
ENDROOT
BRANCH   1  11
ATOM     11  C   UNL     1     -55.372  22.948 -14.415  1.00  0.00     0.091 A 
ATOM     12  C   UNL     1     -54.049  23.319 -14.126  1.00  0.00     0.068 A 
ATOM     13  C   UNL     1     -53.023  22.364 -14.126  1.00  0.00     0.162 A 
ATOM     14  C   UNL     1     -55.662  21.597 -14.670  1.00  0.00     0.068 A 
ATOM     15  C   UNL     1     -53.320  21.018 -14.404  1.00  0.00     0.200 A 
ATOM     16  C   UNL     1     -54.641  20.637 -14.670  1.00  0.00     0.162 A 
BRANCH  13  17
ATOM     17  O   UNL     1     -51.711  22.747 -13.852  1.00  0.00    -0.504 OA
ATOM     18  H   UNL     1     -51.497  23.441 -13.145  1.00  0.00     0.293 HD
ENDBRANCH  13  17
BRANCH  15  19
ATOM     19  O   UNL     1     -52.316  20.050 -14.412  1.00  0.00    -0.502 OA
ATOM     20  H   UNL     1     -52.523  19.058 -14.372  1.00  0.00     0.293 HD
ENDBRANCH  15  19
BRANCH  16  21
ATOM     21  O   UNL     1     -54.932  19.299 -14.930  1.00  0.00    -0.504 OA
ATOM     22  H   UNL     1     -54.754  18.883 -15.837  1.00  0.00     0.293 HD
ENDBRANCH  16  21
ENDBRANCH   1  11
BRANCH  10  23
ATOM     23  O   UNL     1     -57.251  23.240 -12.207  1.00  0.00    -0.500 OA
ATOM     24  H   UNL     1     -56.383  22.794 -11.935  1.00  0.00     0.294 HD
ENDBRANCH  10  23
BRANCH   5  25
ATOM     25  O   UNL     1     -58.556  28.346 -17.912  1.00  0.00    -0.507 OA
ATOM     26  H   UNL     1     -57.747  28.481 -18.509  1.00  0.00     0.293 HD
ENDBRANCH   5  25
BRANCH   7  27
ATOM     27  O   UNL     1     -60.287  27.282 -13.563  1.00  0.00    -0.507 OA
ATOM     28  H   UNL     1     -60.046  27.587 -12.631  1.00  0.00     0.293 HD
ENDBRANCH   7  27
TORSDOF 7
ENDMDL
MODEL 3
REMARK VINA RESULT:    -5.079      1.422      2.116
REMARK INTER + INTRA:          -6.425
REMARK INTER:                  -6.045
REMARK INTRA:                  -0.380
REMARK UNBOUND:                -0.158
REMARK SMILES Oc1cc(O)c2cc(O)c(-c3cc(O)c(O)c(O)c3)[o+]c2c1
REMARK SMILES IDX 10 1 20 2 21 3 22 4 2 5 3 6 4 7 6 8 7 9 8 10 11 11 12 12
REMARK SMILES IDX 13 13 19 14 15 15 17 16 14 17 16 19 18 21 9 23 1 25 5 27
REMARK H PARENT 14 18 16 20 18 22 9 24 1 26 5 28
REMARK Flexibility Score: inf
ROOT
ATOM      1  C   UNL     1     -58.934  25.319 -12.188  1.00  0.00     0.402 A 
ATOM      2  O   UNL     1     -58.595  24.097 -11.786  1.00  0.00    -0.202 OA
ATOM      3  C   UNL     1     -59.194  23.468 -10.780  1.00  0.00     0.368 A 
ATOM      4  C   UNL     1     -58.769  22.181 -10.434  1.00  0.00     0.162 A 
ATOM      5  C   UNL     1     -59.384  21.495  -9.383  1.00  0.00     0.128 A 
ATOM      6  C   UNL     1     -60.429  22.096  -8.676  1.00  0.00     0.093 A 
ATOM      7  C   UNL     1     -60.873  23.383  -9.005  1.00  0.00     0.136 A 
ATOM      8  C   UNL     1     -60.250  24.086 -10.069  1.00  0.00     0.125 A 
ATOM      9  C   UNL     1     -60.621  25.383 -10.458  1.00  0.00     0.078 A 
ATOM     10  C   UNL     1     -59.957  26.014 -11.515  1.00  0.00     0.223 A 
ENDROOT
BRANCH   1  11
ATOM     11  C   UNL     1     -58.197  25.911 -13.327  1.00  0.00     0.091 A 
ATOM     12  C   UNL     1     -58.700  25.759 -14.628  1.00  0.00     0.068 A 
ATOM     13  C   UNL     1     -58.033  26.328 -15.723  1.00  0.00     0.162 A 
ATOM     14  C   UNL     1     -57.032  26.673 -13.129  1.00  0.00     0.068 A 
ATOM     15  C   UNL     1     -56.857  27.069 -15.517  1.00  0.00     0.200 A 
ATOM     16  C   UNL     1     -56.361  27.245 -14.219  1.00  0.00     0.162 A 
BRANCH  13  17
ATOM     17  O   UNL     1     -58.534  26.158 -17.012  1.00  0.00    -0.504 OA
ATOM     18  H   UNL     1     -58.348  25.318 -17.548  1.00  0.00     0.293 HD
ENDBRANCH  13  17
BRANCH  15  19
ATOM     19  O   UNL     1     -56.174  27.642 -16.590  1.00  0.00    -0.502 OA
ATOM     20  H   UNL     1     -56.590  27.727 -17.510  1.00  0.00     0.293 HD
ENDBRANCH  15  19
BRANCH  16  21
ATOM     21  O   UNL     1     -55.203  27.993 -14.019  1.00  0.00    -0.504 OA
ATOM     22  H   UNL     1     -54.436  27.972 -14.681  1.00  0.00     0.293 HD
ENDBRANCH  16  21
ENDBRANCH   1  11
BRANCH  10  23
ATOM     23  O   UNL     1     -60.291  27.320 -11.870  1.00  0.00    -0.500 OA
ATOM     24  H   UNL     1     -61.152  27.537 -12.358  1.00  0.00     0.294 HD
ENDBRANCH  10  23
BRANCH   5  25
ATOM     25  O   UNL     1     -58.966  20.214  -9.032  1.00  0.00    -0.507 OA
ATOM     26  H   UNL     1     -58.182  19.767  -9.494  1.00  0.00     0.293 HD
ENDBRANCH   5  25
BRANCH   7  27
ATOM     27  O   UNL     1     -61.925  23.912  -8.251  1.00  0.00    -0.507 OA
ATOM     28  H   UNL     1     -62.851  23.512  -8.205  1.00  0.00     0.293 HD
ENDBRANCH   7  27
TORSDOF 7
ENDMDL
MODEL 4
REMARK VINA RESULT:    -5.003      1.945      3.187
REMARK INTER + INTRA:          -6.331
REMARK INTER:                  -6.317
REMARK INTRA:                  -0.014
REMARK UNBOUND:                -0.158
REMARK SMILES Oc1cc(O)c2cc(O)c(-c3cc(O)c(O)c(O)c3)[o+]c2c1
REMARK SMILES IDX 10 1 20 2 21 3 22 4 2 5 3 6 4 7 6 8 7 9 8 10 11 11 12 12
REMARK SMILES IDX 13 13 19 14 15 15 17 16 14 17 16 19 18 21 9 23 1 25 5 27
REMARK H PARENT 14 18 16 20 18 22 9 24 1 26 5 28
REMARK Flexibility Score: inf
ROOT
ATOM      1  C   UNL     1     -56.675  24.480 -13.484  1.00  0.00     0.402 A 
ATOM      2  O   UNL     1     -57.531  23.547 -13.077  1.00  0.00    -0.202 OA
ATOM      3  C   UNL     1     -57.256  22.676 -12.111  1.00  0.00     0.368 A 
ATOM      4  C   UNL     1     -58.224  21.733 -11.750  1.00  0.00     0.162 A 
ATOM      5  C   UNL     1     -57.963  20.808 -10.735  1.00  0.00     0.128 A 
ATOM      6  C   UNL     1     -56.730  20.826 -10.078  1.00  0.00     0.093 A 
ATOM      7  C   UNL     1     -55.745  21.761 -10.421  1.00  0.00     0.136 A 
ATOM      8  C   UNL     1     -56.003  22.701 -11.452  1.00  0.00     0.125 A 
ATOM      9  C   UNL     1     -55.071  23.664 -11.870  1.00  0.00     0.078 A 
ATOM     10  C   UNL     1     -55.397  24.555 -12.898  1.00  0.00     0.223 A 
ENDROOT
BRANCH   1  11
ATOM     11  C   UNL     1     -57.101  25.398 -14.564  1.00  0.00     0.091 A 
ATOM     12  C   UNL     1     -58.330  26.067 -14.456  1.00  0.00     0.068 A 
ATOM     13  C   UNL     1     -58.749  26.959 -15.454  1.00  0.00     0.162 A 
ATOM     14  C   UNL     1     -56.275  25.660 -15.671  1.00  0.00     0.068 A 
ATOM     15  C   UNL     1     -57.926  27.198 -16.568  1.00  0.00     0.200 A 
ATOM     16  C   UNL     1     -56.687  26.552 -16.671  1.00  0.00     0.162 A 
BRANCH  13  17
ATOM     17  O   UNL     1     -59.978  27.606 -15.343  1.00  0.00    -0.504 OA
ATOM     18  H   UNL     1     -60.298  28.261 -16.046  1.00  0.00     0.293 HD
ENDBRANCH  13  17
BRANCH  15  19
ATOM     19  O   UNL     1     -58.321  28.078 -17.575  1.00  0.00    -0.502 OA
ATOM     20  H   UNL     1     -59.290  28.173 -17.859  1.00  0.00     0.293 HD
ENDBRANCH  15  19
BRANCH  16  21
ATOM     21  O   UNL     1     -55.869  26.803 -17.771  1.00  0.00    -0.504 OA
ATOM     22  H   UNL     1     -55.449  26.050 -18.303  1.00  0.00     0.293 HD
ENDBRANCH  16  21
ENDBRANCH   1  11
BRANCH  10  23
ATOM     23  O   UNL     1     -54.454  25.479 -13.348  1.00  0.00    -0.500 OA
ATOM     24  H   UNL     1     -53.465  25.365 -13.160  1.00  0.00     0.294 HD
ENDBRANCH  10  23
BRANCH   5  25
ATOM     25  O   UNL     1     -58.921  19.866 -10.371  1.00  0.00    -0.507 OA
ATOM     26  H   UNL     1     -58.995  19.526  -9.419  1.00  0.00     0.293 HD
ENDBRANCH   5  25
BRANCH   7  27
ATOM     27  O   UNL     1     -54.540  21.714  -9.713  1.00  0.00    -0.507 OA
ATOM     28  H   UNL     1     -53.627  21.810 -10.134  1.00  0.00     0.293 HD
ENDBRANCH   7  27
TORSDOF 7
ENDMDL
MODEL 5
REMARK VINA RESULT:    -4.930      3.494      6.433
REMARK INTER + INTRA:          -6.241
REMARK INTER:                  -5.909
REMARK INTRA:                  -0.332
REMARK UNBOUND:                -0.158
REMARK SMILES Oc1cc(O)c2cc(O)c(-c3cc(O)c(O)c(O)c3)[o+]c2c1
REMARK SMILES IDX 10 1 20 2 21 3 22 4 2 5 3 6 4 7 6 8 7 9 8 10 11 11 12 12
REMARK SMILES IDX 13 13 19 14 15 15 17 16 14 17 16 19 18 21 9 23 1 25 5 27
REMARK H PARENT 14 18 16 20 18 22 9 24 1 26 5 28
REMARK Flexibility Score: inf
ROOT
ATOM      1  C   UNL     1     -56.230  24.707 -14.955  1.00  0.00     0.402 A 
ATOM      2  O   UNL     1     -57.383  24.932 -14.331  1.00  0.00    -0.202 OA
ATOM      3  C   UNL     1     -58.208  25.922 -14.657  1.00  0.00     0.368 A 
ATOM      4  C   UNL     1     -59.401  26.076 -13.944  1.00  0.00     0.162 A 
ATOM      5  C   UNL     1     -60.288  27.107 -14.268  1.00  0.00     0.128 A 
ATOM      6  C   UNL     1     -59.983  27.986 -15.310  1.00  0.00     0.093 A 
ATOM      7  C   UNL     1     -58.795  27.851 -16.040  1.00  0.00     0.136 A 
ATOM      8  C   UNL     1     -57.889  26.809 -15.714  1.00  0.00     0.125 A 
ATOM      9  C   UNL     1     -56.670  26.608 -16.382  1.00  0.00     0.078 A 
ATOM     10  C   UNL     1     -55.826  25.560 -16.000  1.00  0.00     0.223 A 
ENDROOT
BRANCH   1  11
ATOM     11  C   UNL     1     -55.401  23.566 -14.505  1.00  0.00     0.091 A 
ATOM     12  C   UNL     1     -55.721  22.269 -14.935  1.00  0.00     0.068 A 
ATOM     13  C   UNL     1     -54.941  21.173 -14.541  1.00  0.00     0.162 A 
ATOM     14  C   UNL     1     -54.265  23.759 -13.701  1.00  0.00     0.068 A 
ATOM     15  C   UNL     1     -53.818  21.373 -13.718  1.00  0.00     0.200 A 
ATOM     16  C   UNL     1     -53.480  22.668 -13.304  1.00  0.00     0.162 A 
BRANCH  13  17
ATOM     17  O   UNL     1     -55.276  19.888 -14.962  1.00  0.00    -0.504 OA
ATOM     18  H   UNL     1     -55.208  19.613 -15.935  1.00  0.00     0.293 HD
ENDBRANCH  13  17
BRANCH  15  19
ATOM     19  O   UNL     1     -53.028  20.299 -13.310  1.00  0.00    -0.502 OA
ATOM     20  H   UNL     1     -52.936  19.456 -13.865  1.00  0.00     0.293 HD
ENDBRANCH  15  19
BRANCH  16  21
ATOM     21  O   UNL     1     -52.358  22.863 -12.501  1.00  0.00    -0.504 OA
ATOM     22  H   UNL     1     -52.013  22.136 -11.885  1.00  0.00     0.293 HD
ENDBRANCH  16  21
ENDBRANCH   1  11
BRANCH  10  23
ATOM     23  O   UNL     1     -54.594  25.390 -16.629  1.00  0.00    -0.500 OA
ATOM     24  H   UNL     1     -53.967  24.635 -16.379  1.00  0.00     0.294 HD
ENDBRANCH  10  23
BRANCH   5  25
ATOM     25  O   UNL     1     -61.478  27.266 -13.562  1.00  0.00    -0.507 OA
ATOM     26  H   UNL     1     -61.597  26.883 -12.631  1.00  0.00     0.293 HD
ENDBRANCH   5  25
BRANCH   7  27
ATOM     27  O   UNL     1     -58.566  28.770 -17.069  1.00  0.00    -0.507 OA
ATOM     28  H   UNL     1     -58.996  28.723 -17.982  1.00  0.00     0.293 HD
ENDBRANCH   7  27
TORSDOF 7
ENDMDL
MODEL 6
REMARK VINA RESULT:    -4.929      1.133      2.659
REMARK INTER + INTRA:          -6.240
REMARK INTER:                  -6.133
REMARK INTRA:                  -0.108
REMARK UNBOUND:                -0.158
REMARK SMILES Oc1cc(O)c2cc(O)c(-c3cc(O)c(O)c(O)c3)[o+]c2c1
REMARK SMILES IDX 10 1 20 2 21 3 22 4 2 5 3 6 4 7 6 8 7 9 8 10 11 11 12 12
REMARK SMILES IDX 13 13 19 14 15 15 17 16 14 17 16 19 18 21 9 23 1 25 5 27
REMARK H PARENT 14 18 16 20 18 22 9 24 1 26 5 28
REMARK Flexibility Score: inf
ROOT
ATOM      1  C   UNL     1     -57.908  24.375 -13.036  1.00  0.00     0.402 A 
ATOM      2  O   UNL     1     -58.557  25.120 -12.144  1.00  0.00    -0.202 OA
ATOM      3  C   UNL     1     -59.055  24.633 -11.012  1.00  0.00     0.368 A 
ATOM      4  C   UNL     1     -59.718  25.496 -10.135  1.00  0.00     0.162 A 
ATOM      5  C   UNL     1     -60.249  25.012  -8.935  1.00  0.00     0.128 A 
ATOM      6  C   UNL     1     -60.115  23.659  -8.612  1.00  0.00     0.093 A 
ATOM      7  C   UNL     1     -59.454  22.775  -9.474  1.00  0.00     0.136 A 
ATOM      8  C   UNL     1     -58.916  23.260 -10.694  1.00  0.00     0.125 A 
ATOM      9  C   UNL     1     -58.251  22.445 -11.623  1.00  0.00     0.078 A 
ATOM     10  C   UNL     1     -57.750  22.995 -12.807  1.00  0.00     0.223 A 
ENDROOT
BRANCH   1  11
ATOM     11  C   UNL     1     -57.391  25.036 -14.256  1.00  0.00     0.091 A 
ATOM     12  C   UNL     1     -56.037  24.896 -14.595  1.00  0.00     0.068 A 
ATOM     13  C   UNL     1     -55.526  25.493 -15.756  1.00  0.00     0.162 A 
ATOM     14  C   UNL     1     -58.241  25.755 -15.115  1.00  0.00     0.068 A 
ATOM     15  C   UNL     1     -56.378  26.229 -16.598  1.00  0.00     0.200 A 
ATOM     16  C   UNL     1     -57.736  26.353 -16.278  1.00  0.00     0.162 A 
BRANCH  13  17
ATOM     17  O   UNL     1     -54.176  25.360 -16.075  1.00  0.00    -0.504 OA
ATOM     18  H   UNL     1     -53.472  25.221 -15.360  1.00  0.00     0.293 HD
ENDBRANCH  13  17
BRANCH  15  19
ATOM     19  O   UNL     1     -55.893  26.835 -17.756  1.00  0.00    -0.502 OA
ATOM     20  H   UNL     1     -55.040  27.383 -17.762  1.00  0.00     0.293 HD
ENDBRANCH  15  19
BRANCH  16  21
ATOM     21  O   UNL     1     -58.580  27.071 -17.123  1.00  0.00    -0.504 OA
ATOM     22  H   UNL     1     -58.843  28.029 -16.922  1.00  0.00     0.293 HD
ENDBRANCH  16  21
ENDBRANCH   1  11
BRANCH  10  23
ATOM     23  O   UNL     1     -57.134  22.177 -13.753  1.00  0.00    -0.500 OA
ATOM     24  H   UNL     1     -56.126  22.087 -13.803  1.00  0.00     0.294 HD
ENDBRANCH  10  23
BRANCH   5  25
ATOM     25  O   UNL     1     -60.912  25.866  -8.057  1.00  0.00    -0.507 OA
ATOM     26  H   UNL     1     -61.413  26.682  -8.389  1.00  0.00     0.293 HD
ENDBRANCH   5  25
BRANCH   7  27
ATOM     27  O   UNL     1     -59.361  21.438  -9.074  1.00  0.00    -0.507 OA
ATOM     28  H   UNL     1     -59.354  21.129  -8.113  1.00  0.00     0.293 HD
ENDBRANCH   7  27
TORSDOF 7
ENDMDL
MODEL 7
REMARK VINA RESULT:    -4.911      7.907      9.736
REMARK INTER + INTRA:          -6.218
REMARK INTER:                  -5.847
REMARK INTRA:                  -0.371
REMARK UNBOUND:                -0.158
REMARK SMILES Oc1cc(O)c2cc(O)c(-c3cc(O)c(O)c(O)c3)[o+]c2c1
REMARK SMILES IDX 10 1 20 2 21 3 22 4 2 5 3 6 4 7 6 8 7 9 8 10 11 11 12 12
REMARK SMILES IDX 13 13 19 14 15 15 17 16 14 17 16 19 18 21 9 23 1 25 5 27
REMARK H PARENT 14 18 16 20 18 22 9 24 1 26 5 28
REMARK Flexibility Score: inf
ROOT
ATOM      1  C   UNL     1     -56.627  17.812 -17.201  1.00  0.00     0.402 A 
ATOM      2  O   UNL     1     -55.988  17.473 -16.084  1.00  0.00    -0.202 OA
ATOM      3  C   UNL     1     -54.703  17.735 -15.871  1.00  0.00     0.368 A 
ATOM      4  C   UNL     1     -54.120  17.342 -14.662  1.00  0.00     0.162 A 
ATOM      5  C   UNL     1     -52.771  17.608 -14.410  1.00  0.00     0.128 A 
ATOM      6  C   UNL     1     -52.002  18.270 -15.369  1.00  0.00     0.093 A 
ATOM      7  C   UNL     1     -52.563  18.675 -16.587  1.00  0.00     0.136 A 
ATOM      8  C   UNL     1     -53.930  18.405 -16.850  1.00  0.00     0.125 A 
ATOM      9  C   UNL     1     -54.572  18.762 -18.047  1.00  0.00     0.078 A 
ATOM     10  C   UNL     1     -55.924  18.458 -18.236  1.00  0.00     0.223 A 
ENDROOT
BRANCH   1  11
ATOM     11  C   UNL     1     -58.063  17.473 -17.317  1.00  0.00     0.091 A 
ATOM     12  C   UNL     1     -58.441  16.265 -17.925  1.00  0.00     0.068 A 
ATOM     13  C   UNL     1     -59.793  15.910 -18.028  1.00  0.00     0.162 A 
ATOM     14  C   UNL     1     -59.058  18.309 -16.780  1.00  0.00     0.068 A 
ATOM     15  C   UNL     1     -60.782  16.762 -17.508  1.00  0.00     0.200 A 
ATOM     16  C   UNL     1     -60.412  17.958 -16.880  1.00  0.00     0.162 A 
BRANCH  13  17
ATOM     17  O   UNL     1     -60.156  14.715 -18.647  1.00  0.00    -0.504 OA
ATOM     18  H   UNL     1     -59.654  14.359 -19.451  1.00  0.00     0.293 HD
ENDBRANCH  13  17
BRANCH  15  19
ATOM     19  O   UNL     1     -62.134  16.433 -17.601  1.00  0.00    -0.502 OA
ATOM     20  H   UNL     1     -62.831  17.097 -17.918  1.00  0.00     0.293 HD
ENDBRANCH  15  19
BRANCH  16  21
ATOM     21  O   UNL     1     -61.395  18.793 -16.352  1.00  0.00    -0.504 OA
ATOM     22  H   UNL     1     -62.290  18.914 -16.811  1.00  0.00     0.293 HD
ENDBRANCH  16  21
ENDBRANCH   1  11
BRANCH  10  23
ATOM     23  O   UNL     1     -56.548  18.767 -19.444  1.00  0.00    -0.500 OA
ATOM     24  H   UNL     1     -57.458  18.392 -19.685  1.00  0.00     0.294 HD
ENDBRANCH  10  23
BRANCH   5  25
ATOM     25  O   UNL     1     -52.185  17.219 -13.208  1.00  0.00    -0.507 OA
ATOM     26  H   UNL     1     -51.180  17.236 -13.079  1.00  0.00     0.293 HD
ENDBRANCH   5  25
BRANCH   7  27
ATOM     27  O   UNL     1     -51.725  19.335 -17.492  1.00  0.00    -0.507 OA
ATOM     28  H   UNL     1     -51.469  18.974 -18.400  1.00  0.00     0.293 HD
ENDBRANCH   7  27
TORSDOF 7
ENDMDL
MODEL 8
REMARK VINA RESULT:    -4.889      1.560      2.725
REMARK INTER + INTRA:          -6.190
REMARK INTER:                  -5.811
REMARK INTRA:                  -0.379
REMARK UNBOUND:                -0.158
REMARK SMILES Oc1cc(O)c2cc(O)c(-c3cc(O)c(O)c(O)c3)[o+]c2c1
REMARK SMILES IDX 10 1 20 2 21 3 22 4 2 5 3 6 4 7 6 8 7 9 8 10 11 11 12 12
REMARK SMILES IDX 13 13 19 14 15 15 17 16 14 17 16 19 18 21 9 23 1 25 5 27
REMARK H PARENT 14 18 16 20 18 22 9 24 1 26 5 28
REMARK Flexibility Score: inf
ROOT
ATOM      1  C   UNL     1     -57.961  23.979 -12.535  1.00  0.00     0.402 A 
ATOM      2  O   UNL     1     -58.680  24.218 -11.441  1.00  0.00    -0.202 OA
ATOM      3  C   UNL     1     -59.029  23.271 -10.577  1.00  0.00     0.368 A 
ATOM      4  C   UNL     1     -59.784  23.621  -9.453  1.00  0.00     0.162 A 
ATOM      5  C   UNL     1     -60.162  22.645  -8.525  1.00  0.00     0.128 A 
ATOM      6  C   UNL     1     -59.784  21.315  -8.722  1.00  0.00     0.093 A 
ATOM      7  C   UNL     1     -59.028  20.939  -9.840  1.00  0.00     0.136 A 
ATOM      8  C   UNL     1     -58.644  21.924 -10.786  1.00  0.00     0.125 A 
ATOM      9  C   UNL     1     -57.898  21.637 -11.941  1.00  0.00     0.078 A 
ATOM     10  C   UNL     1     -57.560  22.662 -12.830  1.00  0.00     0.223 A 
ENDROOT
BRANCH   1  11
ATOM     11  C   UNL     1     -57.627  25.120 -13.416  1.00  0.00     0.091 A 
ATOM     12  C   UNL     1     -56.431  25.826 -13.209  1.00  0.00     0.068 A 
ATOM     13  C   UNL     1     -56.080  26.897 -14.043  1.00  0.00     0.162 A 
ATOM     14  C   UNL     1     -58.455  25.479 -14.494  1.00  0.00     0.068 A 
ATOM     15  C   UNL     1     -56.925  27.263 -15.105  1.00  0.00     0.200 A 
ATOM     16  C   UNL     1     -58.109  26.549 -15.332  1.00  0.00     0.162 A 
BRANCH  13  17
ATOM     17  O   UNL     1     -54.898  27.599 -13.818  1.00  0.00    -0.504 OA
ATOM     18  H   UNL     1     -54.430  28.103 -14.562  1.00  0.00     0.293 HD
ENDBRANCH  13  17
BRANCH  15  19
ATOM     19  O   UNL     1     -56.600  28.327 -15.945  1.00  0.00    -0.502 OA
ATOM     20  H   UNL     1     -56.639  29.291 -15.635  1.00  0.00     0.293 HD
ENDBRANCH  15  19
BRANCH  16  21
ATOM     21  O   UNL     1     -58.935  26.906 -16.395  1.00  0.00    -0.504 OA
ATOM     22  H   UNL     1     -59.092  26.283 -17.178  1.00  0.00     0.293 HD
ENDBRANCH  16  21
ENDBRANCH   1  11
BRANCH  10  23
ATOM     23  O   UNL     1     -56.863  22.370 -14.002  1.00  0.00    -0.500 OA
ATOM     24  H   UNL     1     -55.941  22.748 -14.182  1.00  0.00     0.294 HD
ENDBRANCH  10  23
BRANCH   5  25
ATOM     25  O   UNL     1     -60.914  22.987  -7.404  1.00  0.00    -0.507 OA
ATOM     26  H   UNL     1     -60.588  23.677  -6.738  1.00  0.00     0.293 HD
ENDBRANCH   5  25
BRANCH   7  27
ATOM     27  O   UNL     1     -58.689  19.588  -9.962  1.00  0.00    -0.507 OA
ATOM     28  H   UNL     1     -58.295  19.030  -9.218  1.00  0.00     0.293 HD
ENDBRANCH   7  27
TORSDOF 7
ENDMDL
MODEL 9
REMARK VINA RESULT:    -4.851      2.915      3.861
REMARK INTER + INTRA:          -6.144
REMARK INTER:                  -6.012
REMARK INTRA:                  -0.132
REMARK UNBOUND:                -0.158
REMARK SMILES Oc1cc(O)c2cc(O)c(-c3cc(O)c(O)c(O)c3)[o+]c2c1
REMARK SMILES IDX 10 1 20 2 21 3 22 4 2 5 3 6 4 7 6 8 7 9 8 10 11 11 12 12
REMARK SMILES IDX 13 13 19 14 15 15 17 16 14 17 16 19 18 21 9 23 1 25 5 27
REMARK H PARENT 14 18 16 20 18 22 9 24 1 26 5 28
REMARK Flexibility Score: inf
ROOT
ATOM      1  C   UNL     1     -56.310  23.981 -13.971  1.00  0.00     0.402 A 
ATOM      2  O   UNL     1     -55.908  22.852 -14.549  1.00  0.00    -0.202 OA
ATOM      3  C   UNL     1     -55.444  21.809 -13.869  1.00  0.00     0.368 A 
ATOM      4  C   UNL     1     -55.048  20.663 -14.567  1.00  0.00     0.162 A 
ATOM      5  C   UNL     1     -54.559  19.550 -13.877  1.00  0.00     0.128 A 
ATOM      6  C   UNL     1     -54.466  19.582 -12.484  1.00  0.00     0.093 A 
ATOM      7  C   UNL     1     -54.856  20.717 -11.762  1.00  0.00     0.136 A 
ATOM      8  C   UNL     1     -55.350  21.851 -12.457  1.00  0.00     0.125 A 
ATOM      9  C   UNL     1     -55.752  23.035 -11.817  1.00  0.00     0.078 A 
ATOM     10  C   UNL     1     -56.225  24.113 -12.572  1.00  0.00     0.223 A 
ENDROOT
BRANCH   1  11
ATOM     11  C   UNL     1     -56.817  25.069 -14.836  1.00  0.00     0.091 A 
ATOM     12  C   UNL     1     -56.060  25.479 -15.945  1.00  0.00     0.068 A 
ATOM     13  C   UNL     1     -56.527  26.493 -16.793  1.00  0.00     0.162 A 
ATOM     14  C   UNL     1     -58.069  25.665 -14.605  1.00  0.00     0.068 A 
ATOM     15  C   UNL     1     -57.770  27.098 -16.541  1.00  0.00     0.200 A 
ATOM     16  C   UNL     1     -58.541  26.679 -15.450  1.00  0.00     0.162 A 
BRANCH  13  17
ATOM     17  O   UNL     1     -55.760  26.901 -17.883  1.00  0.00    -0.504 OA
ATOM     18  H   UNL     1     -56.102  27.586 -18.546  1.00  0.00     0.293 HD
ENDBRANCH  13  17
BRANCH  15  19
ATOM     19  O   UNL     1     -58.255  28.111 -17.368  1.00  0.00    -0.502 OA
ATOM     20  H   UNL     1     -59.247  28.259 -17.515  1.00  0.00     0.293 HD
ENDBRANCH  15  19
BRANCH  16  21
ATOM     21  O   UNL     1     -59.780  27.272 -15.213  1.00  0.00    -0.504 OA
ATOM     22  H   UNL     1     -60.643  26.841 -15.522  1.00  0.00     0.293 HD
ENDBRANCH  16  21
ENDBRANCH   1  11
BRANCH  10  23
ATOM     23  O   UNL     1     -56.576  25.307 -11.942  1.00  0.00    -0.500 OA
ATOM     24  H   UNL     1     -57.387  25.842 -12.228  1.00  0.00     0.294 HD
ENDBRANCH  10  23
BRANCH   5  25
ATOM     25  O   UNL     1     -54.163  18.407 -14.566  1.00  0.00    -0.507 OA
ATOM     26  H   UNL     1     -53.554  17.717 -14.141  1.00  0.00     0.293 HD
ENDBRANCH   5  25
BRANCH   7  27
ATOM     27  O   UNL     1     -54.734  20.667 -10.370  1.00  0.00    -0.507 OA
ATOM     28  H   UNL     1     -55.508  20.538  -9.733  1.00  0.00     0.293 HD
ENDBRANCH   7  27
TORSDOF 7
ENDMDL
