MODEL 1
REMARK VINA RESULT:    -4.799      0.000      0.000
REMARK INTER + INTRA:          -5.406
REMARK INTER:                  -5.219
REMARK INTRA:                  -0.186
REMARK UNBOUND:                -0.186
REMARK SMILES C=C(C)[C@@H]1CC[C@@H](C)C[C@@H]1O
REMARK SMILES IDX 8 1 7 2 6 3 5 4 4 5 10 6 9 7 11 8 2 10 1 11 3 12
REMARK H PARENT 11 9
REMARK Flexibility Score: inf
ROOT
ATOM      1  C   UNL     1     121.000 116.326 116.380  1.00  0.00     0.008 C 
ATOM      2  C   UNL     1     122.202 117.277 116.387  1.00  0.00    -0.012 C 
ATOM      3  C   UNL     1     122.420 117.883 114.987  1.00  0.00     0.004 C 
ATOM      4  C   UNL     1     123.638 118.816 114.970  1.00  0.00     0.011 C 
ATOM      5  C   UNL     1     124.903 118.072 115.447  1.00  0.00     0.043 C 
ATOM      6  C   UNL     1     124.701 117.468 116.858  1.00  0.00     0.121 C 
ATOM      7  C   UNL     1     123.470 116.540 116.866  1.00  0.00     0.035 C 
ENDROOT
BRANCH   6   8
ATOM      8  O   UNL     1     124.541 118.483 117.815  1.00  0.00    -0.392 OA
ATOM      9  H   UNL     1     123.581 118.733 117.811  1.00  0.00     0.210 HD
ENDBRANCH   6   8
BRANCH   5  10
ATOM     10  C   UNL     1     126.152 118.945 115.366  1.00  0.00    -0.075 C 
ATOM     11  C   UNL     1     127.388 118.415 115.387  1.00  0.00     0.008 C 
ATOM     12  C   UNL     1     126.018 120.443 115.267  1.00  0.00     0.039 C 
ENDBRANCH   5  10
TORSDOF 2
ENDMDL
MODEL 2
REMARK VINA RESULT:    -4.761     15.424     16.020
REMARK INTER + INTRA:          -5.365
REMARK INTER:                  -5.223
REMARK INTRA:                  -0.142
REMARK UNBOUND:                -0.186
REMARK SMILES C=C(C)[C@@H]1CC[C@@H](C)C[C@@H]1O
REMARK SMILES IDX 8 1 7 2 6 3 5 4 4 5 10 6 9 7 11 8 2 10 1 11 3 12
REMARK H PARENT 11 9
REMARK Flexibility Score: inf
ROOT
ATOM      1  C   UNL     1     117.995 125.549 125.838  1.00  0.00     0.008 C 
ATOM      2  C   UNL     1     118.361 127.020 125.613  1.00  0.00    -0.012 C 
ATOM      3  C   UNL     1     119.872 127.239 125.830  1.00  0.00     0.004 C 
ATOM      4  C   UNL     1     120.252 128.713 125.637  1.00  0.00     0.011 C 
ATOM      5  C   UNL     1     119.428 129.618 126.576  1.00  0.00     0.043 C 
ATOM      6  C   UNL     1     117.908 129.416 126.361  1.00  0.00     0.121 C 
ATOM      7  C   UNL     1     117.538 127.931 126.547  1.00  0.00     0.035 C 
ENDROOT
BRANCH   6   8
ATOM      8  O   UNL     1     117.526 129.846 125.079  1.00  0.00    -0.392 OA
ATOM      9  H   UNL     1     117.405 129.030 124.526  1.00  0.00     0.210 HD
ENDBRANCH   6   8
BRANCH   5  10
ATOM     10  C   UNL     1     119.836 131.084 126.471  1.00  0.00    -0.075 C 
ATOM     11  C   UNL     1     119.681 131.937 127.499  1.00  0.00     0.008 C 
ATOM     12  C   UNL     1     120.422 131.613 125.187  1.00  0.00     0.039 C 
ENDBRANCH   5  10
TORSDOF 2
ENDMDL
MODEL 3
REMARK VINA RESULT:    -4.467     16.591     17.490
REMARK INTER + INTRA:          -5.045
REMARK INTER:                  -5.043
REMARK INTRA:                  -0.002
REMARK UNBOUND:                -0.186
REMARK SMILES C=C(C)[C@@H]1CC[C@@H](C)C[C@@H]1O
REMARK SMILES IDX 8 1 7 2 6 3 5 4 4 5 10 6 9 7 11 8 2 10 1 11 3 12
REMARK H PARENT 11 9
REMARK Flexibility Score: inf
ROOT
ATOM      1  C   UNL     1     121.501 129.448 125.458  1.00  0.00     0.008 C 
ATOM      2  C   UNL     1     120.100 129.940 125.836  1.00  0.00    -0.012 C 
ATOM      3  C   UNL     1     119.042 128.871 125.497  1.00  0.00     0.004 C 
ATOM      4  C   UNL     1     117.629 129.359 125.843  1.00  0.00     0.011 C 
ATOM      5  C   UNL     1     117.318 130.686 125.120  1.00  0.00     0.043 C 
ATOM      6  C   UNL     1     118.366 131.773 125.461  1.00  0.00     0.121 C 
ATOM      7  C   UNL     1     119.782 131.269 125.119  1.00  0.00     0.035 C 
ENDROOT
BRANCH   6   8
ATOM      8  O   UNL     1     118.298 132.120 126.821  1.00  0.00    -0.392 OA
ATOM      9  H   UNL     1     118.935 132.869 126.958  1.00  0.00     0.210 HD
ENDBRANCH   6   8
BRANCH   5  10
ATOM     10  C   UNL     1     115.890 131.162 125.375  1.00  0.00    -0.075 C 
ATOM     11  C   UNL     1     115.312 131.049 126.584  1.00  0.00     0.008 C 
ATOM     12  C   UNL     1     115.088 131.771 124.253  1.00  0.00     0.039 C 
ENDBRANCH   5  10
TORSDOF 2
ENDMDL
MODEL 4
REMARK VINA RESULT:    -4.319     14.562     16.806
REMARK INTER + INTRA:          -4.884
REMARK INTER:                  -4.698
REMARK INTRA:                  -0.186
REMARK UNBOUND:                -0.186
REMARK SMILES C=C(C)[C@@H]1CC[C@@H](C)C[C@@H]1O
REMARK SMILES IDX 8 1 7 2 6 3 5 4 4 5 10 6 9 7 11 8 2 10 1 11 3 12
REMARK H PARENT 11 9
REMARK Flexibility Score: inf
ROOT
ATOM      1  C   UNL     1     113.117 116.403 131.107  1.00  0.00     0.008 C 
ATOM      2  C   UNL     1     112.696 117.270 129.915  1.00  0.00    -0.012 C 
ATOM      3  C   UNL     1     112.029 116.405 128.828  1.00  0.00     0.004 C 
ATOM      4  C   UNL     1     111.626 117.253 127.614  1.00  0.00     0.011 C 
ATOM      5  C   UNL     1     112.847 118.004 127.043  1.00  0.00     0.043 C 
ATOM      6  C   UNL     1     113.521 118.885 128.123  1.00  0.00     0.121 C 
ATOM      7  C   UNL     1     113.912 118.026 129.341  1.00  0.00     0.035 C 
ENDROOT
BRANCH   6   8
ATOM      8  O   UNL     1     112.662 119.922 128.525  1.00  0.00    -0.392 OA
ATOM      9  H   UNL     1     112.169 120.216 127.716  1.00  0.00     0.210 HD
ENDBRANCH   6   8
BRANCH   5  10
ATOM     10  C   UNL     1     112.503 118.795 125.785  1.00  0.00    -0.075 C 
ATOM     11  C   UNL     1     111.229 119.024 125.419  1.00  0.00     0.008 C 
ATOM     12  C   UNL     1     113.606 119.335 124.910  1.00  0.00     0.039 C 
ENDBRANCH   5  10
TORSDOF 2
ENDMDL
MODEL 5
REMARK VINA RESULT:    -4.271     15.790     17.116
REMARK INTER + INTRA:          -4.832
REMARK INTER:                  -4.638
REMARK INTRA:                  -0.194
REMARK UNBOUND:                -0.186
REMARK SMILES C=C(C)[C@@H]1CC[C@@H](C)C[C@@H]1O
REMARK SMILES IDX 8 1 7 2 6 3 5 4 4 5 10 6 9 7 11 8 2 10 1 11 3 12
REMARK H PARENT 11 9
REMARK Flexibility Score: inf
ROOT
ATOM      1  C   UNL     1     111.640 118.260 124.821  1.00  0.00     0.008 C 
ATOM      2  C   UNL     1     111.770 117.865 126.296  1.00  0.00    -0.012 C 
ATOM      3  C   UNL     1     112.636 118.890 127.054  1.00  0.00     0.004 C 
ATOM      4  C   UNL     1     112.801 118.495 128.528  1.00  0.00     0.011 C 
ATOM      5  C   UNL     1     113.398 117.077 128.649  1.00  0.00     0.043 C 
ATOM      6  C   UNL     1     112.532 116.035 127.900  1.00  0.00     0.121 C 
ATOM      7  C   UNL     1     112.364 116.447 126.425  1.00  0.00     0.035 C 
ENDROOT
BRANCH   6   8
ATOM      8  O   UNL     1     111.271 115.909 128.507  1.00  0.00    -0.392 OA
ATOM      9  H   UNL     1     111.048 114.942 128.506  1.00  0.00     0.210 HD
ENDBRANCH   6   8
BRANCH   5  10
ATOM     10  C   UNL     1     113.653 116.680 130.100  1.00  0.00    -0.075 C 
ATOM     11  C   UNL     1     113.290 117.471 131.125  1.00  0.00     0.008 C 
ATOM     12  C   UNL     1     114.337 115.373 130.414  1.00  0.00     0.039 C 
ENDBRANCH   5  10
TORSDOF 2
ENDMDL
MODEL 6
REMARK VINA RESULT:    -4.251     13.923     15.678
REMARK INTER + INTRA:          -4.810
REMARK INTER:                  -4.619
REMARK INTRA:                  -0.191
REMARK UNBOUND:                -0.186
REMARK SMILES C=C(C)[C@@H]1CC[C@@H](C)C[C@@H]1O
REMARK SMILES IDX 8 1 7 2 6 3 5 4 4 5 10 6 9 7 11 8 2 10 1 11 3 12
REMARK H PARENT 11 9
REMARK Flexibility Score: inf
ROOT
ATOM      1  C   UNL     1     112.075 116.124 128.884  1.00  0.00     0.008 C 
ATOM      2  C   UNL     1     111.894 117.047 127.673  1.00  0.00    -0.012 C 
ATOM      3  C   UNL     1     112.357 116.341 126.383  1.00  0.00     0.004 C 
ATOM      4  C   UNL     1     112.210 117.260 125.164  1.00  0.00     0.011 C 
ATOM      5  C   UNL     1     112.987 118.576 125.376  1.00  0.00     0.043 C 
ATOM      6  C   UNL     1     112.525 119.302 126.663  1.00  0.00     0.121 C 
ATOM      7  C   UNL     1     112.667 118.366 127.879  1.00  0.00     0.035 C 
ENDROOT
BRANCH   6   8
ATOM      8  O   UNL     1     111.191 119.728 126.542  1.00  0.00    -0.392 OA
ATOM      9  H   UNL     1     111.190 120.487 125.902  1.00  0.00     0.210 HD
ENDBRANCH   6   8
BRANCH   5  10
ATOM     10  C   UNL     1     112.932 119.484 124.151  1.00  0.00    -0.075 C 
ATOM     11  C   UNL     1     113.773 120.522 124.000  1.00  0.00     0.008 C 
ATOM     12  C   UNL     1     111.909 119.231 123.072  1.00  0.00     0.039 C 
ENDBRANCH   5  10
TORSDOF 2
ENDMDL
MODEL 7
REMARK VINA RESULT:    -4.223     14.496     15.946
REMARK INTER + INTRA:          -4.779
REMARK INTER:                  -4.614
REMARK INTRA:                  -0.165
REMARK UNBOUND:                -0.186
REMARK SMILES C=C(C)[C@@H]1CC[C@@H](C)C[C@@H]1O
REMARK SMILES IDX 8 1 7 2 6 3 5 4 4 5 10 6 9 7 11 8 2 10 1 11 3 12
REMARK H PARENT 11 9
REMARK Flexibility Score: inf
ROOT
ATOM      1  C   UNL     1     111.525 119.303 122.529  1.00  0.00     0.008 C 
ATOM      2  C   UNL     1     112.093 118.843 123.876  1.00  0.00    -0.012 C 
ATOM      3  C   UNL     1     112.374 117.328 123.855  1.00  0.00     0.004 C 
ATOM      4  C   UNL     1     112.916 116.845 125.206  1.00  0.00     0.011 C 
ATOM      5  C   UNL     1     111.941 117.205 126.346  1.00  0.00     0.043 C 
ATOM      6  C   UNL     1     111.658 118.726 126.386  1.00  0.00     0.121 C 
ATOM      7  C   UNL     1     111.124 119.202 125.021  1.00  0.00     0.035 C 
ENDROOT
BRANCH   6   8
ATOM      8  O   UNL     1     112.823 119.439 126.719  1.00  0.00    -0.392 OA
ATOM      9  H   UNL     1     113.161 119.843 125.878  1.00  0.00     0.210 HD
ENDBRANCH   6   8
BRANCH   5  10
ATOM     10  C   UNL     1     112.407 116.669 127.697  1.00  0.00    -0.075 C 
ATOM     11  C   UNL     1     111.547 116.449 128.707  1.00  0.00     0.008 C 
ATOM     12  C   UNL     1     113.868 116.378 127.927  1.00  0.00     0.039 C 
ENDBRANCH   5  10
TORSDOF 2
ENDMDL
MODEL 8
REMARK VINA RESULT:    -4.196     15.835     17.128
REMARK INTER + INTRA:          -4.751
REMARK INTER:                  -4.557
REMARK INTRA:                  -0.193
REMARK UNBOUND:                -0.186
REMARK SMILES C=C(C)[C@@H]1CC[C@@H](C)C[C@@H]1O
REMARK SMILES IDX 8 1 7 2 6 3 5 4 4 5 10 6 9 7 11 8 2 10 1 11 3 12
REMARK H PARENT 11 9
REMARK Flexibility Score: inf
ROOT
ATOM      1  C   UNL     1     114.973 115.908 131.102  1.00  0.00     0.008 C 
ATOM      2  C   UNL     1     114.029 116.035 129.901  1.00  0.00    -0.012 C 
ATOM      3  C   UNL     1     114.821 116.395 128.628  1.00  0.00     0.004 C 
ATOM      4  C   UNL     1     113.887 116.555 127.421  1.00  0.00     0.011 C 
ATOM      5  C   UNL     1     112.801 117.613 127.707  1.00  0.00     0.043 C 
ATOM      6  C   UNL     1     111.991 117.259 128.977  1.00  0.00     0.121 C 
ATOM      7  C   UNL     1     112.939 117.090 130.181  1.00  0.00     0.035 C 
ENDROOT
BRANCH   6   8
ATOM      8  O   UNL     1     111.252 116.079 128.783  1.00  0.00    -0.392 OA
ATOM      9  H   UNL     1     111.623 115.638 127.976  1.00  0.00     0.210 HD
ENDBRANCH   6   8
BRANCH   5  10
ATOM     10  C   UNL     1     111.902 117.859 126.499  1.00  0.00    -0.075 C 
ATOM     11  C   UNL     1     111.980 117.100 125.392  1.00  0.00     0.008 C 
ATOM     12  C   UNL     1     110.898 118.984 126.524  1.00  0.00     0.039 C 
ENDBRANCH   5  10
TORSDOF 2
ENDMDL
MODEL 9
REMARK VINA RESULT:    -3.588     15.680     17.254
REMARK INTER + INTRA:          -4.089
REMARK INTER:                  -3.947
REMARK INTRA:                  -0.142
REMARK UNBOUND:                -0.186
REMARK SMILES C=C(C)[C@@H]1CC[C@@H](C)C[C@@H]1O
REMARK SMILES IDX 8 1 7 2 6 3 5 4 4 5 10 6 9 7 11 8 2 10 1 11 3 12
REMARK H PARENT 11 9
REMARK Flexibility Score: inf
ROOT
ATOM      1  C   UNL     1     111.466 118.664 124.626  1.00  0.00     0.008 C 
ATOM      2  C   UNL     1     112.135 118.320 125.962  1.00  0.00    -0.012 C 
ATOM      3  C   UNL     1     112.306 116.794 126.102  1.00  0.00     0.004 C 
ATOM      4  C   UNL     1     112.949 116.430 127.447  1.00  0.00     0.011 C 
ATOM      5  C   UNL     1     112.121 116.997 128.619  1.00  0.00     0.043 C 
ATOM      6  C   UNL     1     111.950 118.531 128.497  1.00  0.00     0.121 C 
ATOM      7  C   UNL     1     111.314 118.887 127.138  1.00  0.00     0.035 C 
ENDROOT
BRANCH   6   8
ATOM      8  O   UNL     1     113.189 119.181 128.629  1.00  0.00    -0.392 OA
ATOM      9  H   UNL     1     113.780 118.820 127.919  1.00  0.00     0.210 HD
ENDBRANCH   6   8
BRANCH   5  10
ATOM     10  C   UNL     1     112.684 116.586 129.976  1.00  0.00    -0.075 C 
ATOM     11  C   UNL     1     112.206 117.095 131.125  1.00  0.00     0.008 C 
ATOM     12  C   UNL     1     113.813 115.588 130.052  1.00  0.00     0.039 C 
ENDBRANCH   5  10
TORSDOF 2
ENDMDL
