MODEL 1
REMARK VINA RESULT:    -4.478      0.000      0.000
REMARK INTER + INTRA:          -4.916
REMARK INTER:                  -4.871
REMARK INTRA:                  -0.045
REMARK UNBOUND:                -0.045
REMARK SMILES COc1cc2ccc(=O)oc2cc1O
REMARK SMILES IDX 3 1 13 2 12 3 11 4 5 5 4 6 6 7 7 8 8 9 9 10 10 11 2 12 1 13
REMARK SMILES IDX 14 14
REMARK H PARENT 14 15
REMARK Flexibility Score: inf
ROOT
ATOM      1  C   UNL     1      23.832   3.912  24.539  1.00  0.00     0.161 A 
ATOM      2  C   UNL     1      23.282   3.086  25.539  1.00  0.00     0.161 A 
ATOM      3  C   UNL     1      22.080   3.438  26.164  1.00  0.00     0.098 A 
ATOM      4  C   UNL     1      21.413   4.610  25.804  1.00  0.00     0.142 A 
ATOM      5  C   UNL     1      21.955   5.446  24.804  1.00  0.00     0.022 A 
ATOM      6  C   UNL     1      23.158   5.097  24.176  1.00  0.00     0.062 A 
ATOM      7  C   UNL     1      21.264   6.613  24.465  1.00  0.00     0.019 A 
ATOM      8  C   UNL     1      20.070   6.917  25.118  1.00  0.00     0.094 A 
ATOM      9  C   UNL     1      19.594   6.042  26.100  1.00  0.00     0.336 A 
ATOM     10  O   UNL     1      18.518   6.297  26.702  1.00  0.00    -0.246 OA
ATOM     11  O   UNL     1      20.271   4.937  26.403  1.00  0.00    -0.423 OA
ENDROOT
BRANCH   1  12
ATOM     12  O   UNL     1      25.039   3.529  23.933  1.00  0.00    -0.493 OA
ATOM     13  C   UNL     1      25.421   3.873  22.605  1.00  0.00     0.278 C 
ENDBRANCH   1  12
BRANCH   2  14
ATOM     14  O   UNL     1      23.919   1.906  25.927  1.00  0.00    -0.504 OA
ATOM     15  H   UNL     1      24.904   1.743  25.755  1.00  0.00     0.293 HD
ENDBRANCH   2  14
TORSDOF 2
ENDMDL
MODEL 2
REMARK VINA RESULT:    -4.247      2.410      3.896
REMARK INTER + INTRA:          -4.665
REMARK INTER:                  -4.626
REMARK INTRA:                  -0.039
REMARK UNBOUND:                -0.045
REMARK SMILES COc1cc2ccc(=O)oc2cc1O
REMARK SMILES IDX 3 1 13 2 12 3 11 4 5 5 4 6 6 7 7 8 8 9 9 10 10 11 2 12 1 13
REMARK SMILES IDX 14 14
REMARK H PARENT 14 15
REMARK Flexibility Score: inf
ROOT
ATOM      1  C   UNL     1      26.268   6.092  22.414  1.00  0.00     0.161 A 
ATOM      2  C   UNL     1      26.146   4.706  22.197  1.00  0.00     0.161 A 
ATOM      3  C   UNL     1      25.109   3.985  22.801  1.00  0.00     0.098 A 
ATOM      4  C   UNL     1      24.185   4.632  23.624  1.00  0.00     0.142 A 
ATOM      5  C   UNL     1      24.297   6.020  23.848  1.00  0.00     0.022 A 
ATOM      6  C   UNL     1      25.334   6.745  23.245  1.00  0.00     0.062 A 
ATOM      7  C   UNL     1      23.357   6.640  24.676  1.00  0.00     0.019 A 
ATOM      8  C   UNL     1      22.343   5.875  25.254  1.00  0.00     0.094 A 
ATOM      9  C   UNL     1      22.295   4.503  24.987  1.00  0.00     0.336 A 
ATOM     10  O   UNL     1      21.388   3.795  25.498  1.00  0.00    -0.246 OA
ATOM     11  O   UNL     1      23.202   3.938  24.194  1.00  0.00    -0.423 OA
ENDROOT
BRANCH   1  12
ATOM     12  O   UNL     1      27.319   6.784  21.792  1.00  0.00    -0.493 OA
ATOM     13  C   UNL     1      28.628   6.923  22.335  1.00  0.00     0.278 C 
ENDBRANCH   1  12
BRANCH   2  14
ATOM     14  O   UNL     1      27.050   4.023  21.382  1.00  0.00    -0.504 OA
ATOM     15  H   UNL     1      27.806   4.496  20.902  1.00  0.00     0.293 HD
ENDBRANCH   2  14
TORSDOF 2
ENDMDL
MODEL 3
REMARK VINA RESULT:    -4.159      2.154      4.891
REMARK INTER + INTRA:          -4.569
REMARK INTER:                  -4.515
REMARK INTRA:                  -0.054
REMARK UNBOUND:                -0.045
REMARK SMILES COc1cc2ccc(=O)oc2cc1O
REMARK SMILES IDX 3 1 13 2 12 3 11 4 5 5 4 6 6 7 7 8 8 9 9 10 10 11 2 12 1 13
REMARK SMILES IDX 14 14
REMARK H PARENT 14 15
REMARK Flexibility Score: inf
ROOT
ATOM      1  C   UNL     1      21.778   5.386  25.049  1.00  0.00     0.161 A 
ATOM      2  C   UNL     1      21.627   3.986  25.087  1.00  0.00     0.161 A 
ATOM      3  C   UNL     1      22.642   3.181  25.619  1.00  0.00     0.098 A 
ATOM      4  C   UNL     1      23.812   3.756  26.117  1.00  0.00     0.142 A 
ATOM      5  C   UNL     1      23.973   5.158  26.084  1.00  0.00     0.022 A 
ATOM      6  C   UNL     1      22.961   5.967  25.553  1.00  0.00     0.062 A 
ATOM      7  C   UNL     1      25.157   5.704  26.590  1.00  0.00     0.019 A 
ATOM      8  C   UNL     1      26.136   4.857  27.109  1.00  0.00     0.094 A 
ATOM      9  C   UNL     1      25.907   3.477  27.108  1.00  0.00     0.336 A 
ATOM     10  O   UNL     1      26.777   2.695  27.571  1.00  0.00    -0.246 OA
ATOM     11  O   UNL     1      24.771   2.983  26.621  1.00  0.00    -0.423 OA
ENDROOT
BRANCH   1  12
ATOM     12  O   UNL     1      20.741   6.163  24.510  1.00  0.00    -0.493 OA
ATOM     13  C   UNL     1      19.662   6.706  25.263  1.00  0.00     0.278 C 
ENDBRANCH   1  12
BRANCH   2  14
ATOM     14  O   UNL     1      20.472   3.374  24.599  1.00  0.00    -0.504 OA
ATOM     15  H   UNL     1      19.895   3.802  23.885  1.00  0.00     0.293 HD
ENDBRANCH   2  14
TORSDOF 2
ENDMDL
MODEL 4
REMARK VINA RESULT:    -4.094      1.698      2.648
REMARK INTER + INTRA:          -4.499
REMARK INTER:                  -4.477
REMARK INTRA:                  -0.022
REMARK UNBOUND:                -0.045
REMARK SMILES COc1cc2ccc(=O)oc2cc1O
REMARK SMILES IDX 3 1 13 2 12 3 11 4 5 5 4 6 6 7 7 8 8 9 9 10 10 11 2 12 1 13
REMARK SMILES IDX 14 14
REMARK H PARENT 14 15
REMARK Flexibility Score: inf
ROOT
ATOM      1  C   UNL     1      24.827   4.332  23.513  1.00  0.00     0.161 A 
ATOM      2  C   UNL     1      25.076   5.702  23.728  1.00  0.00     0.161 A 
ATOM      3  C   UNL     1      24.082   6.523  24.276  1.00  0.00     0.098 A 
ATOM      4  C   UNL     1      22.836   5.994  24.615  1.00  0.00     0.142 A 
ATOM      5  C   UNL     1      22.576   4.623  24.404  1.00  0.00     0.022 A 
ATOM      6  C   UNL     1      23.567   3.798  23.856  1.00  0.00     0.062 A 
ATOM      7  C   UNL     1      21.318   4.122  24.754  1.00  0.00     0.019 A 
ATOM      8  C   UNL     1      20.364   4.983  25.296  1.00  0.00     0.094 A 
ATOM      9  C   UNL     1      20.693   6.331  25.476  1.00  0.00     0.336 A 
ATOM     10  O   UNL     1      19.847   7.125  25.963  1.00  0.00    -0.246 OA
ATOM     11  O   UNL     1      21.898   6.782  25.135  1.00  0.00    -0.423 OA
ENDROOT
BRANCH   1  12
ATOM     12  O   UNL     1      25.845   3.538  22.963  1.00  0.00    -0.493 OA
ATOM     13  C   UNL     1      26.117   3.423  21.570  1.00  0.00     0.278 C 
ENDBRANCH   1  12
BRANCH   2  14
ATOM     14  O   UNL     1      26.309   6.269  23.402  1.00  0.00    -0.504 OA
ATOM     15  H   UNL     1      26.914   6.682  24.101  1.00  0.00     0.293 HD
ENDBRANCH   2  14
TORSDOF 2
ENDMDL
MODEL 5
REMARK VINA RESULT:    -4.092      1.594      5.030
REMARK INTER + INTRA:          -4.496
REMARK INTER:                  -4.432
REMARK INTRA:                  -0.064
REMARK UNBOUND:                -0.045
REMARK SMILES COc1cc2ccc(=O)oc2cc1O
REMARK SMILES IDX 3 1 13 2 12 3 11 4 5 5 4 6 6 7 7 8 8 9 9 10 10 11 2 12 1 13
REMARK SMILES IDX 14 14
REMARK H PARENT 14 15
REMARK Flexibility Score: inf
ROOT
ATOM      1  C   UNL     1      22.418   5.442  25.912  1.00  0.00     0.161 A 
ATOM      2  C   UNL     1      22.359   4.046  25.732  1.00  0.00     0.161 A 
ATOM      3  C   UNL     1      23.172   3.422  24.779  1.00  0.00     0.098 A 
ATOM      4  C   UNL     1      24.050   4.174  23.997  1.00  0.00     0.142 A 
ATOM      5  C   UNL     1      24.118   5.573  24.168  1.00  0.00     0.022 A 
ATOM      6  C   UNL     1      23.306   6.202  25.121  1.00  0.00     0.062 A 
ATOM      7  C   UNL     1      25.007   6.300  23.370  1.00  0.00     0.019 A 
ATOM      8  C   UNL     1      25.794   5.629  22.435  1.00  0.00     0.094 A 
ATOM      9  C   UNL     1      25.673   4.240  22.321  1.00  0.00     0.336 A 
ATOM     10  O   UNL     1      26.374   3.615  21.483  1.00  0.00    -0.246 OA
ATOM     11  O   UNL     1      24.819   3.572  23.093  1.00  0.00    -0.423 OA
ENDROOT
BRANCH   1  12
ATOM     12  O   UNL     1      21.590   6.036  26.876  1.00  0.00    -0.493 OA
ATOM     13  C   UNL     1      20.326   6.631  26.601  1.00  0.00     0.278 C 
ENDBRANCH   1  12
BRANCH   2  14
ATOM     14  O   UNL     1      21.495   3.259  26.494  1.00  0.00    -0.504 OA
ATOM     15  H   UNL     1      20.505   3.190  26.288  1.00  0.00     0.293 HD
ENDBRANCH   2  14
TORSDOF 2
ENDMDL
MODEL 6
REMARK VINA RESULT:    -4.039      9.353     11.109
REMARK INTER + INTRA:          -4.439
REMARK INTER:                  -4.381
REMARK INTRA:                  -0.058
REMARK UNBOUND:                -0.045
REMARK SMILES COc1cc2ccc(=O)oc2cc1O
REMARK SMILES IDX 3 1 13 2 12 3 11 4 5 5 4 6 6 7 7 8 8 9 9 10 10 11 2 12 1 13
REMARK SMILES IDX 14 14
REMARK H PARENT 14 15
REMARK Flexibility Score: inf
ROOT
ATOM      1  C   UNL     1      18.952  -2.732  29.156  1.00  0.00     0.161 A 
ATOM      2  C   UNL     1      19.883  -3.633  28.603  1.00  0.00     0.161 A 
ATOM      3  C   UNL     1      19.446  -4.813  27.990  1.00  0.00     0.098 A 
ATOM      4  C   UNL     1      18.084  -5.111  27.920  1.00  0.00     0.142 A 
ATOM      5  C   UNL     1      17.143  -4.216  28.471  1.00  0.00     0.022 A 
ATOM      6  C   UNL     1      17.576  -3.033  29.084  1.00  0.00     0.062 A 
ATOM      7  C   UNL     1      15.785  -4.541  28.385  1.00  0.00     0.019 A 
ATOM      8  C   UNL     1      15.404  -5.731  27.765  1.00  0.00     0.094 A 
ATOM      9  C   UNL     1      16.394  -6.570  27.242  1.00  0.00     0.336 A 
ATOM     10  O   UNL     1      16.070  -7.648  26.678  1.00  0.00    -0.246 OA
ATOM     11  O   UNL     1      17.678  -6.236  27.336  1.00  0.00    -0.423 OA
ENDROOT
BRANCH   1  12
ATOM     12  O   UNL     1      19.424  -1.558  29.762  1.00  0.00    -0.493 OA
ATOM     13  C   UNL     1      19.222  -1.216  31.129  1.00  0.00     0.278 C 
ENDBRANCH   1  12
BRANCH   2  14
ATOM     14  O   UNL     1      21.253  -3.371  28.653  1.00  0.00    -0.504 OA
ATOM     15  H   UNL     1      21.905  -3.777  27.992  1.00  0.00     0.293 HD
ENDBRANCH   2  14
TORSDOF 2
ENDMDL
MODEL 7
REMARK VINA RESULT:    -3.909      2.183      4.774
REMARK INTER + INTRA:          -4.297
REMARK INTER:                  -4.238
REMARK INTRA:                  -0.059
REMARK UNBOUND:                -0.045
REMARK SMILES COc1cc2ccc(=O)oc2cc1O
REMARK SMILES IDX 3 1 13 2 12 3 11 4 5 5 4 6 6 7 7 8 8 9 9 10 10 11 2 12 1 13
REMARK SMILES IDX 14 14
REMARK H PARENT 14 15
REMARK Flexibility Score: inf
ROOT
ATOM      1  C   UNL     1      22.189   4.401  25.300  1.00  0.00     0.161 A 
ATOM      2  C   UNL     1      23.298   3.671  24.829  1.00  0.00     0.161 A 
ATOM      3  C   UNL     1      23.827   2.621  25.589  1.00  0.00     0.098 A 
ATOM      4  C   UNL     1      23.263   2.286  26.821  1.00  0.00     0.142 A 
ATOM      5  C   UNL     1      22.152   3.010  27.303  1.00  0.00     0.022 A 
ATOM      6  C   UNL     1      21.619   4.062  26.545  1.00  0.00     0.062 A 
ATOM      7  C   UNL     1      21.609   2.651  28.540  1.00  0.00     0.019 A 
ATOM      8  C   UNL     1      22.175   1.597  29.257  1.00  0.00     0.094 A 
ATOM      9  C   UNL     1      23.276   0.925  28.716  1.00  0.00     0.336 A 
ATOM     10  O   UNL     1      23.802  -0.029  29.347  1.00  0.00    -0.246 OA
ATOM     11  O   UNL     1      23.773   1.287  27.536  1.00  0.00    -0.423 OA
ENDROOT
BRANCH   1  12
ATOM     12  O   UNL     1      21.683   5.446  24.513  1.00  0.00    -0.493 OA
ATOM     13  C   UNL     1      22.076   6.810  24.630  1.00  0.00     0.278 C 
ENDBRANCH   1  12
BRANCH   2  14
ATOM     14  O   UNL     1      23.890   3.976  23.602  1.00  0.00    -0.504 OA
ATOM     15  H   UNL     1      23.655   3.478  22.752  1.00  0.00     0.293 HD
ENDBRANCH   2  14
TORSDOF 2
ENDMDL
MODEL 8
REMARK VINA RESULT:    -3.898      2.072      2.554
REMARK INTER + INTRA:          -4.285
REMARK INTER:                  -4.225
REMARK INTRA:                  -0.060
REMARK UNBOUND:                -0.045
REMARK SMILES COc1cc2ccc(=O)oc2cc1O
REMARK SMILES IDX 3 1 13 2 12 3 11 4 5 5 4 6 6 7 7 8 8 9 9 10 10 11 2 12 1 13
REMARK SMILES IDX 14 14
REMARK H PARENT 14 15
REMARK Flexibility Score: inf
ROOT
ATOM      1  C   UNL     1      25.129   3.354  26.710  1.00  0.00     0.161 A 
ATOM      2  C   UNL     1      24.126   2.365  26.736  1.00  0.00     0.161 A 
ATOM      3  C   UNL     1      22.820   2.673  26.338  1.00  0.00     0.098 A 
ATOM      4  C   UNL     1      22.497   3.962  25.910  1.00  0.00     0.142 A 
ATOM      5  C   UNL     1      23.494   4.960  25.880  1.00  0.00     0.022 A 
ATOM      6  C   UNL     1      24.802   4.656  26.277  1.00  0.00     0.062 A 
ATOM      7  C   UNL     1      23.140   6.242  25.447  1.00  0.00     0.019 A 
ATOM      8  C   UNL     1      21.824   6.495  25.061  1.00  0.00     0.094 A 
ATOM      9  C   UNL     1      20.889   5.456  25.118  1.00  0.00     0.336 A 
ATOM     10  O   UNL     1      19.696   5.664  24.775  1.00  0.00    -0.246 OA
ATOM     11  O   UNL     1      21.253   4.245  25.534  1.00  0.00    -0.423 OA
ENDROOT
BRANCH   1  12
ATOM     12  O   UNL     1      26.428   3.010  27.115  1.00  0.00    -0.493 OA
ATOM     13  C   UNL     1      27.093   3.559  28.248  1.00  0.00     0.278 C 
ENDBRANCH   1  12
BRANCH   2  14
ATOM     14  O   UNL     1      24.410   1.065  27.157  1.00  0.00    -0.504 OA
ATOM     15  H   UNL     1      25.088   0.869  27.884  1.00  0.00     0.293 HD
ENDBRANCH   2  14
TORSDOF 2
ENDMDL
MODEL 9
REMARK VINA RESULT:    -3.883      2.271      5.101
REMARK INTER + INTRA:          -4.268
REMARK INTER:                  -4.204
REMARK INTRA:                  -0.065
REMARK UNBOUND:                -0.045
REMARK SMILES COc1cc2ccc(=O)oc2cc1O
REMARK SMILES IDX 3 1 13 2 12 3 11 4 5 5 4 6 6 7 7 8 8 9 9 10 10 11 2 12 1 13
REMARK SMILES IDX 14 14
REMARK H PARENT 14 15
REMARK Flexibility Score: inf
ROOT
ATOM      1  C   UNL     1      22.797   4.166  25.649  1.00  0.00     0.161 A 
ATOM      2  C   UNL     1      22.876   5.539  25.955  1.00  0.00     0.161 A 
ATOM      3  C   UNL     1      23.653   6.394  25.165  1.00  0.00     0.098 A 
ATOM      4  C   UNL     1      24.356   5.898  24.066  1.00  0.00     0.142 A 
ATOM      5  C   UNL     1      24.284   4.525  23.750  1.00  0.00     0.022 A 
ATOM      6  C   UNL     1      23.508   3.665  24.538  1.00  0.00     0.062 A 
ATOM      7  C   UNL     1      25.000   4.057  22.644  1.00  0.00     0.019 A 
ATOM      8  C   UNL     1      25.759   4.953  21.890  1.00  0.00     0.094 A 
ATOM      9  C   UNL     1      25.783   6.300  22.264  1.00  0.00     0.336 A 
ATOM     10  O   UNL     1      26.462   7.125  21.597  1.00  0.00    -0.246 OA
ATOM     11  O   UNL     1      25.092   6.719  23.321  1.00  0.00    -0.423 OA
ENDROOT
BRANCH   1  12
ATOM     12  O   UNL     1      22.009   3.336  26.461  1.00  0.00    -0.493 OA
ATOM     13  C   UNL     1      22.522   2.442  27.443  1.00  0.00     0.278 C 
ENDBRANCH   1  12
BRANCH   2  14
ATOM     14  O   UNL     1      22.188   6.073  27.045  1.00  0.00    -0.504 OA
ATOM     15  H   UNL     1      22.179   5.621  27.951  1.00  0.00     0.293 HD
ENDBRANCH   2  14
TORSDOF 2
ENDMDL
