MODEL 1
REMARK VINA RESULT:    -3.237      0.000      0.000
REMARK INTER + INTRA:          -5.819
REMARK INTER:                  -4.940
REMARK INTRA:                  -0.879
REMARK UNBOUND:                -0.879
REMARK SMILES O=C([O-])CCCCCCCCC(=O)[O-]
REMARK SMILES IDX 7 1 6 2 5 3 4 4 2 5 1 6 3 7 8 8 9 9 10 10 11 11 12 12 13 13
REMARK SMILES IDX 14 14
REMARK H PARENT
REMARK Flexibility Score: inf
ROOT
ATOM      1  C   UNL     1      19.732  27.896  55.690  1.00  0.00     0.000 C 
ENDROOT
BRANCH   1   2
ATOM      2  C   UNL     1      20.407  29.010  54.874  1.00  0.00     0.000 C 
BRANCH   2   3
ATOM      3  C   UNL     1      20.648  30.284  55.702  1.00  0.00     0.006 C 
BRANCH   3   4
ATOM      4  C   UNL     1      21.824  30.128  56.676  1.00  0.00     0.053 C 
BRANCH   4   5
ATOM      5  C   UNL     1      21.373  30.172  58.104  1.00  0.00     0.041 C 
ATOM      6  O   UNL     1      21.171  29.102  58.737  1.00  0.00    -0.550 OA
ATOM      7  O   UNL     1      21.211  31.392  58.746  1.00  0.00    -0.550 OA
ENDBRANCH   4   5
ENDBRANCH   3   4
ENDBRANCH   2   3
ENDBRANCH   1   2
BRANCH   1   8
ATOM      8  C   UNL     1      18.499  28.396  56.465  1.00  0.00     0.000 C 
BRANCH   8   9
ATOM      9  C   UNL     1      17.180  28.067  55.749  1.00  0.00     0.000 C 
BRANCH   9  10
ATOM     10  C   UNL     1      16.376  29.327  55.386  1.00  0.00     0.006 C 
BRANCH  10  11
ATOM     11  C   UNL     1      16.020  29.377  53.893  1.00  0.00     0.053 C 
BRANCH  11  12
ATOM     12  C   UNL     1      17.220  29.671  53.046  1.00  0.00     0.041 C 
ATOM     13  O   UNL     1      17.707  28.777  52.305  1.00  0.00    -0.550 OA
ATOM     14  O   UNL     1      17.778  30.943  53.048  1.00  0.00    -0.550 OA
ENDBRANCH  11  12
ENDBRANCH  10  11
ENDBRANCH   9  10
ENDBRANCH   8   9
ENDBRANCH   1   8
TORSDOF 9
ENDMDL
MODEL 2
REMARK VINA RESULT:    -3.099     11.875     13.410
REMARK INTER + INTRA:          -5.609
REMARK INTER:                  -4.646
REMARK INTRA:                  -0.963
REMARK UNBOUND:                -0.879
REMARK SMILES O=C([O-])CCCCCCCCC(=O)[O-]
REMARK SMILES IDX 7 1 6 2 5 3 4 4 2 5 1 6 3 7 8 8 9 9 10 10 11 11 12 12 13 13
REMARK SMILES IDX 14 14
REMARK H PARENT
REMARK Flexibility Score: inf
ROOT
ATOM      1  C   UNL     1      15.616  18.778  49.629  1.00  0.00     0.000 C 
ENDROOT
BRANCH   1   2
ATOM      2  C   UNL     1      15.370  18.539  51.127  1.00  0.00     0.000 C 
BRANCH   2   3
ATOM      3  C   UNL     1      15.921  17.185  51.606  1.00  0.00     0.006 C 
BRANCH   3   4
ATOM      4  C   UNL     1      17.059  17.350  52.622  1.00  0.00     0.053 C 
BRANCH   4   5
ATOM      5  C   UNL     1      18.334  17.781  51.964  1.00  0.00     0.041 C 
ATOM      6  O   UNL     1      18.897  18.852  52.315  1.00  0.00    -0.550 OA
ATOM      7  O   UNL     1      18.920  16.983  50.990  1.00  0.00    -0.550 OA
ENDBRANCH   4   5
ENDBRANCH   3   4
ENDBRANCH   2   3
ENDBRANCH   1   2
BRANCH   1   8
ATOM      8  C   UNL     1      16.651  19.887  49.369  1.00  0.00     0.000 C 
BRANCH   8   9
ATOM      9  C   UNL     1      17.792  19.425  48.448  1.00  0.00     0.000 C 
BRANCH   9  10
ATOM     10  C   UNL     1      17.534  18.036  47.840  1.00  0.00     0.006 C 
BRANCH  10  11
ATOM     11  C   UNL     1      17.287  18.103  46.327  1.00  0.00     0.053 C 
BRANCH  11  12
ATOM     12  C   UNL     1      15.825  18.079  46.001  1.00  0.00     0.041 C 
ATOM     13  O   UNL     1      15.231  16.981  45.835  1.00  0.00    -0.550 OA
ATOM     14  O   UNL     1      15.112  19.268  45.915  1.00  0.00    -0.550 OA
ENDBRANCH  11  12
ENDBRANCH  10  11
ENDBRANCH   9  10
ENDBRANCH   8   9
ENDBRANCH   1   8
TORSDOF 9
ENDMDL
MODEL 3
REMARK VINA RESULT:    -3.060     11.981     13.463
REMARK INTER + INTRA:          -5.550
REMARK INTER:                  -5.080
REMARK INTRA:                  -0.469
REMARK UNBOUND:                -0.879
REMARK SMILES O=C([O-])CCCCCCCCC(=O)[O-]
REMARK SMILES IDX 7 1 6 2 5 3 4 4 2 5 1 6 3 7 8 8 9 9 10 10 11 11 12 12 13 13
REMARK SMILES IDX 14 14
REMARK H PARENT
REMARK Flexibility Score: inf
ROOT
ATOM      1  C   UNL     1      18.069  17.871  50.088  1.00  0.00     0.000 C 
ENDROOT
BRANCH   1   2
ATOM      2  C   UNL     1      18.121  17.099  51.416  1.00  0.00     0.000 C 
BRANCH   2   3
ATOM      3  C   UNL     1      16.794  17.170  52.191  1.00  0.00     0.006 C 
BRANCH   3   4
ATOM      4  C   UNL     1      16.966  17.811  53.575  1.00  0.00     0.053 C 
BRANCH   4   5
ATOM      5  C   UNL     1      15.744  18.572  53.991  1.00  0.00     0.041 C 
ATOM      6  O   UNL     1      15.410  18.617  55.204  1.00  0.00    -0.550 OA
ATOM      7  O   UNL     1      14.997  19.261  53.045  1.00  0.00    -0.550 OA
ENDBRANCH   4   5
ENDBRANCH   3   4
ENDBRANCH   2   3
ENDBRANCH   1   2
BRANCH   1   8
ATOM      8  C   UNL     1      16.834  18.782  49.981  1.00  0.00     0.000 C 
BRANCH   8   9
ATOM      9  C   UNL     1      16.329  18.924  48.537  1.00  0.00     0.000 C 
BRANCH   9  10
ATOM     10  C   UNL     1      17.057  17.983  47.562  1.00  0.00     0.006 C 
BRANCH  10  11
ATOM     11  C   UNL     1      16.518  18.103  46.130  1.00  0.00     0.053 C 
BRANCH  11  12
ATOM     12  C   UNL     1      15.183  17.438  45.982  1.00  0.00     0.041 C 
ATOM     13  O   UNL     1      14.125  18.104  46.129  1.00  0.00    -0.550 OA
ATOM     14  O   UNL     1      15.110  16.093  45.647  1.00  0.00    -0.550 OA
ENDBRANCH  11  12
ENDBRANCH  10  11
ENDBRANCH   9  10
ENDBRANCH   8   9
ENDBRANCH   1   8
TORSDOF 9
ENDMDL
MODEL 4
REMARK VINA RESULT:    -3.055     12.129     14.355
REMARK INTER + INTRA:          -5.542
REMARK INTER:                  -4.951
REMARK INTRA:                  -0.592
REMARK UNBOUND:                -0.879
REMARK SMILES O=C([O-])CCCCCCCCC(=O)[O-]
REMARK SMILES IDX 7 1 6 2 5 3 4 4 2 5 1 6 3 7 8 8 9 9 10 10 11 11 12 12 13 13
REMARK SMILES IDX 14 14
REMARK H PARENT
REMARK Flexibility Score: inf
ROOT
ATOM      1  C   UNL     1      17.676  19.555  48.708  1.00  0.00     0.000 C 
ENDROOT
BRANCH   1   2
ATOM      2  C   UNL     1      17.993  19.239  47.237  1.00  0.00     0.000 C 
BRANCH   2   3
ATOM      3  C   UNL     1      17.402  17.893  46.783  1.00  0.00     0.006 C 
BRANCH   3   4
ATOM      4  C   UNL     1      16.220  18.075  45.820  1.00  0.00     0.053 C 
BRANCH   4   5
ATOM      5  C   UNL     1      14.952  17.510  46.383  1.00  0.00     0.041 C 
ATOM      6  O   UNL     1      14.410  16.510  45.843  1.00  0.00    -0.550 OA
ATOM      7  O   UNL     1      14.389  18.064  47.526  1.00  0.00    -0.550 OA
ENDBRANCH   4   5
ENDBRANCH   3   4
ENDBRANCH   2   3
ENDBRANCH   1   2
BRANCH   1   8
ATOM      8  C   UNL     1      17.354  18.292  49.528  1.00  0.00     0.000 C 
BRANCH   8   9
ATOM      9  C   UNL     1      18.339  18.076  50.687  1.00  0.00     0.000 C 
BRANCH   9  10
ATOM     10  C   UNL     1      17.815  17.069  51.726  1.00  0.00     0.006 C 
BRANCH  10  11
ATOM     11  C   UNL     1      16.305  17.211  51.960  1.00  0.00     0.053 C 
BRANCH  11  12
ATOM     12  C   UNL     1      16.004  18.117  53.115  1.00  0.00     0.041 C 
ATOM     13  O   UNL     1      15.140  19.025  52.999  1.00  0.00    -0.550 OA
ATOM     14  O   UNL     1      16.654  17.935  54.329  1.00  0.00    -0.550 OA
ENDBRANCH  11  12
ENDBRANCH  10  11
ENDBRANCH   9  10
ENDBRANCH   8   9
ENDBRANCH   1   8
TORSDOF 9
ENDMDL
MODEL 5
REMARK VINA RESULT:    -3.055     11.523     13.745
REMARK INTER + INTRA:          -5.542
REMARK INTER:                  -4.525
REMARK INTRA:                  -1.018
REMARK UNBOUND:                -0.879
REMARK SMILES O=C([O-])CCCCCCCCC(=O)[O-]
REMARK SMILES IDX 7 1 6 2 5 3 4 4 2 5 1 6 3 7 8 8 9 9 10 10 11 11 12 12 13 13
REMARK SMILES IDX 14 14
REMARK H PARENT
REMARK Flexibility Score: inf
ROOT
ATOM      1  C   UNL     1      15.481  18.738  49.459  1.00  0.00     0.000 C 
ENDROOT
BRANCH   1   2
ATOM      2  C   UNL     1      16.492  19.795  48.984  1.00  0.00     0.000 C 
BRANCH   2   3
ATOM      3  C   UNL     1      17.757  19.167  48.374  1.00  0.00     0.006 C 
BRANCH   3   4
ATOM      4  C   UNL     1      17.440  17.922  47.535  1.00  0.00     0.053 C 
BRANCH   4   5
ATOM      5  C   UNL     1      17.136  18.274  46.111  1.00  0.00     0.041 C 
ATOM      6  O   UNL     1      18.065  18.342  45.264  1.00  0.00    -0.550 OA
ATOM      7  O   UNL     1      15.823  18.492  45.711  1.00  0.00    -0.550 OA
ENDBRANCH   4   5
ENDBRANCH   3   4
ENDBRANCH   2   3
ENDBRANCH   1   2
BRANCH   1   8
ATOM      8  C   UNL     1      15.438  18.609  50.992  1.00  0.00     0.000 C 
BRANCH   8   9
ATOM      9  C   UNL     1      15.922  17.235  51.482  1.00  0.00     0.000 C 
BRANCH   9  10
ATOM     10  C   UNL     1      17.202  17.327  52.330  1.00  0.00     0.006 C 
BRANCH  10  11
ATOM     11  C   UNL     1      18.471  17.331  51.466  1.00  0.00     0.053 C 
BRANCH  11  12
ATOM     12  C   UNL     1      19.322  18.535  51.735  1.00  0.00     0.041 C 
ATOM     13  O   UNL     1      20.560  18.406  51.924  1.00  0.00    -0.550 OA
ATOM     14  O   UNL     1      18.752  19.802  51.742  1.00  0.00    -0.550 OA
ENDBRANCH  11  12
ENDBRANCH  10  11
ENDBRANCH   9  10
ENDBRANCH   8   9
ENDBRANCH   1   8
TORSDOF 9
ENDMDL
MODEL 6
REMARK VINA RESULT:    -3.055      1.957      2.477
REMARK INTER + INTRA:          -5.542
REMARK INTER:                  -4.951
REMARK INTRA:                  -0.590
REMARK UNBOUND:                -0.879
REMARK SMILES O=C([O-])CCCCCCCCC(=O)[O-]
REMARK SMILES IDX 7 1 6 2 5 3 4 4 2 5 1 6 3 7 8 8 9 9 10 10 11 11 12 12 13 13
REMARK SMILES IDX 14 14
REMARK H PARENT
REMARK Flexibility Score: inf
ROOT
ATOM      1  C   UNL     1      20.227  30.289  55.136  1.00  0.00     0.000 C 
ENDROOT
BRANCH   1   2
ATOM      2  C   UNL     1      21.650  29.759  55.371  1.00  0.00     0.000 C 
BRANCH   2   3
ATOM      3  C   UNL     1      22.234  30.215  56.719  1.00  0.00     0.006 C 
BRANCH   3   4
ATOM      4  C   UNL     1      21.174  30.243  57.829  1.00  0.00     0.053 C 
BRANCH   4   5
ATOM      5  C   UNL     1      20.927  28.879  58.396  1.00  0.00     0.041 C 
ATOM      6  O   UNL     1      19.768  28.387  58.379  1.00  0.00    -0.550 OA
ATOM      7  O   UNL     1      21.982  28.135  58.910  1.00  0.00    -0.550 OA
ENDBRANCH   4   5
ENDBRANCH   3   4
ENDBRANCH   2   3
ENDBRANCH   1   2
BRANCH   1   8
ATOM      8  C   UNL     1      19.223  29.168  54.814  1.00  0.00     0.000 C 
BRANCH   8   9
ATOM      9  C   UNL     1      18.455  29.422  53.507  1.00  0.00     0.000 C 
BRANCH   9  10
ATOM     10  C   UNL     1      17.148  30.202  53.733  1.00  0.00     0.006 C 
BRANCH  10  11
ATOM     11  C   UNL     1      16.295  29.590  54.853  1.00  0.00     0.053 C 
BRANCH  11  12
ATOM     12  C   UNL     1      15.535  28.389  54.379  1.00  0.00     0.041 C 
ATOM     13  O   UNL     1      14.702  28.495  53.442  1.00  0.00    -0.550 OA
ATOM     14  O   UNL     1      15.775  27.146  54.950  1.00  0.00    -0.550 OA
ENDBRANCH  11  12
ENDBRANCH  10  11
ENDBRANCH   9  10
ENDBRANCH   8   9
ENDBRANCH   1   8
TORSDOF 9
ENDMDL
MODEL 7
REMARK VINA RESULT:    -3.039      2.040      6.471
REMARK INTER + INTRA:          -5.518
REMARK INTER:                  -4.870
REMARK INTRA:                  -0.647
REMARK UNBOUND:                -0.879
REMARK SMILES O=C([O-])CCCCCCCCC(=O)[O-]
REMARK SMILES IDX 7 1 6 2 5 3 4 4 2 5 1 6 3 7 8 8 9 9 10 10 11 11 12 12 13 13
REMARK SMILES IDX 14 14
REMARK H PARENT
REMARK Flexibility Score: inf
ROOT
ATOM      1  C   UNL     1      17.275  30.215  53.865  1.00  0.00     0.000 C 
ENDROOT
BRANCH   1   2
ATOM      2  C   UNL     1      16.356  29.472  54.848  1.00  0.00     0.000 C 
BRANCH   2   3
ATOM      3  C   UNL     1      16.238  27.972  54.525  1.00  0.00     0.006 C 
BRANCH   3   4
ATOM      4  C   UNL     1      14.777  27.529  54.364  1.00  0.00     0.053 C 
BRANCH   4   5
ATOM      5  C   UNL     1      14.176  28.044  53.092  1.00  0.00     0.041 C 
ATOM      6  O   UNL     1      12.968  28.397  53.061  1.00  0.00    -0.550 OA
ATOM      7  O   UNL     1      14.960  28.170  51.952  1.00  0.00    -0.550 OA
ENDBRANCH   4   5
ENDBRANCH   3   4
ENDBRANCH   2   3
ENDBRANCH   1   2
BRANCH   1   8
ATOM      8  C   UNL     1      18.661  29.557  53.739  1.00  0.00     0.000 C 
BRANCH   8   9
ATOM      9  C   UNL     1      19.584  29.896  54.919  1.00  0.00     0.000 C 
BRANCH   9  10
ATOM     10  C   UNL     1      19.943  28.660  55.762  1.00  0.00     0.006 C 
BRANCH  10  11
ATOM     11  C   UNL     1      19.803  28.926  57.268  1.00  0.00     0.053 C 
BRANCH  11  12
ATOM     12  C   UNL     1      20.998  29.643  57.818  1.00  0.00     0.041 C 
ATOM     13  O   UNL     1      20.877  30.407  58.811  1.00  0.00    -0.550 OA
ATOM     14  O   UNL     1      22.251  29.440  57.254  1.00  0.00    -0.550 OA
ENDBRANCH  11  12
ENDBRANCH  10  11
ENDBRANCH   9  10
ENDBRANCH   8   9
ENDBRANCH   1   8
TORSDOF 9
ENDMDL
MODEL 8
REMARK VINA RESULT:    -3.038      1.998      5.421
REMARK INTER + INTRA:          -5.516
REMARK INTER:                  -4.594
REMARK INTRA:                  -0.922
REMARK UNBOUND:                -0.879
REMARK SMILES O=C([O-])CCCCCCCCC(=O)[O-]
REMARK SMILES IDX 7 1 6 2 5 3 4 4 2 5 1 6 3 7 8 8 9 9 10 10 11 11 12 12 13 13
REMARK SMILES IDX 14 14
REMARK H PARENT
REMARK Flexibility Score: inf
ROOT
ATOM      1  C   UNL     1      21.880  29.887  55.407  1.00  0.00     0.000 C 
ENDROOT
BRANCH   1   2
ATOM      2  C   UNL     1      20.439  30.408  55.291  1.00  0.00     0.000 C 
BRANCH   2   3
ATOM      3  C   UNL     1      19.554  29.506  54.413  1.00  0.00     0.006 C 
BRANCH   3   4
ATOM      4  C   UNL     1      18.154  29.312  55.009  1.00  0.00     0.053 C 
BRANCH   4   5
ATOM      5  C   UNL     1      17.087  29.870  54.117  1.00  0.00     0.041 C 
ATOM      6  O   UNL     1      15.885  29.529  54.278  1.00  0.00    -0.550 OA
ATOM      7  O   UNL     1      17.414  30.794  53.133  1.00  0.00    -0.550 OA
ENDBRANCH   4   5
ENDBRANCH   3   4
ENDBRANCH   2   3
ENDBRANCH   1   2
BRANCH   1   8
ATOM      8  C   UNL     1      22.506  30.180  56.782  1.00  0.00     0.000 C 
BRANCH   8   9
ATOM      9  C   UNL     1      21.456  30.549  57.841  1.00  0.00     0.000 C 
BRANCH   9  10
ATOM     10  C   UNL     1      21.159  29.390  58.808  1.00  0.00     0.006 C 
BRANCH  10  11
ATOM     11  C   UNL     1      19.989  28.520  58.327  1.00  0.00     0.053 C 
BRANCH  11  12
ATOM     12  C   UNL     1      20.458  27.187  57.827  1.00  0.00     0.041 C 
ATOM     13  O   UNL     1      20.262  26.856  56.629  1.00  0.00    -0.550 OA
ATOM     14  O   UNL     1      21.140  26.327  58.678  1.00  0.00    -0.550 OA
ENDBRANCH  11  12
ENDBRANCH  10  11
ENDBRANCH   9  10
ENDBRANCH   8   9
ENDBRANCH   1   8
TORSDOF 9
ENDMDL
MODEL 9
REMARK VINA RESULT:    -2.972      1.347      5.693
REMARK INTER + INTRA:          -5.414
REMARK INTER:                  -4.550
REMARK INTRA:                  -0.865
REMARK UNBOUND:                -0.879
REMARK SMILES O=C([O-])CCCCCCCCC(=O)[O-]
REMARK SMILES IDX 7 1 6 2 5 3 4 4 2 5 1 6 3 7 8 8 9 9 10 10 11 11 12 12 13 13
REMARK SMILES IDX 14 14
REMARK H PARENT
REMARK Flexibility Score: inf
ROOT
ATOM      1  C   UNL     1      20.085  28.388  54.546  1.00  0.00     0.000 C 
ENDROOT
BRANCH   1   2
ATOM      2  C   UNL     1      18.711  27.885  55.020  1.00  0.00     0.000 C 
BRANCH   2   3
ATOM      3  C   UNL     1      17.942  28.946  55.826  1.00  0.00     0.006 C 
BRANCH   3   4
ATOM      4  C   UNL     1      16.550  29.220  55.242  1.00  0.00     0.053 C 
BRANCH   4   5
ATOM      5  C   UNL     1      16.618  29.583  53.790  1.00  0.00     0.041 C 
ATOM      6  O   UNL     1      15.982  28.908  52.938  1.00  0.00    -0.550 OA
ATOM      7  O   UNL     1      17.355  30.688  53.381  1.00  0.00    -0.550 OA
ENDBRANCH   4   5
ENDBRANCH   3   4
ENDBRANCH   2   3
ENDBRANCH   1   2
BRANCH   1   8
ATOM      8  C   UNL     1      20.429  29.781  55.102  1.00  0.00     0.000 C 
BRANCH   8   9
ATOM      9  C   UNL     1      21.929  29.945  55.393  1.00  0.00     0.000 C 
BRANCH   9  10
ATOM     10  C   UNL     1      22.218  30.182  56.885  1.00  0.00     0.006 C 
BRANCH  10  11
ATOM     11  C   UNL     1      20.983  29.934  57.762  1.00  0.00     0.053 C 
BRANCH  11  12
ATOM     12  C   UNL     1      21.028  28.587  58.416  1.00  0.00     0.041 C 
ATOM     13  O   UNL     1      22.128  27.995  58.572  1.00  0.00    -0.550 OA
ATOM     14  O   UNL     1      19.859  28.002  58.884  1.00  0.00    -0.550 OA
ENDBRANCH  11  12
ENDBRANCH  10  11
ENDBRANCH   9  10
ENDBRANCH   8   9
ENDBRANCH   1   8
TORSDOF 9
ENDMDL
