MODEL 1
REMARK VINA RESULT:    -3.430      0.000      0.000
REMARK INTER + INTRA:          -4.191
REMARK INTER:                  -4.131
REMARK INTRA:                  -0.060
REMARK UNBOUND:                -0.060
REMARK SMILES CC[C@@H](C)[C@@H]([NH3+])C(=O)[O-]
REMARK SMILES IDX 3 1 4 2 5 3 6 4 7 8 8 9 9 10 2 11 1 12
REMARK H PARENT 6 5 6 6 6 7
REMARK Flexibility Score: inf
ROOT
ATOM      1  C   UNL     1      87.935 134.030  59.275  1.00  0.00     0.050 C 
ATOM      2  C   UNL     1      87.977 134.943  58.036  1.00  0.00     0.014 C 
ENDROOT
BRANCH   1   3
ATOM      3  C   UNL     1      86.516 133.952  59.925  1.00  0.00     0.230 C 
BRANCH   3   4
ATOM      4  N   UNL     1      85.819 135.247  59.874  1.00  0.00    -0.350 N 
ATOM      5  H   UNL     1      85.005 135.221  59.219  1.00  0.00     0.345 HD
ATOM      6  H   UNL     1      85.465 135.489  60.828  1.00  0.00     0.345 HD
ATOM      7  H   UNL     1      86.480 135.999  59.573  1.00  0.00     0.345 HD
ENDBRANCH   3   4
BRANCH   3   8
ATOM      8  C   UNL     1      85.657 132.865  59.323  1.00  0.00     0.099 C 
ATOM      9  O   UNL     1      85.312 131.877  60.023  1.00  0.00    -0.544 OA
ATOM     10  O   UNL     1      85.263 132.928  57.992  1.00  0.00    -0.544 OA
ENDBRANCH   3   8
ENDBRANCH   1   3
BRANCH   1  11
ATOM     11  C   UNL     1      88.511 132.638  58.907  1.00  0.00     0.006 C 
ATOM     12  C   UNL     1      89.108 131.894  60.102  1.00  0.00     0.004 C 
ENDBRANCH   1  11
TORSDOF 4
ENDMDL
MODEL 2
REMARK VINA RESULT:    -3.379      2.683      3.615
REMARK INTER + INTRA:          -4.131
REMARK INTER:                  -3.964
REMARK INTRA:                  -0.167
REMARK UNBOUND:                -0.060
REMARK SMILES CC[C@@H](C)[C@@H]([NH3+])C(=O)[O-]
REMARK SMILES IDX 3 1 4 2 5 3 6 4 7 8 8 9 9 10 2 11 1 12
REMARK H PARENT 6 5 6 6 6 7
REMARK Flexibility Score: inf
ROOT
ATOM      1  C   UNL     1      88.039 132.925  59.203  1.00  0.00     0.050 C 
ATOM      2  C   UNL     1      89.022 131.997  59.941  1.00  0.00     0.014 C 
ENDROOT
BRANCH   1   3
ATOM      3  C   UNL     1      88.101 132.763  57.650  1.00  0.00     0.230 C 
BRANCH   3   4
ATOM      4  N   UNL     1      86.987 131.950  57.139  1.00  0.00    -0.350 N 
ATOM      5  H   UNL     1      86.455 132.450  56.392  1.00  0.00     0.345 HD
ATOM      6  H   UNL     1      87.361 131.061  56.736  1.00  0.00     0.345 HD
ATOM      7  H   UNL     1      86.336 131.703  57.919  1.00  0.00     0.345 HD
ENDBRANCH   3   4
BRANCH   3   8
ATOM      8  C   UNL     1      88.164 134.088  56.927  1.00  0.00     0.099 C 
ATOM      9  O   UNL     1      88.280 135.157  57.582  1.00  0.00    -0.544 OA
ATOM     10  O   UNL     1      88.068 134.145  55.542  1.00  0.00    -0.544 OA
ENDBRANCH   3   8
ENDBRANCH   1   3
BRANCH   1  11
ATOM     11  C   UNL     1      86.613 132.723  59.778  1.00  0.00     0.006 C 
ATOM     12  C   UNL     1      85.824 134.026  59.913  1.00  0.00     0.004 C 
ENDBRANCH   1  11
TORSDOF 4
ENDMDL
MODEL 3
REMARK VINA RESULT:    -3.353      1.642      1.720
REMARK INTER + INTRA:          -4.100
REMARK INTER:                  -3.945
REMARK INTRA:                  -0.154
REMARK UNBOUND:                -0.060
REMARK SMILES CC[C@@H](C)[C@@H]([NH3+])C(=O)[O-]
REMARK SMILES IDX 3 1 4 2 5 3 6 4 7 8 8 9 9 10 2 11 1 12
REMARK H PARENT 6 5 6 6 6 7
REMARK Flexibility Score: inf
ROOT
ATOM      1  C   UNL     1      87.279 133.723  58.990  1.00  0.00     0.050 C 
ATOM      2  C   UNL     1      87.507 135.214  58.680  1.00  0.00     0.014 C 
ENDROOT
BRANCH   1   3
ATOM      3  C   UNL     1      86.094 133.109  58.177  1.00  0.00     0.230 C 
BRANCH   3   4
ATOM      4  N   UNL     1      86.566 132.175  57.142  1.00  0.00    -0.350 N 
ATOM      5  H   UNL     1      86.096 131.245  57.219  1.00  0.00     0.345 HD
ATOM      6  H   UNL     1      86.359 132.570  56.196  1.00  0.00     0.345 HD
ATOM      7  H   UNL     1      87.600 132.046  57.220  1.00  0.00     0.345 HD
ENDBRANCH   3   4
BRANCH   3   8
ATOM      8  C   UNL     1      85.063 132.445  59.058  1.00  0.00     0.099 C 
ATOM      9  O   UNL     1      85.419 131.875  60.124  1.00  0.00    -0.544 OA
ATOM     10  O   UNL     1      83.722 132.431  58.694  1.00  0.00    -0.544 OA
ENDBRANCH   3   8
ENDBRANCH   1   3
BRANCH   1  11
ATOM     11  C   UNL     1      88.609 132.950  58.801  1.00  0.00     0.006 C 
ATOM     12  C   UNL     1      88.988 132.092  60.009  1.00  0.00     0.004 C 
ENDBRANCH   1  11
TORSDOF 4
ENDMDL
MODEL 4
REMARK VINA RESULT:    -3.333      1.426      2.263
REMARK INTER + INTRA:          -4.075
REMARK INTER:                  -3.929
REMARK INTRA:                  -0.146
REMARK UNBOUND:                -0.060
REMARK SMILES CC[C@@H](C)[C@@H]([NH3+])C(=O)[O-]
REMARK SMILES IDX 3 1 4 2 5 3 6 4 7 8 8 9 9 10 2 11 1 12
REMARK H PARENT 6 5 6 6 6 7
REMARK Flexibility Score: inf
ROOT
ATOM      1  C   UNL     1      88.066 132.625  59.175  1.00  0.00     0.050 C 
ATOM      2  C   UNL     1      89.125 132.036  60.125  1.00  0.00     0.014 C 
ENDROOT
BRANCH   1   3
ATOM      3  C   UNL     1      87.217 133.757  59.839  1.00  0.00     0.230 C 
BRANCH   3   4
ATOM      4  N   UNL     1      87.625 135.092  59.374  1.00  0.00    -0.350 N 
ATOM      5  H   UNL     1      88.647 135.255  59.519  1.00  0.00     0.345 HD
ATOM      6  H   UNL     1      87.420 135.182  58.353  1.00  0.00     0.345 HD
ATOM      7  H   UNL     1      87.083 135.829  59.880  1.00  0.00     0.345 HD
ENDBRANCH   3   4
BRANCH   3   8
ATOM      8  C   UNL     1      85.731 133.562  59.647  1.00  0.00     0.099 C 
ATOM      9  O   UNL     1      84.950 134.545  59.743  1.00  0.00    -0.544 OA
ATOM     10  O   UNL     1      85.209 132.299  59.391  1.00  0.00    -0.544 OA
ENDBRANCH   3   8
ENDBRANCH   1   3
BRANCH   1  11
ATOM     11  C   UNL     1      88.750 133.073  57.858  1.00  0.00     0.006 C 
ATOM     12  C   UNL     1      87.943 132.725  56.607  1.00  0.00     0.004 C 
ENDBRANCH   1  11
TORSDOF 4
ENDMDL
MODEL 5
REMARK VINA RESULT:    -3.318      2.347      2.954
REMARK INTER + INTRA:          -4.057
REMARK INTER:                  -3.925
REMARK INTRA:                  -0.132
REMARK UNBOUND:                -0.060
REMARK SMILES CC[C@@H](C)[C@@H]([NH3+])C(=O)[O-]
REMARK SMILES IDX 3 1 4 2 5 3 6 4 7 8 8 9 9 10 2 11 1 12
REMARK H PARENT 6 5 6 6 6 7
REMARK Flexibility Score: inf
ROOT
ATOM      1  C   UNL     1      87.341 133.410  59.074  1.00  0.00     0.050 C 
ATOM      2  C   UNL     1      86.206 134.184  59.769  1.00  0.00     0.014 C 
ENDROOT
BRANCH   1   3
ATOM      3  C   UNL     1      87.746 134.031  57.698  1.00  0.00     0.230 C 
BRANCH   3   4
ATOM      4  N   UNL     1      89.099 134.607  57.733  1.00  0.00    -0.350 N 
ATOM      5  H   UNL     1      89.429 134.756  58.713  1.00  0.00     0.345 HD
ATOM      6  H   UNL     1      89.766 133.958  57.257  1.00  0.00     0.345 HD
ATOM      7  H   UNL     1      89.114 135.519  57.222  1.00  0.00     0.345 HD
ENDBRANCH   3   4
BRANCH   3   8
ATOM      8  C   UNL     1      87.618 133.051  56.555  1.00  0.00     0.099 C 
ATOM      9  O   UNL     1      86.621 133.107  55.787  1.00  0.00    -0.544 OA
ATOM     10  O   UNL     1      88.577 132.066  56.355  1.00  0.00    -0.544 OA
ENDBRANCH   3   8
ENDBRANCH   1   3
BRANCH   1  11
ATOM     11  C   UNL     1      88.537 133.268  60.050  1.00  0.00     0.006 C 
ATOM     12  C   UNL     1      89.171 131.876  60.034  1.00  0.00     0.004 C 
ENDBRANCH   1  11
TORSDOF 4
ENDMDL
MODEL 6
REMARK VINA RESULT:    -3.229      2.074      3.110
REMARK INTER + INTRA:          -3.949
REMARK INTER:                  -3.953
REMARK INTRA:                   0.004
REMARK UNBOUND:                -0.060
REMARK SMILES CC[C@@H](C)[C@@H]([NH3+])C(=O)[O-]
REMARK SMILES IDX 3 1 4 2 5 3 6 4 7 8 8 9 9 10 2 11 1 12
REMARK H PARENT 6 5 6 6 6 7
REMARK Flexibility Score: inf
ROOT
ATOM      1  C   UNL     1      87.743 133.408  59.730  1.00  0.00     0.050 C 
ATOM      2  C   UNL     1      88.941 132.523  60.123  1.00  0.00     0.014 C 
ENDROOT
BRANCH   1   3
ATOM      3  C   UNL     1      87.817 133.908  58.252  1.00  0.00     0.230 C 
BRANCH   3   4
ATOM      4  N   UNL     1      89.126 134.502  57.939  1.00  0.00    -0.350 N 
ATOM      5  H   UNL     1      89.868 133.773  57.845  1.00  0.00     0.345 HD
ATOM      6  H   UNL     1      89.064 135.025  57.036  1.00  0.00     0.345 HD
ATOM      7  H   UNL     1      89.401 135.180  58.687  1.00  0.00     0.345 HD
ENDBRANCH   3   4
BRANCH   3   8
ATOM      8  C   UNL     1      87.474 132.829  57.252  1.00  0.00     0.099 C 
ATOM      9  O   UNL     1      86.285 132.692  56.858  1.00  0.00    -0.544 OA
ATOM     10  O   UNL     1      88.452 131.963  56.779  1.00  0.00    -0.544 OA
ENDBRANCH   3   8
ENDBRANCH   1   3
BRANCH   1  11
ATOM     11  C   UNL     1      86.425 132.658  60.052  1.00  0.00     0.006 C 
ATOM     12  C   UNL     1      85.206 133.579  60.125  1.00  0.00     0.004 C 
ENDBRANCH   1  11
TORSDOF 4
ENDMDL
MODEL 7
REMARK VINA RESULT:    -3.181      2.049      2.747
REMARK INTER + INTRA:          -3.892
REMARK INTER:                  -3.793
REMARK INTRA:                  -0.098
REMARK UNBOUND:                -0.060
REMARK SMILES CC[C@@H](C)[C@@H]([NH3+])C(=O)[O-]
REMARK SMILES IDX 3 1 4 2 5 3 6 4 7 8 8 9 9 10 2 11 1 12
REMARK H PARENT 6 5 6 6 6 7
REMARK Flexibility Score: inf
ROOT
ATOM      1  C   UNL     1      86.731 133.018  59.192  1.00  0.00     0.050 C 
ATOM      2  C   UNL     1      85.842 132.174  60.123  1.00  0.00     0.014 C 
ENDROOT
BRANCH   1   3
ATOM      3  C   UNL     1      86.053 134.357  58.755  1.00  0.00     0.230 C 
BRANCH   3   4
ATOM      4  N   UNL     1      85.747 135.218  59.908  1.00  0.00    -0.350 N 
ATOM      5  H   UNL     1      84.888 134.899  60.410  1.00  0.00     0.345 HD
ATOM      6  H   UNL     1      86.547 135.196  60.580  1.00  0.00     0.345 HD
ATOM      7  H   UNL     1      85.616 136.206  59.593  1.00  0.00     0.345 HD
ENDBRANCH   3   4
BRANCH   3   8
ATOM      8  C   UNL     1      86.863 135.114  57.729  1.00  0.00     0.099 C 
ATOM      9  O   UNL     1      87.054 136.351  57.867  1.00  0.00    -0.544 OA
ATOM     10  O   UNL     1      87.383 134.465  56.615  1.00  0.00    -0.544 OA
ENDBRANCH   3   8
ENDBRANCH   1   3
BRANCH   1  11
ATOM     11  C   UNL     1      88.116 133.229  59.856  1.00  0.00     0.006 C 
ATOM     12  C   UNL     1      89.061 132.039  59.678  1.00  0.00     0.004 C 
ENDBRANCH   1  11
TORSDOF 4
ENDMDL
MODEL 8
REMARK VINA RESULT:    -3.144      2.403      3.237
REMARK INTER + INTRA:          -3.847
REMARK INTER:                  -3.748
REMARK INTRA:                  -0.099
REMARK UNBOUND:                -0.060
REMARK SMILES CC[C@@H](C)[C@@H]([NH3+])C(=O)[O-]
REMARK SMILES IDX 3 1 4 2 5 3 6 4 7 8 8 9 9 10 2 11 1 12
REMARK H PARENT 6 5 6 6 6 7
REMARK Flexibility Score: inf
ROOT
ATOM      1  C   UNL     1      87.332 132.978  58.782  1.00  0.00     0.050 C 
ATOM      2  C   UNL     1      86.336 132.730  57.633  1.00  0.00     0.014 C 
ENDROOT
BRANCH   1   3
ATOM      3  C   UNL     1      87.888 134.438  58.800  1.00  0.00     0.230 C 
BRANCH   3   4
ATOM      4  N   UNL     1      89.097 134.574  57.973  1.00  0.00    -0.350 N 
ATOM      5  H   UNL     1      89.650 133.689  57.950  1.00  0.00     0.345 HD
ATOM      6  H   UNL     1      88.823 134.816  56.993  1.00  0.00     0.345 HD
ATOM      7  H   UNL     1      89.698 135.347  58.340  1.00  0.00     0.345 HD
ENDBRANCH   3   4
BRANCH   3   8
ATOM      8  C   UNL     1      86.853 135.462  58.396  1.00  0.00     0.099 C 
ATOM      9  O   UNL     1      86.991 136.107  57.323  1.00  0.00    -0.544 OA
ATOM     10  O   UNL     1      85.757 135.721  59.210  1.00  0.00    -0.544 OA
ENDBRANCH   3   8
ENDBRANCH   1   3
BRANCH   1  11
ATOM     11  C   UNL     1      86.680 132.560  60.125  1.00  0.00     0.006 C 
ATOM     12  C   UNL     1      85.212 132.154  59.986  1.00  0.00     0.004 C 
ENDBRANCH   1  11
TORSDOF 4
ENDMDL
