MODEL 1
REMARK VINA RESULT:    -4.613      0.000      0.000
REMARK INTER + INTRA:          -9.844
REMARK INTER:                  -8.119
REMARK INTRA:                  -1.725
REMARK UNBOUND:                -1.725
REMARK SMILES CCCCCCCCCCCCCCC(=O)[O-]
REMARK SMILES IDX 9 1 10 2 11 3 12 4 13 5 14 6 15 7 16 8 17 9 8 10 7 11 6 12
REMARK SMILES IDX 5 13 4 14 3 15 2 16 1 17
REMARK H PARENT
REMARK Flexibility Score: inf
ROOT
ATOM      1  C   UNL     1      14.583 -33.635  20.266  1.00  0.00     0.000 C 
ENDROOT
BRANCH   1   2
ATOM      2  C   UNL     1      14.202 -32.519  21.245  1.00  0.00     0.000 C 
BRANCH   2   3
ATOM      3  C   UNL     1      14.591 -32.890  22.684  1.00  0.00     0.000 C 
BRANCH   3   4
ATOM      4  C   UNL     1      13.886 -32.000  23.730  1.00  0.00     0.000 C 
BRANCH   4   5
ATOM      5  C   UNL     1      13.162 -30.787  23.117  1.00  0.00     0.006 C 
BRANCH   5   6
ATOM      6  C   UNL     1      13.794 -29.434  23.475  1.00  0.00     0.053 C 
BRANCH   6   7
ATOM      7  C   UNL     1      12.761 -28.429  23.890  1.00  0.00     0.041 C 
ATOM      8  O   UNL     1      11.545 -28.750  23.941  1.00  0.00    -0.550 OA
ATOM      9  O   UNL     1      13.144 -27.131  24.207  1.00  0.00    -0.550 OA
ENDBRANCH   6   7
ENDBRANCH   5   6
ENDBRANCH   4   5
ENDBRANCH   3   4
ENDBRANCH   2   3
ENDBRANCH   1   2
BRANCH   1  10
ATOM     10  C   UNL     1      15.550 -34.634  20.920  1.00  0.00     0.000 C 
BRANCH  10  11
ATOM     11  C   UNL     1      16.523 -35.263  19.910  1.00  0.00    -0.000 C 
BRANCH  11  12
ATOM     12  C   UNL     1      17.572 -34.260  19.399  1.00  0.00    -0.000 C 
BRANCH  12  13
ATOM     13  C   UNL     1      18.289 -33.518  20.539  1.00  0.00    -0.000 C 
BRANCH  13  14
ATOM     14  C   UNL     1      17.929 -32.023  20.587  1.00  0.00    -0.000 C 
BRANCH  14  15
ATOM     15  C   UNL     1      18.547 -31.306  21.798  1.00  0.00    -0.000 C 
BRANCH  15  16
ATOM     16  C   UNL     1      17.516 -30.497  22.599  1.00  0.00    -0.003 C 
ATOM     17  C   UNL     1      17.486 -30.938  24.059  1.00  0.00     0.004 C 
ENDBRANCH  15  16
ENDBRANCH  14  15
ENDBRANCH  13  14
ENDBRANCH  12  13
ENDBRANCH  11  12
ENDBRANCH  10  11
ENDBRANCH   1  10
TORSDOF 13
ENDMDL
MODEL 2
REMARK VINA RESULT:    -4.522      1.386      2.925
REMARK INTER + INTRA:          -9.683
REMARK INTER:                  -7.586
REMARK INTRA:                  -2.098
REMARK UNBOUND:                -1.725
REMARK SMILES CCCCCCCCCCCCCCC(=O)[O-]
REMARK SMILES IDX 9 1 10 2 11 3 12 4 13 5 14 6 15 7 16 8 17 9 8 10 7 11 6 12
REMARK SMILES IDX 5 13 4 14 3 15 2 16 1 17
REMARK H PARENT
REMARK Flexibility Score: inf
ROOT
ATOM      1  C   UNL     1      18.146 -31.940  20.521  1.00  0.00     0.000 C 
ENDROOT
BRANCH   1   2
ATOM      2  C   UNL     1      17.745 -31.375  21.889  1.00  0.00     0.000 C 
BRANCH   2   3
ATOM      3  C   UNL     1      17.008 -30.035  21.737  1.00  0.00     0.000 C 
BRANCH   3   4
ATOM      4  C   UNL     1      15.476 -30.194  21.852  1.00  0.00     0.000 C 
BRANCH   4   5
ATOM      5  C   UNL     1      14.976 -30.305  23.304  1.00  0.00     0.006 C 
BRANCH   5   6
ATOM      6  C   UNL     1      13.466 -30.557  23.429  1.00  0.00     0.053 C 
BRANCH   6   7
ATOM      7  C   UNL     1      12.677 -29.290  23.297  1.00  0.00     0.041 C 
ATOM      8  O   UNL     1      11.507 -29.314  22.832  1.00  0.00    -0.550 OA
ATOM      9  O   UNL     1      13.241 -28.078  23.675  1.00  0.00    -0.550 OA
ENDBRANCH   6   7
ENDBRANCH   5   6
ENDBRANCH   4   5
ENDBRANCH   3   4
ENDBRANCH   2   3
ENDBRANCH   1   2
BRANCH   1  10
ATOM     10  C   UNL     1      18.646 -33.387  20.651  1.00  0.00     0.000 C 
BRANCH  10  11
ATOM     11  C   UNL     1      18.133 -34.294  19.520  1.00  0.00    -0.000 C 
BRANCH  11  12
ATOM     12  C   UNL     1      16.597 -34.376  19.481  1.00  0.00    -0.000 C 
BRANCH  12  13
ATOM     13  C   UNL     1      15.999 -34.932  20.782  1.00  0.00    -0.000 C 
BRANCH  13  14
ATOM     14  C   UNL     1      15.053 -33.933  21.471  1.00  0.00    -0.000 C 
BRANCH  14  15
ATOM     15  C   UNL     1      15.175 -33.966  23.003  1.00  0.00    -0.000 C 
BRANCH  15  16
ATOM     16  C   UNL     1      16.484 -34.611  23.482  1.00  0.00    -0.003 C 
ATOM     17  C   UNL     1      17.188 -33.729  24.509  1.00  0.00     0.004 C 
ENDBRANCH  15  16
ENDBRANCH  14  15
ENDBRANCH  13  14
ENDBRANCH  12  13
ENDBRANCH  11  12
ENDBRANCH  10  11
ENDBRANCH   1  10
TORSDOF 13
ENDMDL
MODEL 3
REMARK VINA RESULT:    -4.520      1.658      2.776
REMARK INTER + INTRA:          -9.680
REMARK INTER:                  -7.495
REMARK INTRA:                  -2.185
REMARK UNBOUND:                -1.725
REMARK SMILES CCCCCCCCCCCCCCC(=O)[O-]
REMARK SMILES IDX 9 1 10 2 11 3 12 4 13 5 14 6 15 7 16 8 17 9 8 10 7 11 6 12
REMARK SMILES IDX 5 13 4 14 3 15 2 16 1 17
REMARK H PARENT
REMARK Flexibility Score: inf
ROOT
ATOM      1  C   UNL     1      16.533 -34.723  20.374  1.00  0.00     0.000 C 
ENDROOT
BRANCH   1   2
ATOM      2  C   UNL     1      15.071 -34.329  20.134  1.00  0.00     0.000 C 
BRANCH   2   3
ATOM      3  C   UNL     1      14.621 -33.248  21.128  1.00  0.00     0.000 C 
BRANCH   3   4
ATOM      4  C   UNL     1      13.699 -32.196  20.472  1.00  0.00     0.000 C 
BRANCH   4   5
ATOM      5  C   UNL     1      12.904 -31.355  21.489  1.00  0.00     0.006 C 
BRANCH   5   6
ATOM      6  C   UNL     1      13.503 -31.354  22.904  1.00  0.00     0.053 C 
BRANCH   6   7
ATOM      7  C   UNL     1      13.653 -29.963  23.443  1.00  0.00     0.041 C 
ATOM      8  O   UNL     1      12.776 -29.479  24.206  1.00  0.00    -0.550 OA
ATOM      9  O   UNL     1      14.757 -29.197  23.090  1.00  0.00    -0.550 OA
ENDBRANCH   6   7
ENDBRANCH   5   6
ENDBRANCH   4   5
ENDBRANCH   3   4
ENDBRANCH   2   3
ENDBRANCH   1   2
BRANCH   1  10
ATOM     10  C   UNL     1      17.486 -33.789  19.612  1.00  0.00     0.000 C 
BRANCH  10  11
ATOM     11  C   UNL     1      18.461 -33.051  20.543  1.00  0.00    -0.000 C 
BRANCH  11  12
ATOM     12  C   UNL     1      18.055 -31.586  20.783  1.00  0.00    -0.000 C 
BRANCH  12  13
ATOM     13  C   UNL     1      17.500 -31.348  22.196  1.00  0.00    -0.000 C 
BRANCH  13  14
ATOM     14  C   UNL     1      17.842 -32.493  23.164  1.00  0.00    -0.000 C 
BRANCH  14  15
ATOM     15  C   UNL     1      16.702 -32.794  24.150  1.00  0.00    -0.000 C 
BRANCH  15  16
ATOM     16  C   UNL     1      16.456 -34.299  24.332  1.00  0.00    -0.003 C 
ATOM     17  C   UNL     1      17.609 -35.118  23.759  1.00  0.00     0.004 C 
ENDBRANCH  15  16
ENDBRANCH  14  15
ENDBRANCH  13  14
ENDBRANCH  12  13
ENDBRANCH  11  12
ENDBRANCH  10  11
ENDBRANCH   1  10
TORSDOF 13
ENDMDL
MODEL 4
REMARK VINA RESULT:    -4.509      4.057      6.620
REMARK INTER + INTRA:          -9.661
REMARK INTER:                  -7.742
REMARK INTRA:                  -1.919
REMARK UNBOUND:                -1.725
REMARK SMILES CCCCCCCCCCCCCCC(=O)[O-]
REMARK SMILES IDX 9 1 10 2 11 3 12 4 13 5 14 6 15 7 16 8 17 9 8 10 7 11 6 12
REMARK SMILES IDX 5 13 4 14 3 15 2 16 1 17
REMARK H PARENT
REMARK Flexibility Score: inf
ROOT
ATOM      1  C   UNL     1      17.805 -33.567  22.746  1.00  0.00     0.000 C 
ENDROOT
BRANCH   1   2
ATOM      2  C   UNL     1      18.901 -33.306  21.707  1.00  0.00     0.000 C 
BRANCH   2   3
ATOM      3  C   UNL     1      18.294 -32.917  20.350  1.00  0.00     0.000 C 
BRANCH   3   4
ATOM      4  C   UNL     1      18.243 -34.107  19.368  1.00  0.00     0.000 C 
BRANCH   4   5
ATOM      5  C   UNL     1      16.819 -34.637  19.117  1.00  0.00     0.006 C 
BRANCH   5   6
ATOM      6  C   UNL     1      16.398 -35.772  20.063  1.00  0.00     0.053 C 
BRANCH   6   7
ATOM      7  C   UNL     1      17.476 -36.802  20.213  1.00  0.00     0.041 C 
ATOM      8  O   UNL     1      18.083 -36.933  21.309  1.00  0.00    -0.550 OA
ATOM      9  O   UNL     1      17.822 -37.607  19.135  1.00  0.00    -0.550 OA
ENDBRANCH   6   7
ENDBRANCH   5   6
ENDBRANCH   4   5
ENDBRANCH   3   4
ENDBRANCH   2   3
ENDBRANCH   1   2
BRANCH   1  10
ATOM     10  C   UNL     1      17.188 -32.249  23.237  1.00  0.00     0.000 C 
BRANCH  10  11
ATOM     11  C   UNL     1      15.689 -32.380  23.553  1.00  0.00    -0.000 C 
BRANCH  11  12
ATOM     12  C   UNL     1      14.965 -33.341  22.595  1.00  0.00    -0.000 C 
BRANCH  12  13
ATOM     13  C   UNL     1      14.595 -32.679  21.258  1.00  0.00    -0.000 C 
BRANCH  13  14
ATOM     14  C   UNL     1      14.189 -31.204  21.423  1.00  0.00    -0.000 C 
BRANCH  14  15
ATOM     15  C   UNL     1      12.711 -31.038  21.811  1.00  0.00    -0.000 C 
BRANCH  15  16
ATOM     16  C   UNL     1      12.512 -30.076  22.992  1.00  0.00    -0.003 C 
ATOM     17  C   UNL     1      13.750 -29.212  23.212  1.00  0.00     0.004 C 
ENDBRANCH  15  16
ENDBRANCH  14  15
ENDBRANCH  13  14
ENDBRANCH  12  13
ENDBRANCH  11  12
ENDBRANCH  10  11
ENDBRANCH   1  10
TORSDOF 13
ENDMDL
MODEL 5
REMARK VINA RESULT:    -4.503      1.830      3.315
REMARK INTER + INTRA:          -9.651
REMARK INTER:                  -7.121
REMARK INTRA:                  -2.530
REMARK UNBOUND:                -1.725
REMARK SMILES CCCCCCCCCCCCCCC(=O)[O-]
REMARK SMILES IDX 9 1 10 2 11 3 12 4 13 5 14 6 15 7 16 8 17 9 8 10 7 11 6 12
REMARK SMILES IDX 5 13 4 14 3 15 2 16 1 17
REMARK H PARENT
REMARK Flexibility Score: inf
ROOT
ATOM      1  C   UNL     1      17.019 -34.849  23.624  1.00  0.00     0.000 C 
ENDROOT
BRANCH   1   2
ATOM      2  C   UNL     1      16.276 -34.628  22.301  1.00  0.00     0.000 C 
BRANCH   2   3
ATOM      3  C   UNL     1      15.026 -33.759  22.508  1.00  0.00     0.000 C 
BRANCH   3   4
ATOM      4  C   UNL     1      14.737 -33.495  24.002  1.00  0.00     0.000 C 
BRANCH   4   5
ATOM      5  C   UNL     1      13.839 -32.268  24.247  1.00  0.00     0.006 C 
BRANCH   5   6
ATOM      6  C   UNL     1      13.620 -31.394  23.003  1.00  0.00     0.053 C 
BRANCH   6   7
ATOM      7  C   UNL     1      13.622 -29.934  23.341  1.00  0.00     0.041 C 
ATOM      8  O   UNL     1      12.828 -29.480  24.208  1.00  0.00    -0.550 OA
ATOM      9  O   UNL     1      14.492 -29.070  22.687  1.00  0.00    -0.550 OA
ENDBRANCH   6   7
ENDBRANCH   5   6
ENDBRANCH   4   5
ENDBRANCH   3   4
ENDBRANCH   2   3
ENDBRANCH   1   2
BRANCH   1  10
ATOM     10  C   UNL     1      18.538 -34.733  23.427  1.00  0.00     0.000 C 
BRANCH  10  11
ATOM     11  C   UNL     1      19.205 -33.845  24.489  1.00  0.00    -0.000 C 
BRANCH  11  12
ATOM     12  C   UNL     1      18.212 -32.882  25.164  1.00  0.00    -0.000 C 
BRANCH  12  13
ATOM     13  C   UNL     1      18.416 -31.421  24.733  1.00  0.00    -0.000 C 
BRANCH  13  14
ATOM     14  C   UNL     1      17.286 -30.912  23.821  1.00  0.00    -0.000 C 
BRANCH  14  15
ATOM     15  C   UNL     1      17.804 -30.401  22.467  1.00  0.00    -0.000 C 
BRANCH  15  16
ATOM     16  C   UNL     1      17.335 -31.265  21.287  1.00  0.00    -0.003 C 
ATOM     17  C   UNL     1      18.490 -32.075  20.706  1.00  0.00     0.004 C 
ENDBRANCH  15  16
ENDBRANCH  14  15
ENDBRANCH  13  14
ENDBRANCH  12  13
ENDBRANCH  11  12
ENDBRANCH  10  11
ENDBRANCH   1  10
TORSDOF 13
ENDMDL
MODEL 6
REMARK VINA RESULT:    -4.488      1.436      2.086
REMARK INTER + INTRA:          -9.624
REMARK INTER:                  -7.336
REMARK INTRA:                  -2.288
REMARK UNBOUND:                -1.725
REMARK SMILES CCCCCCCCCCCCCCC(=O)[O-]
REMARK SMILES IDX 9 1 10 2 11 3 12 4 13 5 14 6 15 7 16 8 17 9 8 10 7 11 6 12
REMARK SMILES IDX 5 13 4 14 3 15 2 16 1 17
REMARK H PARENT
REMARK Flexibility Score: inf
ROOT
ATOM      1  C   UNL     1      17.181 -35.020  23.335  1.00  0.00     0.000 C 
ENDROOT
BRANCH   1   2
ATOM      2  C   UNL     1      15.907 -34.181  23.487  1.00  0.00     0.000 C 
BRANCH   2   3
ATOM      3  C   UNL     1      15.200 -34.001  22.136  1.00  0.00     0.000 C 
BRANCH   3   4
ATOM      4  C   UNL     1      14.479 -32.640  22.029  1.00  0.00     0.000 C 
BRANCH   4   5
ATOM      5  C   UNL     1      13.978 -32.102  23.383  1.00  0.00     0.006 C 
BRANCH   5   6
ATOM      6  C   UNL     1      13.994 -30.570  23.493  1.00  0.00     0.053 C 
BRANCH   6   7
ATOM      7  C   UNL     1      12.643 -29.977  23.228  1.00  0.00     0.041 C 
ATOM      8  O   UNL     1      11.908 -30.449  22.321  1.00  0.00    -0.550 OA
ATOM      9  O   UNL     1      12.202 -28.893  23.976  1.00  0.00    -0.550 OA
ENDBRANCH   6   7
ENDBRANCH   5   6
ENDBRANCH   4   5
ENDBRANCH   3   4
ENDBRANCH   2   3
ENDBRANCH   1   2
BRANCH   1  10
ATOM     10  C   UNL     1      17.470 -35.318  21.856  1.00  0.00     0.000 C 
BRANCH  10  11
ATOM     11  C   UNL     1      18.742 -34.620  21.349  1.00  0.00    -0.000 C 
BRANCH  11  12
ATOM     12  C   UNL     1      18.439 -33.504  20.335  1.00  0.00    -0.000 C 
BRANCH  12  13
ATOM     13  C   UNL     1      18.912 -32.122  20.814  1.00  0.00    -0.000 C 
BRANCH  13  14
ATOM     14  C   UNL     1      17.753 -31.124  20.972  1.00  0.00    -0.000 C 
BRANCH  14  15
ATOM     15  C   UNL     1      17.585 -30.638  22.420  1.00  0.00    -0.000 C 
BRANCH  15  16
ATOM     16  C   UNL     1      18.640 -31.227  23.370  1.00  0.00    -0.003 C 
ATOM     17  C   UNL     1      18.045 -31.507  24.746  1.00  0.00     0.004 C 
ENDBRANCH  15  16
ENDBRANCH  14  15
ENDBRANCH  13  14
ENDBRANCH  12  13
ENDBRANCH  11  12
ENDBRANCH  10  11
ENDBRANCH   1  10
TORSDOF 13
ENDMDL
MODEL 7
REMARK VINA RESULT:    -4.459      1.428      2.444
REMARK INTER + INTRA:          -9.573
REMARK INTER:                  -7.827
REMARK INTRA:                  -1.746
REMARK UNBOUND:                -1.725
REMARK SMILES CCCCCCCCCCCCCCC(=O)[O-]
REMARK SMILES IDX 9 1 10 2 11 3 12 4 13 5 14 6 15 7 16 8 17 9 8 10 7 11 6 12
REMARK SMILES IDX 5 13 4 14 3 15 2 16 1 17
REMARK H PARENT
REMARK Flexibility Score: inf
ROOT
ATOM      1  C   UNL     1      14.994 -33.542  22.331  1.00  0.00     0.000 C 
ENDROOT
BRANCH   1   2
ATOM      2  C   UNL     1      14.384 -32.980  21.041  1.00  0.00     0.000 C 
BRANCH   2   3
ATOM      3  C   UNL     1      14.010 -31.500  21.206  1.00  0.00     0.000 C 
BRANCH   3   4
ATOM      4  C   UNL     1      12.861 -31.296  22.218  1.00  0.00     0.000 C 
BRANCH   4   5
ATOM      5  C   UNL     1      13.266 -30.462  23.448  1.00  0.00     0.006 C 
BRANCH   5   6
ATOM      6  C   UNL     1      13.475 -28.969  23.151  1.00  0.00     0.053 C 
BRANCH   6   7
ATOM      7  C   UNL     1      12.586 -28.104  23.992  1.00  0.00     0.041 C 
ATOM      8  O   UNL     1      11.352 -28.343  24.068  1.00  0.00    -0.550 OA
ATOM      9  O   UNL     1      13.121 -27.022  24.681  1.00  0.00    -0.550 OA
ENDBRANCH   6   7
ENDBRANCH   5   6
ENDBRANCH   4   5
ENDBRANCH   3   4
ENDBRANCH   2   3
ENDBRANCH   1   2
BRANCH   1  10
ATOM     10  C   UNL     1      16.304 -34.289  22.039  1.00  0.00     0.000 C 
BRANCH  10  11
ATOM     11  C   UNL     1      17.524 -33.624  22.698  1.00  0.00    -0.000 C 
BRANCH  11  12
ATOM     12  C   UNL     1      17.132 -32.685  23.852  1.00  0.00    -0.000 C 
BRANCH  12  13
ATOM     13  C   UNL     1      17.786 -31.300  23.738  1.00  0.00    -0.000 C 
BRANCH  13  14
ATOM     14  C   UNL     1      16.788 -30.209  23.312  1.00  0.00    -0.000 C 
BRANCH  14  15
ATOM     15  C   UNL     1      17.017 -29.730  21.870  1.00  0.00    -0.000 C 
BRANCH  15  16
ATOM     16  C   UNL     1      18.380 -30.164  21.309  1.00  0.00    -0.003 C 
ATOM     17  C   UNL     1      19.242 -28.954  20.961  1.00  0.00     0.004 C 
ENDBRANCH  15  16
ENDBRANCH  14  15
ENDBRANCH  13  14
ENDBRANCH  12  13
ENDBRANCH  11  12
ENDBRANCH  10  11
ENDBRANCH   1  10
TORSDOF 13
ENDMDL
MODEL 8
REMARK VINA RESULT:    -4.399      1.316      3.326
REMARK INTER + INTRA:          -9.467
REMARK INTER:                  -7.291
REMARK INTRA:                  -2.175
REMARK UNBOUND:                -1.725
REMARK SMILES CCCCCCCCCCCCCCC(=O)[O-]
REMARK SMILES IDX 9 1 10 2 11 3 12 4 13 5 14 6 15 7 16 8 17 9 8 10 7 11 6 12
REMARK SMILES IDX 5 13 4 14 3 15 2 16 1 17
REMARK H PARENT
REMARK Flexibility Score: inf
ROOT
ATOM      1  C   UNL     1      17.005 -34.383  23.687  1.00  0.00     0.000 C 
ENDROOT
BRANCH   1   2
ATOM      2  C   UNL     1      15.571 -33.840  23.688  1.00  0.00     0.000 C 
BRANCH   2   3
ATOM      3  C   UNL     1      15.029 -33.709  22.257  1.00  0.00     0.000 C 
BRANCH   3   4
ATOM      4  C   UNL     1      14.287 -32.374  22.031  1.00  0.00     0.000 C 
BRANCH   4   5
ATOM      5  C   UNL     1      13.794 -31.717  23.334  1.00  0.00     0.006 C 
BRANCH   5   6
ATOM      6  C   UNL     1      13.975 -30.192  23.374  1.00  0.00     0.053 C 
BRANCH   6   7
ATOM      7  C   UNL     1      12.663 -29.478  23.501  1.00  0.00     0.041 C 
ATOM      8  O   UNL     1      12.464 -28.678  24.452  1.00  0.00    -0.550 OA
ATOM      9  O   UNL     1      11.654 -29.710  22.574  1.00  0.00    -0.550 OA
ENDBRANCH   6   7
ENDBRANCH   5   6
ENDBRANCH   4   5
ENDBRANCH   3   4
ENDBRANCH   2   3
ENDBRANCH   1   2
BRANCH   1  10
ATOM     10  C   UNL     1      17.994 -33.323  24.194  1.00  0.00     0.000 C 
BRANCH  10  11
ATOM     11  C   UNL     1      17.348 -31.938  24.351  1.00  0.00    -0.000 C 
BRANCH  11  12
ATOM     12  C   UNL     1      17.662 -31.002  23.170  1.00  0.00    -0.000 C 
BRANCH  12  13
ATOM     13  C   UNL     1      19.112 -31.134  22.679  1.00  0.00    -0.000 C 
BRANCH  13  14
ATOM     14  C   UNL     1      19.201 -31.363  21.160  1.00  0.00    -0.000 C 
BRANCH  14  15
ATOM     15  C   UNL     1      18.006 -32.158  20.611  1.00  0.00    -0.000 C 
BRANCH  15  16
ATOM     16  C   UNL     1      18.359 -33.621  20.301  1.00  0.00    -0.003 C 
ATOM     17  C   UNL     1      17.450 -34.186  19.214  1.00  0.00     0.004 C 
ENDBRANCH  15  16
ENDBRANCH  14  15
ENDBRANCH  13  14
ENDBRANCH  12  13
ENDBRANCH  11  12
ENDBRANCH  10  11
ENDBRANCH   1  10
TORSDOF 13
ENDMDL
MODEL 9
REMARK VINA RESULT:    -4.378      1.342      3.929
REMARK INTER + INTRA:          -9.430
REMARK INTER:                  -7.509
REMARK INTRA:                  -1.921
REMARK UNBOUND:                -1.725
REMARK SMILES CCCCCCCCCCCCCCC(=O)[O-]
REMARK SMILES IDX 9 1 10 2 11 3 12 4 13 5 14 6 15 7 16 8 17 9 8 10 7 11 6 12
REMARK SMILES IDX 5 13 4 14 3 15 2 16 1 17
REMARK H PARENT
REMARK Flexibility Score: inf
ROOT
ATOM      1  C   UNL     1      18.257 -31.555  22.173  1.00  0.00     0.000 C 
ENDROOT
BRANCH   1   2
ATOM      2  C   UNL     1      17.108 -30.904  21.393  1.00  0.00     0.000 C 
BRANCH   2   3
ATOM      3  C   UNL     1      16.543 -29.694  22.151  1.00  0.00     0.000 C 
BRANCH   3   4
ATOM      4  C   UNL     1      15.045 -29.464  21.853  1.00  0.00     0.000 C 
BRANCH   4   5
ATOM      5  C   UNL     1      14.136 -30.602  22.354  1.00  0.00     0.006 C 
BRANCH   5   6
ATOM      6  C   UNL     1      13.521 -30.348  23.739  1.00  0.00     0.053 C 
BRANCH   6   7
ATOM      7  C   UNL     1      12.572 -29.189  23.723  1.00  0.00     0.041 C 
ATOM      8  O   UNL     1      11.541 -29.220  23.000  1.00  0.00    -0.550 OA
ATOM      9  O   UNL     1      12.835 -28.065  24.497  1.00  0.00    -0.550 OA
ENDBRANCH   6   7
ENDBRANCH   5   6
ENDBRANCH   4   5
ENDBRANCH   3   4
ENDBRANCH   2   3
ENDBRANCH   1   2
BRANCH   1  10
ATOM     10  C   UNL     1      18.004 -31.483  23.686  1.00  0.00     0.000 C 
BRANCH  10  11
ATOM     11  C   UNL     1      17.667 -32.853  24.295  1.00  0.00    -0.000 C 
BRANCH  11  12
ATOM     12  C   UNL     1      16.183 -33.225  24.127  1.00  0.00    -0.000 C 
BRANCH  12  13
ATOM     13  C   UNL     1      15.967 -34.362  23.117  1.00  0.00    -0.000 C 
BRANCH  13  14
ATOM     14  C   UNL     1      15.033 -33.957  21.963  1.00  0.00    -0.000 C 
BRANCH  14  15
ATOM     15  C   UNL     1      15.481 -34.532  20.611  1.00  0.00    -0.000 C 
BRANCH  15  16
ATOM     16  C   UNL     1      16.841 -35.243  20.688  1.00  0.00    -0.003 C 
ATOM     17  C   UNL     1      16.960 -36.320  19.615  1.00  0.00     0.004 C 
ENDBRANCH  15  16
ENDBRANCH  14  15
ENDBRANCH  13  14
ENDBRANCH  12  13
ENDBRANCH  11  12
ENDBRANCH  10  11
ENDBRANCH   1  10
TORSDOF 13
ENDMDL
