MODEL 1
REMARK VINA RESULT:    -5.217      0.000      0.000
REMARK INTER + INTRA:         -10.121
REMARK INTER:                  -8.877
REMARK INTRA:                  -1.243
REMARK UNBOUND:                -1.243
REMARK SMILES CCCCCCCCCCCCCC(=O)[O-]
REMARK SMILES IDX 8 1 9 2 10 3 11 4 12 5 13 6 14 7 15 8 16 9 7 10 6 11 5 12
REMARK SMILES IDX 4 13 3 14 2 15 1 16
REMARK H PARENT
REMARK Flexibility Score: inf
ROOT
ATOM      1  C   UNL     1      33.718  42.614  48.653  1.00  0.00     0.000 C 
ENDROOT
BRANCH   1   2
ATOM      2  C   UNL     1      34.045  42.409  47.163  1.00  0.00     0.000 C 
BRANCH   2   3
ATOM      3  C   UNL     1      35.537  42.545  46.800  1.00  0.00     0.000 C 
BRANCH   3   4
ATOM      4  C   UNL     1      35.899  43.791  45.968  1.00  0.00     0.000 C 
BRANCH   4   5
ATOM      5  C   UNL     1      34.713  44.716  45.629  1.00  0.00     0.006 C 
BRANCH   5   6
ATOM      6  C   UNL     1      34.392  44.811  44.130  1.00  0.00     0.053 C 
BRANCH   6   7
ATOM      7  C   UNL     1      32.931  44.624  43.858  1.00  0.00     0.041 C 
ATOM      8  O   UNL     1      32.176  44.150  44.747  1.00  0.00    -0.550 OA
ATOM      9  O   UNL     1      32.398  45.003  42.633  1.00  0.00    -0.550 OA
ENDBRANCH   6   7
ENDBRANCH   5   6
ENDBRANCH   4   5
ENDBRANCH   3   4
ENDBRANCH   2   3
ENDBRANCH   1   2
BRANCH   1  10
ATOM     10  C   UNL     1      33.897  44.070  49.109  1.00  0.00     0.000 C 
BRANCH  10  11
ATOM     11  C   UNL     1      35.197  44.238  49.908  1.00  0.00    -0.000 C 
BRANCH  11  12
ATOM     12  C   UNL     1      35.401  43.128  50.951  1.00  0.00    -0.000 C 
BRANCH  12  13
ATOM     13  C   UNL     1      36.848  42.616  50.997  1.00  0.00    -0.000 C 
BRANCH  13  14
ATOM     14  C   UNL     1      37.451  42.548  49.588  1.00  0.00    -0.000 C 
BRANCH  14  15
ATOM     15  C   UNL     1      38.656  41.602  49.551  1.00  0.00    -0.003 C 
ATOM     16  C   UNL     1      39.035  41.137  50.954  1.00  0.00     0.004 C 
ENDBRANCH  14  15
ENDBRANCH  13  14
ENDBRANCH  12  13
ENDBRANCH  11  12
ENDBRANCH  10  11
ENDBRANCH   1  10
TORSDOF 12
ENDMDL
MODEL 2
REMARK VINA RESULT:    -5.148      3.219      6.622
REMARK INTER + INTRA:         -10.003
REMARK INTER:                  -8.722
REMARK INTRA:                  -1.281
REMARK UNBOUND:                -1.243
REMARK SMILES CCCCCCCCCCCCCC(=O)[O-]
REMARK SMILES IDX 8 1 9 2 10 3 11 4 12 5 13 6 14 7 15 8 16 9 7 10 6 11 5 12
REMARK SMILES IDX 4 13 3 14 2 15 1 16
REMARK H PARENT
REMARK Flexibility Score: inf
ROOT
ATOM      1  C   UNL     1      33.217  44.337  48.193  1.00  0.00     0.000 C 
ENDROOT
BRANCH   1   2
ATOM      2  C   UNL     1      34.729  44.599  48.313  1.00  0.00     0.000 C 
BRANCH   2   3
ATOM      3  C   UNL     1      35.498  44.594  46.977  1.00  0.00     0.000 C 
BRANCH   3   4
ATOM      4  C   UNL     1      35.986  43.210  46.507  1.00  0.00     0.000 C 
BRANCH   4   5
ATOM      5  C   UNL     1      36.361  42.232  47.638  1.00  0.00     0.006 C 
BRANCH   5   6
ATOM      6  C   UNL     1      37.745  42.478  48.256  1.00  0.00     0.053 C 
BRANCH   6   7
ATOM      7  C   UNL     1      37.679  42.597  49.747  1.00  0.00     0.041 C 
ATOM      8  O   UNL     1      36.570  42.524  50.340  1.00  0.00    -0.550 OA
ATOM      9  O   UNL     1      38.844  42.755  50.486  1.00  0.00    -0.550 OA
ENDBRANCH   6   7
ENDBRANCH   5   6
ENDBRANCH   4   5
ENDBRANCH   3   4
ENDBRANCH   2   3
ENDBRANCH   1   2
BRANCH   1  10
ATOM     10  C   UNL     1      32.886  42.861  47.926  1.00  0.00     0.000 C 
BRANCH  10  11
ATOM     11  C   UNL     1      32.174  42.694  46.576  1.00  0.00    -0.000 C 
BRANCH  11  12
ATOM     12  C   UNL     1      31.704  44.032  45.983  1.00  0.00    -0.000 C 
BRANCH  12  13
ATOM     13  C   UNL     1      31.910  44.110  44.463  1.00  0.00    -0.000 C 
BRANCH  13  14
ATOM     14  C   UNL     1      33.342  44.543  44.124  1.00  0.00    -0.000 C 
BRANCH  14  15
ATOM     15  C   UNL     1      33.348  45.615  43.028  1.00  0.00    -0.003 C 
ATOM     16  C   UNL     1      32.052  45.585  42.223  1.00  0.00     0.004 C 
ENDBRANCH  14  15
ENDBRANCH  13  14
ENDBRANCH  12  13
ENDBRANCH  11  12
ENDBRANCH  10  11
ENDBRANCH   1  10
TORSDOF 12
ENDMDL
MODEL 3
REMARK VINA RESULT:    -5.096      1.596      2.202
REMARK INTER + INTRA:          -9.914
REMARK INTER:                  -8.604
REMARK INTRA:                  -1.309
REMARK UNBOUND:                -1.243
REMARK SMILES CCCCCCCCCCCCCC(=O)[O-]
REMARK SMILES IDX 8 1 9 2 10 3 11 4 12 5 13 6 14 7 15 8 16 9 7 10 6 11 5 12
REMARK SMILES IDX 4 13 3 14 2 15 1 16
REMARK H PARENT
REMARK Flexibility Score: inf
ROOT
ATOM      1  C   UNL     1      35.841  42.579  47.723  1.00  0.00     0.000 C 
ENDROOT
BRANCH   1   2
ATOM      2  C   UNL     1      36.134  43.209  46.350  1.00  0.00     0.000 C 
BRANCH   2   3
ATOM      3  C   UNL     1      35.424  44.552  46.086  1.00  0.00     0.000 C 
BRANCH   3   4
ATOM      4  C   UNL     1      34.687  44.648  44.736  1.00  0.00     0.000 C 
BRANCH   4   5
ATOM      5  C   UNL     1      33.159  44.458  44.812  1.00  0.00     0.006 C 
BRANCH   5   6
ATOM      6  C   UNL     1      32.634  44.097  46.210  1.00  0.00     0.053 C 
BRANCH   6   7
ATOM      7  C   UNL     1      31.971  42.754  46.228  1.00  0.00     0.041 C 
ATOM      8  O   UNL     1      32.501  41.794  46.847  1.00  0.00    -0.550 OA
ATOM      9  O   UNL     1      30.751  42.572  45.590  1.00  0.00    -0.550 OA
ENDBRANCH   6   7
ENDBRANCH   5   6
ENDBRANCH   4   5
ENDBRANCH   3   4
ENDBRANCH   2   3
ENDBRANCH   1   2
BRANCH   1  10
ATOM     10  C   UNL     1      35.123  43.542  48.681  1.00  0.00     0.000 C 
BRANCH  10  11
ATOM     11  C   UNL     1      34.622  42.801  49.929  1.00  0.00    -0.000 C 
BRANCH  11  12
ATOM     12  C   UNL     1      35.747  42.497  50.931  1.00  0.00    -0.000 C 
BRANCH  12  13
ATOM     13  C   UNL     1      36.690  43.691  51.142  1.00  0.00    -0.000 C 
BRANCH  13  14
ATOM     14  C   UNL     1      38.144  43.301  50.846  1.00  0.00    -0.000 C 
BRANCH  14  15
ATOM     15  C   UNL     1      38.237  41.847  50.370  1.00  0.00    -0.003 C 
ATOM     16  C   UNL     1      39.358  41.103  51.090  1.00  0.00     0.004 C 
ENDBRANCH  14  15
ENDBRANCH  13  14
ENDBRANCH  12  13
ENDBRANCH  11  12
ENDBRANCH  10  11
ENDBRANCH   1  10
TORSDOF 12
ENDMDL
MODEL 4
REMARK VINA RESULT:    -5.015      3.531      6.268
REMARK INTER + INTRA:          -9.777
REMARK INTER:                  -8.344
REMARK INTRA:                  -1.433
REMARK UNBOUND:                -1.243
REMARK SMILES CCCCCCCCCCCCCC(=O)[O-]
REMARK SMILES IDX 8 1 9 2 10 3 11 4 12 5 13 6 14 7 15 8 16 9 7 10 6 11 5 12
REMARK SMILES IDX 4 13 3 14 2 15 1 16
REMARK H PARENT
REMARK Flexibility Score: inf
ROOT
ATOM      1  C   UNL     1      32.949  41.839  47.441  1.00  0.00     0.000 C 
ENDROOT
BRANCH   1   2
ATOM      2  C   UNL     1      33.640  42.269  48.747  1.00  0.00     0.000 C 
BRANCH   2   3
ATOM      3  C   UNL     1      33.885  43.784  48.885  1.00  0.00     0.000 C 
BRANCH   3   4
ATOM      4  C   UNL     1      35.167  44.174  49.645  1.00  0.00     0.000 C 
BRANCH   4   5
ATOM      5  C   UNL     1      36.037  42.989  50.109  1.00  0.00     0.006 C 
BRANCH   5   6
ATOM      6  C   UNL     1      37.189  42.637  49.156  1.00  0.00     0.053 C 
BRANCH   6   7
ATOM      7  C   UNL     1      38.426  42.235  49.898  1.00  0.00     0.041 C 
ATOM      8  O   UNL     1      38.841  42.930  50.863  1.00  0.00    -0.550 OA
ATOM      9  O   UNL     1      39.103  41.075  49.546  1.00  0.00    -0.550 OA
ENDBRANCH   6   7
ENDBRANCH   5   6
ENDBRANCH   4   5
ENDBRANCH   3   4
ENDBRANCH   2   3
ENDBRANCH   1   2
BRANCH   1  10
ATOM     10  C   UNL     1      31.671  42.640  47.150  1.00  0.00     0.000 C 
BRANCH  10  11
ATOM     11  C   UNL     1      31.624  43.082  45.680  1.00  0.00    -0.000 C 
BRANCH  11  12
ATOM     12  C   UNL     1      32.269  44.458  45.452  1.00  0.00    -0.000 C 
BRANCH  12  13
ATOM     13  C   UNL     1      32.938  44.578  44.074  1.00  0.00    -0.000 C 
BRANCH  13  14
ATOM     14  C   UNL     1      34.462  44.682  44.211  1.00  0.00    -0.000 C 
BRANCH  14  15
ATOM     15  C   UNL     1      34.880  44.727  45.685  1.00  0.00    -0.003 C 
ATOM     16  C   UNL     1      36.041  43.775  45.958  1.00  0.00     0.004 C 
ENDBRANCH  14  15
ENDBRANCH  13  14
ENDBRANCH  12  13
ENDBRANCH  11  12
ENDBRANCH  10  11
ENDBRANCH   1  10
TORSDOF 12
ENDMDL
MODEL 5
REMARK VINA RESULT:    -4.991      1.502      2.154
REMARK INTER + INTRA:          -9.736
REMARK INTER:                  -8.482
REMARK INTRA:                  -1.254
REMARK UNBOUND:                -1.243
REMARK SMILES CCCCCCCCCCCCCC(=O)[O-]
REMARK SMILES IDX 8 1 9 2 10 3 11 4 12 5 13 6 14 7 15 8 16 9 7 10 6 11 5 12
REMARK SMILES IDX 4 13 3 14 2 15 1 16
REMARK H PARENT
REMARK Flexibility Score: inf
ROOT
ATOM      1  C   UNL     1      35.146  44.023  47.712  1.00  0.00     0.000 C 
ENDROOT
BRANCH   1   2
ATOM      2  C   UNL     1      34.509  42.628  47.585  1.00  0.00     0.000 C 
BRANCH   2   3
ATOM      3  C   UNL     1      32.982  42.589  47.794  1.00  0.00     0.000 C 
BRANCH   3   4
ATOM      4  C   UNL     1      32.192  41.822  46.715  1.00  0.00     0.000 C 
BRANCH   4   5
ATOM      5  C   UNL     1      31.294  42.698  45.818  1.00  0.00     0.006 C 
BRANCH   5   6
ATOM      6  C   UNL     1      31.780  44.146  45.657  1.00  0.00     0.053 C 
BRANCH   6   7
ATOM      7  C   UNL     1      32.616  44.322  44.427  1.00  0.00     0.041 C 
ATOM      8  O   UNL     1      32.099  44.199  43.285  1.00  0.00    -0.550 OA
ATOM      9  O   UNL     1      33.960  44.653  44.541  1.00  0.00    -0.550 OA
ENDBRANCH   6   7
ENDBRANCH   5   6
ENDBRANCH   4   5
ENDBRANCH   3   4
ENDBRANCH   2   3
ENDBRANCH   1   2
BRANCH   1  10
ATOM     10  C   UNL     1      34.303  44.990  48.557  1.00  0.00     0.000 C 
BRANCH  10  11
ATOM     11  C   UNL     1      35.009  45.320  49.880  1.00  0.00    -0.000 C 
BRANCH  11  12
ATOM     12  C   UNL     1      35.024  44.133  50.857  1.00  0.00    -0.000 C 
BRANCH  12  13
ATOM     13  C   UNL     1      36.436  43.802  51.365  1.00  0.00    -0.000 C 
BRANCH  13  14
ATOM     14  C   UNL     1      37.064  42.671  50.541  1.00  0.00    -0.000 C 
BRANCH  14  15
ATOM     15  C   UNL     1      38.593  42.780  50.534  1.00  0.00    -0.003 C 
ATOM     16  C   UNL     1      39.241  41.449  50.903  1.00  0.00     0.004 C 
ENDBRANCH  14  15
ENDBRANCH  13  14
ENDBRANCH  12  13
ENDBRANCH  11  12
ENDBRANCH  10  11
ENDBRANCH   1  10
TORSDOF 12
ENDMDL
MODEL 6
REMARK VINA RESULT:    -4.982      2.717      6.067
REMARK INTER + INTRA:          -9.721
REMARK INTER:                  -8.240
REMARK INTRA:                  -1.481
REMARK UNBOUND:                -1.243
REMARK SMILES CCCCCCCCCCCCCC(=O)[O-]
REMARK SMILES IDX 8 1 9 2 10 3 11 4 12 5 13 6 14 7 15 8 16 9 7 10 6 11 5 12
REMARK SMILES IDX 4 13 3 14 2 15 1 16
REMARK H PARENT
REMARK Flexibility Score: inf
ROOT
ATOM      1  C   UNL     1      35.908  43.849  45.747  1.00  0.00     0.000 C 
ENDROOT
BRANCH   1   2
ATOM      2  C   UNL     1      35.697  42.902  46.942  1.00  0.00     0.000 C 
BRANCH   2   3
ATOM      3  C   UNL     1      36.987  42.279  47.512  1.00  0.00     0.000 C 
BRANCH   3   4
ATOM      4  C   UNL     1      37.253  42.573  49.001  1.00  0.00     0.000 C 
BRANCH   4   5
ATOM      5  C   UNL     1      35.998  42.885  49.839  1.00  0.00     0.006 C 
BRANCH   5   6
ATOM      6  C   UNL     1      36.195  43.990  50.889  1.00  0.00     0.053 C 
BRANCH   6   7
ATOM      7  C   UNL     1      35.224  45.115  50.708  1.00  0.00     0.041 C 
ATOM      8  O   UNL     1      35.101  45.672  49.585  1.00  0.00    -0.550 OA
ATOM      9  O   UNL     1      34.430  45.527  51.770  1.00  0.00    -0.550 OA
ENDBRANCH   6   7
ENDBRANCH   5   6
ENDBRANCH   4   5
ENDBRANCH   3   4
ENDBRANCH   2   3
ENDBRANCH   1   2
BRANCH   1  10
ATOM     10  C   UNL     1      34.783  44.886  45.601  1.00  0.00     0.000 C 
BRANCH  10  11
ATOM     11  C   UNL     1      34.158  44.822  44.200  1.00  0.00    -0.000 C 
BRANCH  11  12
ATOM     12  C   UNL     1      32.735  44.241  44.210  1.00  0.00    -0.000 C 
BRANCH  12  13
ATOM     13  C   UNL     1      32.132  44.178  45.622  1.00  0.00    -0.000 C 
BRANCH  13  14
ATOM     14  C   UNL     1      31.723  42.744  45.980  1.00  0.00    -0.000 C 
BRANCH  14  15
ATOM     15  C   UNL     1      32.000  42.446  47.458  1.00  0.00    -0.003 C 
ATOM     16  C   UNL     1      32.364  43.719  48.217  1.00  0.00     0.004 C 
ENDBRANCH  14  15
ENDBRANCH  13  14
ENDBRANCH  12  13
ENDBRANCH  11  12
ENDBRANCH  10  11
ENDBRANCH   1  10
TORSDOF 12
ENDMDL
MODEL 7
REMARK VINA RESULT:    -4.980      2.065      2.811
REMARK INTER + INTRA:          -9.717
REMARK INTER:                  -8.131
REMARK INTRA:                  -1.586
REMARK UNBOUND:                -1.243
REMARK SMILES CCCCCCCCCCCCCC(=O)[O-]
REMARK SMILES IDX 8 1 9 2 10 3 11 4 12 5 13 6 14 7 15 8 16 9 7 10 6 11 5 12
REMARK SMILES IDX 4 13 3 14 2 15 1 16
REMARK H PARENT
REMARK Flexibility Score: inf
ROOT
ATOM      1  C   UNL     1      35.050  45.756  49.744  1.00  0.00     0.000 C 
ENDROOT
BRANCH   1   2
ATOM      2  C   UNL     1      34.279  44.832  48.785  1.00  0.00     0.000 C 
BRANCH   2   3
ATOM      3  C   UNL     1      35.096  44.317  47.583  1.00  0.00     0.000 C 
BRANCH   3   4
ATOM      4  C   UNL     1      34.902  42.824  47.251  1.00  0.00     0.000 C 
BRANCH   4   5
ATOM      5  C   UNL     1      33.699  42.153  47.943  1.00  0.00     0.006 C 
BRANCH   5   6
ATOM      6  C   UNL     1      32.527  41.830  47.003  1.00  0.00     0.053 C 
BRANCH   6   7
ATOM      7  C   UNL     1      31.364  42.747  47.223  1.00  0.00     0.041 C 
ATOM      8  O   UNL     1      30.362  42.354  47.878  1.00  0.00    -0.550 OA
ATOM      9  O   UNL     1      31.399  44.046  46.734  1.00  0.00    -0.550 OA
ENDBRANCH   6   7
ENDBRANCH   5   6
ENDBRANCH   4   5
ENDBRANCH   3   4
ENDBRANCH   2   3
ENDBRANCH   1   2
BRANCH   1  10
ATOM     10  C   UNL     1      35.488  45.046  51.034  1.00  0.00     0.000 C 
BRANCH  10  11
ATOM     11  C   UNL     1      34.902  43.628  51.105  1.00  0.00    -0.000 C 
BRANCH  11  12
ATOM     12  C   UNL     1      35.970  42.536  50.936  1.00  0.00    -0.000 C 
BRANCH  12  13
ATOM     13  C   UNL     1      37.351  43.107  50.581  1.00  0.00    -0.000 C 
BRANCH  13  14
ATOM     14  C   UNL     1      37.973  42.347  49.403  1.00  0.00    -0.000 C 
BRANCH  14  15
ATOM     15  C   UNL     1      38.873  41.209  49.897  1.00  0.00    -0.003 C 
ATOM     16  C   UNL     1      39.549  41.575  51.215  1.00  0.00     0.004 C 
ENDBRANCH  14  15
ENDBRANCH  13  14
ENDBRANCH  12  13
ENDBRANCH  11  12
ENDBRANCH  10  11
ENDBRANCH   1  10
TORSDOF 12
ENDMDL
MODEL 8
REMARK VINA RESULT:    -4.923      1.496      3.119
REMARK INTER + INTRA:          -9.620
REMARK INTER:                  -8.234
REMARK INTRA:                  -1.386
REMARK UNBOUND:                -1.243
REMARK SMILES CCCCCCCCCCCCCC(=O)[O-]
REMARK SMILES IDX 8 1 9 2 10 3 11 4 12 5 13 6 14 7 15 8 16 9 7 10 6 11 5 12
REMARK SMILES IDX 4 13 3 14 2 15 1 16
REMARK H PARENT
REMARK Flexibility Score: inf
ROOT
ATOM      1  C   UNL     1      34.908  43.189  47.179  1.00  0.00     0.000 C 
ENDROOT
BRANCH   1   2
ATOM      2  C   UNL     1      33.818  42.436  47.962  1.00  0.00     0.000 C 
BRANCH   2   3
ATOM      3  C   UNL     1      32.373  42.877  47.652  1.00  0.00     0.000 C 
BRANCH   3   4
ATOM      4  C   UNL     1      31.684  42.108  46.508  1.00  0.00     0.000 C 
BRANCH   4   5
ATOM      5  C   UNL     1      31.155  42.986  45.357  1.00  0.00     0.006 C 
BRANCH   5   6
ATOM      6  C   UNL     1      31.850  44.350  45.230  1.00  0.00     0.053 C 
BRANCH   6   7
ATOM      7  C   UNL     1      32.702  44.432  44.001  1.00  0.00     0.041 C 
ATOM      8  O   UNL     1      32.208  44.186  42.870  1.00  0.00    -0.550 OA
ATOM      9  O   UNL     1      34.034  44.812  44.102  1.00  0.00    -0.550 OA
ENDBRANCH   6   7
ENDBRANCH   5   6
ENDBRANCH   4   5
ENDBRANCH   3   4
ENDBRANCH   2   3
ENDBRANCH   1   2
BRANCH   1  10
ATOM     10  C   UNL     1      36.084  42.287  46.775  1.00  0.00     0.000 C 
BRANCH  10  11
ATOM     11  C   UNL     1      37.385  42.748  47.447  1.00  0.00    -0.000 C 
BRANCH  11  12
ATOM     12  C   UNL     1      37.790  41.856  48.632  1.00  0.00    -0.000 C 
BRANCH  12  13
ATOM     13  C   UNL     1      37.839  42.623  49.961  1.00  0.00    -0.000 C 
BRANCH  13  14
ATOM     14  C   UNL     1      36.441  42.733  50.583  1.00  0.00    -0.000 C 
BRANCH  14  15
ATOM     15  C   UNL     1      36.243  44.098  51.252  1.00  0.00    -0.003 C 
ATOM     16  C   UNL     1      35.310  44.984  50.431  1.00  0.00     0.004 C 
ENDBRANCH  14  15
ENDBRANCH  13  14
ENDBRANCH  12  13
ENDBRANCH  11  12
ENDBRANCH  10  11
ENDBRANCH   1  10
TORSDOF 12
ENDMDL
MODEL 9
REMARK VINA RESULT:    -4.922      2.284      3.740
REMARK INTER + INTRA:          -9.618
REMARK INTER:                  -8.072
REMARK INTRA:                  -1.546
REMARK UNBOUND:                -1.243
REMARK SMILES CCCCCCCCCCCCCC(=O)[O-]
REMARK SMILES IDX 8 1 9 2 10 3 11 4 12 5 13 6 14 7 15 8 16 9 7 10 6 11 5 12
REMARK SMILES IDX 4 13 3 14 2 15 1 16
REMARK H PARENT
REMARK Flexibility Score: inf
ROOT
ATOM      1  C   UNL     1      36.653  42.258  47.902  1.00  0.00     0.000 C 
ENDROOT
BRANCH   1   2
ATOM      2  C   UNL     1      36.640  42.997  46.552  1.00  0.00     0.000 C 
BRANCH   2   3
ATOM      3  C   UNL     1      35.565  44.095  46.422  1.00  0.00     0.000 C 
BRANCH   3   4
ATOM      4  C   UNL     1      34.951  44.571  47.753  1.00  0.00     0.000 C 
BRANCH   4   5
ATOM      5  C   UNL     1      33.413  44.499  47.825  1.00  0.00     0.006 C 
BRANCH   5   6
ATOM      6  C   UNL     1      32.759  43.753  46.652  1.00  0.00     0.053 C 
BRANCH   6   7
ATOM      7  C   UNL     1      32.161  42.449  47.083  1.00  0.00     0.041 C 
ATOM      8  O   UNL     1      30.956  42.392  47.444  1.00  0.00    -0.550 OA
ATOM      9  O   UNL     1      32.926  41.290  47.054  1.00  0.00    -0.550 OA
ENDBRANCH   6   7
ENDBRANCH   5   6
ENDBRANCH   4   5
ENDBRANCH   3   4
ENDBRANCH   2   3
ENDBRANCH   1   2
BRANCH   1  10
ATOM     10  C   UNL     1      38.065  42.109  48.487  1.00  0.00     0.000 C 
BRANCH  10  11
ATOM     11  C   UNL     1      38.121  42.641  49.927  1.00  0.00    -0.000 C 
BRANCH  11  12
ATOM     12  C   UNL     1      36.800  42.440  50.685  1.00  0.00    -0.000 C 
BRANCH  12  13
ATOM     13  C   UNL     1      36.192  43.763  51.176  1.00  0.00    -0.000 C 
BRANCH  13  14
ATOM     14  C   UNL     1      34.916  43.512  51.990  1.00  0.00    -0.000 C 
BRANCH  14  15
ATOM     15  C   UNL     1      33.959  42.581  51.238  1.00  0.00    -0.003 C 
ATOM     16  C   UNL     1      32.584  43.221  51.073  1.00  0.00     0.004 C 
ENDBRANCH  14  15
ENDBRANCH  13  14
ENDBRANCH  12  13
ENDBRANCH  11  12
ENDBRANCH  10  11
ENDBRANCH   1  10
TORSDOF 12
ENDMDL
