MODEL 1
REMARK VINA RESULT:    -4.105      0.000      0.000
REMARK INTER + INTRA:          -6.809
REMARK INTER:                  -5.545
REMARK INTRA:                  -1.264
REMARK UNBOUND:                -1.264
REMARK SMILES CC(=O)CCC=C(C)CCC=C(C)C
REMARK SMILES IDX 7 1 6 2 8 3 9 4 10 5 11 6 13 7 12 8 14 9 5 10 4 11 2 12 3 13
REMARK SMILES IDX 1 14
REMARK H PARENT
REMARK Flexibility Score: inf
ROOT
ATOM      1  C   UNL     1      86.412  32.214  66.879  1.00  0.00    -0.077 C 
ATOM      2  C   UNL     1      87.540  31.654  67.373  1.00  0.00    -0.028 C 
ATOM      3  C   UNL     1      85.189  32.251  67.759  1.00  0.00     0.039 C 
ENDROOT
BRANCH   1   4
ATOM      4  C   UNL     1      86.342  32.866  65.514  1.00  0.00     0.034 C 
BRANCH   4   5
ATOM      5  C   UNL     1      85.170  32.299  64.705  1.00  0.00     0.032 C 
BRANCH   5   6
ATOM      6  C   UNL     1      85.305  30.805  64.544  1.00  0.00    -0.028 C 
ATOM      7  C   UNL     1      82.847  30.394  64.784  1.00  0.00     0.039 C 
ATOM      8  C   UNL     1      84.275  29.934  64.602  1.00  0.00    -0.080 C 
ATOM      9  C   UNL     1      84.569  28.463  64.463  1.00  0.00     0.039 C 
ENDBRANCH   5   6
ENDBRANCH   4   5
ENDBRANCH   1   4
BRANCH   2  10
ATOM     10  C   UNL     1      88.840  31.516  66.616  1.00  0.00     0.035 C 
BRANCH  10  11
ATOM     11  C   UNL     1      89.125  30.056  66.243  1.00  0.00     0.079 C 
BRANCH  11  12
ATOM     12  C   UNL     1      88.786  29.776  64.801  1.00  0.00     0.130 C 
ATOM     13  O   UNL     1      88.393  28.664  64.480  1.00  0.00    -0.300 OA
ATOM     14  C   UNL     1      88.926  30.834  63.747  1.00  0.00     0.087 C 
ENDBRANCH  11  12
ENDBRANCH  10  11
ENDBRANCH   2  10
TORSDOF 6
ENDMDL
MODEL 2
REMARK VINA RESULT:    -4.055     15.646     17.489
REMARK INTER + INTRA:          -6.741
REMARK INTER:                  -6.141
REMARK INTRA:                  -0.600
REMARK UNBOUND:                -1.264
REMARK SMILES CC(=O)CCC=C(C)CCC=C(C)C
REMARK SMILES IDX 7 1 6 2 8 3 9 4 10 5 11 6 13 7 12 8 14 9 5 10 4 11 2 12 3 13
REMARK SMILES IDX 1 14
REMARK H PARENT
REMARK Flexibility Score: inf
ROOT
ATOM      1  C   UNL     1      76.751  33.724  52.298  1.00  0.00    -0.077 C 
ATOM      2  C   UNL     1      75.470  33.576  52.704  1.00  0.00    -0.028 C 
ATOM      3  C   UNL     1      77.668  32.531  52.380  1.00  0.00     0.039 C 
ENDROOT
BRANCH   1   4
ATOM      4  C   UNL     1      77.286  35.009  51.698  1.00  0.00     0.034 C 
BRANCH   4   5
ATOM      5  C   UNL     1      78.794  35.130  51.942  1.00  0.00     0.032 C 
BRANCH   5   6
ATOM      6  C   UNL     1      79.553  35.052  50.641  1.00  0.00    -0.028 C 
ATOM      7  C   UNL     1      81.157  33.327  51.492  1.00  0.00     0.039 C 
ATOM      8  C   UNL     1      80.632  34.266  50.430  1.00  0.00    -0.080 C 
ATOM      9  C   UNL     1      81.313  34.325  49.088  1.00  0.00     0.039 C 
ENDBRANCH   5   6
ENDBRANCH   4   5
ENDBRANCH   1   4
BRANCH   2  10
ATOM     10  C   UNL     1      74.432  34.674  52.709  1.00  0.00     0.035 C 
BRANCH  10  11
ATOM     11  C   UNL     1      73.202  34.286  53.540  1.00  0.00     0.079 C 
BRANCH  11  12
ATOM     12  C   UNL     1      73.329  34.752  54.968  1.00  0.00     0.130 C 
ATOM     13  O   UNL     1      73.954  35.772  55.215  1.00  0.00    -0.300 OA
ATOM     14  C   UNL     1      72.705  33.985  56.096  1.00  0.00     0.087 C 
ENDBRANCH  11  12
ENDBRANCH  10  11
ENDBRANCH   2  10
TORSDOF 6
ENDMDL
MODEL 3
REMARK VINA RESULT:    -3.857      1.428      4.292
REMARK INTER + INTRA:          -6.474
REMARK INTER:                  -5.223
REMARK INTRA:                  -1.251
REMARK UNBOUND:                -1.264
REMARK SMILES CC(=O)CCC=C(C)CCC=C(C)C
REMARK SMILES IDX 7 1 6 2 8 3 9 4 10 5 11 6 13 7 12 8 14 9 5 10 4 11 2 12 3 13
REMARK SMILES IDX 1 14
REMARK H PARENT
REMARK Flexibility Score: inf
ROOT
ATOM      1  C   UNL     1      87.260  33.194  65.588  1.00  0.00    -0.077 C 
ATOM      2  C   UNL     1      86.066  32.938  65.006  1.00  0.00    -0.028 C 
ATOM      3  C   UNL     1      88.110  34.299  65.017  1.00  0.00     0.039 C 
ENDROOT
BRANCH   1   4
ATOM      4  C   UNL     1      87.748  32.471  66.827  1.00  0.00     0.034 C 
BRANCH   4   5
ATOM      5  C   UNL     1      89.096  31.793  66.559  1.00  0.00     0.032 C 
BRANCH   5   6
ATOM      6  C   UNL     1      88.901  30.346  66.182  1.00  0.00    -0.028 C 
ATOM      7  C   UNL     1      89.109  30.789  63.726  1.00  0.00     0.039 C 
ATOM      8  C   UNL     1      88.880  29.883  64.913  1.00  0.00    -0.080 C 
ATOM      9  C   UNL     1      88.635  28.413  64.689  1.00  0.00     0.039 C 
ENDBRANCH   5   6
ENDBRANCH   4   5
ENDBRANCH   1   4
BRANCH   2  10
ATOM     10  C   UNL     1      85.108  31.853  65.438  1.00  0.00     0.035 C 
BRANCH  10  11
ATOM     11  C   UNL     1      85.432  30.512  64.768  1.00  0.00     0.079 C 
BRANCH  11  12
ATOM     12  C   UNL     1      84.192  29.680  64.564  1.00  0.00     0.130 C 
ATOM     13  O   UNL     1      84.300  28.486  64.326  1.00  0.00    -0.300 OA
ATOM     14  C   UNL     1      82.823  30.288  64.642  1.00  0.00     0.087 C 
ENDBRANCH  11  12
ENDBRANCH  10  11
ENDBRANCH   2  10
TORSDOF 6
ENDMDL
MODEL 4
REMARK VINA RESULT:    -3.829     16.042     17.002
REMARK INTER + INTRA:          -6.436
REMARK INTER:                  -6.017
REMARK INTRA:                  -0.418
REMARK UNBOUND:                -1.264
REMARK SMILES CC(=O)CCC=C(C)CCC=C(C)C
REMARK SMILES IDX 7 1 6 2 8 3 9 4 10 5 11 6 13 7 12 8 14 9 5 10 4 11 2 12 3 13
REMARK SMILES IDX 1 14
REMARK H PARENT
REMARK Flexibility Score: inf
ROOT
ATOM      1  C   UNL     1      77.070  34.581  52.071  1.00  0.00    -0.077 C 
ATOM      2  C   UNL     1      78.322  34.758  51.592  1.00  0.00    -0.028 C 
ATOM      3  C   UNL     1      76.613  33.176  52.372  1.00  0.00     0.039 C 
ENDROOT
BRANCH   1   4
ATOM      4  C   UNL     1      76.134  35.730  52.384  1.00  0.00     0.034 C 
BRANCH   4   5
ATOM      5  C   UNL     1      74.681  35.245  52.429  1.00  0.00     0.032 C 
BRANCH   5   6
ATOM      6  C   UNL     1      74.095  35.440  53.805  1.00  0.00    -0.028 C 
ATOM      7  C   UNL     1      73.349  33.058  54.003  1.00  0.00     0.039 C 
ATOM      8  C   UNL     1      73.471  34.474  54.514  1.00  0.00    -0.080 C 
ATOM      9  C   UNL     1      72.899  34.829  55.862  1.00  0.00     0.039 C 
ENDBRANCH   5   6
ENDBRANCH   4   5
ENDBRANCH   1   4
BRANCH   2  10
ATOM     10  C   UNL     1      78.925  36.092  51.219  1.00  0.00     0.035 C 
BRANCH  10  11
ATOM     11  C   UNL     1      80.444  35.993  51.029  1.00  0.00     0.079 C 
BRANCH  11  12
ATOM     12  C   UNL     1      80.829  34.750  50.268  1.00  0.00     0.130 C 
ATOM     13  O   UNL     1      80.795  34.758  49.046  1.00  0.00    -0.300 OA
ATOM     14  C   UNL     1      81.249  33.499  50.979  1.00  0.00     0.087 C 
ENDBRANCH  11  12
ENDBRANCH  10  11
ENDBRANCH   2  10
TORSDOF 6
ENDMDL
MODEL 5
REMARK VINA RESULT:    -3.799      2.247      3.713
REMARK INTER + INTRA:          -6.396
REMARK INTER:                  -5.706
REMARK INTRA:                  -0.690
REMARK UNBOUND:                -1.264
REMARK SMILES CC(=O)CCC=C(C)CCC=C(C)C
REMARK SMILES IDX 7 1 6 2 8 3 9 4 10 5 11 6 13 7 12 8 14 9 5 10 4 11 2 12 3 13
REMARK SMILES IDX 1 14
REMARK H PARENT
REMARK Flexibility Score: inf
ROOT
ATOM      1  C   UNL     1      88.822  30.932  64.849  1.00  0.00    -0.077 C 
ATOM      2  C   UNL     1      89.125  29.862  64.079  1.00  0.00    -0.028 C 
ATOM      3  C   UNL     1      89.061  32.308  64.284  1.00  0.00     0.039 C 
ENDROOT
BRANCH   1   4
ATOM      4  C   UNL     1      88.190  30.811  66.221  1.00  0.00     0.034 C 
BRANCH   4   5
ATOM      5  C   UNL     1      87.288  32.017  66.506  1.00  0.00     0.032 C 
BRANCH   5   6
ATOM      6  C   UNL     1      85.834  31.642  66.365  1.00  0.00    -0.028 C 
ATOM      7  C   UNL     1      85.603  32.728  64.120  1.00  0.00     0.039 C 
ATOM      8  C   UNL     1      85.057  31.975  65.311  1.00  0.00    -0.080 C 
ATOM      9  C   UNL     1      83.608  31.563  65.329  1.00  0.00     0.039 C 
ENDBRANCH   5   6
ENDBRANCH   4   5
ENDBRANCH   1   4
BRANCH   2  10
ATOM     10  C   UNL     1      88.969  28.420  64.502  1.00  0.00     0.035 C 
BRANCH  10  11
ATOM     11  C   UNL     1      89.078  27.465  63.307  1.00  0.00     0.079 C 
BRANCH  11  12
ATOM     12  C   UNL     1      88.485  26.114  63.620  1.00  0.00     0.130 C 
ATOM     13  O   UNL     1      88.027  25.902  64.733  1.00  0.00    -0.300 OA
ATOM     14  C   UNL     1      88.449  25.022  62.594  1.00  0.00     0.087 C 
ENDBRANCH  11  12
ENDBRANCH  10  11
ENDBRANCH   2  10
TORSDOF 6
ENDMDL
MODEL 6
REMARK VINA RESULT:    -3.732      2.627      4.874
REMARK INTER + INTRA:          -6.305
REMARK INTER:                  -5.559
REMARK INTRA:                  -0.746
REMARK UNBOUND:                -1.264
REMARK SMILES CC(=O)CCC=C(C)CCC=C(C)C
REMARK SMILES IDX 7 1 6 2 8 3 9 4 10 5 11 6 13 7 12 8 14 9 5 10 4 11 2 12 3 13
REMARK SMILES IDX 1 14
REMARK H PARENT
REMARK Flexibility Score: inf
ROOT
ATOM      1  C   UNL     1      87.784  30.982  65.581  1.00  0.00    -0.077 C 
ATOM      2  C   UNL     1      87.080  32.092  65.263  1.00  0.00    -0.028 C 
ATOM      3  C   UNL     1      88.677  31.027  66.794  1.00  0.00     0.039 C 
ENDROOT
BRANCH   1   4
ATOM      4  C   UNL     1      87.663  29.679  64.818  1.00  0.00     0.034 C 
BRANCH   4   5
ATOM      5  C   UNL     1      89.014  28.958  64.765  1.00  0.00     0.032 C 
BRANCH   5   6
ATOM      6  C   UNL     1      89.125  28.123  63.514  1.00  0.00    -0.028 C 
ATOM      7  C   UNL     1      88.473  26.002  64.676  1.00  0.00     0.039 C 
ATOM      8  C   UNL     1      88.909  26.790  63.462  1.00  0.00    -0.080 C 
ATOM      9  C   UNL     1      89.097  26.082  62.146  1.00  0.00     0.039 C 
ENDBRANCH   5   6
ENDBRANCH   4   5
ENDBRANCH   1   4
BRANCH   2  10
ATOM     10  C   UNL     1      86.161  32.221  64.071  1.00  0.00     0.035 C 
BRANCH  10  11
ATOM     11  C   UNL     1      84.745  32.638  64.490  1.00  0.00     0.079 C 
BRANCH  11  12
ATOM     12  C   UNL     1      84.018  31.514  65.183  1.00  0.00     0.130 C 
ATOM     13  O   UNL     1      83.525  31.705  66.285  1.00  0.00    -0.300 OA
ATOM     14  C   UNL     1      83.889  30.161  64.549  1.00  0.00     0.087 C 
ENDBRANCH  11  12
ENDBRANCH  10  11
ENDBRANCH   2  10
TORSDOF 6
ENDMDL
MODEL 7
REMARK VINA RESULT:    -3.507     15.271     16.918
REMARK INTER + INTRA:          -6.002
REMARK INTER:                  -5.487
REMARK INTRA:                  -0.515
REMARK UNBOUND:                -1.264
REMARK SMILES CC(=O)CCC=C(C)CCC=C(C)C
REMARK SMILES IDX 7 1 6 2 8 3 9 4 10 5 11 6 13 7 12 8 14 9 5 10 4 11 2 12 3 13
REMARK SMILES IDX 1 14
REMARK H PARENT
REMARK Flexibility Score: inf
ROOT
ATOM      1  C   UNL     1      75.295  35.188  52.447  1.00  0.00    -0.077 C 
ATOM      2  C   UNL     1      76.465  35.632  51.935  1.00  0.00    -0.028 C 
ATOM      3  C   UNL     1      74.115  36.125  52.446  1.00  0.00     0.039 C 
ENDROOT
BRANCH   1   4
ATOM      4  C   UNL     1      75.098  33.774  52.954  1.00  0.00     0.034 C 
BRANCH   4   5
ATOM      5  C   UNL     1      73.716  33.622  53.600  1.00  0.00     0.032 C 
BRANCH   5   6
ATOM      6  C   UNL     1      73.841  33.120  55.017  1.00  0.00    -0.028 C 
ATOM      7  C   UNL     1      72.001  34.588  55.871  1.00  0.00     0.039 C 
ATOM      8  C   UNL     1      73.095  33.562  56.053  1.00  0.00    -0.080 C 
ATOM      9  C   UNL     1      73.361  32.995  57.423  1.00  0.00     0.039 C 
ENDBRANCH   5   6
ENDBRANCH   4   5
ENDBRANCH   1   4
BRANCH   2  10
ATOM     10  C   UNL     1      77.745  34.832  51.882  1.00  0.00     0.035 C 
BRANCH  10  11
ATOM     11  C   UNL     1      78.875  35.615  51.200  1.00  0.00     0.079 C 
BRANCH  11  12
ATOM     12  C   UNL     1      80.105  34.765  51.013  1.00  0.00     0.130 C 
ATOM     13  O   UNL     1      80.815  34.939  50.034  1.00  0.00    -0.300 OA
ATOM     14  C   UNL     1      80.477  33.703  52.005  1.00  0.00     0.087 C 
ENDBRANCH  11  12
ENDBRANCH  10  11
ENDBRANCH   2  10
TORSDOF 6
ENDMDL
MODEL 8
REMARK VINA RESULT:    -2.981     15.619     17.487
REMARK INTER + INTRA:          -5.291
REMARK INTER:                  -4.751
REMARK INTRA:                  -0.540
REMARK UNBOUND:                -1.264
REMARK SMILES CC(=O)CCC=C(C)CCC=C(C)C
REMARK SMILES IDX 7 1 6 2 8 3 9 4 10 5 11 6 13 7 12 8 14 9 5 10 4 11 2 12 3 13
REMARK SMILES IDX 1 14
REMARK H PARENT
REMARK Flexibility Score: inf
ROOT
ATOM      1  C   UNL     1      77.404  36.061  51.404  1.00  0.00    -0.077 C 
ATOM      2  C   UNL     1      76.082  36.022  51.688  1.00  0.00    -0.028 C 
ATOM      3  C   UNL     1      77.822  36.125  49.957  1.00  0.00     0.039 C 
ENDROOT
BRANCH   1   4
ATOM      4  C   UNL     1      78.478  36.116  52.471  1.00  0.00     0.034 C 
BRANCH   4   5
ATOM      5  C   UNL     1      79.871  36.121  51.834  1.00  0.00     0.032 C 
BRANCH   5   6
ATOM      6  C   UNL     1      80.530  34.772  51.979  1.00  0.00    -0.028 C 
ATOM      7  C   UNL     1      80.862  34.488  49.513  1.00  0.00     0.039 C 
ATOM      8  C   UNL     1      80.958  34.015  50.945  1.00  0.00    -0.080 C 
ATOM      9  C   UNL     1      81.562  32.668  51.242  1.00  0.00     0.039 C 
ENDBRANCH   5   6
ENDBRANCH   4   5
ENDBRANCH   1   4
BRANCH   2  10
ATOM     10  C   UNL     1      75.499  35.933  53.078  1.00  0.00     0.035 C 
BRANCH  10  11
ATOM     11  C   UNL     1      74.372  34.895  53.153  1.00  0.00     0.079 C 
BRANCH  11  12
ATOM     12  C   UNL     1      73.695  34.907  54.500  1.00  0.00     0.130 C 
ATOM     13  O   UNL     1      73.747  35.914  55.191  1.00  0.00    -0.300 OA
ATOM     14  C   UNL     1      72.960  33.705  55.014  1.00  0.00     0.087 C 
ENDBRANCH  11  12
ENDBRANCH  10  11
ENDBRANCH   2  10
TORSDOF 6
ENDMDL
