MODEL 1
REMARK VINA RESULT:    -5.111      0.000      0.000
REMARK INTER + INTRA:          -7.395
REMARK INTER:                  -6.904
REMARK INTRA:                  -0.491
REMARK UNBOUND:                -0.491
REMARK SMILES COc1ccc(-c2cc(=O)c3c(OC)c(OC)c(OC)c(OC)c3o2)cc1
REMARK SMILES IDX 7 1 8 2 9 3 10 4 11 5 24 6 25 7 21 8 18 9 15 10 12 11 6 12
REMARK SMILES IDX 3 13 4 14 27 15 5 16 26 17 2 18 1 19 22 20 23 21 13 22 14 23
REMARK SMILES IDX 19 24 20 25 16 26 17 27
REMARK H PARENT
REMARK Flexibility Score: inf
ROOT
ATOM      1  C   UNL     1       3.902   9.210  17.641  1.00  0.00     0.138 A 
ATOM      2  C   UNL     1       2.883   8.259  17.512  1.00  0.00     0.100 A 
ATOM      3  C   UNL     1       2.679   7.335  18.532  1.00  0.00     0.197 A 
ATOM      4  O   UNL     1       1.755   6.487  18.403  1.00  0.00    -0.289 OA
ATOM      5  C   UNL     1       3.498   7.368  19.681  1.00  0.00     0.115 A 
ATOM      6  C   UNL     1       4.524   8.345  19.737  1.00  0.00     0.188 A 
ATOM      7  O   UNL     1       4.670   9.202  18.728  1.00  0.00    -0.452 OA
ATOM      8  C   UNL     1       5.385   8.416  20.863  1.00  0.00     0.209 A 
ATOM      9  C   UNL     1       5.172   7.535  21.953  1.00  0.00     0.211 A 
ATOM     10  C   UNL     1       4.136   6.593  21.902  1.00  0.00     0.208 A 
ATOM     11  C   UNL     1       3.340   6.462  20.750  1.00  0.00     0.179 A 
ENDROOT
BRANCH   1  12
ATOM     12  C   UNL     1       4.151  10.224  16.588  1.00  0.00     0.018 A 
ATOM     13  C   UNL     1       4.621  12.197  14.622  1.00  0.00     0.118 A 
ATOM     14  C   UNL     1       5.072  12.380  15.933  1.00  0.00     0.047 A 
ATOM     15  C   UNL     1       3.923  11.019  14.296  1.00  0.00     0.047 A 
ATOM     16  C   UNL     1       4.838  11.407  16.908  1.00  0.00     0.016 A 
ATOM     17  C   UNL     1       3.688  10.045  15.271  1.00  0.00     0.016 A 
BRANCH  13  18
ATOM     18  O   UNL     1       4.883  13.203  13.679  1.00  0.00    -0.497 OA
ATOM     19  C   UNL     1       6.164  13.784  13.460  1.00  0.00     0.278 C 
ENDBRANCH  13  18
ENDBRANCH   1  12
BRANCH   8  20
ATOM     20  O   UNL     1       6.440   9.345  20.950  1.00  0.00    -0.490 OA
ATOM     21  C   UNL     1       7.769   9.181  20.473  1.00  0.00     0.278 C 
ENDBRANCH   8  20
BRANCH  11  22
ATOM     22  O   UNL     1       2.403   5.426  20.656  1.00  0.00    -0.492 OA
ATOM     23  C   UNL     1       2.747   4.139  20.154  1.00  0.00     0.278 C 
ENDBRANCH  11  22
BRANCH   9  24
ATOM     24  O   UNL     1       5.946   7.542  23.131  1.00  0.00    -0.490 OA
ATOM     25  C   UNL     1       7.228   6.954  23.321  1.00  0.00     0.279 C 
ENDBRANCH   9  24
BRANCH  10  26
ATOM     26  O   UNL     1       3.921   5.794  23.031  1.00  0.00    -0.490 OA
ATOM     27  C   UNL     1       3.081   6.193  24.110  1.00  0.00     0.278 C 
ENDBRANCH  10  26
TORSDOF 6
ENDMDL
MODEL 2
REMARK VINA RESULT:    -4.616      3.584      5.181
REMARK INTER + INTRA:          -6.726
REMARK INTER:                  -6.414
REMARK INTRA:                  -0.313
REMARK UNBOUND:                -0.491
REMARK SMILES COc1ccc(-c2cc(=O)c3c(OC)c(OC)c(OC)c(OC)c3o2)cc1
REMARK SMILES IDX 7 1 8 2 9 3 10 4 11 5 24 6 25 7 21 8 18 9 15 10 12 11 6 12
REMARK SMILES IDX 3 13 4 14 27 15 5 16 26 17 2 18 1 19 22 20 23 21 13 22 14 23
REMARK SMILES IDX 19 24 20 25 16 26 17 27
REMARK H PARENT
REMARK Flexibility Score: inf
ROOT
ATOM      1  C   UNL     1       3.727  11.341  16.674  1.00  0.00     0.138 A 
ATOM      2  C   UNL     1       3.594  10.845  15.372  1.00  0.00     0.100 A 
ATOM      3  C   UNL     1       4.245   9.666  15.022  1.00  0.00     0.197 A 
ATOM      4  O   UNL     1       4.114   9.230  13.847  1.00  0.00    -0.289 OA
ATOM      5  C   UNL     1       5.026   8.986  15.981  1.00  0.00     0.115 A 
ATOM      6  C   UNL     1       5.132   9.555  17.275  1.00  0.00     0.188 A 
ATOM      7  O   UNL     1       4.487  10.687  17.549  1.00  0.00    -0.452 OA
ATOM      8  C   UNL     1       5.914   8.920  18.275  1.00  0.00     0.209 A 
ATOM      9  C   UNL     1       6.543   7.684  17.980  1.00  0.00     0.211 A 
ATOM     10  C   UNL     1       6.406   7.113  16.708  1.00  0.00     0.208 A 
ATOM     11  C   UNL     1       5.706   7.785  15.689  1.00  0.00     0.179 A 
ENDROOT
BRANCH   1  12
ATOM     12  C   UNL     1       3.043  12.587  17.100  1.00  0.00     0.018 A 
ATOM     13  C   UNL     1       1.716  14.929  17.954  1.00  0.00     0.118 A 
ATOM     14  C   UNL     1       2.105  13.957  18.880  1.00  0.00     0.047 A 
ATOM     15  C   UNL     1       1.988  14.723  16.589  1.00  0.00     0.047 A 
ATOM     16  C   UNL     1       2.759  12.796  18.460  1.00  0.00     0.016 A 
ATOM     17  C   UNL     1       2.642  13.561  16.167  1.00  0.00     0.016 A 
BRANCH  13  18
ATOM     18  O   UNL     1       1.065  16.079  18.426  1.00  0.00    -0.497 OA
ATOM     19  C   UNL     1      -0.350  16.240  18.468  1.00  0.00     0.278 C 
ENDBRANCH  13  18
ENDBRANCH   1  12
BRANCH   8  20
ATOM     20  O   UNL     1       6.079   9.464  19.563  1.00  0.00    -0.490 OA
ATOM     21  C   UNL     1       5.252   9.245  20.699  1.00  0.00     0.278 C 
ENDBRANCH   8  20
BRANCH  11  22
ATOM     22  O   UNL     1       5.697   7.275  14.386  1.00  0.00    -0.492 OA
ATOM     23  C   UNL     1       6.821   7.390  13.521  1.00  0.00     0.278 C 
ENDBRANCH  11  22
BRANCH   9  24
ATOM     24  O   UNL     1       7.313   6.954  18.907  1.00  0.00    -0.490 OA
ATOM     25  C   UNL     1       8.456   7.410  19.622  1.00  0.00     0.279 C 
ENDBRANCH   9  24
BRANCH  10  26
ATOM     26  O   UNL     1       6.985   5.858  16.487  1.00  0.00    -0.490 OA
ATOM     27  C   UNL     1       8.315   5.696  16.001  1.00  0.00     0.278 C 
ENDBRANCH  10  26
TORSDOF 6
ENDMDL
MODEL 3
REMARK VINA RESULT:    -4.492      3.846      6.142
REMARK INTER + INTRA:          -6.558
REMARK INTER:                  -6.061
REMARK INTRA:                  -0.497
REMARK UNBOUND:                -0.491
REMARK SMILES COc1ccc(-c2cc(=O)c3c(OC)c(OC)c(OC)c(OC)c3o2)cc1
REMARK SMILES IDX 7 1 8 2 9 3 10 4 11 5 24 6 25 7 21 8 18 9 15 10 12 11 6 12
REMARK SMILES IDX 3 13 4 14 27 15 5 16 26 17 2 18 1 19 22 20 23 21 13 22 14 23
REMARK SMILES IDX 19 24 20 25 16 26 17 27
REMARK H PARENT
REMARK Flexibility Score: inf
ROOT
ATOM      1  C   UNL     1       4.175  11.813  17.746  1.00  0.00     0.138 A 
ATOM      2  C   UNL     1       5.088  11.678  18.798  1.00  0.00     0.100 A 
ATOM      3  C   UNL     1       6.019  10.645  18.765  1.00  0.00     0.197 A 
ATOM      4  O   UNL     1       6.837  10.538  19.717  1.00  0.00    -0.289 OA
ATOM      5  C   UNL     1       6.033   9.750  17.673  1.00  0.00     0.115 A 
ATOM      6  C   UNL     1       5.067   9.933  16.652  1.00  0.00     0.188 A 
ATOM      7  O   UNL     1       4.200  10.940  16.742  1.00  0.00    -0.452 OA
ATOM      8  C   UNL     1       5.027   9.055  15.538  1.00  0.00     0.209 A 
ATOM      9  C   UNL     1       5.998   8.027  15.432  1.00  0.00     0.211 A 
ATOM     10  C   UNL     1       6.969   7.873  16.431  1.00  0.00     0.208 A 
ATOM     11  C   UNL     1       6.954   8.685  17.579  1.00  0.00     0.179 A 
ENDROOT
BRANCH   1  12
ATOM     12  C   UNL     1       3.171  12.905  17.729  1.00  0.00     0.018 A 
ATOM     13  C   UNL     1       1.234  14.960  17.741  1.00  0.00     0.118 A 
ATOM     14  C   UNL     1       1.636  14.357  18.937  1.00  0.00     0.047 A 
ATOM     15  C   UNL     1       1.802  14.525  16.530  1.00  0.00     0.047 A 
ATOM     16  C   UNL     1       2.592  13.338  18.933  1.00  0.00     0.016 A 
ATOM     17  C   UNL     1       2.758  13.505  16.524  1.00  0.00     0.016 A 
BRANCH  13  18
ATOM     18  O   UNL     1       0.273  15.981  17.799  1.00  0.00    -0.497 OA
ATOM     19  C   UNL     1      -0.954  15.890  18.517  1.00  0.00     0.278 C 
ENDBRANCH  13  18
ENDBRANCH   1  12
BRANCH   8  20
ATOM     20  O   UNL     1       4.066   9.174  14.516  1.00  0.00    -0.490 OA
ATOM     21  C   UNL     1       4.128  10.017  13.372  1.00  0.00     0.278 C 
ENDBRANCH   8  20
BRANCH  11  22
ATOM     22  O   UNL     1       7.838   8.430  18.633  1.00  0.00    -0.492 OA
ATOM     23  C   UNL     1       7.602   7.399  19.586  1.00  0.00     0.278 C 
ENDBRANCH  11  22
BRANCH   9  24
ATOM     24  O   UNL     1       6.070   7.123  14.353  1.00  0.00    -0.490 OA
ATOM     25  C   UNL     1       6.762   7.308  13.123  1.00  0.00     0.279 C 
ENDBRANCH   9  24
BRANCH  10  26
ATOM     26  O   UNL     1       7.949   6.890  16.247  1.00  0.00    -0.490 OA
ATOM     27  C   UNL     1       7.727   5.515  16.544  1.00  0.00     0.278 C 
ENDBRANCH  10  26
TORSDOF 6
ENDMDL
MODEL 4
REMARK VINA RESULT:    -3.525      2.568      7.789
REMARK INTER + INTRA:          -5.253
REMARK INTER:                  -4.832
REMARK INTRA:                  -0.421
REMARK UNBOUND:                -0.491
REMARK SMILES COc1ccc(-c2cc(=O)c3c(OC)c(OC)c(OC)c(OC)c3o2)cc1
REMARK SMILES IDX 7 1 8 2 9 3 10 4 11 5 24 6 25 7 21 8 18 9 15 10 12 11 6 12
REMARK SMILES IDX 3 13 4 14 27 15 5 16 26 17 2 18 1 19 22 20 23 21 13 22 14 23
REMARK SMILES IDX 19 24 20 25 16 26 17 27
REMARK H PARENT
REMARK Flexibility Score: inf
ROOT
ATOM      1  C   UNL     1       5.330   9.190  19.029  1.00  0.00     0.138 A 
ATOM      2  C   UNL     1       4.442  10.267  18.935  1.00  0.00     0.100 A 
ATOM      3  C   UNL     1       3.960  10.648  17.687  1.00  0.00     0.197 A 
ATOM      4  O   UNL     1       3.159  11.618  17.618  1.00  0.00    -0.289 OA
ATOM      5  C   UNL     1       4.370   9.943  16.534  1.00  0.00     0.115 A 
ATOM      6  C   UNL     1       5.287   8.875  16.700  1.00  0.00     0.188 A 
ATOM      7  O   UNL     1       5.713   8.560  17.921  1.00  0.00    -0.452 OA
ATOM      8  C   UNL     1       5.743   8.141  15.573  1.00  0.00     0.209 A 
ATOM      9  C   UNL     1       5.229   8.454  14.290  1.00  0.00     0.211 A 
ATOM     10  C   UNL     1       4.299   9.492  14.140  1.00  0.00     0.208 A 
ATOM     11  C   UNL     1       3.916  10.278  15.241  1.00  0.00     0.179 A 
ENDROOT
BRANCH   1  12
ATOM     12  C   UNL     1       5.862   8.737  20.338  1.00  0.00     0.018 A 
ATOM     13  C   UNL     1       6.924   7.866  22.805  1.00  0.00     0.118 A 
ATOM     14  C   UNL     1       7.742   8.500  21.866  1.00  0.00     0.047 A 
ATOM     15  C   UNL     1       5.565   7.660  22.503  1.00  0.00     0.047 A 
ATOM     16  C   UNL     1       7.220   8.930  20.643  1.00  0.00     0.016 A 
ATOM     17  C   UNL     1       5.041   8.089  21.280  1.00  0.00     0.016 A 
BRANCH  13  18
ATOM     18  O   UNL     1       7.496   7.455  24.019  1.00  0.00    -0.497 OA
ATOM     19  C   UNL     1       8.682   6.675  24.125  1.00  0.00     0.278 C 
ENDBRANCH  13  18
ENDBRANCH   1  12
BRANCH   8  20
ATOM     20  O   UNL     1       6.679   7.095  15.682  1.00  0.00    -0.490 OA
ATOM     21  C   UNL     1       6.407   5.724  15.944  1.00  0.00     0.278 C 
ENDBRANCH   8  20
BRANCH  11  22
ATOM     22  O   UNL     1       3.098  11.399  15.055  1.00  0.00    -0.492 OA
ATOM     23  C   UNL     1       3.587  12.605  14.480  1.00  0.00     0.278 C 
ENDBRANCH  11  22
BRANCH   9  24
ATOM     24  O   UNL     1       5.587   7.768  13.112  1.00  0.00    -0.490 OA
ATOM     25  C   UNL     1       6.903   7.484  12.650  1.00  0.00     0.279 C 
ENDBRANCH   9  24
BRANCH  10  26
ATOM     26  O   UNL     1       3.767   9.716  12.864  1.00  0.00    -0.490 OA
ATOM     27  C   UNL     1       2.513   9.185  12.447  1.00  0.00     0.278 C 
ENDBRANCH  10  26
TORSDOF 6
ENDMDL
MODEL 5
REMARK VINA RESULT:    -3.448      0.916      3.470
REMARK INTER + INTRA:          -5.148
REMARK INTER:                  -4.949
REMARK INTRA:                  -0.199
REMARK UNBOUND:                -0.491
REMARK SMILES COc1ccc(-c2cc(=O)c3c(OC)c(OC)c(OC)c(OC)c3o2)cc1
REMARK SMILES IDX 7 1 8 2 9 3 10 4 11 5 24 6 25 7 21 8 18 9 15 10 12 11 6 12
REMARK SMILES IDX 3 13 4 14 27 15 5 16 26 17 2 18 1 19 22 20 23 21 13 22 14 23
REMARK SMILES IDX 19 24 20 25 16 26 17 27
REMARK H PARENT
REMARK Flexibility Score: inf
ROOT
ATOM      1  C   UNL     1       4.829   9.904  18.317  1.00  0.00     0.138 A 
ATOM      2  C   UNL     1       5.622  10.218  19.427  1.00  0.00     0.100 A 
ATOM      3  C   UNL     1       5.548   9.419  20.564  1.00  0.00     0.197 A 
ATOM      4  O   UNL     1       6.270   9.711  21.555  1.00  0.00    -0.289 OA
ATOM      5  C   UNL     1       4.681   8.305  20.582  1.00  0.00     0.115 A 
ATOM      6  C   UNL     1       3.893   8.058  19.430  1.00  0.00     0.188 A 
ATOM      7  O   UNL     1       4.007   8.860  18.373  1.00  0.00    -0.452 OA
ATOM      8  C   UNL     1       2.995   6.959  19.399  1.00  0.00     0.209 A 
ATOM      9  C   UNL     1       2.935   6.083  20.512  1.00  0.00     0.211 A 
ATOM     10  C   UNL     1       3.741   6.317  21.634  1.00  0.00     0.208 A 
ATOM     11  C   UNL     1       4.565   7.455  21.702  1.00  0.00     0.179 A 
ENDROOT
BRANCH   1  12
ATOM     12  C   UNL     1       4.880  10.717  17.076  1.00  0.00     0.018 A 
ATOM     13  C   UNL     1       4.988  12.312  14.748  1.00  0.00     0.118 A 
ATOM     14  C   UNL     1       5.768  12.632  15.863  1.00  0.00     0.047 A 
ATOM     15  C   UNL     1       4.143  11.188  14.803  1.00  0.00     0.047 A 
ATOM     16  C   UNL     1       5.714  11.846  17.018  1.00  0.00     0.016 A 
ATOM     17  C   UNL     1       4.088  10.401  15.957  1.00  0.00     0.016 A 
BRANCH  13  18
ATOM     18  O   UNL     1       5.079  13.131  13.612  1.00  0.00    -0.497 OA
ATOM     19  C   UNL     1       6.262  13.813  13.207  1.00  0.00     0.278 C 
ENDBRANCH  13  18
ENDBRANCH   1  12
BRANCH   8  20
ATOM     20  O   UNL     1       2.167   6.693  18.292  1.00  0.00    -0.490 OA
ATOM     21  C   UNL     1       0.821   7.114  18.106  1.00  0.00     0.278 C 
ENDBRANCH   8  20
BRANCH  11  22
ATOM     22  O   UNL     1       5.255   7.754  22.883  1.00  0.00    -0.492 OA
ATOM     23  C   UNL     1       6.447   7.072  23.255  1.00  0.00     0.278 C 
ENDBRANCH  11  22
BRANCH   9  24
ATOM     24  O   UNL     1       2.105   4.945  20.572  1.00  0.00    -0.490 OA
ATOM     25  C   UNL     1       2.031   3.886  19.624  1.00  0.00     0.279 C 
ENDBRANCH   9  24
BRANCH  10  26
ATOM     26  O   UNL     1       3.700   5.385  22.677  1.00  0.00    -0.490 OA
ATOM     27  C   UNL     1       3.128   5.675  23.949  1.00  0.00     0.278 C 
ENDBRANCH  10  26
TORSDOF 6
ENDMDL
MODEL 6
REMARK VINA RESULT:    -3.334      3.690      5.776
REMARK INTER + INTRA:          -4.994
REMARK INTER:                  -4.596
REMARK INTRA:                  -0.398
REMARK UNBOUND:                -0.491
REMARK SMILES COc1ccc(-c2cc(=O)c3c(OC)c(OC)c(OC)c(OC)c3o2)cc1
REMARK SMILES IDX 7 1 8 2 9 3 10 4 11 5 24 6 25 7 21 8 18 9 15 10 12 11 6 12
REMARK SMILES IDX 3 13 4 14 27 15 5 16 26 17 2 18 1 19 22 20 23 21 13 22 14 23
REMARK SMILES IDX 19 24 20 25 16 26 17 27
REMARK H PARENT
REMARK Flexibility Score: inf
ROOT
ATOM      1  C   UNL     1       3.753  11.745  17.452  1.00  0.00     0.138 A 
ATOM      2  C   UNL     1       5.150  11.825  17.491  1.00  0.00     0.100 A 
ATOM      3  C   UNL     1       5.903  10.662  17.362  1.00  0.00     0.197 A 
ATOM      4  O   UNL     1       7.160  10.750  17.396  1.00  0.00    -0.289 OA
ATOM      5  C   UNL     1       5.251   9.421  17.191  1.00  0.00     0.115 A 
ATOM      6  C   UNL     1       3.834   9.412  17.181  1.00  0.00     0.188 A 
ATOM      7  O   UNL     1       3.169  10.558  17.311  1.00  0.00    -0.452 OA
ATOM      8  C   UNL     1       3.127   8.191  17.025  1.00  0.00     0.209 A 
ATOM      9  C   UNL     1       3.856   6.991  16.826  1.00  0.00     0.211 A 
ATOM     10  C   UNL     1       5.256   7.014  16.807  1.00  0.00     0.208 A 
ATOM     11  C   UNL     1       5.958   8.209  17.051  1.00  0.00     0.179 A 
ENDROOT
BRANCH   1  12
ATOM     12  C   UNL     1       2.906  12.957  17.573  1.00  0.00     0.018 A 
ATOM     13  C   UNL     1       1.267  15.241  17.848  1.00  0.00     0.118 A 
ATOM     14  C   UNL     1       1.653  14.505  18.973  1.00  0.00     0.047 A 
ATOM     15  C   UNL     1       1.701  14.825  16.576  1.00  0.00     0.047 A 
ATOM     16  C   UNL     1       2.461  13.374  18.839  1.00  0.00     0.016 A 
ATOM     17  C   UNL     1       2.509  13.692  16.440  1.00  0.00     0.016 A 
BRANCH  13  18
ATOM     18  O   UNL     1       0.457  16.371  18.035  1.00  0.00    -0.497 OA
ATOM     19  C   UNL     1      -0.898  16.325  18.470  1.00  0.00     0.278 C 
ENDBRANCH  13  18
ENDBRANCH   1  12
BRANCH   8  20
ATOM     20  O   UNL     1       1.721   8.125  17.042  1.00  0.00    -0.490 OA
ATOM     21  C   UNL     1       0.888   7.860  18.164  1.00  0.00     0.278 C 
ENDBRANCH   8  20
BRANCH  11  22
ATOM     22  O   UNL     1       7.353   8.194  17.171  1.00  0.00    -0.492 OA
ATOM     23  C   UNL     1       8.007   7.711  18.339  1.00  0.00     0.278 C 
ENDBRANCH  11  22
BRANCH   9  24
ATOM     24  O   UNL     1       3.255   5.731  16.628  1.00  0.00    -0.490 OA
ATOM     25  C   UNL     1       2.653   4.901  17.616  1.00  0.00     0.279 C 
ENDBRANCH   9  24
BRANCH  10  26
ATOM     26  O   UNL     1       5.929   5.817  16.536  1.00  0.00    -0.490 OA
ATOM     27  C   UNL     1       6.794   5.654  15.416  1.00  0.00     0.278 C 
ENDBRANCH  10  26
TORSDOF 6
ENDMDL
MODEL 7
REMARK VINA RESULT:    -3.062      2.432      7.757
REMARK INTER + INTRA:          -4.627
REMARK INTER:                  -4.520
REMARK INTRA:                  -0.107
REMARK UNBOUND:                -0.491
REMARK SMILES COc1ccc(-c2cc(=O)c3c(OC)c(OC)c(OC)c(OC)c3o2)cc1
REMARK SMILES IDX 7 1 8 2 9 3 10 4 11 5 24 6 25 7 21 8 18 9 15 10 12 11 6 12
REMARK SMILES IDX 3 13 4 14 27 15 5 16 26 17 2 18 1 19 22 20 23 21 13 22 14 23
REMARK SMILES IDX 19 24 20 25 16 26 17 27
REMARK H PARENT
REMARK Flexibility Score: inf
ROOT
ATOM      1  C   UNL     1       5.506   8.041  18.169  1.00  0.00     0.138 A 
ATOM      2  C   UNL     1       5.502   6.984  17.250  1.00  0.00     0.100 A 
ATOM      3  C   UNL     1       5.120   7.227  15.934  1.00  0.00     0.197 A 
ATOM      4  O   UNL     1       5.124   6.267  15.118  1.00  0.00    -0.289 OA
ATOM      5  C   UNL     1       4.747   8.531  15.543  1.00  0.00     0.115 A 
ATOM      6  C   UNL     1       4.756   9.549  16.529  1.00  0.00     0.188 A 
ATOM      7  O   UNL     1       5.129   9.254  17.773  1.00  0.00    -0.452 OA
ATOM      8  C   UNL     1       4.378  10.875  16.193  1.00  0.00     0.209 A 
ATOM      9  C   UNL     1       4.043  11.180  14.850  1.00  0.00     0.211 A 
ATOM     10  C   UNL     1       4.067  10.173  13.875  1.00  0.00     0.208 A 
ATOM     11  C   UNL     1       4.355   8.841  14.224  1.00  0.00     0.179 A 
ENDROOT
BRANCH   1  12
ATOM     12  C   UNL     1       5.917   7.836  19.580  1.00  0.00     0.018 A 
ATOM     13  C   UNL     1       6.649   7.471  22.283  1.00  0.00     0.118 A 
ATOM     14  C   UNL     1       5.305   7.421  21.899  1.00  0.00     0.047 A 
ATOM     15  C   UNL     1       7.632   7.712  21.306  1.00  0.00     0.047 A 
ATOM     16  C   UNL     1       4.940   7.604  20.563  1.00  0.00     0.016 A 
ATOM     17  C   UNL     1       7.268   7.897  19.968  1.00  0.00     0.016 A 
BRANCH  13  18
ATOM     18  O   UNL     1       6.964   7.278  23.637  1.00  0.00    -0.497 OA
ATOM     19  C   UNL     1       8.270   6.988  24.124  1.00  0.00     0.278 C 
ENDBRANCH  13  18
ENDBRANCH   1  12
BRANCH   8  20
ATOM     20  O   UNL     1       4.337  11.912  17.145  1.00  0.00    -0.490 OA
ATOM     21  C   UNL     1       3.461  12.020  18.259  1.00  0.00     0.278 C 
ENDBRANCH   8  20
BRANCH  11  22
ATOM     22  O   UNL     1       4.237   7.823  13.271  1.00  0.00    -0.492 OA
ATOM     23  C   UNL     1       3.009   7.139  13.043  1.00  0.00     0.278 C 
ENDBRANCH  11  22
BRANCH   9  24
ATOM     24  O   UNL     1       3.687  12.468  14.402  1.00  0.00    -0.490 OA
ATOM     25  C   UNL     1       2.619  13.278  14.881  1.00  0.00     0.279 C 
ENDBRANCH   9  24
BRANCH  10  26
ATOM     26  O   UNL     1       3.799  10.538  12.550  1.00  0.00    -0.490 OA
ATOM     27  C   UNL     1       2.520  10.368  11.947  1.00  0.00     0.278 C 
ENDBRANCH  10  26
TORSDOF 6
ENDMDL
