MODEL 1
REMARK VINA RESULT:    -3.676      0.000      0.000
REMARK INTER + INTRA:          -5.208
REMARK INTER:                  -4.965
REMARK INTRA:                  -0.243
REMARK UNBOUND:                -0.243
REMARK SMILES CCCCCCCC(=O)[O-]
REMARK SMILES IDX 5 1 6 2 7 3 8 4 9 5 10 6 4 7 3 8 2 9 1 10
REMARK H PARENT
REMARK Flexibility Score: inf
ROOT
ATOM      1  C   UNL     1      -1.356  -2.783   5.513  1.00  0.00     0.000 C 
ENDROOT
BRANCH   1   2
ATOM      2  C   UNL     1      -0.026  -2.374   6.170  1.00  0.00     0.006 C 
BRANCH   2   3
ATOM      3  C   UNL     1       0.758  -1.372   5.314  1.00  0.00     0.053 C 
BRANCH   3   4
ATOM      4  C   UNL     1       2.238  -1.538   5.480  1.00  0.00     0.041 C 
ATOM      5  O   UNL     1       2.837  -0.967   6.429  1.00  0.00    -0.550 OA
ATOM      6  O   UNL     1       2.960  -2.293   4.566  1.00  0.00    -0.550 OA
ENDBRANCH   3   4
ENDBRANCH   2   3
ENDBRANCH   1   2
BRANCH   1   7
ATOM      7  C   UNL     1      -1.758  -1.853   4.356  1.00  0.00     0.000 C 
BRANCH   7   8
ATOM      8  C   UNL     1      -3.164  -2.162   3.814  1.00  0.00    -0.000 C 
BRANCH   8   9
ATOM      9  C   UNL     1      -4.162  -1.026   4.088  1.00  0.00    -0.003 C 
ATOM     10  C   UNL     1      -4.755  -1.083   5.495  1.00  0.00     0.004 C 
ENDBRANCH   8   9
ENDBRANCH   7   8
ENDBRANCH   1   7
TORSDOF 6
ENDMDL
MODEL 2
REMARK VINA RESULT:    -3.611      6.316      7.637
REMARK INTER + INTRA:          -5.121
REMARK INTER:                  -4.921
REMARK INTRA:                  -0.200
REMARK UNBOUND:                -0.243
REMARK SMILES CCCCCCCC(=O)[O-]
REMARK SMILES IDX 5 1 6 2 7 3 8 4 9 5 10 6 4 7 3 8 2 9 1 10
REMARK H PARENT
REMARK Flexibility Score: inf
ROOT
ATOM      1  C   UNL     1       0.098   4.358   8.351  1.00  0.00     0.000 C 
ENDROOT
BRANCH   1   2
ATOM      2  C   UNL     1       0.401   4.951   6.964  1.00  0.00     0.006 C 
BRANCH   2   3
ATOM      3  C   UNL     1      -0.725   5.866   6.468  1.00  0.00     0.053 C 
BRANCH   3   4
ATOM      4  C   UNL     1      -0.590   6.171   5.006  1.00  0.00     0.041 C 
ATOM      5  O   UNL     1      -1.035   7.253   4.541  1.00  0.00    -0.550 OA
ATOM      6  O   UNL     1      -0.004   5.245   4.154  1.00  0.00    -0.550 OA
ENDBRANCH   3   4
ENDBRANCH   2   3
ENDBRANCH   1   2
BRANCH   1   7
ATOM      7  C   UNL     1       0.679   2.946   8.534  1.00  0.00     0.000 C 
BRANCH   7   8
ATOM      8  C   UNL     1       1.287   2.387   7.235  1.00  0.00    -0.000 C 
BRANCH   8   9
ATOM      9  C   UNL     1       1.886   0.984   7.424  1.00  0.00    -0.003 C 
ATOM     10  C   UNL     1       1.567   0.041   6.265  1.00  0.00     0.004 C 
ENDBRANCH   8   9
ENDBRANCH   7   8
ENDBRANCH   1   7
TORSDOF 6
ENDMDL
MODEL 3
REMARK VINA RESULT:    -3.604      0.914      1.428
REMARK INTER + INTRA:          -5.111
REMARK INTER:                  -4.900
REMARK INTRA:                  -0.211
REMARK UNBOUND:                -0.243
REMARK SMILES CCCCCCCC(=O)[O-]
REMARK SMILES IDX 5 1 6 2 7 3 8 4 9 5 10 6 4 7 3 8 2 9 1 10
REMARK H PARENT
REMARK Flexibility Score: inf
ROOT
ATOM      1  C   UNL     1      -2.342  -2.198   5.059  1.00  0.00     0.000 C 
ENDROOT
BRANCH   1   2
ATOM      2  C   UNL     1      -0.853  -2.447   4.765  1.00  0.00     0.006 C 
BRANCH   2   3
ATOM      3  C   UNL     1       0.037  -2.132   5.974  1.00  0.00     0.053 C 
BRANCH   3   4
ATOM      4  C   UNL     1       1.300  -1.435   5.568  1.00  0.00     0.041 C 
ATOM      5  O   UNL     1       1.503  -0.241   5.913  1.00  0.00    -0.550 OA
ATOM      6  O   UNL     1       2.234  -2.092   4.779  1.00  0.00    -0.550 OA
ENDBRANCH   3   4
ENDBRANCH   2   3
ENDBRANCH   1   2
BRANCH   1   7
ATOM      7  C   UNL     1      -3.088  -1.579   3.865  1.00  0.00     0.000 C 
BRANCH   7   8
ATOM      8  C   UNL     1      -4.503  -1.103   4.237  1.00  0.00    -0.000 C 
BRANCH   8   9
ATOM      9  C   UNL     1      -4.843  -1.371   5.713  1.00  0.00    -0.003 C 
ATOM     10  C   UNL     1      -5.520  -0.181   6.391  1.00  0.00     0.004 C 
ENDBRANCH   8   9
ENDBRANCH   7   8
ENDBRANCH   1   7
TORSDOF 6
ENDMDL
MODEL 4
REMARK VINA RESULT:    -3.499      3.192      5.516
REMARK INTER + INTRA:          -4.969
REMARK INTER:                  -4.669
REMARK INTRA:                  -0.300
REMARK UNBOUND:                -0.243
REMARK SMILES CCCCCCCC(=O)[O-]
REMARK SMILES IDX 5 1 6 2 7 3 8 4 9 5 10 6 4 7 3 8 2 9 1 10
REMARK H PARENT
REMARK Flexibility Score: inf
ROOT
ATOM      1  C   UNL     1      -0.363  -2.615   6.031  1.00  0.00     0.000 C 
ENDROOT
BRANCH   1   2
ATOM      2  C   UNL     1      -1.741  -3.068   5.521  1.00  0.00     0.006 C 
BRANCH   2   3
ATOM      3  C   UNL     1      -1.835  -3.022   3.991  1.00  0.00     0.053 C 
BRANCH   3   4
ATOM      4  C   UNL     1      -3.114  -2.391   3.531  1.00  0.00     0.041 C 
ATOM      5  O   UNL     1      -3.307  -1.157   3.696  1.00  0.00    -0.550 OA
ATOM      6  O   UNL     1      -4.107  -3.171   2.953  1.00  0.00    -0.550 OA
ENDBRANCH   3   4
ENDBRANCH   2   3
ENDBRANCH   1   2
BRANCH   1   7
ATOM      7  C   UNL     1       0.179  -1.391   5.274  1.00  0.00     0.000 C 
BRANCH   7   8
ATOM      8  C   UNL     1       1.663  -1.121   5.576  1.00  0.00    -0.000 C 
BRANCH   8   9
ATOM      9  C   UNL     1       2.510  -2.404   5.552  1.00  0.00    -0.003 C 
ATOM     10  C   UNL     1       3.817  -2.238   4.777  1.00  0.00     0.004 C 
ENDBRANCH   8   9
ENDBRANCH   7   8
ENDBRANCH   1   7
TORSDOF 6
ENDMDL
MODEL 5
REMARK VINA RESULT:    -3.483      7.285      8.394
REMARK INTER + INTRA:          -4.948
REMARK INTER:                  -4.567
REMARK INTRA:                  -0.381
REMARK UNBOUND:                -0.243
REMARK SMILES CCCCCCCC(=O)[O-]
REMARK SMILES IDX 5 1 6 2 7 3 8 4 9 5 10 6 4 7 3 8 2 9 1 10
REMARK H PARENT
REMARK Flexibility Score: inf
ROOT
ATOM      1  C   UNL     1      -0.225   5.917   7.732  1.00  0.00     0.000 C 
ENDROOT
BRANCH   1   2
ATOM      2  C   UNL     1      -1.499   6.636   7.255  1.00  0.00     0.006 C 
BRANCH   2   3
ATOM      3  C   UNL     1      -1.922   6.194   5.849  1.00  0.00     0.053 C 
BRANCH   3   4
ATOM      4  C   UNL     1      -0.848   6.458   4.837  1.00  0.00     0.041 C 
ATOM      5  O   UNL     1      -0.623   7.633   4.444  1.00  0.00    -0.550 OA
ATOM      6  O   UNL     1      -0.122   5.403   4.302  1.00  0.00    -0.550 OA
ENDBRANCH   3   4
ENDBRANCH   2   3
ENDBRANCH   1   2
BRANCH   1   7
ATOM      7  C   UNL     1      -0.513   4.836   8.788  1.00  0.00     0.000 C 
BRANCH   7   8
ATOM      8  C   UNL     1       0.320   3.562   8.568  1.00  0.00    -0.000 C 
BRANCH   8   9
ATOM      9  C   UNL     1       0.935   3.498   7.160  1.00  0.00    -0.003 C 
ATOM     10  C   UNL     1       1.531   2.129   6.835  1.00  0.00     0.004 C 
ENDBRANCH   8   9
ENDBRANCH   7   8
ENDBRANCH   1   7
TORSDOF 6
ENDMDL
MODEL 6
REMARK VINA RESULT:    -3.330      1.563      2.602
REMARK INTER + INTRA:          -4.741
REMARK INTER:                  -4.473
REMARK INTRA:                  -0.268
REMARK UNBOUND:                -0.243
REMARK SMILES CCCCCCCC(=O)[O-]
REMARK SMILES IDX 5 1 6 2 7 3 8 4 9 5 10 6 4 7 3 8 2 9 1 10
REMARK H PARENT
REMARK Flexibility Score: inf
ROOT
ATOM      1  C   UNL     1      -3.258  -2.440   3.574  1.00  0.00     0.000 C 
ENDROOT
BRANCH   1   2
ATOM      2  C   UNL     1      -2.069  -1.755   4.269  1.00  0.00     0.006 C 
BRANCH   2   3
ATOM      3  C   UNL     1      -1.349  -2.694   5.244  1.00  0.00     0.053 C 
BRANCH   3   4
ATOM      4  C   UNL     1       0.019  -2.191   5.592  1.00  0.00     0.041 C 
ATOM      5  O   UNL     1       0.757  -2.849   6.373  1.00  0.00    -0.550 OA
ATOM      6  O   UNL     1       0.465  -0.978   5.083  1.00  0.00    -0.550 OA
ENDBRANCH   3   4
ENDBRANCH   2   3
ENDBRANCH   1   2
BRANCH   1   7
ATOM      7  C   UNL     1      -4.615  -1.858   4.005  1.00  0.00     0.000 C 
BRANCH   7   8
ATOM      8  C   UNL     1      -4.467  -0.686   4.990  1.00  0.00    -0.000 C 
BRANCH   8   9
ATOM      9  C   UNL     1      -5.055  -1.005   6.374  1.00  0.00    -0.003 C 
ATOM     10  C   UNL     1      -6.041   0.057   6.859  1.00  0.00     0.004 C 
ENDBRANCH   8   9
ENDBRANCH   7   8
ENDBRANCH   1   7
TORSDOF 6
ENDMDL
MODEL 7
REMARK VINA RESULT:    -3.317      7.254      8.274
REMARK INTER + INTRA:          -4.723
REMARK INTER:                  -4.370
REMARK INTRA:                  -0.353
REMARK UNBOUND:                -0.243
REMARK SMILES CCCCCCCC(=O)[O-]
REMARK SMILES IDX 5 1 6 2 7 3 8 4 9 5 10 6 4 7 3 8 2 9 1 10
REMARK H PARENT
REMARK Flexibility Score: inf
ROOT
ATOM      1  C   UNL     1       1.907   4.788   6.077  1.00  0.00     0.000 C 
ENDROOT
BRANCH   1   2
ATOM      2  C   UNL     1       1.246   5.523   4.898  1.00  0.00     0.006 C 
BRANCH   2   3
ATOM      3  C   UNL     1      -0.281   5.380   4.910  1.00  0.00     0.053 C 
BRANCH   3   4
ATOM      4  C   UNL     1      -0.961   6.698   5.125  1.00  0.00     0.041 C 
ATOM      5  O   UNL     1      -1.689   6.878   6.137  1.00  0.00    -0.550 OA
ATOM      6  O   UNL     1      -0.821   7.714   4.190  1.00  0.00    -0.550 OA
ENDBRANCH   3   4
ENDBRANCH   2   3
ENDBRANCH   1   2
BRANCH   1   7
ATOM      7  C   UNL     1       1.331   3.379   6.297  1.00  0.00     0.000 C 
BRANCH   7   8
ATOM      8  C   UNL     1       0.932   3.129   7.762  1.00  0.00    -0.000 C 
BRANCH   8   9
ATOM      9  C   UNL     1       0.068   4.263   8.337  1.00  0.00    -0.003 C 
ATOM     10  C   UNL     1      -0.333   4.024   9.792  1.00  0.00     0.004 C 
ENDBRANCH   8   9
ENDBRANCH   7   8
ENDBRANCH   1   7
TORSDOF 6
ENDMDL
MODEL 8
REMARK VINA RESULT:    -3.284      3.805      5.792
REMARK INTER + INTRA:          -4.679
REMARK INTER:                  -4.388
REMARK INTRA:                  -0.291
REMARK UNBOUND:                -0.243
REMARK SMILES CCCCCCCC(=O)[O-]
REMARK SMILES IDX 5 1 6 2 7 3 8 4 9 5 10 6 4 7 3 8 2 9 1 10
REMARK H PARENT
REMARK Flexibility Score: inf
ROOT
ATOM      1  C   UNL     1      -1.825  -1.774   4.364  1.00  0.00     0.000 C 
ENDROOT
BRANCH   1   2
ATOM      2  C   UNL     1      -3.219  -2.020   3.761  1.00  0.00     0.006 C 
BRANCH   2   3
ATOM      3  C   UNL     1      -4.234  -0.956   4.197  1.00  0.00     0.053 C 
BRANCH   3   4
ATOM      4  C   UNL     1      -5.108  -1.445   5.312  1.00  0.00     0.041 C 
ATOM      5  O   UNL     1      -4.709  -1.383   6.504  1.00  0.00    -0.550 OA
ATOM      6  O   UNL     1      -6.348  -2.002   5.030  1.00  0.00    -0.550 OA
ENDBRANCH   3   4
ENDBRANCH   2   3
ENDBRANCH   1   2
BRANCH   1   7
ATOM      7  C   UNL     1      -1.484  -2.760   5.494  1.00  0.00     0.000 C 
BRANCH   7   8
ATOM      8  C   UNL     1      -0.129  -2.453   6.154  1.00  0.00    -0.000 C 
BRANCH   8   9
ATOM      9  C   UNL     1       0.760  -1.553   5.280  1.00  0.00    -0.003 C 
ATOM     10  C   UNL     1       2.218  -2.008   5.251  1.00  0.00     0.004 C 
ENDBRANCH   8   9
ENDBRANCH   7   8
ENDBRANCH   1   7
TORSDOF 6
ENDMDL
MODEL 9
REMARK VINA RESULT:    -3.259      2.930      3.903
REMARK INTER + INTRA:          -4.645
REMARK INTER:                  -4.108
REMARK INTRA:                  -0.537
REMARK UNBOUND:                -0.243
REMARK SMILES CCCCCCCC(=O)[O-]
REMARK SMILES IDX 5 1 6 2 7 3 8 4 9 5 10 6 4 7 3 8 2 9 1 10
REMARK H PARENT
REMARK Flexibility Score: inf
ROOT
ATOM      1  C   UNL     1      -3.795  -1.105   4.208  1.00  0.00     0.000 C 
ENDROOT
BRANCH   1   2
ATOM      2  C   UNL     1      -2.682  -2.041   3.707  1.00  0.00     0.006 C 
BRANCH   2   3
ATOM      3  C   UNL     1      -1.606  -2.282   4.772  1.00  0.00     0.053 C 
BRANCH   3   4
ATOM      4  C   UNL     1      -2.164  -2.975   5.979  1.00  0.00     0.041 C 
ATOM      5  O   UNL     1      -1.912  -2.539   7.133  1.00  0.00    -0.550 OA
ATOM      6  O   UNL     1      -2.932  -4.122   5.829  1.00  0.00    -0.550 OA
ENDBRANCH   3   4
ENDBRANCH   2   3
ENDBRANCH   1   2
BRANCH   1   7
ATOM      7  C   UNL     1      -5.196  -1.726   4.078  1.00  0.00     0.000 C 
BRANCH   7   8
ATOM      8  C   UNL     1      -5.933  -1.803   5.427  1.00  0.00    -0.000 C 
BRANCH   8   9
ATOM      9  C   UNL     1      -5.265  -0.942   6.511  1.00  0.00    -0.003 C 
ATOM     10  C   UNL     1      -6.099   0.278   6.898  1.00  0.00     0.004 C 
ENDBRANCH   8   9
ENDBRANCH   7   8
ENDBRANCH   1   7
TORSDOF 6
ENDMDL
