MODEL 1
REMARK VINA RESULT:    -1.563      0.000      0.000
REMARK INTER + INTRA:          -1.838
REMARK INTER:                  -1.791
REMARK INTRA:                  -0.047
REMARK UNBOUND:                -0.047
REMARK SMILES O=C([O-])c1cc(O)c(O)c(O)c1
REMARK SMILES IDX 4 1 5 2 12 3 6 4 10 5 8 6 2 7 1 8 3 9 7 10 11 12 9 14
REMARK H PARENT 7 11 11 13 9 15
REMARK Flexibility Score: inf
ROOT
ATOM      1  C   UNL     1     -15.024 -12.351  83.965  1.00  0.00     0.005 A 
ATOM      2  C   UNL     1     -14.988 -13.018  82.730  1.00  0.00     0.060 A 
ATOM      3  C   UNL     1     -14.331 -12.900  85.058  1.00  0.00     0.060 A 
ATOM      4  C   UNL     1     -14.271 -14.213  82.585  1.00  0.00     0.162 A 
ATOM      5  C   UNL     1     -13.613 -14.097  84.919  1.00  0.00     0.162 A 
ATOM      6  C   UNL     1     -13.583 -14.754  83.678  1.00  0.00     0.200 A 
ENDROOT
BRANCH   1   7
ATOM      7  C   UNL     1     -15.783 -11.088  84.111  1.00  0.00     0.072 C 
ATOM      8  O   UNL     1     -15.501 -10.085  83.403  1.00  0.00    -0.545 OA
ATOM      9  O   UNL     1     -16.818 -10.991  85.033  1.00  0.00    -0.545 OA
ENDBRANCH   1   7
BRANCH   4  10
ATOM     10  O   UNL     1     -14.239 -14.870  81.356  1.00  0.00    -0.504 OA
ATOM     11  H   UNL     1     -14.008 -14.382  80.499  1.00  0.00     0.293 HD
ENDBRANCH   4  10
BRANCH   5  12
ATOM     12  O   UNL     1     -12.929 -14.633  86.009  1.00  0.00    -0.504 OA
ATOM     13  H   UNL     1     -13.402 -14.851  86.878  1.00  0.00     0.293 HD
ENDBRANCH   5  12
BRANCH   6  14
ATOM     14  O   UNL     1     -12.875 -15.946  83.515  1.00  0.00    -0.502 OA
ATOM     15  H   UNL     1     -13.163 -16.658  82.854  1.00  0.00     0.293 HD
ENDBRANCH   6  14
TORSDOF 4
ENDMDL
MODEL 2
REMARK VINA RESULT:    -1.487      1.578      3.096
REMARK INTER + INTRA:          -1.751
REMARK INTER:                  -1.703
REMARK INTRA:                  -0.048
REMARK UNBOUND:                -0.047
REMARK SMILES O=C([O-])c1cc(O)c(O)c(O)c1
REMARK SMILES IDX 4 1 5 2 12 3 6 4 10 5 8 6 2 7 1 8 3 9 7 10 11 12 9 14
REMARK H PARENT 7 11 11 13 9 15
REMARK Flexibility Score: inf
ROOT
ATOM      1  C   UNL     1     -14.654 -12.890  82.311  1.00  0.00     0.005 A 
ATOM      2  C   UNL     1     -14.965 -12.271  83.533  1.00  0.00     0.060 A 
ATOM      3  C   UNL     1     -13.954 -14.109  82.322  1.00  0.00     0.060 A 
ATOM      4  C   UNL     1     -14.584 -12.858  84.747  1.00  0.00     0.162 A 
ATOM      5  C   UNL     1     -13.570 -14.700  83.534  1.00  0.00     0.162 A 
ATOM      6  C   UNL     1     -13.886 -14.072  84.750  1.00  0.00     0.200 A 
ENDROOT
BRANCH   1   7
ATOM      7  C   UNL     1     -15.060 -12.265  81.032  1.00  0.00     0.072 C 
ATOM      8  O   UNL     1     -14.242 -12.165  80.079  1.00  0.00    -0.545 OA
ATOM      9  O   UNL     1     -16.351 -11.777  80.864  1.00  0.00    -0.545 OA
ENDBRANCH   1   7
BRANCH   4  10
ATOM     10  O   UNL     1     -14.895 -12.239  85.957  1.00  0.00    -0.504 OA
ATOM     11  H   UNL     1     -14.879 -11.231  86.056  1.00  0.00     0.293 HD
ENDBRANCH   4  10
BRANCH   5  12
ATOM     12  O   UNL     1     -12.875 -15.909  83.534  1.00  0.00    -0.504 OA
ATOM     13  H   UNL     1     -12.438 -16.270  82.694  1.00  0.00     0.293 HD
ENDBRANCH   5  12
BRANCH   6  14
ATOM     14  O   UNL     1     -13.515 -14.641  85.969  1.00  0.00    -0.502 OA
ATOM     15  H   UNL     1     -13.300 -14.078  86.784  1.00  0.00     0.293 HD
ENDBRANCH   6  14
TORSDOF 4
ENDMDL
MODEL 3
REMARK VINA RESULT:    -1.452      0.968      2.641
REMARK INTER + INTRA:          -1.711
REMARK INTER:                  -1.665
REMARK INTRA:                  -0.046
REMARK UNBOUND:                -0.047
REMARK SMILES O=C([O-])c1cc(O)c(O)c(O)c1
REMARK SMILES IDX 4 1 5 2 12 3 6 4 10 5 8 6 2 7 1 8 3 9 7 10 11 12 9 14
REMARK H PARENT 7 11 11 13 9 15
REMARK Flexibility Score: inf
ROOT
ATOM      1  C   UNL     1     -15.890 -12.616  84.522  1.00  0.00     0.005 A 
ATOM      2  C   UNL     1     -15.006 -13.119  85.491  1.00  0.00     0.060 A 
ATOM      3  C   UNL     1     -15.820 -13.116  83.210  1.00  0.00     0.060 A 
ATOM      4  C   UNL     1     -14.069 -14.105  85.158  1.00  0.00     0.162 A 
ATOM      5  C   UNL     1     -14.883 -14.103  82.871  1.00  0.00     0.162 A 
ATOM      6  C   UNL     1     -14.005 -14.598  83.849  1.00  0.00     0.200 A 
ENDROOT
BRANCH   1   7
ATOM      7  C   UNL     1     -16.879 -11.575  84.880  1.00  0.00     0.072 C 
ATOM      8  O   UNL     1     -16.503 -10.414  85.194  1.00  0.00    -0.545 OA
ATOM      9  O   UNL     1     -18.239 -11.863  84.877  1.00  0.00    -0.545 OA
ENDBRANCH   1   7
BRANCH   4  10
ATOM     10  O   UNL     1     -13.194 -14.600  86.125  1.00  0.00    -0.504 OA
ATOM     11  H   UNL     1     -12.836 -14.012  86.867  1.00  0.00     0.293 HD
ENDBRANCH   4  10
BRANCH   5  12
ATOM     12  O   UNL     1     -14.822 -14.591  81.567  1.00  0.00    -0.504 OA
ATOM     13  H   UNL     1     -15.661 -14.770  81.027  1.00  0.00     0.293 HD
ENDBRANCH   5  12
BRANCH   6  14
ATOM     14  O   UNL     1     -13.063 -15.580  83.536  1.00  0.00    -0.502 OA
ATOM     15  H   UNL     1     -12.248 -15.749  84.114  1.00  0.00     0.293 HD
ENDBRANCH   6  14
TORSDOF 4
ENDMDL
MODEL 4
REMARK VINA RESULT:    -1.407      7.570      9.112
REMARK INTER + INTRA:          -1.660
REMARK INTER:                  -1.612
REMARK INTRA:                  -0.048
REMARK UNBOUND:                -0.047
REMARK SMILES O=C([O-])c1cc(O)c(O)c(O)c1
REMARK SMILES IDX 4 1 5 2 12 3 6 4 10 5 8 6 2 7 1 8 3 9 7 10 11 12 9 14
REMARK H PARENT 7 11 11 13 9 15
REMARK Flexibility Score: inf
ROOT
ATOM      1  C   UNL     1     -13.799 -20.902  81.660  1.00  0.00     0.005 A 
ATOM      2  C   UNL     1     -13.089 -21.094  82.857  1.00  0.00     0.060 A 
ATOM      3  C   UNL     1     -15.016 -21.580  81.473  1.00  0.00     0.060 A 
ATOM      4  C   UNL     1     -13.585 -21.946  83.852  1.00  0.00     0.162 A 
ATOM      5  C   UNL     1     -15.517 -22.436  82.466  1.00  0.00     0.162 A 
ATOM      6  C   UNL     1     -14.798 -22.619  83.659  1.00  0.00     0.200 A 
ENDROOT
BRANCH   1   7
ATOM      7  C   UNL     1     -13.270 -20.000  80.614  1.00  0.00     0.072 C 
ATOM      8  O   UNL     1     -12.877 -18.839  80.906  1.00  0.00    -0.545 OA
ATOM      9  O   UNL     1     -13.199 -20.420  79.290  1.00  0.00    -0.545 OA
ENDBRANCH   1   7
BRANCH   4  10
ATOM     10  O   UNL     1     -12.876 -22.132  85.038  1.00  0.00    -0.504 OA
ATOM     11  H   UNL     1     -12.132 -21.503  85.316  1.00  0.00     0.293 HD
ENDBRANCH   4  10
BRANCH   5  12
ATOM     12  O   UNL     1     -16.725 -23.103  82.269  1.00  0.00    -0.504 OA
ATOM     13  H   UNL     1     -17.547 -22.623  81.924  1.00  0.00     0.293 HD
ENDBRANCH   5  12
BRANCH   6  14
ATOM     14  O   UNL     1     -15.276 -23.464  84.661  1.00  0.00    -0.502 OA
ATOM     15  H   UNL     1     -16.266 -23.611  84.816  1.00  0.00     0.293 HD
ENDBRANCH   6  14
TORSDOF 4
ENDMDL
MODEL 5
REMARK VINA RESULT:    -1.397      8.819     11.193
REMARK INTER + INTRA:          -1.648
REMARK INTER:                  -1.596
REMARK INTRA:                  -0.051
REMARK UNBOUND:                -0.047
REMARK SMILES O=C([O-])c1cc(O)c(O)c(O)c1
REMARK SMILES IDX 4 1 5 2 12 3 6 4 10 5 8 6 2 7 1 8 3 9 7 10 11 12 9 14
REMARK H PARENT 7 11 11 13 9 15
REMARK Flexibility Score: inf
ROOT
ATOM      1  C   UNL     1     -15.092 -24.445  83.297  1.00  0.00     0.005 A 
ATOM      2  C   UNL     1     -14.348 -24.482  84.487  1.00  0.00     0.060 A 
ATOM      3  C   UNL     1     -15.089 -23.269  82.526  1.00  0.00     0.060 A 
ATOM      4  C   UNL     1     -13.612 -23.365  84.904  1.00  0.00     0.162 A 
ATOM      5  C   UNL     1     -14.355 -22.147  82.939  1.00  0.00     0.162 A 
ATOM      6  C   UNL     1     -13.614 -22.196  84.132  1.00  0.00     0.200 A 
ENDROOT
BRANCH   1   7
ATOM      7  C   UNL     1     -15.866 -25.629  82.862  1.00  0.00     0.072 C 
ATOM      8  O   UNL     1     -15.535 -26.785  83.237  1.00  0.00    -0.545 OA
ATOM      9  O   UNL     1     -16.971 -25.482  82.031  1.00  0.00    -0.545 OA
ENDBRANCH   1   7
BRANCH   4  10
ATOM     10  O   UNL     1     -12.875 -23.408  86.087  1.00  0.00    -0.504 OA
ATOM     11  H   UNL     1     -12.482 -22.569  86.498  1.00  0.00     0.293 HD
ENDBRANCH   4  10
BRANCH   5  12
ATOM     12  O   UNL     1     -14.359 -20.986  82.168  1.00  0.00    -0.504 OA
ATOM     13  H   UNL     1     -13.561 -20.721  81.602  1.00  0.00     0.293 HD
ENDBRANCH   5  12
BRANCH   6  14
ATOM     14  O   UNL     1     -12.875 -21.093  84.563  1.00  0.00    -0.502 OA
ATOM     15  H   UNL     1     -12.847 -20.811  85.535  1.00  0.00     0.293 HD
ENDBRANCH   6  14
TORSDOF 4
ENDMDL
MODEL 6
REMARK VINA RESULT:    -1.388      2.125      3.883
REMARK INTER + INTRA:          -1.638
REMARK INTER:                  -1.593
REMARK INTRA:                  -0.045
REMARK UNBOUND:                -0.047
REMARK SMILES O=C([O-])c1cc(O)c(O)c(O)c1
REMARK SMILES IDX 4 1 5 2 12 3 6 4 10 5 8 6 2 7 1 8 3 9 7 10 11 12 9 14
REMARK H PARENT 7 11 11 13 9 15
REMARK Flexibility Score: inf
ROOT
ATOM      1  C   UNL     1     -13.860 -14.515  82.325  1.00  0.00     0.005 A 
ATOM      2  C   UNL     1     -15.231 -14.234  82.444  1.00  0.00     0.060 A 
ATOM      3  C   UNL     1     -13.084 -14.630  83.491  1.00  0.00     0.060 A 
ATOM      4  C   UNL     1     -15.819 -14.071  83.704  1.00  0.00     0.162 A 
ATOM      5  C   UNL     1     -13.667 -14.466  84.756  1.00  0.00     0.162 A 
ATOM      6  C   UNL     1     -15.039 -14.186  84.862  1.00  0.00     0.200 A 
ENDROOT
BRANCH   1   7
ATOM      7  C   UNL     1     -13.245 -14.688  80.990  1.00  0.00     0.072 C 
ATOM      8  O   UNL     1     -13.047 -15.839  80.518  1.00  0.00    -0.545 OA
ATOM      9  O   UNL     1     -12.875 -13.580  80.236  1.00  0.00    -0.545 OA
ENDBRANCH   1   7
BRANCH   4  10
ATOM     10  O   UNL     1     -17.181 -13.792  83.816  1.00  0.00    -0.504 OA
ATOM     11  H   UNL     1     -17.518 -12.852  83.987  1.00  0.00     0.293 HD
ENDBRANCH   4  10
BRANCH   5  12
ATOM     12  O   UNL     1     -12.888 -14.582  85.906  1.00  0.00    -0.504 OA
ATOM     13  H   UNL     1     -12.798 -15.461  86.401  1.00  0.00     0.293 HD
ENDBRANCH   5  12
BRANCH   6  14
ATOM     14  O   UNL     1     -15.643 -14.019  86.110  1.00  0.00    -0.502 OA
ATOM     15  H   UNL     1     -15.554 -13.162  86.641  1.00  0.00     0.293 HD
ENDBRANCH   6  14
TORSDOF 4
ENDMDL
MODEL 7
REMARK VINA RESULT:    -1.378      7.611      9.685
REMARK INTER + INTRA:          -1.626
REMARK INTER:                  -1.577
REMARK INTRA:                  -0.049
REMARK UNBOUND:                -0.047
REMARK SMILES O=C([O-])c1cc(O)c(O)c(O)c1
REMARK SMILES IDX 4 1 5 2 12 3 6 4 10 5 8 6 2 7 1 8 3 9 7 10 11 12 9 14
REMARK H PARENT 7 11 11 13 9 15
REMARK Flexibility Score: inf
ROOT
ATOM      1  C   UNL     1     -13.869 -22.641  83.327  1.00  0.00     0.005 A 
ATOM      2  C   UNL     1     -14.970 -22.954  82.513  1.00  0.00     0.060 A 
ATOM      3  C   UNL     1     -13.174 -21.440  83.102  1.00  0.00     0.060 A 
ATOM      4  C   UNL     1     -15.372 -22.085  81.491  1.00  0.00     0.162 A 
ATOM      5  C   UNL     1     -13.572 -20.566  82.080  1.00  0.00     0.162 A 
ATOM      6  C   UNL     1     -14.675 -20.890  81.273  1.00  0.00     0.200 A 
ENDROOT
BRANCH   1   7
ATOM      7  C   UNL     1     -13.450 -23.564  84.406  1.00  0.00     0.072 C 
ATOM      8  O   UNL     1     -13.139 -23.122  85.544  1.00  0.00    -0.545 OA
ATOM      9  O   UNL     1     -13.393 -24.934  84.178  1.00  0.00    -0.545 OA
ENDBRANCH   1   7
BRANCH   4  10
ATOM     10  O   UNL     1     -16.466 -22.401  80.686  1.00  0.00    -0.504 OA
ATOM     11  H   UNL     1     -16.999 -21.684  80.209  1.00  0.00     0.293 HD
ENDBRANCH   4  10
BRANCH   5  12
ATOM     12  O   UNL     1     -12.875 -19.377  81.865  1.00  0.00    -0.504 OA
ATOM     13  H   UNL     1     -11.947 -19.372  81.458  1.00  0.00     0.293 HD
ENDBRANCH   5  12
BRANCH   6  14
ATOM     14  O   UNL     1     -15.090 -20.036  80.249  1.00  0.00    -0.502 OA
ATOM     15  H   UNL     1     -15.034 -20.298  79.273  1.00  0.00     0.293 HD
ENDBRANCH   6  14
TORSDOF 4
ENDMDL
MODEL 8
REMARK VINA RESULT:    -1.359      7.860     10.183
REMARK INTER + INTRA:          -1.604
REMARK INTER:                  -1.552
REMARK INTRA:                  -0.052
REMARK UNBOUND:                -0.047
REMARK SMILES O=C([O-])c1cc(O)c(O)c(O)c1
REMARK SMILES IDX 4 1 5 2 12 3 6 4 10 5 8 6 2 7 1 8 3 9 7 10 11 12 9 14
REMARK H PARENT 7 11 11 13 9 15
REMARK Flexibility Score: inf
ROOT
ATOM      1  C   UNL     1     -13.966 -23.116  83.876  1.00  0.00     0.005 A 
ATOM      2  C   UNL     1     -13.306 -21.878  83.806  1.00  0.00     0.060 A 
ATOM      3  C   UNL     1     -14.863 -23.470  82.853  1.00  0.00     0.060 A 
ATOM      4  C   UNL     1     -13.536 -21.007  82.733  1.00  0.00     0.162 A 
ATOM      5  C   UNL     1     -15.098 -22.601  81.778  1.00  0.00     0.162 A 
ATOM      6  C   UNL     1     -14.432 -21.366  81.718  1.00  0.00     0.200 A 
ENDROOT
BRANCH   1   7
ATOM      7  C   UNL     1     -13.718 -24.032  85.012  1.00  0.00     0.072 C 
ATOM      8  O   UNL     1     -13.269 -23.592  86.104  1.00  0.00    -0.545 OA
ATOM      9  O   UNL     1     -13.976 -25.393  84.890  1.00  0.00    -0.545 OA
ENDBRANCH   1   7
BRANCH   4  10
ATOM     10  O   UNL     1     -12.878 -19.779  82.669  1.00  0.00    -0.504 OA
ATOM     11  H   UNL     1     -11.899 -19.689  82.913  1.00  0.00     0.293 HD
ENDBRANCH   4  10
BRANCH   5  12
ATOM     12  O   UNL     1     -15.990 -22.963  80.769  1.00  0.00    -0.504 OA
ATOM     13  H   UNL     1     -16.963 -22.683  80.796  1.00  0.00     0.293 HD
ENDBRANCH   5  12
BRANCH   6  14
ATOM     14  O   UNL     1     -14.648 -20.485  80.657  1.00  0.00    -0.502 OA
ATOM     15  H   UNL     1     -15.473 -19.899  80.603  1.00  0.00     0.293 HD
ENDBRANCH   6  14
TORSDOF 4
ENDMDL
MODEL 9
REMARK VINA RESULT:    -1.356      1.176      1.340
REMARK INTER + INTRA:          -1.601
REMARK INTER:                  -1.549
REMARK INTRA:                  -0.052
REMARK UNBOUND:                -0.047
REMARK SMILES O=C([O-])c1cc(O)c(O)c(O)c1
REMARK SMILES IDX 4 1 5 2 12 3 6 4 10 5 8 6 2 7 1 8 3 9 7 10 11 12 9 14
REMARK H PARENT 7 11 11 13 9 15
REMARK Flexibility Score: inf
ROOT
ATOM      1  C   UNL     1     -14.707 -12.222  82.804  1.00  0.00     0.005 A 
ATOM      2  C   UNL     1     -14.700 -13.276  81.876  1.00  0.00     0.060 A 
ATOM      3  C   UNL     1     -14.093 -12.409  84.054  1.00  0.00     0.060 A 
ATOM      4  C   UNL     1     -14.089 -14.497  82.189  1.00  0.00     0.162 A 
ATOM      5  C   UNL     1     -13.481 -13.629  84.373  1.00  0.00     0.162 A 
ATOM      6  C   UNL     1     -13.479 -14.677  83.437  1.00  0.00     0.200 A 
ENDROOT
BRANCH   1   7
ATOM      7  C   UNL     1     -15.354 -10.934  82.466  1.00  0.00     0.072 C 
ATOM      8  O   UNL     1     -16.205 -10.867  81.539  1.00  0.00    -0.545 OA
ATOM      9  O   UNL     1     -15.031  -9.778  83.167  1.00  0.00    -0.545 OA
ENDBRANCH   1   7
BRANCH   4  10
ATOM     10  O   UNL     1     -14.085 -15.541  81.264  1.00  0.00    -0.504 OA
ATOM     11  H   UNL     1     -13.640 -15.445  80.359  1.00  0.00     0.293 HD
ENDBRANCH   4  10
BRANCH   5  12
ATOM     12  O   UNL     1     -12.875 -13.804  85.617  1.00  0.00    -0.504 OA
ATOM     13  H   UNL     1     -13.396 -14.136  86.420  1.00  0.00     0.293 HD
ENDBRANCH   5  12
BRANCH   6  14
ATOM     14  O   UNL     1     -12.876 -15.900  83.732  1.00  0.00    -0.502 OA
ATOM     15  H   UNL     1     -12.337 -16.046  84.577  1.00  0.00     0.293 HD
ENDBRANCH   6  14
TORSDOF 4
ENDMDL
