MODEL 1
REMARK VINA RESULT:    -4.490      0.000      0.000
REMARK INTER + INTRA:          -5.694
REMARK INTER:                  -5.408
REMARK INTRA:                  -0.286
REMARK UNBOUND:                -0.286
REMARK SMILES [NH3+][C@@H](Cc1cnc[nH]1)C(=O)[O-]
REMARK SMILES IDX 3 1 2 2 1 3 9 7 10 8 11 9 4 10 5 11 8 12 6 13 7 14
REMARK H PARENT 1 4 1 5 1 6 8 15
REMARK Flexibility Score: inf
ROOT
ATOM      1  C   UNL     1     -17.325 -10.111  44.003  1.00  0.00     0.127 C 
ENDROOT
BRANCH   1   2
ATOM      2  C   UNL     1     -15.805 -10.092  44.259  1.00  0.00     0.233 C 
BRANCH   2   3
ATOM      3  N   UNL     1     -15.506  -9.424  45.531  1.00  0.00    -0.350 N 
ATOM      4  H   UNL     1     -15.232 -10.122  46.261  1.00  0.00     0.345 HD
ATOM      5  H   UNL     1     -16.346  -8.893  45.860  1.00  0.00     0.345 HD
ATOM      6  H   UNL     1     -14.722  -8.744  45.397  1.00  0.00     0.345 HD
ENDBRANCH   2   3
BRANCH   2   7
ATOM      7  C   UNL     1     -15.073  -9.414  43.129  1.00  0.00     0.099 C 
ATOM      8  O   UNL     1     -14.435  -8.347  43.329  1.00  0.00    -0.544 OA
ATOM      9  O   UNL     1     -15.120  -9.955  41.850  1.00  0.00    -0.544 OA
ENDBRANCH   2   7
ENDBRANCH   1   2
BRANCH   1  10
ATOM     10  C   UNL     1     -17.789 -11.459  43.532  1.00  0.00     0.041 A 
ATOM     11  C   UNL     1     -19.069 -11.959  43.617  1.00  0.00     0.134 A 
ATOM     12  N   UNL     1     -16.987 -12.411  43.031  1.00  0.00    -0.348 N 
ATOM     13  N   UNL     1     -19.077 -13.226  43.156  1.00  0.00    -0.245 NA
ATOM     14  C   UNL     1     -17.793 -13.465  42.808  1.00  0.00     0.196 A 
ATOM     15  H   UNL     1     -15.958 -12.355  42.862  1.00  0.00     0.167 HD
ENDBRANCH   1  10
TORSDOF 4
ENDMDL
MODEL 2
REMARK VINA RESULT:    -4.477      3.719      5.238
REMARK INTER + INTRA:          -5.679
REMARK INTER:                  -5.546
REMARK INTRA:                  -0.132
REMARK UNBOUND:                -0.286
REMARK SMILES [NH3+][C@@H](Cc1cnc[nH]1)C(=O)[O-]
REMARK SMILES IDX 3 1 2 2 1 3 9 7 10 8 11 9 4 10 5 11 8 12 6 13 7 14
REMARK H PARENT 1 4 1 5 1 6 8 15
REMARK Flexibility Score: inf
ROOT
ATOM      1  C   UNL     1     -17.773 -13.482  42.435  1.00  0.00     0.127 C 
ENDROOT
BRANCH   1   2
ATOM      2  C   UNL     1     -18.211 -14.556  43.450  1.00  0.00     0.233 C 
BRANCH   2   3
ATOM      3  N   UNL     1     -17.672 -15.868  43.074  1.00  0.00    -0.350 N 
ATOM      4  H   UNL     1     -18.194 -16.635  43.559  1.00  0.00     0.345 HD
ATOM      5  H   UNL     1     -16.660 -15.924  43.331  1.00  0.00     0.345 HD
ATOM      6  H   UNL     1     -17.754 -16.000  42.039  1.00  0.00     0.345 HD
ENDBRANCH   2   3
BRANCH   2   7
ATOM      7  C   UNL     1     -19.713 -14.620  43.557  1.00  0.00     0.099 C 
ATOM      8  O   UNL     1     -20.422 -14.773  42.527  1.00  0.00    -0.544 OA
ATOM      9  O   UNL     1     -20.326 -14.488  44.797  1.00  0.00    -0.544 OA
ENDBRANCH   2   7
ENDBRANCH   1   2
BRANCH   1  10
ATOM     10  C   UNL     1     -17.538 -12.157  43.100  1.00  0.00     0.041 A 
ATOM     11  C   UNL     1     -18.499 -11.235  43.450  1.00  0.00     0.134 A 
ATOM     12  N   UNL     1     -16.329 -11.643  43.375  1.00  0.00    -0.348 N 
ATOM     13  N   UNL     1     -17.896 -10.142  43.959  1.00  0.00    -0.245 NA
ATOM     14  C   UNL     1     -16.577 -10.428  43.897  1.00  0.00     0.196 A 
ATOM     15  H   UNL     1     -15.396 -12.081  43.209  1.00  0.00     0.167 HD
ENDBRANCH   1  10
TORSDOF 4
ENDMDL
MODEL 3
REMARK VINA RESULT:    -4.464      4.047      4.614
REMARK INTER + INTRA:          -5.663
REMARK INTER:                  -5.517
REMARK INTRA:                  -0.146
REMARK UNBOUND:                -0.286
REMARK SMILES [NH3+][C@@H](Cc1cnc[nH]1)C(=O)[O-]
REMARK SMILES IDX 3 1 2 2 1 3 9 7 10 8 11 9 4 10 5 11 8 12 6 13 7 14
REMARK H PARENT 1 4 1 5 1 6 8 15
REMARK Flexibility Score: inf
ROOT
ATOM      1  C   UNL     1     -18.952  -8.930  43.456  1.00  0.00     0.127 C 
ENDROOT
BRANCH   1   2
ATOM      2  C   UNL     1     -17.828  -8.002  42.953  1.00  0.00     0.233 C 
BRANCH   2   3
ATOM      3  N   UNL     1     -17.395  -8.402  41.609  1.00  0.00    -0.350 N 
ATOM      4  H   UNL     1     -16.380  -8.186  41.468  1.00  0.00     0.345 HD
ATOM      5  H   UNL     1     -17.958  -7.895  40.888  1.00  0.00     0.345 HD
ATOM      6  H   UNL     1     -17.547  -9.429  41.480  1.00  0.00     0.345 HD
ENDBRANCH   2   3
BRANCH   2   7
ATOM      7  C   UNL     1     -16.656  -8.007  43.902  1.00  0.00     0.099 C 
ATOM      8  O   UNL     1     -16.356  -9.049  44.542  1.00  0.00    -0.544 OA
ATOM      9  O   UNL     1     -15.912  -6.848  44.090  1.00  0.00    -0.544 OA
ENDBRANCH   2   7
ENDBRANCH   1   2
BRANCH   1  10
ATOM     10  C   UNL     1     -20.296  -8.267  43.366  1.00  0.00     0.041 A 
ATOM     11  C   UNL     1     -21.522  -8.888  43.452  1.00  0.00     0.134 A 
ATOM     12  N   UNL     1     -20.490  -6.966  43.101  1.00  0.00    -0.348 N 
ATOM     13  N   UNL     1     -22.493  -7.974  43.253  1.00  0.00    -0.245 NA
ATOM     14  C   UNL     1     -21.827  -6.817  43.044  1.00  0.00     0.196 A 
ATOM     15  H   UNL     1     -19.765  -6.229  42.958  1.00  0.00     0.167 HD
ENDBRANCH   1  10
TORSDOF 4
ENDMDL
MODEL 4
REMARK VINA RESULT:    -4.455      4.634      5.400
REMARK INTER + INTRA:          -5.652
REMARK INTER:                  -5.513
REMARK INTRA:                  -0.139
REMARK UNBOUND:                -0.286
REMARK SMILES [NH3+][C@@H](Cc1cnc[nH]1)C(=O)[O-]
REMARK SMILES IDX 3 1 2 2 1 3 9 7 10 8 11 9 4 10 5 11 8 12 6 13 7 14
REMARK H PARENT 1 4 1 5 1 6 8 15
REMARK Flexibility Score: inf
ROOT
ATOM      1  C   UNL     1     -19.895  -9.464  43.361  1.00  0.00     0.127 C 
ENDROOT
BRANCH   1   2
ATOM      2  C   UNL     1     -20.604  -8.101  43.228  1.00  0.00     0.233 C 
BRANCH   2   3
ATOM      3  N   UNL     1     -20.386  -7.289  44.430  1.00  0.00    -0.350 N 
ATOM      4  H   UNL     1     -20.071  -7.886  45.229  1.00  0.00     0.345 HD
ATOM      5  H   UNL     1     -21.271  -6.799  44.694  1.00  0.00     0.345 HD
ATOM      6  H   UNL     1     -19.656  -6.563  44.238  1.00  0.00     0.345 HD
ENDBRANCH   2   3
BRANCH   2   7
ATOM      7  C   UNL     1     -22.081  -8.280  42.981  1.00  0.00     0.099 C 
ATOM      8  O   UNL     1     -22.631  -7.750  41.979  1.00  0.00    -0.544 OA
ATOM      9  O   UNL     1     -22.848  -9.018  43.875  1.00  0.00    -0.544 OA
ENDBRANCH   2   7
ENDBRANCH   1   2
BRANCH   1  10
ATOM     10  C   UNL     1     -18.534  -9.442  42.730  1.00  0.00     0.041 A 
ATOM     11  C   UNL     1     -17.519 -10.348  42.941  1.00  0.00     0.134 A 
ATOM     12  N   UNL     1     -18.081  -8.469  41.923  1.00  0.00    -0.348 N 
ATOM     13  N   UNL     1     -16.427  -9.954  42.255  1.00  0.00    -0.245 NA
ATOM     14  C   UNL     1     -16.808  -8.809  41.648  1.00  0.00     0.196 A 
ATOM     15  H   UNL     1     -18.597  -7.626  41.589  1.00  0.00     0.167 HD
ENDBRANCH   1  10
TORSDOF 4
ENDMDL
MODEL 5
REMARK VINA RESULT:    -4.423      1.584      1.868
REMARK INTER + INTRA:          -5.613
REMARK INTER:                  -5.466
REMARK INTRA:                  -0.147
REMARK UNBOUND:                -0.286
REMARK SMILES [NH3+][C@@H](Cc1cnc[nH]1)C(=O)[O-]
REMARK SMILES IDX 3 1 2 2 1 3 9 7 10 8 11 9 4 10 5 11 8 12 6 13 7 14
REMARK H PARENT 1 4 1 5 1 6 8 15
REMARK Flexibility Score: inf
ROOT
ATOM      1  C   UNL     1     -18.312 -11.297  43.337  1.00  0.00     0.127 C 
ENDROOT
BRANCH   1   2
ATOM      2  C   UNL     1     -16.872 -10.753  43.247  1.00  0.00     0.233 C 
BRANCH   2   3
ATOM      3  N   UNL     1     -16.420 -10.275  44.559  1.00  0.00    -0.350 N 
ATOM      4  H   UNL     1     -15.511  -9.765  44.474  1.00  0.00     0.345 HD
ATOM      5  H   UNL     1     -16.302 -11.085  45.211  1.00  0.00     0.345 HD
ATOM      6  H   UNL     1     -17.137  -9.631  44.966  1.00  0.00     0.345 HD
ENDBRANCH   2   3
BRANCH   2   7
ATOM      7  C   UNL     1     -16.774  -9.647  42.227  1.00  0.00     0.099 C 
ATOM      8  O   UNL     1     -17.803  -9.018  41.864  1.00  0.00    -0.544 OA
ATOM      9  O   UNL     1     -15.542  -9.330  41.666  1.00  0.00    -0.544 OA
ENDBRANCH   2   7
ENDBRANCH   1   2
BRANCH   1  10
ATOM     10  C   UNL     1     -18.330 -12.793  43.456  1.00  0.00     0.041 A 
ATOM     11  C   UNL     1     -19.289 -13.552  44.087  1.00  0.00     0.134 A 
ATOM     12  N   UNL     1     -17.351 -13.605  43.027  1.00  0.00    -0.348 N 
ATOM     13  N   UNL     1     -18.922 -14.849  44.046  1.00  0.00    -0.245 NA
ATOM     14  C   UNL     1     -17.739 -14.841  43.392  1.00  0.00     0.196 A 
ATOM     15  H   UNL     1     -16.473 -13.340  42.529  1.00  0.00     0.167 HD
ENDBRANCH   1  10
TORSDOF 4
ENDMDL
MODEL 6
REMARK VINA RESULT:    -4.411      2.551      3.284
REMARK INTER + INTRA:          -5.600
REMARK INTER:                  -5.440
REMARK INTRA:                  -0.159
REMARK UNBOUND:                -0.286
REMARK SMILES [NH3+][C@@H](Cc1cnc[nH]1)C(=O)[O-]
REMARK SMILES IDX 3 1 2 2 1 3 9 7 10 8 11 9 4 10 5 11 8 12 6 13 7 14
REMARK H PARENT 1 4 1 5 1 6 8 15
REMARK Flexibility Score: inf
ROOT
ATOM      1  C   UNL     1     -17.138  -9.267  43.866  1.00  0.00     0.127 C 
ENDROOT
BRANCH   1   2
ATOM      2  C   UNL     1     -16.612 -10.217  42.771  1.00  0.00     0.233 C 
BRANCH   2   3
ATOM      3  N   UNL     1     -16.042 -11.428  43.371  1.00  0.00    -0.350 N 
ATOM      4  H   UNL     1     -15.382 -11.896  42.708  1.00  0.00     0.345 HD
ATOM      5  H   UNL     1     -16.808 -12.095  43.622  1.00  0.00     0.345 HD
ATOM      6  H   UNL     1     -15.527 -11.179  44.247  1.00  0.00     0.345 HD
ENDBRANCH   2   3
BRANCH   2   7
ATOM      7  C   UNL     1     -15.586  -9.531  41.906  1.00  0.00     0.099 C 
ATOM      8  O   UNL     1     -14.378  -9.888  41.941  1.00  0.00    -0.544 OA
ATOM      9  O   UNL     1     -15.967  -8.482  41.077  1.00  0.00    -0.544 OA
ENDBRANCH   2   7
ENDBRANCH   1   2
BRANCH   1  10
ATOM     10  C   UNL     1     -18.594  -8.958  43.676  1.00  0.00     0.041 A 
ATOM     11  C   UNL     1     -19.569  -9.835  43.257  1.00  0.00     0.134 A 
ATOM     12  N   UNL     1     -19.141  -7.740  43.811  1.00  0.00    -0.348 N 
ATOM     13  N   UNL     1     -20.737  -9.172  43.140  1.00  0.00    -0.245 NA
ATOM     14  C   UNL     1     -20.437  -7.901  43.486  1.00  0.00     0.196 A 
ATOM     15  H   UNL     1     -18.665  -6.855  44.094  1.00  0.00     0.167 HD
ENDBRANCH   1  10
TORSDOF 4
ENDMDL
MODEL 7
REMARK VINA RESULT:    -4.389      2.397      2.992
REMARK INTER + INTRA:          -5.573
REMARK INTER:                  -5.395
REMARK INTRA:                  -0.178
REMARK UNBOUND:                -0.286
REMARK SMILES [NH3+][C@@H](Cc1cnc[nH]1)C(=O)[O-]
REMARK SMILES IDX 3 1 2 2 1 3 9 7 10 8 11 9 4 10 5 11 8 12 6 13 7 14
REMARK H PARENT 1 4 1 5 1 6 8 15
REMARK Flexibility Score: inf
ROOT
ATOM      1  C   UNL     1     -16.772  -8.425  43.803  1.00  0.00     0.127 C 
ENDROOT
BRANCH   1   2
ATOM      2  C   UNL     1     -16.054  -9.699  44.292  1.00  0.00     0.233 C 
BRANCH   2   3
ATOM      3  N   UNL     1     -15.406  -9.458  45.587  1.00  0.00    -0.350 N 
ATOM      4  H   UNL     1     -14.614 -10.125  45.735  1.00  0.00     0.345 HD
ATOM      5  H   UNL     1     -16.102  -9.574  46.360  1.00  0.00     0.345 HD
ATOM      6  H   UNL     1     -15.040  -8.479  45.623  1.00  0.00     0.345 HD
ENDBRANCH   2   3
BRANCH   2   7
ATOM      7  C   UNL     1     -15.039 -10.170  43.282  1.00  0.00     0.099 C 
ATOM      8  O   UNL     1     -13.971 -10.722  43.657  1.00  0.00    -0.544 OA
ATOM      9  O   UNL     1     -15.271  -9.977  41.925  1.00  0.00    -0.544 OA
ENDBRANCH   2   7
ENDBRANCH   1   2
BRANCH   1  10
ATOM     10  C   UNL     1     -18.251  -8.644  43.667  1.00  0.00     0.041 A 
ATOM     11  C   UNL     1     -18.879  -9.838  43.392  1.00  0.00     0.134 A 
ATOM     12  N   UNL     1     -19.175  -7.672  43.711  1.00  0.00    -0.348 N 
ATOM     13  N   UNL     1     -20.205  -9.621  43.276  1.00  0.00    -0.245 NA
ATOM     14  C   UNL     1     -20.346  -8.292  43.477  1.00  0.00     0.196 A 
ATOM     15  H   UNL     1     -19.021  -6.653  43.877  1.00  0.00     0.167 HD
ENDBRANCH   1  10
TORSDOF 4
ENDMDL
MODEL 8
REMARK VINA RESULT:    -4.376      2.270      2.550
REMARK INTER + INTRA:          -5.557
REMARK INTER:                  -5.375
REMARK INTRA:                  -0.181
REMARK UNBOUND:                -0.286
REMARK SMILES [NH3+][C@@H](Cc1cnc[nH]1)C(=O)[O-]
REMARK SMILES IDX 3 1 2 2 1 3 9 7 10 8 11 9 4 10 5 11 8 12 6 13 7 14
REMARK H PARENT 1 4 1 5 1 6 8 15
REMARK Flexibility Score: inf
ROOT
ATOM      1  C   UNL     1     -16.211  -9.897  42.604  1.00  0.00     0.127 C 
ENDROOT
BRANCH   1   2
ATOM      2  C   UNL     1     -16.833  -8.623  41.997  1.00  0.00     0.233 C 
BRANCH   2   3
ATOM      3  N   UNL     1     -16.265  -8.356  40.671  1.00  0.00    -0.350 N 
ATOM      4  H   UNL     1     -17.013  -8.369  39.939  1.00  0.00     0.345 HD
ATOM      5  H   UNL     1     -15.545  -9.079  40.439  1.00  0.00     0.345 HD
ATOM      6  H   UNL     1     -15.800  -7.419  40.667  1.00  0.00     0.345 HD
ENDBRANCH   2   3
BRANCH   2   7
ATOM      7  C   UNL     1     -16.625  -7.435  42.902  1.00  0.00     0.099 C 
ATOM      8  O   UNL     1     -16.536  -7.588  44.149  1.00  0.00    -0.544 OA
ATOM      9  O   UNL     1     -16.552  -6.157  42.361  1.00  0.00    -0.544 OA
ENDBRANCH   2   7
ENDBRANCH   1   2
BRANCH   1  10
ATOM     10  C   UNL     1     -17.256 -10.931  42.905  1.00  0.00     0.041 A 
ATOM     11  C   UNL     1     -18.553 -10.693  43.301  1.00  0.00     0.134 A 
ATOM     12  N   UNL     1     -17.040 -12.256  42.910  1.00  0.00    -0.348 N 
ATOM     13  N   UNL     1     -19.162 -11.871  43.545  1.00  0.00    -0.245 NA
ATOM     14  C   UNL     1     -18.211 -12.798  43.295  1.00  0.00     0.196 A 
ATOM     15  H   UNL     1     -16.156 -12.760  42.679  1.00  0.00     0.167 HD
ENDBRANCH   1  10
TORSDOF 4
ENDMDL
MODEL 9
REMARK VINA RESULT:    -4.374      3.135      3.623
REMARK INTER + INTRA:          -5.554
REMARK INTER:                  -5.383
REMARK INTRA:                  -0.171
REMARK UNBOUND:                -0.286
REMARK SMILES [NH3+][C@@H](Cc1cnc[nH]1)C(=O)[O-]
REMARK SMILES IDX 3 1 2 2 1 3 9 7 10 8 11 9 4 10 5 11 8 12 6 13 7 14
REMARK H PARENT 1 4 1 5 1 6 8 15
REMARK Flexibility Score: inf
ROOT
ATOM      1  C   UNL     1     -18.075 -10.398  43.670  1.00  0.00     0.127 C 
ENDROOT
BRANCH   1   2
ATOM      2  C   UNL     1     -18.979  -9.624  42.690  1.00  0.00     0.233 C 
BRANCH   2   3
ATOM      3  N   UNL     1     -18.224  -8.552  42.032  1.00  0.00    -0.350 N 
ATOM      4  H   UNL     1     -17.751  -8.907  41.169  1.00  0.00     0.345 HD
ATOM      5  H   UNL     1     -17.504  -8.170  42.688  1.00  0.00     0.345 HD
ATOM      6  H   UNL     1     -18.873  -7.773  41.770  1.00  0.00     0.345 HD
ENDBRANCH   2   3
BRANCH   2   7
ATOM      7  C   UNL     1     -20.183  -9.056  43.398  1.00  0.00     0.099 C 
ATOM      8  O   UNL     1     -21.204  -9.767  43.595  1.00  0.00    -0.544 OA
ATOM      9  O   UNL     1     -20.179  -7.731  43.818  1.00  0.00    -0.544 OA
ENDBRANCH   2   7
ENDBRANCH   1   2
BRANCH   1  10
ATOM     10  C   UNL     1     -18.138 -11.878  43.428  1.00  0.00     0.041 A 
ATOM     11  C   UNL     1     -19.206 -12.706  43.692  1.00  0.00     0.134 A 
ATOM     12  N   UNL     1     -17.112 -12.625  42.991  1.00  0.00    -0.348 N 
ATOM     13  N   UNL     1     -18.858 -13.977  43.408  1.00  0.00    -0.245 NA
ATOM     14  C   UNL     1     -17.578 -13.888  42.984  1.00  0.00     0.196 A 
ATOM     15  H   UNL     1     -16.155 -12.303  42.726  1.00  0.00     0.167 HD
ENDBRANCH   1  10
TORSDOF 4
ENDMDL
