MODEL 1
REMARK VINA RESULT:    -3.893      0.000      0.000
REMARK INTER + INTRA:          -4.911
REMARK INTER:                  -4.689
REMARK INTRA:                  -0.222
REMARK UNBOUND:                -0.222
REMARK SMILES OCC(O)CO
REMARK SMILES IDX 3 1 5 2 6 3 2 5 1 6 4 8
REMARK H PARENT 6 4 1 7 4 9
REMARK Flexibility Score: inf
ROOT
ATOM      1  C   UNL     1     -32.773 -22.873  27.351  1.00  0.00     0.165 C 
ENDROOT
BRANCH   1   2
ATOM      2  C   UNL     1     -33.489 -21.802  28.184  1.00  0.00     0.190 C 
BRANCH   2   3
ATOM      3  O   UNL     1     -34.861 -22.079  28.264  1.00  0.00    -0.394 OA
ATOM      4  H   UNL     1     -35.079 -22.161  29.230  1.00  0.00     0.210 HD
ENDBRANCH   2   3
ENDBRANCH   1   2
BRANCH   1   5
ATOM      5  C   UNL     1     -33.006 -22.632  25.852  1.00  0.00     0.190 C 
BRANCH   5   6
ATOM      6  O   UNL     1     -34.354 -22.839  25.526  1.00  0.00    -0.394 OA
ATOM      7  H   UNL     1     -34.403 -22.906  24.537  1.00  0.00     0.210 HD
ENDBRANCH   5   6
ENDBRANCH   1   5
BRANCH   1   8
ATOM      8  O   UNL     1     -33.261 -24.138  27.716  1.00  0.00    -0.388 OA
ATOM      9  H   UNL     1     -33.677 -24.040  28.613  1.00  0.00     0.211 HD
ENDBRANCH   1   8
TORSDOF 5
ENDMDL
MODEL 2
REMARK VINA RESULT:    -3.845      0.832      2.379
REMARK INTER + INTRA:          -4.854
REMARK INTER:                  -4.633
REMARK INTRA:                  -0.221
REMARK UNBOUND:                -0.222
REMARK SMILES OCC(O)CO
REMARK SMILES IDX 3 1 5 2 6 3 2 5 1 6 4 8
REMARK H PARENT 6 4 1 7 4 9
REMARK Flexibility Score: inf
ROOT
ATOM      1  C   UNL     1     -32.948 -22.949  27.604  1.00  0.00     0.165 C 
ENDROOT
BRANCH   1   2
ATOM      2  C   UNL     1     -32.916 -22.750  26.083  1.00  0.00     0.190 C 
BRANCH   2   3
ATOM      3  O   UNL     1     -34.212 -22.816  25.552  1.00  0.00    -0.394 OA
ATOM      4  H   UNL     1     -34.715 -23.466  26.110  1.00  0.00     0.210 HD
ENDBRANCH   2   3
ENDBRANCH   1   2
BRANCH   1   5
ATOM      5  C   UNL     1     -33.624 -21.752  28.288  1.00  0.00     0.190 C 
BRANCH   5   6
ATOM      6  O   UNL     1     -35.018 -21.909  28.287  1.00  0.00    -0.394 OA
ATOM      7  H   UNL     1     -35.277 -22.173  27.365  1.00  0.00     0.210 HD
ENDBRANCH   5   6
ENDBRANCH   1   5
BRANCH   1   8
ATOM      8  O   UNL     1     -31.633 -23.092  28.074  1.00  0.00    -0.388 OA
ATOM      9  H   UNL     1     -31.096 -23.460  27.323  1.00  0.00     0.211 HD
ENDBRANCH   1   8
TORSDOF 5
ENDMDL
MODEL 3
REMARK VINA RESULT:    -3.682      1.477      2.512
REMARK INTER + INTRA:          -4.658
REMARK INTER:                  -4.635
REMARK INTRA:                  -0.023
REMARK UNBOUND:                -0.222
REMARK SMILES OCC(O)CO
REMARK SMILES IDX 3 1 5 2 6 3 2 5 1 6 4 8
REMARK H PARENT 6 4 1 7 4 9
REMARK Flexibility Score: inf
ROOT
ATOM      1  C   UNL     1     -33.352 -23.196  27.436  1.00  0.00     0.165 C 
ENDROOT
BRANCH   1   2
ATOM      2  C   UNL     1     -33.542 -22.642  26.018  1.00  0.00     0.190 C 
BRANCH   2   3
ATOM      3  O   UNL     1     -33.628 -21.243  26.045  1.00  0.00    -0.394 OA
ATOM      4  H   UNL     1     -34.585 -21.014  25.909  1.00  0.00     0.210 HD
ENDBRANCH   2   3
ENDBRANCH   1   2
BRANCH   1   5
ATOM      5  C   UNL     1     -32.418 -22.284  28.247  1.00  0.00     0.190 C 
BRANCH   5   6
ATOM      6  O   UNL     1     -31.134 -22.842  28.325  1.00  0.00    -0.394 OA
ATOM      7  H   UNL     1     -30.704 -22.698  27.442  1.00  0.00     0.210 HD
ENDBRANCH   5   6
ENDBRANCH   1   5
BRANCH   1   8
ATOM      8  O   UNL     1     -32.809 -24.488  27.354  1.00  0.00    -0.388 OA
ATOM      9  H   UNL     1     -32.010 -24.429  26.765  1.00  0.00     0.211 HD
ENDBRANCH   1   8
TORSDOF 5
ENDMDL
MODEL 4
REMARK VINA RESULT:    -3.596      1.307      2.834
REMARK INTER + INTRA:          -4.553
REMARK INTER:                  -4.370
REMARK INTRA:                  -0.183
REMARK UNBOUND:                -0.222
REMARK SMILES OCC(O)CO
REMARK SMILES IDX 3 1 5 2 6 3 2 5 1 6 4 8
REMARK H PARENT 6 4 1 7 4 9
REMARK Flexibility Score: inf
ROOT
ATOM      1  C   UNL     1     -33.261 -21.806  27.728  1.00  0.00     0.165 C 
ENDROOT
BRANCH   1   2
ATOM      2  C   UNL     1     -33.136 -22.957  26.722  1.00  0.00     0.190 C 
BRANCH   2   3
ATOM      3  O   UNL     1     -33.193 -24.193  27.382  1.00  0.00    -0.394 OA
ATOM      4  H   UNL     1     -33.142 -24.893  26.679  1.00  0.00     0.210 HD
ENDBRANCH   2   3
ENDBRANCH   1   2
BRANCH   1   5
ATOM      5  C   UNL     1     -32.115 -21.859  28.749  1.00  0.00     0.190 C 
BRANCH   5   6
ATOM      6  O   UNL     1     -31.111 -22.737  28.315  1.00  0.00    -0.394 OA
ATOM      7  H   UNL     1     -30.870 -22.463  27.392  1.00  0.00     0.210 HD
ENDBRANCH   5   6
ENDBRANCH   1   5
BRANCH   1   8
ATOM      8  O   UNL     1     -34.497 -21.905  28.387  1.00  0.00    -0.388 OA
ATOM      9  H   UNL     1     -35.200 -21.895  27.685  1.00  0.00     0.211 HD
ENDBRANCH   1   8
TORSDOF 5
ENDMDL
MODEL 5
REMARK VINA RESULT:    -3.592      1.271      1.991
REMARK INTER + INTRA:          -4.549
REMARK INTER:                  -4.546
REMARK INTRA:                  -0.003
REMARK UNBOUND:                -0.222
REMARK SMILES OCC(O)CO
REMARK SMILES IDX 3 1 5 2 6 3 2 5 1 6 4 8
REMARK H PARENT 6 4 1 7 4 9
REMARK Flexibility Score: inf
ROOT
ATOM      1  C   UNL     1     -33.385 -22.692  27.746  1.00  0.00     0.165 C 
ENDROOT
BRANCH   1   2
ATOM      2  C   UNL     1     -32.224 -22.036  28.504  1.00  0.00     0.190 C 
BRANCH   2   3
ATOM      3  O   UNL     1     -31.053 -22.794  28.360  1.00  0.00    -0.394 OA
ATOM      4  H   UNL     1     -30.758 -22.684  27.418  1.00  0.00     0.210 HD
ENDBRANCH   2   3
ENDBRANCH   1   2
BRANCH   1   5
ATOM      5  C   UNL     1     -33.155 -22.601  26.230  1.00  0.00     0.190 C 
BRANCH   5   6
ATOM      6  O   UNL     1     -34.352 -22.837  25.537  1.00  0.00    -0.394 OA
ATOM      7  H   UNL     1     -34.277 -23.741  25.134  1.00  0.00     0.210 HD
ENDBRANCH   5   6
ENDBRANCH   1   5
BRANCH   1   8
ATOM      8  O   UNL     1     -34.581 -22.042  28.090  1.00  0.00    -0.388 OA
ATOM      9  H   UNL     1     -34.330 -21.183  28.521  1.00  0.00     0.211 HD
ENDBRANCH   1   8
TORSDOF 5
ENDMDL
MODEL 6
REMARK VINA RESULT:    -3.570      1.547      1.812
REMARK INTER + INTRA:          -4.522
REMARK INTER:                  -4.299
REMARK INTRA:                  -0.223
REMARK UNBOUND:                -0.222
REMARK SMILES OCC(O)CO
REMARK SMILES IDX 3 1 5 2 6 3 2 5 1 6 4 8
REMARK H PARENT 6 4 1 7 4 9
REMARK Flexibility Score: inf
ROOT
ATOM      1  C   UNL     1     -32.774 -22.404  27.602  1.00  0.00     0.165 C 
ENDROOT
BRANCH   1   2
ATOM      2  C   UNL     1     -33.225 -21.178  28.406  1.00  0.00     0.190 C 
BRANCH   2   3
ATOM      3  O   UNL     1     -33.752 -20.199  27.552  1.00  0.00    -0.394 OA
ATOM      4  H   UNL     1     -34.737 -20.207  27.683  1.00  0.00     0.210 HD
ENDBRANCH   2   3
ENDBRANCH   1   2
BRANCH   1   5
ATOM      5  C   UNL     1     -33.913 -23.429  27.501  1.00  0.00     0.190 C 
BRANCH   5   6
ATOM      6  O   UNL     1     -35.154 -22.803  27.681  1.00  0.00    -0.394 OA
ATOM      7  H   UNL     1     -35.038 -22.140  28.411  1.00  0.00     0.210 HD
ENDBRANCH   5   6
ENDBRANCH   1   5
BRANCH   1   8
ATOM      8  O   UNL     1     -31.662 -22.983  28.236  1.00  0.00    -0.388 OA
ATOM      9  H   UNL     1     -32.008 -23.707  28.823  1.00  0.00     0.211 HD
ENDBRANCH   1   8
TORSDOF 5
ENDMDL
MODEL 7
REMARK VINA RESULT:    -3.410      0.826      2.521
REMARK INTER + INTRA:          -4.330
REMARK INTER:                  -4.117
REMARK INTRA:                  -0.213
REMARK UNBOUND:                -0.222
REMARK SMILES OCC(O)CO
REMARK SMILES IDX 3 1 5 2 6 3 2 5 1 6 4 8
REMARK H PARENT 6 4 1 7 4 9
REMARK Flexibility Score: inf
ROOT
ATOM      1  C   UNL     1     -32.953 -21.871  27.081  1.00  0.00     0.165 C 
ENDROOT
BRANCH   1   2
ATOM      2  C   UNL     1     -32.347 -23.243  27.402  1.00  0.00     0.190 C 
BRANCH   2   3
ATOM      3  O   UNL     1     -33.342 -24.231  27.400  1.00  0.00    -0.394 OA
ATOM      4  H   UNL     1     -34.207 -23.763  27.537  1.00  0.00     0.210 HD
ENDBRANCH   2   3
ENDBRANCH   1   2
BRANCH   1   5
ATOM      5  C   UNL     1     -33.720 -21.326  28.294  1.00  0.00     0.190 C 
BRANCH   5   6
ATOM      6  O   UNL     1     -35.017 -21.858  28.334  1.00  0.00    -0.394 OA
ATOM      7  H   UNL     1     -35.644 -21.098  28.216  1.00  0.00     0.210 HD
ENDBRANCH   5   6
ENDBRANCH   1   5
BRANCH   1   8
ATOM      8  O   UNL     1     -33.819 -21.999  25.982  1.00  0.00    -0.388 OA
ATOM      9  H   UNL     1     -33.252 -21.999  25.166  1.00  0.00     0.211 HD
ENDBRANCH   1   8
TORSDOF 5
ENDMDL
MODEL 8
REMARK VINA RESULT:    -3.324      2.268      3.307
REMARK INTER + INTRA:          -4.226
REMARK INTER:                  -4.003
REMARK INTRA:                  -0.223
REMARK UNBOUND:                -0.222
REMARK SMILES OCC(O)CO
REMARK SMILES IDX 3 1 5 2 6 3 2 5 1 6 4 8
REMARK H PARENT 6 4 1 7 4 9
REMARK Flexibility Score: inf
ROOT
ATOM      1  C   UNL     1     -32.383 -20.761  28.956  1.00  0.00     0.165 C 
ENDROOT
BRANCH   1   2
ATOM      2  C   UNL     1     -33.565 -21.566  28.401  1.00  0.00     0.190 C 
BRANCH   2   3
ATOM      3  O   UNL     1     -33.566 -21.533  26.999  1.00  0.00    -0.394 OA
ATOM      4  H   UNL     1     -33.240 -20.632  26.735  1.00  0.00     0.210 HD
ENDBRANCH   2   3
ENDBRANCH   1   2
BRANCH   1   5
ATOM      5  C   UNL     1     -31.162 -21.671  29.158  1.00  0.00     0.190 C 
BRANCH   5   6
ATOM      6  O   UNL     1     -31.252 -22.802  28.334  1.00  0.00    -0.394 OA
ATOM      7  H   UNL     1     -30.743 -22.597  27.507  1.00  0.00     0.210 HD
ENDBRANCH   5   6
ENDBRANCH   1   5
BRANCH   1   8
ATOM      8  O   UNL     1     -32.758 -20.181  30.179  1.00  0.00    -0.388 OA
ATOM      9  H   UNL     1     -32.382 -19.261  30.189  1.00  0.00     0.211 HD
ENDBRANCH   1   8
TORSDOF 5
ENDMDL
MODEL 9
REMARK VINA RESULT:    -3.311     11.097     11.830
REMARK INTER + INTRA:          -4.210
REMARK INTER:                  -4.203
REMARK INTRA:                  -0.007
REMARK UNBOUND:                -0.222
REMARK SMILES OCC(O)CO
REMARK SMILES IDX 3 1 5 2 6 3 2 5 1 6 4 8
REMARK H PARENT 6 4 1 7 4 9
REMARK Flexibility Score: inf
ROOT
ATOM      1  C   UNL     1     -22.523 -27.541  26.328  1.00  0.00     0.165 C 
ENDROOT
BRANCH   1   2
ATOM      2  C   UNL     1     -22.961 -28.625  27.322  1.00  0.00     0.190 C 
BRANCH   2   3
ATOM      3  O   UNL     1     -24.360 -28.687  27.395  1.00  0.00    -0.394 OA
ATOM      4  H   UNL     1     -24.584 -29.547  27.838  1.00  0.00     0.210 HD
ENDBRANCH   2   3
ENDBRANCH   1   2
BRANCH   1   5
ATOM      5  C   UNL     1     -23.079 -26.172  26.747  1.00  0.00     0.190 C 
BRANCH   5   6
ATOM      6  O   UNL     1     -22.042 -25.334  27.181  1.00  0.00    -0.394 OA
ATOM      7  H   UNL     1     -22.462 -24.480  27.464  1.00  0.00     0.210 HD
ENDBRANCH   5   6
ENDBRANCH   1   5
BRANCH   1   8
ATOM      8  O   UNL     1     -22.992 -27.879  25.048  1.00  0.00    -0.388 OA
ATOM      9  H   UNL     1     -22.220 -27.798  24.427  1.00  0.00     0.211 HD
ENDBRANCH   1   8
TORSDOF 5
ENDMDL
