MODEL 1
REMARK VINA RESULT:    -5.998      0.000      0.000
REMARK INTER + INTRA:          -6.721
REMARK INTER:                  -6.523
REMARK INTRA:                  -0.197
REMARK UNBOUND:                -0.197
REMARK SMILES Cc1ccc(C(C)C)c(O)c1
REMARK SMILES IDX 1 1 2 2 11 3 9 4 5 5 4 6 3 7 10 8 6 10 7 11 8 12
REMARK H PARENT 10 9
REMARK Flexibility Score: inf
ROOT
ATOM      1  C   UNL     1      38.190   6.039 102.348  1.00  0.00     0.044 C 
ATOM      2  C   UNL     1      38.430   4.714 103.010  1.00  0.00    -0.047 A 
ATOM      3  C   UNL     1      39.284   4.622 104.116  1.00  0.00     0.049 A 
ATOM      4  C   UNL     1      39.543   3.381 104.718  1.00  0.00     0.119 A 
ATOM      5  C   UNL     1      38.950   2.208 104.202  1.00  0.00    -0.004 A 
ATOM      6  C   UNL     1      38.109   2.310 103.076  1.00  0.00     0.008 A 
ATOM      7  C   UNL     1      37.857   3.549 102.484  1.00  0.00     0.004 A 
ENDROOT
BRANCH   4   8
ATOM      8  O   UNL     1      40.390   3.318 105.825  1.00  0.00    -0.508 OA
ATOM      9  H   UNL     1      40.158   2.768 106.643  1.00  0.00     0.293 HD
ENDBRANCH   4   8
BRANCH   5  10
ATOM     10  C   UNL     1      39.216   0.850 104.836  1.00  0.00     0.017 C 
ATOM     11  C   UNL     1      38.180   0.535 105.923  1.00  0.00     0.012 C 
ATOM     12  C   UNL     1      39.255  -0.257 103.776  1.00  0.00     0.012 C 
ENDBRANCH   5  10
TORSDOF 2
ENDMDL
MODEL 2
REMARK VINA RESULT:    -5.972      3.784      5.678
REMARK INTER + INTRA:          -6.693
REMARK INTER:                  -6.496
REMARK INTRA:                  -0.198
REMARK UNBOUND:                -0.197
REMARK SMILES Cc1ccc(C(C)C)c(O)c1
REMARK SMILES IDX 1 1 2 2 11 3 9 4 5 5 4 6 3 7 10 8 6 10 7 11 8 12
REMARK H PARENT 10 9
REMARK Flexibility Score: inf
ROOT
ATOM      1  C   UNL     1      38.571   1.210 105.294  1.00  0.00     0.044 C 
ATOM      2  C   UNL     1      38.529   1.142 106.792  1.00  0.00    -0.047 A 
ATOM      3  C   UNL     1      39.155   2.132 107.561  1.00  0.00     0.049 A 
ATOM      4  C   UNL     1      39.153   2.056 108.962  1.00  0.00     0.119 A 
ATOM      5  C   UNL     1      38.528   0.968 109.611  1.00  0.00    -0.004 A 
ATOM      6  C   UNL     1      37.920  -0.032 108.826  1.00  0.00     0.008 A 
ATOM      7  C   UNL     1      37.926   0.052 107.433  1.00  0.00     0.004 A 
ENDROOT
BRANCH   4   8
ATOM      8  O   UNL     1      39.776   3.060 109.705  1.00  0.00    -0.508 OA
ATOM      9  H   UNL     1      40.505   2.852 110.376  1.00  0.00     0.293 HD
ENDBRANCH   4   8
BRANCH   5  10
ATOM     10  C   UNL     1      38.513   0.863 111.129  1.00  0.00     0.017 C 
ATOM     11  C   UNL     1      37.084   0.681 111.657  1.00  0.00     0.012 C 
ATOM     12  C   UNL     1      39.427  -0.270 111.613  1.00  0.00     0.012 C 
ENDBRANCH   5  10
TORSDOF 2
ENDMDL
MODEL 3
REMARK VINA RESULT:    -5.612      1.549      2.359
REMARK INTER + INTRA:          -6.302
REMARK INTER:                  -6.101
REMARK INTRA:                  -0.200
REMARK UNBOUND:                -0.197
REMARK SMILES Cc1ccc(C(C)C)c(O)c1
REMARK SMILES IDX 1 1 2 2 11 3 9 4 5 5 4 6 3 7 10 8 6 10 7 11 8 12
REMARK H PARENT 10 9
REMARK Flexibility Score: inf
ROOT
ATOM      1  C   UNL     1      38.215   6.034 102.391  1.00  0.00     0.044 C 
ATOM      2  C   UNL     1      38.479   4.698 103.020  1.00  0.00    -0.047 A 
ATOM      3  C   UNL     1      37.886   3.542 102.496  1.00  0.00     0.049 A 
ATOM      4  C   UNL     1      38.098   2.294 103.101  1.00  0.00     0.119 A 
ATOM      5  C   UNL     1      38.905   2.195 104.255  1.00  0.00    -0.004 A 
ATOM      6  C   UNL     1      39.479   3.367 104.785  1.00  0.00     0.008 A 
ATOM      7  C   UNL     1      39.263   4.605 104.176  1.00  0.00     0.004 A 
ENDROOT
BRANCH   4   8
ATOM      8  O   UNL     1      37.504   1.155 102.553  1.00  0.00    -0.508 OA
ATOM      9  H   UNL     1      38.050   0.344 102.288  1.00  0.00     0.293 HD
ENDBRANCH   4   8
BRANCH   5  10
ATOM     10  C   UNL     1      39.150   0.852 104.930  1.00  0.00     0.017 C 
ATOM     11  C   UNL     1      40.628   0.683 105.306  1.00  0.00     0.012 C 
ATOM     12  C   UNL     1      38.246   0.678 106.157  1.00  0.00     0.012 C 
ENDBRANCH   5  10
TORSDOF 2
ENDMDL
MODEL 4
REMARK VINA RESULT:    -5.591      1.927      4.282
REMARK INTER + INTRA:          -6.279
REMARK INTER:                  -6.082
REMARK INTRA:                  -0.197
REMARK UNBOUND:                -0.197
REMARK SMILES Cc1ccc(C(C)C)c(O)c1
REMARK SMILES IDX 1 1 2 2 11 3 9 4 5 5 4 6 3 7 10 8 6 10 7 11 8 12
REMARK H PARENT 10 9
REMARK Flexibility Score: inf
ROOT
ATOM      1  C   UNL     1      38.441   1.214 109.657  1.00  0.00     0.044 C 
ATOM      2  C   UNL     1      38.717   1.447 108.200  1.00  0.00    -0.047 A 
ATOM      3  C   UNL     1      39.306   2.645 107.776  1.00  0.00     0.049 A 
ATOM      4  C   UNL     1      39.533   2.886 106.413  1.00  0.00     0.119 A 
ATOM      5  C   UNL     1      39.156   1.922 105.452  1.00  0.00    -0.004 A 
ATOM      6  C   UNL     1      38.545   0.730 105.889  1.00  0.00     0.008 A 
ATOM      7  C   UNL     1      38.323   0.499 107.247  1.00  0.00     0.004 A 
ENDROOT
BRANCH   4   8
ATOM      8  O   UNL     1      40.131   4.083 106.017  1.00  0.00    -0.508 OA
ATOM      9  H   UNL     1      40.113   4.395 105.053  1.00  0.00     0.293 HD
ENDBRANCH   4   8
BRANCH   5  10
ATOM     10  C   UNL     1      39.391   2.161 103.966  1.00  0.00     0.017 C 
ATOM     11  C   UNL     1      40.377   1.135 103.391  1.00  0.00     0.012 C 
ATOM     12  C   UNL     1      38.069   2.150 103.190  1.00  0.00     0.012 C 
ENDBRANCH   5  10
TORSDOF 2
ENDMDL
MODEL 5
REMARK VINA RESULT:    -5.536      7.609     10.268
REMARK INTER + INTRA:          -6.219
REMARK INTER:                  -6.027
REMARK INTRA:                  -0.192
REMARK UNBOUND:                -0.197
REMARK SMILES Cc1ccc(C(C)C)c(O)c1
REMARK SMILES IDX 1 1 2 2 11 3 9 4 5 5 4 6 3 7 10 8 6 10 7 11 8 12
REMARK H PARENT 10 9
REMARK Flexibility Score: inf
ROOT
ATOM      1  C   UNL     1      38.089  -8.556 104.760  1.00  0.00     0.044 C 
ATOM      2  C   UNL     1      37.782  -7.533 103.707  1.00  0.00    -0.047 A 
ATOM      3  C   UNL     1      38.067  -7.798 102.361  1.00  0.00     0.049 A 
ATOM      4  C   UNL     1      37.818  -6.832 101.374  1.00  0.00     0.119 A 
ATOM      5  C   UNL     1      37.288  -5.574 101.734  1.00  0.00    -0.004 A 
ATOM      6  C   UNL     1      37.026  -5.311 103.093  1.00  0.00     0.008 A 
ATOM      7  C   UNL     1      37.276  -6.278 104.068  1.00  0.00     0.004 A 
ENDROOT
BRANCH   4   8
ATOM      8  O   UNL     1      38.101  -7.126 100.039  1.00  0.00    -0.508 OA
ATOM      9  H   UNL     1      37.372  -7.162  99.336  1.00  0.00     0.293 HD
ENDBRANCH   4   8
BRANCH   5  10
ATOM     10  C   UNL     1      37.010  -4.509 100.682  1.00  0.00     0.017 C 
ATOM     11  C   UNL     1      35.595  -4.654 100.109  1.00  0.00     0.012 C 
ATOM     12  C   UNL     1      37.234  -3.101 101.249  1.00  0.00     0.012 C 
ENDBRANCH   5  10
TORSDOF 2
ENDMDL
MODEL 6
REMARK VINA RESULT:    -5.486      9.790     11.050
REMARK INTER + INTRA:          -6.165
REMARK INTER:                  -5.966
REMARK INTRA:                  -0.199
REMARK UNBOUND:                -0.197
REMARK SMILES Cc1ccc(C(C)C)c(O)c1
REMARK SMILES IDX 1 1 2 2 11 3 9 4 5 5 4 6 3 7 10 8 6 10 7 11 8 12
REMARK H PARENT 10 9
REMARK Flexibility Score: inf
ROOT
ATOM      1  C   UNL     1      37.342  -6.812 101.938  1.00  0.00     0.044 C 
ATOM      2  C   UNL     1      37.505  -7.132 103.395  1.00  0.00    -0.047 A 
ATOM      3  C   UNL     1      37.743  -8.450 103.805  1.00  0.00     0.049 A 
ATOM      4  C   UNL     1      37.859  -8.764 105.168  1.00  0.00     0.119 A 
ATOM      5  C   UNL     1      37.723  -7.750 106.141  1.00  0.00    -0.004 A 
ATOM      6  C   UNL     1      37.463  -6.432 105.717  1.00  0.00     0.008 A 
ATOM      7  C   UNL     1      37.349  -6.129 104.359  1.00  0.00     0.004 A 
ENDROOT
BRANCH   4   8
ATOM      8  O   UNL     1      38.107 -10.083 105.550  1.00  0.00    -0.508 OA
ATOM      9  H   UNL     1      37.966 -10.397 106.503  1.00  0.00     0.293 HD
ENDBRANCH   4   8
BRANCH   5  10
ATOM     10  C   UNL     1      37.844  -8.065 107.626  1.00  0.00     0.017 C 
ATOM     11  C   UNL     1      39.172  -7.547 108.195  1.00  0.00     0.012 C 
ATOM     12  C   UNL     1      36.652  -7.501 108.409  1.00  0.00     0.012 C 
ENDBRANCH   5  10
TORSDOF 2
ENDMDL
MODEL 7
REMARK VINA RESULT:    -5.486      4.276      6.177
REMARK INTER + INTRA:          -6.165
REMARK INTER:                  -5.974
REMARK INTRA:                  -0.190
REMARK UNBOUND:                -0.197
REMARK SMILES Cc1ccc(C(C)C)c(O)c1
REMARK SMILES IDX 1 1 2 2 11 3 9 4 5 5 4 6 3 7 10 8 6 10 7 11 8 12
REMARK H PARENT 10 9
REMARK Flexibility Score: inf
ROOT
ATOM      1  C   UNL     1      39.569   2.590 106.920  1.00  0.00     0.044 C 
ATOM      2  C   UNL     1      38.938   1.666 107.920  1.00  0.00    -0.047 A 
ATOM      3  C   UNL     1      39.150   1.859 109.292  1.00  0.00     0.049 A 
ATOM      4  C   UNL     1      38.594   0.979 110.232  1.00  0.00     0.119 A 
ATOM      5  C   UNL     1      37.823  -0.123 109.799  1.00  0.00    -0.004 A 
ATOM      6  C   UNL     1      37.635  -0.319 108.417  1.00  0.00     0.008 A 
ATOM      7  C   UNL     1      38.191   0.563 107.489  1.00  0.00     0.004 A 
ENDROOT
BRANCH   4   8
ATOM      8  O   UNL     1      38.812   1.199 111.593  1.00  0.00    -0.508 OA
ATOM      9  H   UNL     1      39.031   2.120 111.954  1.00  0.00     0.293 HD
ENDBRANCH   4   8
BRANCH   5  10
ATOM     10  C   UNL     1      37.210  -1.094 110.800  1.00  0.00     0.017 C 
ATOM     11  C   UNL     1      35.881  -1.657 110.280  1.00  0.00     0.012 C 
ATOM     12  C   UNL     1      38.189  -2.222 111.145  1.00  0.00     0.012 C 
ENDBRANCH   5  10
TORSDOF 2
ENDMDL
MODEL 8
REMARK VINA RESULT:    -5.486      9.318     10.577
REMARK INTER + INTRA:          -6.164
REMARK INTER:                  -5.977
REMARK INTRA:                  -0.187
REMARK UNBOUND:                -0.197
REMARK SMILES Cc1ccc(C(C)C)c(O)c1
REMARK SMILES IDX 1 1 2 2 11 3 9 4 5 5 4 6 3 7 10 8 6 10 7 11 8 12
REMARK H PARENT 10 9
REMARK Flexibility Score: inf
ROOT
ATOM      1  C   UNL     1      37.430  -6.934 106.647  1.00  0.00     0.044 C 
ATOM      2  C   UNL     1      37.364  -6.868 105.149  1.00  0.00    -0.047 A 
ATOM      3  C   UNL     1      37.731  -7.979 104.377  1.00  0.00     0.049 A 
ATOM      4  C   UNL     1      37.708  -7.914 102.976  1.00  0.00     0.119 A 
ATOM      5  C   UNL     1      37.325  -6.718 102.330  1.00  0.00    -0.004 A 
ATOM      6  C   UNL     1      36.979  -5.602 103.116  1.00  0.00     0.008 A 
ATOM      7  C   UNL     1      37.004  -5.676 104.510  1.00  0.00     0.004 A 
ENDROOT
BRANCH   4   8
ATOM      8  O   UNL     1      38.068  -9.038 102.231  1.00  0.00    -0.508 OA
ATOM      9  H   UNL     1      38.566  -8.957 101.352  1.00  0.00     0.293 HD
ENDBRANCH   4   8
BRANCH   5  10
ATOM     10  C   UNL     1      37.293  -6.622 100.811  1.00  0.00     0.017 C 
ATOM     11  C   UNL     1      36.199  -5.654 100.341  1.00  0.00     0.012 C 
ATOM     12  C   UNL     1      38.664  -6.217 100.254  1.00  0.00     0.012 C 
ENDBRANCH   5  10
TORSDOF 2
ENDMDL
MODEL 9
REMARK VINA RESULT:    -5.329      3.427      4.397
REMARK INTER + INTRA:          -5.993
REMARK INTER:                  -5.793
REMARK INTRA:                  -0.200
REMARK UNBOUND:                -0.197
REMARK SMILES Cc1ccc(C(C)C)c(O)c1
REMARK SMILES IDX 1 1 2 2 11 3 9 4 5 5 4 6 3 7 10 8 6 10 7 11 8 12
REMARK H PARENT 10 9
REMARK Flexibility Score: inf
ROOT
ATOM      1  C   UNL     1      38.704   3.589 103.387  1.00  0.00     0.044 C 
ATOM      2  C   UNL     1      38.057   2.310 102.944  1.00  0.00    -0.047 A 
ATOM      3  C   UNL     1      37.002   2.335 102.022  1.00  0.00     0.049 A 
ATOM      4  C   UNL     1      36.367   1.146 101.631  1.00  0.00     0.119 A 
ATOM      5  C   UNL     1      36.780  -0.089 102.176  1.00  0.00    -0.004 A 
ATOM      6  C   UNL     1      37.828  -0.099 103.118  1.00  0.00     0.008 A 
ATOM      7  C   UNL     1      38.454   1.088 103.501  1.00  0.00     0.004 A 
ENDROOT
BRANCH   4   8
ATOM      8  O   UNL     1      35.326   1.198 100.703  1.00  0.00    -0.508 OA
ATOM      9  H   UNL     1      35.089   2.053 100.214  1.00  0.00     0.293 HD
ENDBRANCH   4   8
BRANCH   5  10
ATOM     10  C   UNL     1      36.106  -1.392 101.769  1.00  0.00     0.017 C 
ATOM     11  C   UNL     1      36.965  -2.166 100.759  1.00  0.00     0.012 C 
ATOM     12  C   UNL     1      35.785  -2.255 102.995  1.00  0.00     0.012 C 
ENDBRANCH   5  10
TORSDOF 2
ENDMDL
