MODEL 1
REMARK VINA RESULT:    -5.128      0.000      0.000
REMARK INTER + INTRA:          -6.193
REMARK INTER:                  -6.027
REMARK INTRA:                  -0.166
REMARK UNBOUND:                -0.166
REMARK SMILES COc1ccc(C=CC(=O)[O-])cc1
REMARK SMILES IDX 6 1 5 2 12 3 4 4 13 5 3 6 7 7 8 8 9 9 10 10 11 11 2 12 1 13
REMARK H PARENT
REMARK Flexibility Score: inf
ROOT
ATOM      1  C   UNL     1      15.770 -33.049 -20.594  1.00  0.00    -0.025 A 
ATOM      2  C   UNL     1      15.946 -33.341 -19.232  1.00  0.00     0.012 A 
ATOM      3  C   UNL     1      14.468 -33.081 -21.132  1.00  0.00     0.012 A 
ATOM      4  C   UNL     1      14.854 -33.681 -18.427  1.00  0.00     0.047 A 
ATOM      5  C   UNL     1      13.377 -33.420 -20.326  1.00  0.00     0.047 A 
ATOM      6  C   UNL     1      13.558 -33.726 -18.974  1.00  0.00     0.118 A 
ENDROOT
BRANCH   1   7
ATOM      7  C   UNL     1      16.960 -32.683 -21.401  1.00  0.00     0.010 C 
ATOM      8  C   UNL     1      18.109 -33.375 -21.391  1.00  0.00     0.025 C 
BRANCH   8   9
ATOM      9  C   UNL     1      19.274 -32.973 -22.198  1.00  0.00     0.064 C 
ATOM     10  O   UNL     1      19.549 -31.758 -22.387  1.00  0.00    -0.545 OA
ATOM     11  O   UNL     1      20.083 -33.952 -22.761  1.00  0.00    -0.545 OA
ENDBRANCH   8   9
ENDBRANCH   1   7
BRANCH   6  12
ATOM     12  O   UNL     1      12.430 -34.062 -18.210  1.00  0.00    -0.497 OA
ATOM     13  C   UNL     1      11.699 -35.277 -18.347  1.00  0.00     0.278 C 
ENDBRANCH   6  12
TORSDOF 3
ENDMDL
MODEL 2
REMARK VINA RESULT:    -4.787     12.871     14.637
REMARK INTER + INTRA:          -5.792
REMARK INTER:                  -5.629
REMARK INTRA:                  -0.162
REMARK UNBOUND:                -0.166
REMARK SMILES COc1ccc(C=CC(=O)[O-])cc1
REMARK SMILES IDX 6 1 5 2 12 3 4 4 13 5 3 6 7 7 8 8 9 9 10 10 11 11 2 12 1 13
REMARK H PARENT
REMARK Flexibility Score: inf
ROOT
ATOM      1  C   UNL     1       8.197 -24.888 -12.082  1.00  0.00    -0.025 A 
ATOM      2  C   UNL     1       8.909 -25.890 -12.761  1.00  0.00     0.012 A 
ATOM      3  C   UNL     1       8.410 -24.723 -10.699  1.00  0.00     0.012 A 
ATOM      4  C   UNL     1       9.794 -26.727 -12.074  1.00  0.00     0.047 A 
ATOM      5  C   UNL     1       9.297 -25.560 -10.015  1.00  0.00     0.047 A 
ATOM      6  C   UNL     1       9.991 -26.568 -10.691  1.00  0.00     0.118 A 
ENDROOT
BRANCH   1   7
ATOM      7  C   UNL     1       7.278 -24.020 -12.859  1.00  0.00     0.010 C 
ATOM      8  C   UNL     1       7.683 -23.182 -13.825  1.00  0.00     0.025 C 
BRANCH   8   9
ATOM      9  C   UNL     1       6.742 -22.325 -14.566  1.00  0.00     0.064 C 
ATOM     10  O   UNL     1       5.510 -22.326 -14.300  1.00  0.00    -0.545 OA
ATOM     11  O   UNL     1       7.221 -21.503 -15.578  1.00  0.00    -0.545 OA
ENDBRANCH   8   9
ENDBRANCH   1   7
BRANCH   6  12
ATOM     12  O   UNL     1      10.868 -27.382  -9.956  1.00  0.00    -0.497 OA
ATOM     13  C   UNL     1      10.722 -28.791  -9.808  1.00  0.00     0.278 C 
ENDBRANCH   6  12
TORSDOF 3
ENDMDL
MODEL 3
REMARK VINA RESULT:    -4.770      6.652      8.140
REMARK INTER + INTRA:          -5.772
REMARK INTER:                  -5.609
REMARK INTRA:                  -0.163
REMARK UNBOUND:                -0.166
REMARK SMILES COc1ccc(C=CC(=O)[O-])cc1
REMARK SMILES IDX 6 1 5 2 12 3 4 4 13 5 3 6 7 7 8 8 9 9 10 10 11 11 2 12 1 13
REMARK H PARENT
REMARK Flexibility Score: inf
ROOT
ATOM      1  C   UNL     1       9.142 -32.868 -19.124  1.00  0.00    -0.025 A 
ATOM      2  C   UNL     1       8.140 -32.175 -18.426  1.00  0.00     0.012 A 
ATOM      3  C   UNL     1       9.436 -32.485 -20.447  1.00  0.00     0.012 A 
ATOM      4  C   UNL     1       7.427 -31.141 -19.039  1.00  0.00     0.047 A 
ATOM      5  C   UNL     1       8.723 -31.449 -21.059  1.00  0.00     0.047 A 
ATOM      6  C   UNL     1       7.714 -30.772 -20.366  1.00  0.00     0.118 A 
ENDROOT
BRANCH   1   7
ATOM      7  C   UNL     1       9.876 -33.951 -18.424  1.00  0.00     0.010 C 
ATOM      8  C   UNL     1      10.515 -33.785 -17.256  1.00  0.00     0.025 C 
BRANCH   8   9
ATOM      9  C   UNL     1      11.245 -34.881 -16.597  1.00  0.00     0.064 C 
ATOM     10  O   UNL     1      11.190 -35.043 -15.349  1.00  0.00    -0.545 OA
ATOM     11  O   UNL     1      12.009 -35.751 -17.365  1.00  0.00    -0.545 OA
ENDBRANCH   8   9
ENDBRANCH   1   7
BRANCH   6  12
ATOM     12  O   UNL     1       7.028 -29.742 -21.027  1.00  0.00    -0.497 OA
ATOM     13  C   UNL     1       6.985 -28.390 -20.580  1.00  0.00     0.278 C 
ENDBRANCH   6  12
TORSDOF 3
ENDMDL
MODEL 4
REMARK VINA RESULT:    -4.690      4.534      7.554
REMARK INTER + INTRA:          -5.678
REMARK INTER:                  -5.502
REMARK INTRA:                  -0.176
REMARK UNBOUND:                -0.166
REMARK SMILES COc1ccc(C=CC(=O)[O-])cc1
REMARK SMILES IDX 6 1 5 2 12 3 4 4 13 5 3 6 7 7 8 8 9 9 10 10 11 11 2 12 1 13
REMARK H PARENT
REMARK Flexibility Score: inf
ROOT
ATOM      1  C   UNL     1      19.514 -29.927 -22.959  1.00  0.00    -0.025 A 
ATOM      2  C   UNL     1      18.620 -29.151 -22.204  1.00  0.00     0.012 A 
ATOM      3  C   UNL     1      20.212 -29.317 -24.021  1.00  0.00     0.012 A 
ATOM      4  C   UNL     1      18.405 -27.805 -22.514  1.00  0.00     0.047 A 
ATOM      5  C   UNL     1      19.996 -27.970 -24.329  1.00  0.00     0.047 A 
ATOM      6  C   UNL     1      19.093 -27.205 -23.585  1.00  0.00     0.118 A 
ENDROOT
BRANCH   1   7
ATOM      7  C   UNL     1      19.715 -31.347 -22.583  1.00  0.00     0.010 C 
ATOM      8  C   UNL     1      18.730 -32.153 -22.161  1.00  0.00     0.025 C 
BRANCH   8   9
ATOM      9  C   UNL     1      18.970 -33.557 -21.784  1.00  0.00     0.064 C 
ATOM     10  O   UNL     1      18.170 -34.176 -21.033  1.00  0.00    -0.545 OA
ATOM     11  O   UNL     1      20.099 -34.208 -22.264  1.00  0.00    -0.545 OA
ENDBRANCH   8   9
ENDBRANCH   1   7
BRANCH   6  12
ATOM     12  O   UNL     1      18.912 -25.858 -23.937  1.00  0.00    -0.497 OA
ATOM     13  C   UNL     1      19.753 -25.143 -24.836  1.00  0.00     0.278 C 
ENDBRANCH   6  12
TORSDOF 3
ENDMDL
MODEL 5
REMARK VINA RESULT:    -4.627      5.554      8.049
REMARK INTER + INTRA:          -5.604
REMARK INTER:                  -5.447
REMARK INTRA:                  -0.156
REMARK UNBOUND:                -0.166
REMARK SMILES COc1ccc(C=CC(=O)[O-])cc1
REMARK SMILES IDX 6 1 5 2 12 3 4 4 13 5 3 6 7 7 8 8 9 9 10 10 11 11 2 12 1 13
REMARK H PARENT
REMARK Flexibility Score: inf
ROOT
ATOM      1  C   UNL     1       9.314 -32.145 -20.035  1.00  0.00    -0.025 A 
ATOM      2  C   UNL     1       8.701 -33.279 -19.481  1.00  0.00     0.012 A 
ATOM      3  C   UNL     1      10.718 -32.121 -20.150  1.00  0.00     0.012 A 
ATOM      4  C   UNL     1       9.468 -34.355 -19.025  1.00  0.00     0.047 A 
ATOM      5  C   UNL     1      11.484 -33.198 -19.696  1.00  0.00     0.047 A 
ATOM      6  C   UNL     1      10.871 -34.319 -19.128  1.00  0.00     0.118 A 
ENDROOT
BRANCH   1   7
ATOM      7  C   UNL     1       8.454 -31.034 -20.513  1.00  0.00     0.010 C 
ATOM      8  C   UNL     1       8.764 -29.737 -20.371  1.00  0.00     0.025 C 
BRANCH   8   9
ATOM      9  C   UNL     1       7.879 -28.661 -20.847  1.00  0.00     0.064 C 
ATOM     10  O   UNL     1       6.629 -28.816 -20.892  1.00  0.00    -0.545 OA
ATOM     11  O   UNL     1       8.431 -27.454 -21.256  1.00  0.00    -0.545 OA
ENDBRANCH   8   9
ENDBRANCH   1   7
BRANCH   6  12
ATOM     12  O   UNL     1      11.686 -35.373 -18.686  1.00  0.00    -0.497 OA
ATOM     13  C   UNL     1      11.989 -35.636 -17.319  1.00  0.00     0.278 C 
ENDBRANCH   6  12
TORSDOF 3
ENDMDL
MODEL 6
REMARK VINA RESULT:    -4.585      1.485      6.315
REMARK INTER + INTRA:          -5.555
REMARK INTER:                  -5.399
REMARK INTRA:                  -0.155
REMARK UNBOUND:                -0.166
REMARK SMILES COc1ccc(C=CC(=O)[O-])cc1
REMARK SMILES IDX 6 1 5 2 12 3 4 4 13 5 3 6 7 7 8 8 9 9 10 10 11 11 2 12 1 13
REMARK H PARENT
REMARK Flexibility Score: inf
ROOT
ATOM      1  C   UNL     1      16.409 -32.614 -20.325  1.00  0.00    -0.025 A 
ATOM      2  C   UNL     1      16.713 -31.245 -20.286  1.00  0.00     0.012 A 
ATOM      3  C   UNL     1      17.233 -33.471 -21.081  1.00  0.00     0.012 A 
ATOM      4  C   UNL     1      17.799 -30.733 -21.005  1.00  0.00     0.047 A 
ATOM      5  C   UNL     1      18.318 -32.959 -21.798  1.00  0.00     0.047 A 
ATOM      6  C   UNL     1      18.609 -31.592 -21.770  1.00  0.00     0.118 A 
ENDROOT
BRANCH   1   7
ATOM      7  C   UNL     1      15.253 -33.108 -19.536  1.00  0.00     0.010 C 
ATOM      8  C   UNL     1      14.045 -33.359 -20.061  1.00  0.00     0.025 C 
BRANCH   8   9
ATOM      9  C   UNL     1      12.917 -33.836 -19.243  1.00  0.00     0.064 C 
ATOM     10  O   UNL     1      11.725 -33.685 -19.624  1.00  0.00    -0.545 OA
ATOM     11  O   UNL     1      13.172 -34.463 -18.030  1.00  0.00    -0.545 OA
ENDBRANCH   8   9
ENDBRANCH   1   7
BRANCH   6  12
ATOM     12  O   UNL     1      19.708 -31.129 -22.509  1.00  0.00    -0.497 OA
ATOM     13  C   UNL     1      19.746 -29.883 -23.199  1.00  0.00     0.278 C 
ENDBRANCH   6  12
TORSDOF 3
ENDMDL
MODEL 7
REMARK VINA RESULT:    -4.581      2.564      3.849
REMARK INTER + INTRA:          -5.549
REMARK INTER:                  -5.378
REMARK INTRA:                  -0.172
REMARK UNBOUND:                -0.166
REMARK SMILES COc1ccc(C=CC(=O)[O-])cc1
REMARK SMILES IDX 6 1 5 2 12 3 4 4 13 5 3 6 7 7 8 8 9 9 10 10 11 11 2 12 1 13
REMARK H PARENT
REMARK Flexibility Score: inf
ROOT
ATOM      1  C   UNL     1      18.357 -31.716 -21.709  1.00  0.00    -0.025 A 
ATOM      2  C   UNL     1      17.487 -30.935 -20.933  1.00  0.00     0.012 A 
ATOM      3  C   UNL     1      18.212 -33.118 -21.688  1.00  0.00     0.012 A 
ATOM      4  C   UNL     1      16.509 -31.535 -20.133  1.00  0.00     0.047 A 
ATOM      5  C   UNL     1      17.234 -33.716 -20.888  1.00  0.00     0.047 A 
ATOM      6  C   UNL     1      16.379 -32.936 -20.104  1.00  0.00     0.118 A 
ENDROOT
BRANCH   1   7
ATOM      7  C   UNL     1      19.370 -31.030 -22.549  1.00  0.00     0.010 C 
ATOM      8  C   UNL     1      19.286 -29.742 -22.914  1.00  0.00     0.025 C 
BRANCH   8   9
ATOM      9  C   UNL     1      20.305 -29.098 -23.760  1.00  0.00     0.064 C 
ATOM     10  O   UNL     1      20.733 -29.657 -24.806  1.00  0.00    -0.545 OA
ATOM     11  O   UNL     1      20.805 -27.854 -23.398  1.00  0.00    -0.545 OA
ENDBRANCH   8   9
ENDBRANCH   1   7
BRANCH   6  12
ATOM     12  O   UNL     1      15.416 -33.587 -19.318  1.00  0.00    -0.497 OA
ATOM     13  C   UNL     1      15.348 -33.504 -17.897  1.00  0.00     0.278 C 
ENDBRANCH   6  12
TORSDOF 3
ENDMDL
MODEL 8
REMARK VINA RESULT:    -4.540     10.162     12.157
REMARK INTER + INTRA:          -5.502
REMARK INTER:                  -5.332
REMARK INTRA:                  -0.170
REMARK UNBOUND:                -0.166
REMARK SMILES COc1ccc(C=CC(=O)[O-])cc1
REMARK SMILES IDX 6 1 5 2 12 3 4 4 13 5 3 6 7 7 8 8 9 9 10 10 11 11 2 12 1 13
REMARK H PARENT
REMARK Flexibility Score: inf
ROOT
ATOM      1  C   UNL     1      10.713 -29.411 -11.238  1.00  0.00    -0.025 A 
ATOM      2  C   UNL     1      10.309 -28.819 -12.445  1.00  0.00     0.012 A 
ATOM      3  C   UNL     1      10.714 -28.629 -10.066  1.00  0.00     0.012 A 
ATOM      4  C   UNL     1       9.939 -27.471 -12.492  1.00  0.00     0.047 A 
ATOM      5  C   UNL     1      10.342 -27.282 -10.113  1.00  0.00     0.047 A 
ATOM      6  C   UNL     1       9.956 -26.691 -11.321  1.00  0.00     0.118 A 
ENDROOT
BRANCH   1   7
ATOM      7  C   UNL     1      11.086 -30.847 -11.241  1.00  0.00     0.010 C 
ATOM      8  C   UNL     1      10.467 -31.776 -11.984  1.00  0.00     0.025 C 
BRANCH   8   9
ATOM      9  C   UNL     1      10.858 -33.196 -11.951  1.00  0.00     0.064 C 
ATOM     10  O   UNL     1      10.721 -33.934 -12.963  1.00  0.00    -0.545 OA
ATOM     11  O   UNL     1      11.385 -33.731 -10.783  1.00  0.00    -0.545 OA
ENDBRANCH   8   9
ENDBRANCH   1   7
BRANCH   6  12
ATOM     12  O   UNL     1       9.594 -25.335 -11.314  1.00  0.00    -0.497 OA
ATOM     13  C   UNL     1       8.552 -24.786 -10.513  1.00  0.00     0.278 C 
ENDBRANCH   6  12
TORSDOF 3
ENDMDL
MODEL 9
REMARK VINA RESULT:    -4.482      1.886      2.141
REMARK INTER + INTRA:          -5.434
REMARK INTER:                  -5.253
REMARK INTRA:                  -0.181
REMARK UNBOUND:                -0.166
REMARK SMILES COc1ccc(C=CC(=O)[O-])cc1
REMARK SMILES IDX 6 1 5 2 12 3 4 4 13 5 3 6 7 7 8 8 9 9 10 10 11 11 2 12 1 13
REMARK H PARENT
REMARK Flexibility Score: inf
ROOT
ATOM      1  C   UNL     1      15.019 -32.851 -20.398  1.00  0.00    -0.025 A 
ATOM      2  C   UNL     1      14.867 -31.458 -20.304  1.00  0.00     0.012 A 
ATOM      3  C   UNL     1      13.896 -33.672 -20.177  1.00  0.00     0.012 A 
ATOM      4  C   UNL     1      13.631 -30.896 -19.972  1.00  0.00     0.047 A 
ATOM      5  C   UNL     1      12.660 -33.108 -19.845  1.00  0.00     0.047 A 
ATOM      6  C   UNL     1      12.516 -31.722 -19.737  1.00  0.00     0.118 A 
ENDROOT
BRANCH   1   7
ATOM      7  C   UNL     1      16.349 -33.397 -20.765  1.00  0.00     0.010 C 
ATOM      8  C   UNL     1      17.296 -32.690 -21.399  1.00  0.00     0.025 C 
BRANCH   8   9
ATOM      9  C   UNL     1      18.601 -33.271 -21.758  1.00  0.00     0.064 C 
ATOM     10  O   UNL     1      19.446 -32.615 -22.424  1.00  0.00    -0.545 OA
ATOM     11  O   UNL     1      18.906 -34.565 -21.355  1.00  0.00    -0.545 OA
ENDBRANCH   8   9
ENDBRANCH   1   7
BRANCH   6  12
ATOM     12  O   UNL     1      11.255 -31.207 -19.400  1.00  0.00    -0.497 OA
ATOM     13  C   UNL     1      10.052 -31.970 -19.391  1.00  0.00     0.278 C 
ENDBRANCH   6  12
TORSDOF 3
ENDMDL
