MODEL 1
REMARK VINA RESULT:    -2.053      0.000      0.000
REMARK INTER + INTRA:          -2.053
REMARK INTER:                  -2.053
REMARK INTRA:                   0.000
REMARK UNBOUND:                 0.000
REMARK SMILES CC(=O)[O-]
REMARK SMILES IDX 1 1 2 2 3 3 4 4
REMARK H PARENT
REMARK Flexibility Score: inf
ROOT
ATOM      1  C   UNL     1       7.105  46.983  52.436  1.00  0.00     0.063 C 
ATOM      2  C   UNL     1       6.117  45.881  52.254  1.00  0.00     0.038 C 
ATOM      3  O   UNL     1       4.887  46.139  52.188  1.00  0.00    -0.550 OA
ATOM      4  O   UNL     1       6.556  44.572  52.103  1.00  0.00    -0.550 OA
ENDROOT
TORSDOF 0
ENDMDL
MODEL 2
REMARK VINA RESULT:    -2.036      1.558      1.832
REMARK INTER + INTRA:          -2.036
REMARK INTER:                  -2.036
REMARK INTRA:                   0.000
REMARK UNBOUND:                 0.000
REMARK SMILES CC(=O)[O-]
REMARK SMILES IDX 1 1 2 2 3 3 4 4
REMARK H PARENT
REMARK Flexibility Score: inf
ROOT
ATOM      1  C   UNL     1       6.417  44.943  52.111  1.00  0.00     0.063 C 
ATOM      2  C   UNL     1       6.159  46.401  52.293  1.00  0.00     0.038 C 
ATOM      3  O   UNL     1       4.982  46.844  52.255  1.00  0.00    -0.550 OA
ATOM      4  O   UNL     1       7.213  47.266  52.559  1.00  0.00    -0.550 OA
ENDROOT
TORSDOF 0
ENDMDL
MODEL 3
REMARK VINA RESULT:    -1.997     16.707     17.035
REMARK INTER + INTRA:          -1.997
REMARK INTER:                  -1.997
REMARK INTRA:                   0.000
REMARK UNBOUND:                 0.000
REMARK SMILES CC(=O)[O-]
REMARK SMILES IDX 1 1 2 2 3 3 4 4
REMARK H PARENT
REMARK Flexibility Score: inf
ROOT
ATOM      1  C   UNL     1      17.462  49.870  41.120  1.00  0.00     0.063 C 
ATOM      2  C   UNL     1      18.349  50.973  41.590  1.00  0.00     0.038 C 
ATOM      3  O   UNL     1      17.876  52.123  41.788  1.00  0.00    -0.550 OA
ATOM      4  O   UNL     1      19.688  50.722  41.860  1.00  0.00    -0.550 OA
ENDROOT
TORSDOF 0
ENDMDL
MODEL 4
REMARK VINA RESULT:    -1.990     18.743     19.154
REMARK INTER + INTRA:          -1.990
REMARK INTER:                  -1.990
REMARK INTRA:                   0.000
REMARK UNBOUND:                 0.000
REMARK SMILES CC(=O)[O-]
REMARK SMILES IDX 1 1 2 2 3 3 4 4
REMARK H PARENT
REMARK Flexibility Score: inf
ROOT
ATOM      1  C   UNL     1      22.484  51.777  41.384  1.00  0.00     0.063 C 
ATOM      2  C   UNL     1      21.141  51.257  41.771  1.00  0.00     0.038 C 
ATOM      3  O   UNL     1      20.992  50.039  42.053  1.00  0.00    -0.550 OA
ATOM      4  O   UNL     1      20.061  52.125  41.874  1.00  0.00    -0.550 OA
ENDROOT
TORSDOF 0
ENDMDL
MODEL 5
REMARK VINA RESULT:    -1.974     15.755     16.292
REMARK INTER + INTRA:          -1.974
REMARK INTER:                  -1.974
REMARK INTRA:                   0.000
REMARK UNBOUND:                 0.000
REMARK SMILES CC(=O)[O-]
REMARK SMILES IDX 1 1 2 2 3 3 4 4
REMARK H PARENT
REMARK Flexibility Score: inf
ROOT
ATOM      1  C   UNL     1      12.419  33.359  43.762  1.00  0.00     0.063 C 
ATOM      2  C   UNL     1      10.979  33.093  43.485  1.00  0.00     0.038 C 
ATOM      3  O   UNL     1      10.087  33.703  44.131  1.00  0.00    -0.550 OA
ATOM      4  O   UNL     1      10.616  32.209  42.476  1.00  0.00    -0.550 OA
ENDROOT
TORSDOF 0
ENDMDL
MODEL 6
REMARK VINA RESULT:    -1.968     17.334     17.756
REMARK INTER + INTRA:          -1.968
REMARK INTER:                  -1.968
REMARK INTRA:                   0.000
REMARK UNBOUND:                 0.000
REMARK SMILES CC(=O)[O-]
REMARK SMILES IDX 1 1 2 2 3 3 4 4
REMARK H PARENT
REMARK Flexibility Score: inf
ROOT
ATOM      1  C   UNL     1      12.768  33.499  43.562  1.00  0.00     0.063 C 
ATOM      2  C   UNL     1      13.096  33.116  42.159  1.00  0.00     0.038 C 
ATOM      3  O   UNL     1      14.297  33.048  41.787  1.00  0.00    -0.550 OA
ATOM      4  O   UNL     1      12.080  32.780  41.273  1.00  0.00    -0.550 OA
ENDROOT
TORSDOF 0
ENDMDL
MODEL 7
REMARK VINA RESULT:    -1.943     15.935     16.401
REMARK INTER + INTRA:          -1.943
REMARK INTER:                  -1.943
REMARK INTRA:                   0.000
REMARK UNBOUND:                 0.000
REMARK SMILES CC(=O)[O-]
REMARK SMILES IDX 1 1 2 2 3 3 4 4
REMARK H PARENT
REMARK Flexibility Score: inf
ROOT
ATOM      1  C   UNL     1      10.289  33.372  44.160  1.00  0.00     0.063 C 
ATOM      2  C   UNL     1      11.598  33.309  43.448  1.00  0.00     0.038 C 
ATOM      3  O   UNL     1      12.673  33.454  44.087  1.00  0.00    -0.550 OA
ATOM      4  O   UNL     1      11.637  33.036  42.086  1.00  0.00    -0.550 OA
ENDROOT
TORSDOF 0
ENDMDL
MODEL 8
REMARK VINA RESULT:    -1.778     17.292     17.954
REMARK INTER + INTRA:          -1.778
REMARK INTER:                  -1.778
REMARK INTRA:                   0.000
REMARK UNBOUND:                 0.000
REMARK SMILES CC(=O)[O-]
REMARK SMILES IDX 1 1 2 2 3 3 4 4
REMARK H PARENT
REMARK Flexibility Score: inf
ROOT
ATOM      1  C   UNL     1      12.249  32.790  41.254  1.00  0.00     0.063 C 
ATOM      2  C   UNL     1      13.436  33.172  42.072  1.00  0.00     0.038 C 
ATOM      3  O   UNL     1      14.598  32.941  41.646  1.00  0.00    -0.550 OA
ATOM      4  O   UNL     1      13.264  33.832  43.283  1.00  0.00    -0.550 OA
ENDROOT
TORSDOF 0
ENDMDL
