MODEL 1
REMARK VINA RESULT:    49.289      0.000      0.000
REMARK INTER + INTRA:          70.077
REMARK INTER:                  70.899
REMARK INTRA:                  -0.822
REMARK UNBOUND:                -0.822
REMARK SMILES O=c1cc(-c2ccc(O)c(O)c2)oc2cc(O[C@H]3O[C@H](CO)[C@@H](O)[C@H](O)[C@@H]3O)cc(O)c12
REMARK SMILES IDX 17 1 16 2 4 3 3 4 13 5 2 6 14 7 1 8 32 9 15 10 30 11 29 12
REMARK SMILES IDX 5 13 6 14 7 15 8 16 12 17 10 18 9 19 11 21 31 23 18 25 27 26
REMARK SMILES IDX 19 27 25 28 20 29 23 30 28 31 26 33 21 35 22 36 24 38
REMARK H PARENT 9 20 11 22 31 24 28 32 26 34 22 37 24 39
REMARK Flexibility Score: inf
ROOT
ATOM      1  O   UNL     1       8.254   8.888  31.334  1.00  0.00    -0.462 OA
ENDROOT
BRANCH   1   2
ATOM      2  C   UNL     1       9.319   9.804  31.331  1.00  0.00     0.130 A 
ATOM      3  C   UNL     1      11.566  13.218  28.898  1.00  0.00     0.138 A 
ATOM      4  C   UNL     1      12.452  13.487  29.946  1.00  0.00     0.100 A 
ATOM      5  O   UNL     1      10.619  12.301  29.064  1.00  0.00    -0.456 OA
ATOM      6  C   UNL     1      12.354  12.765  31.136  1.00  0.00     0.197 A 
ATOM      7  C   UNL     1      10.485  11.582  30.171  1.00  0.00     0.146 A 
ATOM      8  O   UNL     1      13.166  13.036  32.057  1.00  0.00    -0.289 OA
ATOM      9  C   UNL     1      11.363  11.766  31.273  1.00  0.00     0.107 A 
ATOM     10  C   UNL     1       9.460  10.636  30.226  1.00  0.00     0.094 A 
ATOM     11  C   UNL     1      11.204  10.918  32.413  1.00  0.00     0.134 A 
ATOM     12  C   UNL     1      10.222   9.921  32.399  1.00  0.00     0.093 A 
BRANCH   3  13
ATOM     13  C   UNL     1      11.643  13.933  27.601  1.00  0.00     0.021 A 
ATOM     14  C   UNL     1      12.786  14.669  27.239  1.00  0.00     0.016 A 
ATOM     15  C   UNL     1      12.853  15.312  26.001  1.00  0.00     0.051 A 
ATOM     16  C   UNL     1      11.786  15.232  25.104  1.00  0.00     0.157 A 
ATOM     17  C   UNL     1      10.577  13.843  26.690  1.00  0.00     0.062 A 
ATOM     18  C   UNL     1      10.640  14.495  25.448  1.00  0.00     0.158 A 
BRANCH  16  19
ATOM     19  O   UNL     1      11.887  15.884  23.876  1.00  0.00    -0.504 OA
ATOM     20  H   UNL     1      11.589  15.453  23.008  1.00  0.00     0.293 HD
ENDBRANCH  16  19
BRANCH  18  21
ATOM     21  O   UNL     1       9.566  14.420  24.561  1.00  0.00    -0.504 OA
ATOM     22  H   UNL     1       9.260  15.225  24.029  1.00  0.00     0.293 HD
ENDBRANCH  18  21
ENDBRANCH   3  13
BRANCH  11  23
ATOM     23  O   UNL     1      11.978  11.001  33.574  1.00  0.00    -0.507 OA
ATOM     24  H   UNL     1      12.114  10.262  34.251  1.00  0.00     0.293 HD
ENDBRANCH  11  23
ENDBRANCH   1   2
BRANCH   1  25
ATOM     25  C   UNL     1       7.067   8.982  32.134  1.00  0.00     0.339 C 
ATOM     26  C   UNL     1       7.386   8.600  33.587  1.00  0.00     0.214 C 
ATOM     27  O   UNL     1       6.013   8.169  31.636  1.00  0.00    -0.332 OA
ATOM     28  C   UNL     1       7.764   7.108  33.651  1.00  0.00     0.180 C 
ATOM     29  C   UNL     1       6.398   6.808  31.552  1.00  0.00     0.179 C 
ATOM     30  C   UNL     1       6.705   6.236  32.957  1.00  0.00     0.177 C 
BRANCH  26  31
ATOM     31  O   UNL     1       6.260   8.859  34.387  1.00  0.00    -0.384 OA
ATOM     32  H   UNL     1       6.305   9.814  34.655  1.00  0.00     0.211 HD
ENDBRANCH  26  31
BRANCH  28  33
ATOM     33  O   UNL     1       7.905   6.712  34.993  1.00  0.00    -0.387 OA
ATOM     34  H   UNL     1       8.013   7.530  35.544  1.00  0.00     0.211 HD
ENDBRANCH  28  33
BRANCH  29  35
ATOM     35  C   UNL     1       5.266   6.015  30.878  1.00  0.00     0.191 C 
BRANCH  35  36
ATOM     36  O   UNL     1       5.777   4.900  30.196  1.00  0.00    -0.394 OA
ATOM     37  H   UNL     1       5.387   4.919  29.283  1.00  0.00     0.210 HD
ENDBRANCH  35  36
ENDBRANCH  29  35
BRANCH  30  38
ATOM     38  O   UNL     1       7.213   4.928  32.839  1.00  0.00    -0.387 OA
ATOM     39  H   UNL     1       7.626   4.852  31.938  1.00  0.00     0.211 HD
ENDBRANCH  30  38
ENDBRANCH   1  25
TORSDOF 11
ENDMDL
MODEL 2
REMARK VINA RESULT:    49.397      1.178      2.482
REMARK INTER + INTRA:          70.232
REMARK INTER:                  70.966
REMARK INTRA:                  -0.734
REMARK UNBOUND:                -0.822
REMARK SMILES O=c1cc(-c2ccc(O)c(O)c2)oc2cc(O[C@H]3O[C@H](CO)[C@@H](O)[C@H](O)[C@@H]3O)cc(O)c12
REMARK SMILES IDX 17 1 16 2 4 3 3 4 13 5 2 6 14 7 1 8 32 9 15 10 30 11 29 12
REMARK SMILES IDX 5 13 6 14 7 15 8 16 12 17 10 18 9 19 11 21 31 23 18 25 27 26
REMARK SMILES IDX 19 27 25 28 20 29 23 30 28 31 26 33 21 35 22 36 24 38
REMARK H PARENT 9 20 11 22 31 24 28 32 26 34 22 37 24 39
REMARK Flexibility Score: inf
ROOT
ATOM      1  O   UNL     1       7.738   9.393  31.944  1.00  0.00    -0.462 OA
ENDROOT
BRANCH   1   2
ATOM      2  C   UNL     1       8.940  10.080  31.712  1.00  0.00     0.130 A 
ATOM      3  C   UNL     1      11.283  13.040  28.816  1.00  0.00     0.138 A 
ATOM      4  C   UNL     1      12.398  13.103  29.658  1.00  0.00     0.100 A 
ATOM      5  O   UNL     1      10.226  12.324  29.185  1.00  0.00    -0.456 OA
ATOM      6  C   UNL     1      12.400  12.387  30.857  1.00  0.00     0.197 A 
ATOM      7  C   UNL     1      10.178  11.619  30.309  1.00  0.00     0.146 A 
ATOM      8  O   UNL     1      13.418  12.470  31.589  1.00  0.00    -0.289 OA
ATOM      9  C   UNL     1      11.278  11.600  31.207  1.00  0.00     0.107 A 
ATOM     10  C   UNL     1       9.018  10.894  30.587  1.00  0.00     0.094 A 
ATOM     11  C   UNL     1      11.187  10.774  32.370  1.00  0.00     0.134 A 
ATOM     12  C   UNL     1      10.045   9.991  32.573  1.00  0.00     0.093 A 
BRANCH   3  13
ATOM     13  C   UNL     1      11.238  13.755  27.518  1.00  0.00     0.021 A 
ATOM     14  C   UNL     1      10.084  13.738  26.713  1.00  0.00     0.016 A 
ATOM     15  C   UNL     1      10.050  14.441  25.507  1.00  0.00     0.051 A 
ATOM     16  C   UNL     1      11.160  15.173  25.084  1.00  0.00     0.157 A 
ATOM     17  C   UNL     1      12.348  14.504  27.095  1.00  0.00     0.062 A 
ATOM     18  C   UNL     1      12.318  15.205  25.879  1.00  0.00     0.158 A 
BRANCH  16  19
ATOM     19  O   UNL     1      11.091  15.865  23.875  1.00  0.00    -0.504 OA
ATOM     20  H   UNL     1      11.545  16.761  23.738  1.00  0.00     0.293 HD
ENDBRANCH  16  19
BRANCH  18  21
ATOM     21  O   UNL     1      13.436  15.926  25.457  1.00  0.00    -0.504 OA
ATOM     22  H   UNL     1      13.679  16.002  24.477  1.00  0.00     0.293 HD
ENDBRANCH  18  21
ENDBRANCH   3  13
BRANCH  11  23
ATOM     23  O   UNL     1      12.180  10.675  33.350  1.00  0.00    -0.507 OA
ATOM     24  H   UNL     1      12.905  11.355  33.533  1.00  0.00     0.293 HD
ENDBRANCH  11  23
ENDBRANCH   1   2
BRANCH   1  25
ATOM     25  C   UNL     1       7.524   8.391  32.948  1.00  0.00     0.339 C 
ATOM     26  C   UNL     1       7.378   7.012  32.287  1.00  0.00     0.214 C 
ATOM     27  O   UNL     1       6.387   8.668  33.756  1.00  0.00    -0.332 OA
ATOM     28  C   UNL     1       6.087   6.984  31.447  1.00  0.00     0.180 C 
ATOM     29  C   UNL     1       5.210   8.789  32.975  1.00  0.00     0.179 C 
ATOM     30  C   UNL     1       4.877   7.450  32.273  1.00  0.00     0.177 C 
BRANCH  26  31
ATOM     31  O   UNL     1       7.339   6.025  33.287  1.00  0.00    -0.384 OA
ATOM     32  H   UNL     1       8.058   5.373  33.081  1.00  0.00     0.211 HD
ENDBRANCH  26  31
BRANCH  28  33
ATOM     33  O   UNL     1       5.863   5.682  30.967  1.00  0.00    -0.387 OA
ATOM     34  H   UNL     1       5.678   5.095  31.746  1.00  0.00     0.211 HD
ENDBRANCH  28  33
BRANCH  29  35
ATOM     35  C   UNL     1       4.054   9.224  33.891  1.00  0.00     0.191 C 
BRANCH  35  36
ATOM     36  O   UNL     1       4.439   9.166  35.240  1.00  0.00    -0.394 OA
ATOM     37  H   UNL     1       4.878   8.285  35.375  1.00  0.00     0.210 HD
ENDBRANCH  35  36
ENDBRANCH  29  35
BRANCH  30  38
ATOM     38  O   UNL     1       3.785   7.629  31.401  1.00  0.00    -0.387 OA
ATOM     39  H   UNL     1       2.959   7.615  31.955  1.00  0.00     0.211 HD
ENDBRANCH  30  38
ENDBRANCH   1  25
TORSDOF 11
ENDMDL
MODEL 3
REMARK VINA RESULT:    51.864      1.380      9.271
REMARK INTER + INTRA:          73.782
REMARK INTER:                  74.556
REMARK INTRA:                  -0.774
REMARK UNBOUND:                -0.822
REMARK SMILES O=c1cc(-c2ccc(O)c(O)c2)oc2cc(O[C@H]3O[C@H](CO)[C@@H](O)[C@H](O)[C@@H]3O)cc(O)c12
REMARK SMILES IDX 17 1 16 2 4 3 3 4 13 5 2 6 14 7 1 8 32 9 15 10 30 11 29 12
REMARK SMILES IDX 5 13 6 14 7 15 8 16 12 17 10 18 9 19 11 21 31 23 18 25 27 26
REMARK SMILES IDX 19 27 25 28 20 29 23 30 28 31 26 33 21 35 22 36 24 38
REMARK H PARENT 9 20 11 22 31 24 28 32 26 34 22 37 24 39
REMARK Flexibility Score: inf
ROOT
ATOM      1  O   UNL     1      10.935  13.901  27.402  1.00  0.00    -0.462 OA
ENDROOT
BRANCH   1   2
ATOM      2  C   UNL     1      11.037  13.304  28.669  1.00  0.00     0.130 A 
ATOM      3  C   UNL     1       9.337   9.952  31.586  1.00  0.00     0.138 A 
ATOM      4  C   UNL     1      10.289  10.222  32.575  1.00  0.00     0.100 A 
ATOM      5  O   UNL     1       9.375  10.627  30.443  1.00  0.00    -0.456 OA
ATOM      6  C   UNL     1      11.243  11.219  32.362  1.00  0.00     0.197 A 
ATOM      7  C   UNL     1      10.254  11.590  30.191  1.00  0.00     0.146 A 
ATOM      8  O   UNL     1      12.084  11.433  33.271  1.00  0.00    -0.289 OA
ATOM      9  C   UNL     1      11.236  11.952  31.151  1.00  0.00     0.107 A 
ATOM     10  C   UNL     1      10.190  12.239  28.958  1.00  0.00     0.094 A 
ATOM     11  C   UNL     1      12.115  13.036  30.844  1.00  0.00     0.134 A 
ATOM     12  C   UNL     1      11.965  13.724  29.635  1.00  0.00     0.093 A 
BRANCH   3  13
ATOM     13  C   UNL     1       8.283   8.926  31.771  1.00  0.00     0.021 A 
ATOM     14  C   UNL     1       7.196   8.827  30.884  1.00  0.00     0.016 A 
ATOM     15  C   UNL     1       6.227   7.835  31.056  1.00  0.00     0.051 A 
ATOM     16  C   UNL     1       6.326   6.927  32.112  1.00  0.00     0.157 A 
ATOM     17  C   UNL     1       8.386   8.001  32.824  1.00  0.00     0.062 A 
ATOM     18  C   UNL     1       7.410   7.008  33.003  1.00  0.00     0.158 A 
BRANCH  16  19
ATOM     19  O   UNL     1       5.343   5.948  32.253  1.00  0.00    -0.504 OA
ATOM     20  H   UNL     1       4.886   5.521  31.456  1.00  0.00     0.293 HD
ENDBRANCH  16  19
BRANCH  18  21
ATOM     21  O   UNL     1       7.509   6.110  34.066  1.00  0.00    -0.504 OA
ATOM     22  H   UNL     1       7.290   6.387  35.015  1.00  0.00     0.293 HD
ENDBRANCH  18  21
ENDBRANCH   3  13
BRANCH  11  23
ATOM     23  O   UNL     1      13.141  13.485  31.682  1.00  0.00    -0.507 OA
ATOM     24  H   UNL     1      13.283  13.214  32.645  1.00  0.00     0.293 HD
ENDBRANCH  11  23
ENDBRANCH   1   2
BRANCH   1  25
ATOM     25  C   UNL     1      11.509  13.397  26.188  1.00  0.00     0.339 C 
ATOM     26  C   UNL     1      12.610  14.349  25.697  1.00  0.00     0.214 C 
ATOM     27  O   UNL     1      10.537  13.208  25.168  1.00  0.00    -0.332 OA
ATOM     28  C   UNL     1      11.978  15.691  25.284  1.00  0.00     0.180 C 
ATOM     29  C   UNL     1       9.843  14.411  24.879  1.00  0.00     0.179 C 
ATOM     30  C   UNL     1      10.808  15.478  24.310  1.00  0.00     0.177 C 
BRANCH  26  31
ATOM     31  O   UNL     1      13.274  13.759  24.607  1.00  0.00    -0.384 OA
ATOM     32  H   UNL     1      13.411  14.472  23.930  1.00  0.00     0.211 HD
ENDBRANCH  26  31
BRANCH  28  33
ATOM     33  O   UNL     1      12.952  16.511  24.688  1.00  0.00    -0.387 OA
ATOM     34  H   UNL     1      12.514  17.034  23.968  1.00  0.00     0.211 HD
ENDBRANCH  28  33
BRANCH  29  35
ATOM     35  C   UNL     1       8.720  14.102  23.875  1.00  0.00     0.191 C 
BRANCH  35  36
ATOM     36  O   UNL     1       7.875  13.096  24.368  1.00  0.00    -0.394 OA
ATOM     37  H   UNL     1       7.374  12.736  23.590  1.00  0.00     0.210 HD
ENDBRANCH  35  36
ENDBRANCH  29  35
BRANCH  30  38
ATOM     38  O   UNL     1      10.128  16.702  24.156  1.00  0.00    -0.387 OA
ATOM     39  H   UNL     1       9.638  16.662  23.293  1.00  0.00     0.211 HD
ENDBRANCH  30  38
ENDBRANCH   1  25
TORSDOF 11
ENDMDL
