MODEL 1
REMARK VINA RESULT:    -1.536      0.000      0.000
REMARK INTER + INTRA:          -1.917
REMARK INTER:                  -1.850
REMARK INTRA:                  -0.067
REMARK UNBOUND:                -0.067
REMARK SMILES Oc1cc(O)c2cc(O)c(-c3ccc(O)c(O)c3)[o+]c2c1
REMARK SMILES IDX 10 1 19 2 20 3 21 4 2 5 3 6 4 7 6 8 7 9 8 10 11 11 12 12
REMARK SMILES IDX 13 13 14 14 18 15 16 16 15 17 17 19 9 21 1 23 5 25
REMARK H PARENT 15 18 17 20 9 22 1 24 5 26
REMARK Flexibility Score: inf
ROOT
ATOM      1  C   UNL     1      10.392  32.422 -16.533  1.00  0.00     0.402 A 
ATOM      2  O   UNL     1      11.270  32.591 -15.545  1.00  0.00    -0.202 OA
ATOM      3  C   UNL     1      12.585  32.511 -15.719  1.00  0.00     0.368 A 
ATOM      4  C   UNL     1      13.441  32.706 -14.630  1.00  0.00     0.162 A 
ATOM      5  C   UNL     1      14.826  32.630 -14.800  1.00  0.00     0.128 A 
ATOM      6  C   UNL     1      15.362  32.356 -16.067  1.00  0.00     0.093 A 
ATOM      7  C   UNL     1      14.516  32.158 -17.168  1.00  0.00     0.136 A 
ATOM      8  C   UNL     1      13.121  32.236 -16.996  1.00  0.00     0.125 A 
ATOM      9  C   UNL     1      12.229  32.038 -18.056  1.00  0.00     0.078 A 
ATOM     10  C   UNL     1      10.852  32.120 -17.831  1.00  0.00     0.223 A 
ENDROOT
BRANCH   1  11
ATOM     11  C   UNL     1       8.951  32.543 -16.217  1.00  0.00     0.087 A 
ATOM     12  C   UNL     1       8.432  31.876 -15.098  1.00  0.00     0.022 A 
ATOM     13  C   UNL     1       7.079  31.992 -14.771  1.00  0.00     0.051 A 
ATOM     14  C   UNL     1       6.223  32.785 -15.542  1.00  0.00     0.157 A 
ATOM     15  C   UNL     1       8.099  33.359 -16.980  1.00  0.00     0.068 A 
ATOM     16  C   UNL     1       6.741  33.484 -16.658  1.00  0.00     0.158 A 
BRANCH  14  17
ATOM     17  O   UNL     1       4.880  32.853 -15.166  1.00  0.00    -0.504 OA
ATOM     18  H   UNL     1       4.517  33.499 -14.481  1.00  0.00     0.293 HD
ENDBRANCH  14  17
BRANCH  16  19
ATOM     19  O   UNL     1       5.954  34.311 -17.462  1.00  0.00    -0.504 OA
ATOM     20  H   UNL     1       5.479  35.137 -17.128  1.00  0.00     0.293 HD
ENDBRANCH  16  19
ENDBRANCH   1  11
BRANCH  10  21
ATOM     21  O   UNL     1       9.958  31.875 -18.872  1.00  0.00    -0.500 OA
ATOM     22  H   UNL     1      10.268  31.516 -19.767  1.00  0.00     0.294 HD
ENDBRANCH  10  21
BRANCH   5  23
ATOM     23  O   UNL     1      15.664  32.826 -13.704  1.00  0.00    -0.507 OA
ATOM     24  H   UNL     1      16.669  32.728 -13.781  1.00  0.00     0.293 HD
ENDBRANCH   5  23
BRANCH   7  25
ATOM     25  O   UNL     1      15.059  31.885 -18.424  1.00  0.00    -0.507 OA
ATOM     26  H   UNL     1      16.032  32.077 -18.635  1.00  0.00     0.293 HD
ENDBRANCH   7  25
TORSDOF 6
ENDMDL
MODEL 2
REMARK VINA RESULT:    -0.858      1.350      6.778
REMARK INTER + INTRA:          -1.100
REMARK INTER:                  -1.202
REMARK INTRA:                   0.101
REMARK UNBOUND:                -0.067
REMARK SMILES Oc1cc(O)c2cc(O)c(-c3ccc(O)c(O)c3)[o+]c2c1
REMARK SMILES IDX 10 1 19 2 20 3 21 4 2 5 3 6 4 7 6 8 7 9 8 10 11 11 12 12
REMARK SMILES IDX 13 13 14 14 18 15 16 16 15 17 17 19 9 21 1 23 5 25
REMARK H PARENT 15 18 17 20 9 22 1 24 5 26
REMARK Flexibility Score: inf
ROOT
ATOM      1  C   UNL     1      12.136  32.581 -16.101  1.00  0.00     0.402 A 
ATOM      2  O   UNL     1      11.028  32.779 -15.388  1.00  0.00    -0.202 OA
ATOM      3  C   UNL     1       9.806  32.669 -15.898  1.00  0.00     0.368 A 
ATOM      4  C   UNL     1       8.692  32.889 -15.080  1.00  0.00     0.162 A 
ATOM      5  C   UNL     1       7.401  32.771 -15.602  1.00  0.00     0.128 A 
ATOM      6  C   UNL     1       7.219  32.433 -16.951  1.00  0.00     0.093 A 
ATOM      7  C   UNL     1       8.326  32.211 -17.783  1.00  0.00     0.136 A 
ATOM      8  C   UNL     1       9.627  32.328 -17.256  1.00  0.00     0.125 A 
ATOM      9  C   UNL     1      10.768  32.126 -18.041  1.00  0.00     0.078 A 
ATOM     10  C   UNL     1      12.037  32.261 -17.471  1.00  0.00     0.223 A 
ENDROOT
BRANCH   1  11
ATOM     11  C   UNL     1      13.442  32.725 -15.419  1.00  0.00     0.087 A 
ATOM     12  C   UNL     1      13.620  32.168 -14.145  1.00  0.00     0.022 A 
ATOM     13  C   UNL     1      14.849  32.276 -13.491  1.00  0.00     0.051 A 
ATOM     14  C   UNL     1      15.927  32.926 -14.101  1.00  0.00     0.157 A 
ATOM     15  C   UNL     1      14.530  33.359 -16.044  1.00  0.00     0.068 A 
ATOM     16  C   UNL     1      15.768  33.469 -15.397  1.00  0.00     0.158 A 
BRANCH  14  17
ATOM     17  O   UNL     1      17.127  33.007 -13.391  1.00  0.00    -0.504 OA
ATOM     18  H   UNL     1      17.675  32.206 -13.115  1.00  0.00     0.293 HD
ENDBRANCH  14  17
BRANCH  16  19
ATOM     19  O   UNL     1      16.803  34.114 -16.078  1.00  0.00    -0.504 OA
ATOM     20  H   UNL     1      16.709  34.516 -17.000  1.00  0.00     0.293 HD
ENDBRANCH  16  19
ENDBRANCH   1  11
BRANCH  10  21
ATOM     21  O   UNL     1      13.177  32.110 -18.259  1.00  0.00    -0.500 OA
ATOM     22  H   UNL     1      14.086  31.931 -17.850  1.00  0.00     0.294 HD
ENDBRANCH  10  21
BRANCH   5  23
ATOM     23  O   UNL     1       6.303  32.994 -14.774  1.00  0.00    -0.507 OA
ATOM     24  H   UNL     1       6.321  33.700 -14.048  1.00  0.00     0.293 HD
ENDBRANCH   5  23
BRANCH   7  25
ATOM     25  O   UNL     1       8.135  31.875 -19.124  1.00  0.00    -0.507 OA
ATOM     26  H   UNL     1       7.212  31.684 -19.497  1.00  0.00     0.293 HD
ENDBRANCH   7  25
TORSDOF 6
ENDMDL
MODEL 3
REMARK VINA RESULT:    -0.780      1.397      6.882
REMARK INTER + INTRA:          -1.007
REMARK INTER:                  -1.483
REMARK INTRA:                   0.476
REMARK UNBOUND:                -0.067
REMARK SMILES Oc1cc(O)c2cc(O)c(-c3ccc(O)c(O)c3)[o+]c2c1
REMARK SMILES IDX 10 1 19 2 20 3 21 4 2 5 3 6 4 7 6 8 7 9 8 10 11 11 12 12
REMARK SMILES IDX 13 13 14 14 18 15 16 16 15 17 17 19 9 21 1 23 5 25
REMARK H PARENT 15 18 17 20 9 22 1 24 5 26
REMARK Flexibility Score: inf
ROOT
ATOM      1  C   UNL     1      10.334  32.193 -16.722  1.00  0.00     0.402 A 
ATOM      2  O   UNL     1       9.457  32.147 -15.720  1.00  0.00    -0.202 OA
ATOM      3  C   UNL     1       8.144  32.063 -15.905  1.00  0.00     0.368 A 
ATOM      4  C   UNL     1       7.290  32.015 -14.799  1.00  0.00     0.162 A 
ATOM      5  C   UNL     1       5.907  31.921 -14.980  1.00  0.00     0.128 A 
ATOM      6  C   UNL     1       5.372  31.877 -16.276  1.00  0.00     0.093 A 
ATOM      7  C   UNL     1       6.216  31.925 -17.395  1.00  0.00     0.136 A 
ATOM      8  C   UNL     1       7.610  32.018 -17.211  1.00  0.00     0.125 A 
ATOM      9  C   UNL     1       8.499  32.078 -18.290  1.00  0.00     0.078 A 
ATOM     10  C   UNL     1       9.873  32.176 -18.054  1.00  0.00     0.223 A 
ENDROOT
BRANCH   1  11
ATOM     11  C   UNL     1      11.774  32.278 -16.388  1.00  0.00     0.087 A 
ATOM     12  C   UNL     1      12.709  32.482 -17.413  1.00  0.00     0.022 A 
ATOM     13  C   UNL     1      14.070  32.584 -17.118  1.00  0.00     0.051 A 
ATOM     14  C   UNL     1      14.523  32.501 -15.797  1.00  0.00     0.157 A 
ATOM     15  C   UNL     1      12.223  32.217 -15.058  1.00  0.00     0.068 A 
ATOM     16  C   UNL     1      13.586  32.322 -14.752  1.00  0.00     0.158 A 
BRANCH  14  17
ATOM     17  O   UNL     1      15.897  32.603 -15.570  1.00  0.00    -0.504 OA
ATOM     18  H   UNL     1      16.577  32.775 -16.295  1.00  0.00     0.293 HD
ENDBRANCH  14  17
BRANCH  16  19
ATOM     19  O   UNL     1      13.960  32.250 -13.408  1.00  0.00    -0.504 OA
ATOM     20  H   UNL     1      14.859  32.545 -13.055  1.00  0.00     0.293 HD
ENDBRANCH  16  19
ENDBRANCH   1  11
BRANCH  10  21
ATOM     21  O   UNL     1      10.760  32.287 -19.124  1.00  0.00    -0.500 OA
ATOM     22  H   UNL     1      10.809  31.581 -19.849  1.00  0.00     0.294 HD
ENDBRANCH  10  21
BRANCH   5  23
ATOM     23  O   UNL     1       5.070  31.875 -13.867  1.00  0.00    -0.507 OA
ATOM     24  H   UNL     1       5.426  32.021 -12.930  1.00  0.00     0.293 HD
ENDBRANCH   5  23
BRANCH   7  25
ATOM     25  O   UNL     1       5.674  31.879 -18.680  1.00  0.00    -0.507 OA
ATOM     26  H   UNL     1       4.730  32.196 -18.869  1.00  0.00     0.293 HD
ENDBRANCH   7  25
TORSDOF 6
ENDMDL
MODEL 4
REMARK VINA RESULT:     0.453     23.054     25.403
REMARK INTER + INTRA:           0.479
REMARK INTER:                   0.335
REMARK INTRA:                   0.144
REMARK UNBOUND:                -0.067
REMARK SMILES Oc1cc(O)c2cc(O)c(-c3ccc(O)c(O)c3)[o+]c2c1
REMARK SMILES IDX 10 1 19 2 20 3 21 4 2 5 3 6 4 7 6 8 7 9 8 10 11 11 12 12
REMARK SMILES IDX 13 13 14 14 18 15 16 16 15 17 17 19 9 21 1 23 5 25
REMARK H PARENT 15 18 17 20 9 22 1 24 5 26
REMARK Flexibility Score: inf
ROOT
ATOM      1  C   UNL     1      22.883  47.517  -0.464  1.00  0.00     0.402 A 
ATOM      2  O   UNL     1      22.127  48.097  -1.396  1.00  0.00    -0.202 OA
ATOM      3  C   UNL     1      22.360  49.319  -1.863  1.00  0.00     0.368 A 
ATOM      4  C   UNL     1      21.521  49.856  -2.846  1.00  0.00     0.162 A 
ATOM      5  C   UNL     1      21.757  51.138  -3.350  1.00  0.00     0.128 A 
ATOM      6  C   UNL     1      22.837  51.891  -2.869  1.00  0.00     0.093 A 
ATOM      7  C   UNL     1      23.686  51.367  -1.883  1.00  0.00     0.136 A 
ATOM      8  C   UNL     1      23.448  50.074  -1.377  1.00  0.00     0.125 A 
ATOM      9  C   UNL     1      24.257  49.504  -0.388  1.00  0.00     0.078 A 
ATOM     10  C   UNL     1      23.975  48.220   0.086  1.00  0.00     0.223 A 
ENDROOT
BRANCH   1  11
ATOM     11  C   UNL     1      22.529  46.147  -0.029  1.00  0.00     0.087 A 
ATOM     12  C   UNL     1      21.186  45.743  -0.046  1.00  0.00     0.022 A 
ATOM     13  C   UNL     1      20.832  44.450   0.343  1.00  0.00     0.051 A 
ATOM     14  C   UNL     1      21.809  43.531   0.740  1.00  0.00     0.157 A 
ATOM     15  C   UNL     1      23.515  45.220   0.349  1.00  0.00     0.068 A 
ATOM     16  C   UNL     1      23.169  43.919   0.737  1.00  0.00     0.158 A 
BRANCH  14  17
ATOM     17  O   UNL     1      21.388  42.256   1.125  1.00  0.00    -0.504 OA
ATOM     18  H   UNL     1      21.957  41.426   1.045  1.00  0.00     0.293 HD
ENDBRANCH  14  17
BRANCH  16  19
ATOM     19  O   UNL     1      24.202  43.051   1.101  1.00  0.00    -0.504 OA
ATOM     20  H   UNL     1      24.993  43.321   1.667  1.00  0.00     0.293 HD
ENDBRANCH  16  19
ENDBRANCH   1  11
BRANCH  10  21
ATOM     21  O   UNL     1      24.746  47.666   1.107  1.00  0.00    -0.500 OA
ATOM     22  H   UNL     1      24.505  47.790   2.083  1.00  0.00     0.294 HD
ENDBRANCH  10  21
BRANCH   5  23
ATOM     23  O   UNL     1      20.911  51.657  -4.328  1.00  0.00    -0.507 OA
ATOM     24  H   UNL     1      21.275  52.083  -5.172  1.00  0.00     0.293 HD
ENDBRANCH   5  23
BRANCH   7  25
ATOM     25  O   UNL     1      24.759  52.125  -1.412  1.00  0.00    -0.507 OA
ATOM     26  H   UNL     1      24.858  53.106  -1.644  1.00  0.00     0.293 HD
ENDBRANCH   7  25
TORSDOF 6
ENDMDL
MODEL 5
REMARK VINA RESULT:     0.805     23.083     25.479
REMARK INTER + INTRA:           0.903
REMARK INTER:                   0.798
REMARK INTRA:                   0.105
REMARK UNBOUND:                -0.067
REMARK SMILES Oc1cc(O)c2cc(O)c(-c3ccc(O)c(O)c3)[o+]c2c1
REMARK SMILES IDX 10 1 19 2 20 3 21 4 2 5 3 6 4 7 6 8 7 9 8 10 11 11 12 12
REMARK SMILES IDX 13 13 14 14 18 15 16 16 15 17 17 19 9 21 1 23 5 25
REMARK H PARENT 15 18 17 20 9 22 1 24 5 26
REMARK Flexibility Score: inf
ROOT
ATOM      1  C   UNL     1      22.907  46.891   0.273  1.00  0.00     0.402 A 
ATOM      2  O   UNL     1      23.799  45.910   0.406  1.00  0.00    -0.202 OA
ATOM      3  C   UNL     1      23.461  44.646   0.639  1.00  0.00     0.368 A 
ATOM      4  C   UNL     1      24.458  43.674   0.762  1.00  0.00     0.162 A 
ATOM      5  C   UNL     1      24.116  42.340   1.002  1.00  0.00     0.128 A 
ATOM      6  C   UNL     1      22.768  41.974   1.123  1.00  0.00     0.093 A 
ATOM      7  C   UNL     1      21.757  42.938   1.003  1.00  0.00     0.136 A 
ATOM      8  C   UNL     1      22.102  44.282   0.760  1.00  0.00     0.125 A 
ATOM      9  C   UNL     1      21.136  45.287   0.640  1.00  0.00     0.078 A 
ATOM     10  C   UNL     1      21.532  46.607   0.405  1.00  0.00     0.223 A 
ENDROOT
BRANCH   1  11
ATOM     11  C   UNL     1      23.406  48.259   0.007  1.00  0.00     0.087 A 
ATOM     12  C   UNL     1      24.624  48.670   0.566  1.00  0.00     0.022 A 
ATOM     13  C   UNL     1      25.122  49.950   0.313  1.00  0.00     0.051 A 
ATOM     14  C   UNL     1      24.425  50.837  -0.514  1.00  0.00     0.157 A 
ATOM     15  C   UNL     1      22.714  49.139  -0.843  1.00  0.00     0.068 A 
ATOM     16  C   UNL     1      23.208  50.424  -1.105  1.00  0.00     0.158 A 
BRANCH  14  17
ATOM     17  O   UNL     1      24.973  52.104  -0.722  1.00  0.00    -0.504 OA
ATOM     18  H   UNL     1      24.516  52.839  -1.241  1.00  0.00     0.293 HD
ENDBRANCH  14  17
BRANCH  16  19
ATOM     19  O   UNL     1      22.467  51.245  -1.958  1.00  0.00    -0.504 OA
ATOM     20  H   UNL     1      21.587  51.673  -1.707  1.00  0.00     0.293 HD
ENDBRANCH  16  19
ENDBRANCH   1  11
BRANCH  10  21
ATOM     21  O   UNL     1      20.578  47.621   0.334  1.00  0.00    -0.500 OA
ATOM     22  H   UNL     1      19.842  47.611  -0.361  1.00  0.00     0.294 HD
ENDBRANCH  10  21
BRANCH   5  23
ATOM     23  O   UNL     1      25.123  41.384   1.122  1.00  0.00    -0.507 OA
ATOM     24  H   UNL     1      25.082  40.656   1.825  1.00  0.00     0.293 HD
ENDBRANCH   5  23
BRANCH   7  25
ATOM     25  O   UNL     1      20.418  42.564   1.125  1.00  0.00    -0.507 OA
ATOM     26  H   UNL     1      19.681  43.252   1.223  1.00  0.00     0.293 HD
ENDBRANCH   7  25
TORSDOF 6
ENDMDL
MODEL 6
REMARK VINA RESULT:     0.926      1.671      7.094
REMARK INTER + INTRA:           1.048
REMARK INTER:                   0.705
REMARK INTRA:                   0.343
REMARK UNBOUND:                -0.067
REMARK SMILES Oc1cc(O)c2cc(O)c(-c3ccc(O)c(O)c3)[o+]c2c1
REMARK SMILES IDX 10 1 19 2 20 3 21 4 2 5 3 6 4 7 6 8 7 9 8 10 11 11 12 12
REMARK SMILES IDX 13 13 14 14 18 15 16 16 15 17 17 19 9 21 1 23 5 25
REMARK H PARENT 15 18 17 20 9 22 1 24 5 26
REMARK Flexibility Score: inf
ROOT
ATOM      1  C   UNL     1      13.367  32.653 -16.106  1.00  0.00     0.402 A 
ATOM      2  O   UNL     1      12.280  32.539 -15.343  1.00  0.00    -0.202 OA
ATOM      3  C   UNL     1      11.064  32.329 -15.836  1.00  0.00     0.368 A 
ATOM      4  C   UNL     1       9.974  32.217 -14.967  1.00  0.00     0.162 A 
ATOM      5  C   UNL     1       8.691  31.990 -15.471  1.00  0.00     0.128 A 
ATOM      6  C   UNL     1       8.493  31.877 -16.855  1.00  0.00     0.093 A 
ATOM      7  C   UNL     1       9.575  31.989 -17.739  1.00  0.00     0.136 A 
ATOM      8  C   UNL     1      10.869  32.215 -17.230  1.00  0.00     0.125 A 
ATOM      9  C   UNL     1      11.984  32.344 -18.065  1.00  0.00     0.078 A 
ATOM     10  C   UNL     1      13.246  32.575 -17.509  1.00  0.00     0.223 A 
ENDROOT
BRANCH   1  11
ATOM     11  C   UNL     1      14.669  32.878 -15.440  1.00  0.00     0.087 A 
ATOM     12  C   UNL     1      15.701  33.520 -16.140  1.00  0.00     0.022 A 
ATOM     13  C   UNL     1      16.931  33.759 -15.523  1.00  0.00     0.051 A 
ATOM     14  C   UNL     1      17.150  33.378 -14.196  1.00  0.00     0.157 A 
ATOM     15  C   UNL     1      14.879  32.514 -14.098  1.00  0.00     0.068 A 
ATOM     16  C   UNL     1      16.108  32.753 -13.471  1.00  0.00     0.158 A 
BRANCH  14  17
ATOM     17  O   UNL     1      18.405  33.638 -13.640  1.00  0.00    -0.504 OA
ATOM     18  H   UNL     1      18.763  33.179 -12.816  1.00  0.00     0.293 HD
ENDBRANCH  14  17
BRANCH  16  19
ATOM     19  O   UNL     1      16.246  32.363 -12.137  1.00  0.00    -0.504 OA
ATOM     20  H   UNL     1      17.020  32.632 -11.547  1.00  0.00     0.293 HD
ENDBRANCH  16  19
ENDBRANCH   1  11
BRANCH  10  21
ATOM     21  O   UNL     1      14.353  32.753 -18.338  1.00  0.00    -0.500 OA
ATOM     22  H   UNL     1      14.522  32.153 -19.136  1.00  0.00     0.294 HD
ENDBRANCH  10  21
BRANCH   5  23
ATOM     23  O   UNL     1       7.616  31.881 -14.591  1.00  0.00    -0.507 OA
ATOM     24  H   UNL     1       6.725  31.501 -14.886  1.00  0.00     0.293 HD
ENDBRANCH   5  23
BRANCH   7  25
ATOM     25  O   UNL     1       9.367  31.875 -19.115  1.00  0.00    -0.507 OA
ATOM     26  H   UNL     1      10.142  31.791 -19.763  1.00  0.00     0.293 HD
ENDBRANCH   7  25
TORSDOF 6
ENDMDL
