MODEL 1
REMARK VINA RESULT:    -1.899      0.000      0.000
REMARK INTER + INTRA:          -1.899
REMARK INTER:                  -1.899
REMARK INTRA:                   0.000
REMARK UNBOUND:                 0.000
REMARK SMILES CC(=O)[O-]
REMARK SMILES IDX 1 1 2 2 3 3 4 4
REMARK H PARENT
REMARK Flexibility Score: inf
ROOT
ATOM      1  C   UNL     1      50.548  50.301  11.159  1.00  0.00     0.063 C 
ATOM      2  C   UNL     1      51.004  49.871   9.806  1.00  0.00     0.038 C 
ATOM      3  O   UNL     1      52.234  49.801   9.546  1.00  0.00    -0.550 OA
ATOM      4  O   UNL     1      50.073  49.599   8.812  1.00  0.00    -0.550 OA
ENDROOT
TORSDOF 0
ENDMDL
MODEL 2
REMARK VINA RESULT:    -1.888      1.351      1.665
REMARK INTER + INTRA:          -1.888
REMARK INTER:                  -1.888
REMARK INTRA:                   0.000
REMARK UNBOUND:                 0.000
REMARK SMILES CC(=O)[O-]
REMARK SMILES IDX 1 1 2 2 3 3 4 4
REMARK H PARENT
REMARK Flexibility Score: inf
ROOT
ATOM      1  C   UNL     1      52.280  50.320   9.670  1.00  0.00     0.063 C 
ATOM      2  C   UNL     1      50.837  50.013   9.882  1.00  0.00     0.038 C 
ATOM      3  O   UNL     1      50.358  49.997  11.047  1.00  0.00    -0.550 OA
ATOM      4  O   UNL     1      50.028  49.690   8.801  1.00  0.00    -0.550 OA
ENDROOT
TORSDOF 0
ENDMDL
MODEL 3
REMARK VINA RESULT:    -1.806      1.843      1.904
REMARK INTER + INTRA:          -1.806
REMARK INTER:                  -1.806
REMARK INTRA:                   0.000
REMARK UNBOUND:                 0.000
REMARK SMILES CC(=O)[O-]
REMARK SMILES IDX 1 1 2 2 3 3 4 4
REMARK H PARENT
REMARK Flexibility Score: inf
ROOT
ATOM      1  C   UNL     1      50.448  49.950   9.266  1.00  0.00     0.063 C 
ATOM      2  C   UNL     1      51.797  50.016   9.899  1.00  0.00     0.038 C 
ATOM      3  O   UNL     1      52.678  50.785   9.431  1.00  0.00    -0.550 OA
ATOM      4  O   UNL     1      52.103  49.189  10.972  1.00  0.00    -0.550 OA
ENDROOT
TORSDOF 0
ENDMDL
MODEL 4
REMARK VINA RESULT:    -1.762      1.400      2.103
REMARK INTER + INTRA:          -1.762
REMARK INTER:                  -1.762
REMARK INTRA:                   0.000
REMARK UNBOUND:                 0.000
REMARK SMILES CC(=O)[O-]
REMARK SMILES IDX 1 1 2 2 3 3 4 4
REMARK H PARENT
REMARK Flexibility Score: inf
ROOT
ATOM      1  C   UNL     1      50.063  49.831   8.825  1.00  0.00     0.063 C 
ATOM      2  C   UNL     1      50.976  49.736  10.000  1.00  0.00     0.038 C 
ATOM      3  O   UNL     1      50.516  49.843  11.168  1.00  0.00    -0.550 OA
ATOM      4  O   UNL     1      52.343  49.583   9.809  1.00  0.00    -0.550 OA
ENDROOT
TORSDOF 0
ENDMDL
MODEL 5
REMARK VINA RESULT:    -1.758     14.646     14.922
REMARK INTER + INTRA:          -1.758
REMARK INTER:                  -1.758
REMARK INTRA:                   0.000
REMARK UNBOUND:                 0.000
REMARK SMILES CC(=O)[O-]
REMARK SMILES IDX 1 1 2 2 3 3 4 4
REMARK H PARENT
REMARK Flexibility Score: inf
ROOT
ATOM      1  C   UNL     1      56.538  35.011  12.885  1.00  0.00     0.063 C 
ATOM      2  C   UNL     1      55.867  36.182  12.250  1.00  0.00     0.038 C 
ATOM      3  O   UNL     1      54.706  36.515  12.606  1.00  0.00    -0.550 OA
ATOM      4  O   UNL     1      56.499  36.875  11.226  1.00  0.00    -0.550 OA
ENDROOT
TORSDOF 0
ENDMDL
MODEL 6
REMARK VINA RESULT:    -1.705     14.568     14.813
REMARK INTER + INTRA:          -1.705
REMARK INTER:                  -1.705
REMARK INTRA:                   0.000
REMARK UNBOUND:                 0.000
REMARK SMILES CC(=O)[O-]
REMARK SMILES IDX 1 1 2 2 3 3 4 4
REMARK H PARENT
REMARK Flexibility Score: inf
ROOT
ATOM      1  C   UNL     1      54.678  36.547  13.002  1.00  0.00     0.063 C 
ATOM      2  C   UNL     1      55.983  36.190  12.375  1.00  0.00     0.038 C 
ATOM      3  O   UNL     1      56.728  35.328  12.913  1.00  0.00    -0.550 OA
ATOM      4  O   UNL     1      56.406  36.845  11.226  1.00  0.00    -0.550 OA
ENDROOT
TORSDOF 0
ENDMDL
MODEL 7
REMARK VINA RESULT:    -1.695     15.771     16.334
REMARK INTER + INTRA:          -1.695
REMARK INTER:                  -1.695
REMARK INTRA:                   0.000
REMARK UNBOUND:                 0.000
REMARK SMILES CC(=O)[O-]
REMARK SMILES IDX 1 1 2 2 3 3 4 4
REMARK H PARENT
REMARK Flexibility Score: inf
ROOT
ATOM      1  C   UNL     1      63.996  40.980  16.041  1.00  0.00     0.063 C 
ATOM      2  C   UNL     1      64.121  42.321  15.402  1.00  0.00     0.038 C 
ATOM      3  O   UNL     1      63.348  42.648  14.463  1.00  0.00    -0.550 OA
ATOM      4  O   UNL     1      65.124  43.193  15.805  1.00  0.00    -0.550 OA
ENDROOT
TORSDOF 0
ENDMDL
MODEL 8
REMARK VINA RESULT:    -1.649     14.391     14.621
REMARK INTER + INTRA:          -1.649
REMARK INTER:                  -1.649
REMARK INTRA:                   0.000
REMARK UNBOUND:                 0.000
REMARK SMILES CC(=O)[O-]
REMARK SMILES IDX 1 1 2 2 3 3 4 4
REMARK H PARENT
REMARK Flexibility Score: inf
ROOT
ATOM      1  C   UNL     1      56.227  36.445  11.785  1.00  0.00     0.063 C 
ATOM      2  C   UNL     1      55.472  36.472  13.070  1.00  0.00     0.038 C 
ATOM      3  O   UNL     1      56.013  36.054  14.129  1.00  0.00    -0.550 OA
ATOM      4  O   UNL     1      54.154  36.906  13.095  1.00  0.00    -0.550 OA
ENDROOT
TORSDOF 0
ENDMDL
MODEL 9
REMARK VINA RESULT:    -1.629     14.967     15.328
REMARK INTER + INTRA:          -1.629
REMARK INTER:                  -1.629
REMARK INTRA:                   0.000
REMARK UNBOUND:                 0.000
REMARK SMILES CC(=O)[O-]
REMARK SMILES IDX 1 1 2 2 3 3 4 4
REMARK H PARENT
REMARK Flexibility Score: inf
ROOT
ATOM      1  C   UNL     1      63.495  43.056  14.757  1.00  0.00     0.063 C 
ATOM      2  C   UNL     1      63.400  43.731  16.083  1.00  0.00     0.038 C 
ATOM      3  O   UNL     1      63.370  43.047  17.140  1.00  0.00    -0.550 OA
ATOM      4  O   UNL     1      63.288  45.113  16.153  1.00  0.00    -0.550 OA
ENDROOT
TORSDOF 0
ENDMDL
