MODEL 1
REMARK VINA RESULT:    -4.198      0.000      0.000
REMARK INTER + INTRA:          -6.359
REMARK INTER:                  -5.915
REMARK INTRA:                  -0.444
REMARK UNBOUND:                -0.444
REMARK SMILES CCCCCCCCC(=O)[O-]
REMARK SMILES IDX 6 1 7 2 8 3 9 4 10 5 11 6 5 7 4 8 3 9 2 10 1 11
REMARK H PARENT
REMARK Flexibility Score: inf
ROOT
ATOM      1  C   UNL     1      22.885   5.791  13.989  1.00  0.00     0.000 C 
ENDROOT
BRANCH   1   2
ATOM      2  C   UNL     1      23.459   5.074  15.217  1.00  0.00     0.006 C 
BRANCH   2   3
ATOM      3  C   UNL     1      24.041   3.709  14.834  1.00  0.00     0.053 C 
BRANCH   3   4
ATOM      4  C   UNL     1      25.113   3.868  13.803  1.00  0.00     0.041 C 
ATOM      5  O   UNL     1      25.153   3.100  12.806  1.00  0.00    -0.550 OA
ATOM      6  O   UNL     1      26.097   4.835  13.966  1.00  0.00    -0.550 OA
ENDBRANCH   3   4
ENDBRANCH   2   3
ENDBRANCH   1   2
BRANCH   1   7
ATOM      7  C   UNL     1      23.260   7.277  13.994  1.00  0.00     0.000 C 
BRANCH   7   8
ATOM      8  C   UNL     1      23.874   7.687  15.342  1.00  0.00    -0.000 C 
BRANCH   8   9
ATOM      9  C   UNL     1      22.979   8.680  16.113  1.00  0.00    -0.000 C 
BRANCH   9  10
ATOM     10  C   UNL     1      22.785   8.313  17.593  1.00  0.00    -0.003 C 
ATOM     11  C   UNL     1      21.463   8.819  18.168  1.00  0.00     0.004 C 
ENDBRANCH   9  10
ENDBRANCH   8   9
ENDBRANCH   7   8
ENDBRANCH   1   7
TORSDOF 7
ENDMDL
MODEL 2
REMARK VINA RESULT:    -4.165      1.288      1.945
REMARK INTER + INTRA:          -6.313
REMARK INTER:                  -5.925
REMARK INTRA:                  -0.388
REMARK UNBOUND:                -0.444
REMARK SMILES CCCCCCCCC(=O)[O-]
REMARK SMILES IDX 6 1 7 2 8 3 9 4 10 5 11 6 5 7 4 8 3 9 2 10 1 11
REMARK H PARENT
REMARK Flexibility Score: inf
ROOT
ATOM      1  C   UNL     1      23.537   4.671  15.199  1.00  0.00     0.000 C 
ENDROOT
BRANCH   1   2
ATOM      2  C   UNL     1      24.333   3.466  14.686  1.00  0.00     0.006 C 
BRANCH   2   3
ATOM      3  C   UNL     1      25.037   3.795  13.365  1.00  0.00     0.053 C 
BRANCH   3   4
ATOM      4  C   UNL     1      25.915   2.659  12.944  1.00  0.00     0.041 C 
ATOM      5  O   UNL     1      26.634   2.066  13.789  1.00  0.00    -0.550 OA
ATOM      6  O   UNL     1      25.974   2.286  11.607  1.00  0.00    -0.550 OA
ENDBRANCH   3   4
ENDBRANCH   2   3
ENDBRANCH   1   2
BRANCH   1   7
ATOM      7  C   UNL     1      23.196   5.634  14.056  1.00  0.00     0.000 C 
BRANCH   7   8
ATOM      8  C   UNL     1      23.377   7.096  14.493  1.00  0.00    -0.000 C 
BRANCH   8   9
ATOM      9  C   UNL     1      23.900   7.213  15.940  1.00  0.00    -0.000 C 
BRANCH   9  10
ATOM     10  C   UNL     1      22.945   7.966  16.881  1.00  0.00    -0.003 C 
ATOM     11  C   UNL     1      22.660   9.396  16.424  1.00  0.00     0.004 C 
ENDBRANCH   9  10
ENDBRANCH   8   9
ENDBRANCH   7   8
ENDBRANCH   1   7
TORSDOF 7
ENDMDL
MODEL 3
REMARK VINA RESULT:    -4.003      8.965     10.312
REMARK INTER + INTRA:          -6.085
REMARK INTER:                  -5.686
REMARK INTRA:                  -0.400
REMARK UNBOUND:                -0.444
REMARK SMILES CCCCCCCCC(=O)[O-]
REMARK SMILES IDX 6 1 7 2 8 3 9 4 10 5 11 6 5 7 4 8 3 9 2 10 1 11
REMARK H PARENT
REMARK Flexibility Score: inf
ROOT
ATOM      1  C   UNL     1      23.133   5.916   6.841  1.00  0.00     0.000 C 
ENDROOT
BRANCH   1   2
ATOM      2  C   UNL     1      21.645   5.626   6.614  1.00  0.00     0.006 C 
BRANCH   2   3
ATOM      3  C   UNL     1      21.404   5.048   5.215  1.00  0.00     0.053 C 
BRANCH   3   4
ATOM      4  C   UNL     1      20.406   5.878   4.471  1.00  0.00     0.041 C 
ATOM      5  O   UNL     1      20.720   6.417   3.377  1.00  0.00    -0.550 OA
ATOM      6  O   UNL     1      19.144   6.095   5.008  1.00  0.00    -0.550 OA
ENDBRANCH   3   4
ENDBRANCH   2   3
ENDBRANCH   1   2
BRANCH   1   7
ATOM      7  C   UNL     1      23.933   5.738   5.545  1.00  0.00     0.000 C 
BRANCH   7   8
ATOM      8  C   UNL     1      25.200   4.903   5.789  1.00  0.00    -0.000 C 
BRANCH   8   9
ATOM      9  C   UNL     1      25.017   3.883   6.933  1.00  0.00    -0.000 C 
BRANCH   9  10
ATOM     10  C   UNL     1      26.312   3.147   7.315  1.00  0.00    -0.003 C 
ATOM     11  C   UNL     1      26.686   3.319   8.786  1.00  0.00     0.004 C 
ENDBRANCH   9  10
ENDBRANCH   8   9
ENDBRANCH   7   8
ENDBRANCH   1   7
TORSDOF 7
ENDMDL
MODEL 4
REMARK VINA RESULT:    -3.984      2.386      3.581
REMARK INTER + INTRA:          -6.057
REMARK INTER:                  -5.702
REMARK INTRA:                  -0.355
REMARK UNBOUND:                -0.444
REMARK SMILES CCCCCCCCC(=O)[O-]
REMARK SMILES IDX 6 1 7 2 8 3 9 4 10 5 11 6 5 7 4 8 3 9 2 10 1 11
REMARK H PARENT
REMARK Flexibility Score: inf
ROOT
ATOM      1  C   UNL     1      24.772   4.042  13.850  1.00  0.00     0.000 C 
ENDROOT
BRANCH   1   2
ATOM      2  C   UNL     1      25.500   2.694  13.835  1.00  0.00     0.006 C 
BRANCH   2   3
ATOM      3  C   UNL     1      26.347   2.540  12.567  1.00  0.00     0.053 C 
BRANCH   3   4
ATOM      4  C   UNL     1      27.789   2.800  12.866  1.00  0.00     0.041 C 
ATOM      5  O   UNL     1      28.147   3.906  13.349  1.00  0.00    -0.550 OA
ATOM      6  O   UNL     1      28.746   1.838  12.567  1.00  0.00    -0.550 OA
ENDBRANCH   3   4
ENDBRANCH   2   3
ENDBRANCH   1   2
BRANCH   1   7
ATOM      7  C   UNL     1      23.847   4.155  15.067  1.00  0.00     0.000 C 
BRANCH   7   8
ATOM      8  C   UNL     1      23.143   5.520  15.101  1.00  0.00    -0.000 C 
BRANCH   8   9
ATOM      9  C   UNL     1      22.742   6.006  13.692  1.00  0.00    -0.000 C 
BRANCH   9  10
ATOM     10  C   UNL     1      23.057   7.490  13.440  1.00  0.00    -0.003 C 
ATOM     11  C   UNL     1      24.383   7.933  14.056  1.00  0.00     0.004 C 
ENDBRANCH   9  10
ENDBRANCH   8   9
ENDBRANCH   7   8
ENDBRANCH   1   7
TORSDOF 7
ENDMDL
MODEL 5
REMARK VINA RESULT:    -3.935      0.772      1.764
REMARK INTER + INTRA:          -5.989
REMARK INTER:                  -5.680
REMARK INTRA:                  -0.310
REMARK UNBOUND:                -0.444
REMARK SMILES CCCCCCCCC(=O)[O-]
REMARK SMILES IDX 6 1 7 2 8 3 9 4 10 5 11 6 5 7 4 8 3 9 2 10 1 11
REMARK H PARENT
REMARK Flexibility Score: inf
ROOT
ATOM      1  C   UNL     1      23.359   7.189  14.336  1.00  0.00     0.000 C 
ENDROOT
BRANCH   1   2
ATOM      2  C   UNL     1      22.949   5.770  13.926  1.00  0.00     0.006 C 
BRANCH   2   3
ATOM      3  C   UNL     1      23.726   4.720  14.727  1.00  0.00     0.053 C 
BRANCH   3   4
ATOM      4  C   UNL     1      24.954   4.298  13.985  1.00  0.00     0.041 C 
ATOM      5  O   UNL     1      25.982   5.025  13.996  1.00  0.00    -0.550 OA
ATOM      6  O   UNL     1      24.948   3.125  13.241  1.00  0.00    -0.550 OA
ENDBRANCH   3   4
ENDBRANCH   2   3
ENDBRANCH   1   2
BRANCH   1   7
ATOM      7  C   UNL     1      23.572   7.285  15.851  1.00  0.00     0.000 C 
BRANCH   7   8
ATOM      8  C   UNL     1      22.965   8.580  16.413  1.00  0.00    -0.000 C 
BRANCH   8   9
ATOM      9  C   UNL     1      22.302   8.365  17.790  1.00  0.00    -0.000 C 
BRANCH   9  10
ATOM     10  C   UNL     1      21.373   9.515  18.212  1.00  0.00    -0.003 C 
ATOM     11  C   UNL     1      20.998  10.437  17.053  1.00  0.00     0.004 C 
ENDBRANCH   9  10
ENDBRANCH   8   9
ENDBRANCH   7   8
ENDBRANCH   1   7
TORSDOF 7
ENDMDL
MODEL 6
REMARK VINA RESULT:    -3.915      9.996     11.481
REMARK INTER + INTRA:          -5.961
REMARK INTER:                  -5.366
REMARK INTRA:                  -0.595
REMARK UNBOUND:                -0.444
REMARK SMILES CCCCCCCCC(=O)[O-]
REMARK SMILES IDX 6 1 7 2 8 3 9 4 10 5 11 6 5 7 4 8 3 9 2 10 1 11
REMARK H PARENT
REMARK Flexibility Score: inf
ROOT
ATOM      1  C   UNL     1      18.639  12.923  10.778  1.00  0.00     0.000 C 
ENDROOT
BRANCH   1   2
ATOM      2  C   UNL     1      17.830  13.767  11.769  1.00  0.00     0.006 C 
BRANCH   2   3
ATOM      3  C   UNL     1      16.365  13.873  11.333  1.00  0.00     0.053 C 
BRANCH   3   4
ATOM      4  C   UNL     1      15.832  15.242  11.617  1.00  0.00     0.041 C 
ATOM      5  O   UNL     1      16.151  15.839  12.679  1.00  0.00    -0.550 OA
ATOM      6  O   UNL     1      14.945  15.840  10.732  1.00  0.00    -0.550 OA
ENDBRANCH   3   4
ENDBRANCH   2   3
ENDBRANCH   1   2
BRANCH   1   7
ATOM      7  C   UNL     1      19.438  11.835  11.506  1.00  0.00     0.000 C 
BRANCH   7   8
ATOM      8  C   UNL     1      18.832  10.445  11.258  1.00  0.00    -0.000 C 
BRANCH   8   9
ATOM      9  C   UNL     1      18.239  10.311   9.839  1.00  0.00    -0.000 C 
BRANCH   9  10
ATOM     10  C   UNL     1      16.879   9.594   9.806  1.00  0.00    -0.003 C 
ATOM     11  C   UNL     1      15.695  10.555   9.899  1.00  0.00     0.004 C 
ENDBRANCH   9  10
ENDBRANCH   8   9
ENDBRANCH   7   8
ENDBRANCH   1   7
TORSDOF 7
ENDMDL
MODEL 7
REMARK VINA RESULT:    -3.853      8.872      9.768
REMARK INTER + INTRA:          -5.874
REMARK INTER:                  -5.393
REMARK INTRA:                  -0.481
REMARK UNBOUND:                -0.444
REMARK SMILES CCCCCCCCC(=O)[O-]
REMARK SMILES IDX 6 1 7 2 8 3 9 4 10 5 11 6 5 7 4 8 3 9 2 10 1 11
REMARK H PARENT
REMARK Flexibility Score: inf
ROOT
ATOM      1  C   UNL     1      18.892  10.371  11.376  1.00  0.00     0.000 C 
ENDROOT
BRANCH   1   2
ATOM      2  C   UNL     1      18.448  10.268   9.912  1.00  0.00     0.006 C 
BRANCH   2   3
ATOM      3  C   UNL     1      17.050   9.651   9.803  1.00  0.00     0.053 C 
BRANCH   3   4
ATOM      4  C   UNL     1      16.843   9.060   8.445  1.00  0.00     0.041 C 
ATOM      5  O   UNL     1      17.783   8.452   7.868  1.00  0.00    -0.550 OA
ATOM      6  O   UNL     1      15.626   9.220   7.795  1.00  0.00    -0.550 OA
ENDBRANCH   3   4
ENDBRANCH   2   3
ENDBRANCH   1   2
BRANCH   1   7
ATOM      7  C   UNL     1      19.491  11.750  11.673  1.00  0.00     0.000 C 
BRANCH   7   8
ATOM      8  C   UNL     1      18.887  12.825  10.757  1.00  0.00    -0.000 C 
BRANCH   8   9
ATOM      9  C   UNL     1      17.807  13.664  11.473  1.00  0.00    -0.000 C 
BRANCH   9  10
ATOM     10  C   UNL     1      16.390  13.446  10.918  1.00  0.00    -0.003 C 
ATOM     11  C   UNL     1      15.504  14.685  11.036  1.00  0.00     0.004 C 
ENDBRANCH   9  10
ENDBRANCH   8   9
ENDBRANCH   7   8
ENDBRANCH   1   7
TORSDOF 7
ENDMDL
MODEL 8
REMARK VINA RESULT:    -3.826      9.339     10.821
REMARK INTER + INTRA:          -5.836
REMARK INTER:                  -5.482
REMARK INTRA:                  -0.354
REMARK UNBOUND:                -0.444
REMARK SMILES CCCCCCCCC(=O)[O-]
REMARK SMILES IDX 6 1 7 2 8 3 9 4 10 5 11 6 5 7 4 8 3 9 2 10 1 11
REMARK H PARENT
REMARK Flexibility Score: inf
ROOT
ATOM      1  C   UNL     1      20.880   5.726   5.701  1.00  0.00     0.000 C 
ENDROOT
BRANCH   1   2
ATOM      2  C   UNL     1      21.823   5.160   6.769  1.00  0.00     0.006 C 
BRANCH   2   3
ATOM      3  C   UNL     1      23.238   5.726   6.609  1.00  0.00     0.053 C 
BRANCH   3   4
ATOM      4  C   UNL     1      24.203   4.635   6.270  1.00  0.00     0.041 C 
ATOM      5  O   UNL     1      23.858   3.429   6.373  1.00  0.00    -0.550 OA
ATOM      6  O   UNL     1      25.500   4.949   5.885  1.00  0.00    -0.550 OA
ENDBRANCH   3   4
ENDBRANCH   2   3
ENDBRANCH   1   2
BRANCH   1   7
ATOM      7  C   UNL     1      21.422   5.461   4.292  1.00  0.00     0.000 C 
BRANCH   7   8
ATOM      8  C   UNL     1      20.321   5.639   3.235  1.00  0.00    -0.000 C 
BRANCH   8   9
ATOM      9  C   UNL     1      20.273   7.077   2.677  1.00  0.00    -0.000 C 
BRANCH   9  10
ATOM     10  C   UNL     1      18.863   7.690   2.676  1.00  0.00    -0.003 C 
ATOM     11  C   UNL     1      18.327   7.960   4.081  1.00  0.00     0.004 C 
ENDBRANCH   9  10
ENDBRANCH   8   9
ENDBRANCH   7   8
ENDBRANCH   1   7
TORSDOF 7
ENDMDL
MODEL 9
REMARK VINA RESULT:    -3.689      4.639      6.738
REMARK INTER + INTRA:          -5.642
REMARK INTER:                  -5.273
REMARK INTRA:                  -0.369
REMARK UNBOUND:                -0.444
REMARK SMILES CCCCCCCCC(=O)[O-]
REMARK SMILES IDX 6 1 7 2 8 3 9 4 10 5 11 6 5 7 4 8 3 9 2 10 1 11
REMARK H PARENT
REMARK Flexibility Score: inf
ROOT
ATOM      1  C   UNL     1      22.609   8.324  17.600  1.00  0.00     0.000 C 
ENDROOT
BRANCH   1   2
ATOM      2  C   UNL     1      21.371   9.091  18.075  1.00  0.00     0.006 C 
BRANCH   2   3
ATOM      3  C   UNL     1      21.047  10.254  17.131  1.00  0.00     0.053 C 
BRANCH   3   4
ATOM      4  C   UNL     1      20.550  11.433  17.904  1.00  0.00     0.041 C 
ATOM      5  O   UNL     1      21.018  11.687  19.045  1.00  0.00    -0.550 OA
ATOM      6  O   UNL     1      19.534  12.227  17.386  1.00  0.00    -0.550 OA
ENDBRANCH   3   4
ENDBRANCH   2   3
ENDBRANCH   1   2
BRANCH   1   7
ATOM      7  C   UNL     1      22.963   8.690  16.154  1.00  0.00     0.000 C 
BRANCH   7   8
ATOM      8  C   UNL     1      23.876   7.628  15.522  1.00  0.00    -0.000 C 
BRANCH   8   9
ATOM      9  C   UNL     1      23.415   7.230  14.104  1.00  0.00    -0.000 C 
BRANCH   9  10
ATOM     10  C   UNL     1      22.877   5.792  14.013  1.00  0.00    -0.003 C 
ATOM     11  C   UNL     1      23.336   4.907  15.171  1.00  0.00     0.004 C 
ENDBRANCH   9  10
ENDBRANCH   8   9
ENDBRANCH   7   8
ENDBRANCH   1   7
TORSDOF 7
ENDMDL
