MODEL 1
REMARK VINA RESULT:    -3.527      0.000      0.000
REMARK INTER + INTRA:          -8.121
REMARK INTER:                  -6.001
REMARK INTRA:                  -2.120
REMARK UNBOUND:                -2.120
REMARK SMILES CCCCCCCCCCCCCC(=O)[O-]
REMARK SMILES IDX 8 1 9 2 10 3 11 4 12 5 13 6 14 7 15 8 16 9 7 10 6 11 5 12
REMARK SMILES IDX 4 13 3 14 2 15 1 16
REMARK H PARENT
REMARK Flexibility Score: inf
ROOT
ATOM      1  C   UNL     1     188.177 185.265 167.667  1.00  0.00     0.000 C 
ENDROOT
BRANCH   1   2
ATOM      2  C   UNL     1     189.542 185.061 168.348  1.00  0.00     0.000 C 
BRANCH   2   3
ATOM      3  C   UNL     1     189.418 184.852 169.866  1.00  0.00     0.000 C 
BRANCH   3   4
ATOM      4  C   UNL     1     190.485 185.625 170.661  1.00  0.00     0.000 C 
BRANCH   4   5
ATOM      5  C   UNL     1     189.881 186.486 171.785  1.00  0.00     0.006 C 
BRANCH   5   6
ATOM      6  C   UNL     1     188.855 185.750 172.660  1.00  0.00     0.053 C 
BRANCH   6   7
ATOM      7  C   UNL     1     189.512 184.784 173.599  1.00  0.00     0.041 C 
ATOM      8  O   UNL     1     188.992 183.658 173.815  1.00  0.00    -0.550 OA
ATOM      9  O   UNL     1     190.679 185.142 174.262  1.00  0.00    -0.550 OA
ENDBRANCH   6   7
ENDBRANCH   5   6
ENDBRANCH   4   5
ENDBRANCH   3   4
ENDBRANCH   2   3
ENDBRANCH   1   2
BRANCH   1  10
ATOM     10  C   UNL     1     187.023 185.361 168.677  1.00  0.00     0.000 C 
BRANCH  10  11
ATOM     11  C   UNL     1     185.854 186.215 168.165  1.00  0.00    -0.000 C 
BRANCH  11  12
ATOM     12  C   UNL     1     185.625 187.432 169.070  1.00  0.00    -0.000 C 
BRANCH  12  13
ATOM     13  C   UNL     1     186.560 187.397 170.288  1.00  0.00    -0.000 C 
BRANCH  13  14
ATOM     14  C   UNL     1     187.308 188.722 170.499  1.00  0.00    -0.000 C 
BRANCH  14  15
ATOM     15  C   UNL     1     187.875 189.296 169.191  1.00  0.00    -0.003 C 
ATOM     16  C   UNL     1     189.265 188.736 168.902  1.00  0.00     0.004 C 
ENDBRANCH  14  15
ENDBRANCH  13  14
ENDBRANCH  12  13
ENDBRANCH  11  12
ENDBRANCH  10  11
ENDBRANCH   1  10
TORSDOF 12
ENDMDL
MODEL 2
REMARK VINA RESULT:    -3.513      2.891      4.871
REMARK INTER + INTRA:          -8.098
REMARK INTER:                  -6.333
REMARK INTRA:                  -1.765
REMARK UNBOUND:                -2.120
REMARK SMILES CCCCCCCCCCCCCC(=O)[O-]
REMARK SMILES IDX 8 1 9 2 10 3 11 4 12 5 13 6 14 7 15 8 16 9 7 10 6 11 5 12
REMARK SMILES IDX 4 13 3 14 2 15 1 16
REMARK H PARENT
REMARK Flexibility Score: inf
ROOT
ATOM      1  C   UNL     1     189.189 187.467 166.694  1.00  0.00     0.000 C 
ENDROOT
BRANCH   1   2
ATOM      2  C   UNL     1     188.767 186.009 166.436  1.00  0.00     0.000 C 
BRANCH   2   3
ATOM      3  C   UNL     1     188.357 185.278 167.725  1.00  0.00     0.000 C 
BRANCH   3   4
ATOM      4  C   UNL     1     186.883 184.835 167.712  1.00  0.00     0.000 C 
BRANCH   4   5
ATOM      5  C   UNL     1     186.044 185.531 168.800  1.00  0.00     0.006 C 
BRANCH   5   6
ATOM      6  C   UNL     1     185.434 186.872 168.363  1.00  0.00     0.053 C 
BRANCH   6   7
ATOM      7  C   UNL     1     184.562 187.464 169.428  1.00  0.00     0.041 C 
ATOM      8  O   UNL     1     183.620 188.240 169.116  1.00  0.00    -0.550 OA
ATOM      9  O   UNL     1     184.810 187.185 170.765  1.00  0.00    -0.550 OA
ENDBRANCH   6   7
ENDBRANCH   5   6
ENDBRANCH   4   5
ENDBRANCH   3   4
ENDBRANCH   2   3
ENDBRANCH   1   2
BRANCH   1  10
ATOM     10  C   UNL     1     189.441 187.754 168.183  1.00  0.00     0.000 C 
BRANCH  10  11
ATOM     11  C   UNL     1     188.568 188.896 168.724  1.00  0.00    -0.000 C 
BRANCH  11  12
ATOM     12  C   UNL     1     188.084 188.591 170.147  1.00  0.00    -0.000 C 
BRANCH  12  13
ATOM     13  C   UNL     1     188.985 187.547 170.823  1.00  0.00    -0.000 C 
BRANCH  13  14
ATOM     14  C   UNL     1     188.186 186.503 171.620  1.00  0.00    -0.000 C 
BRANCH  14  15
ATOM     15  C   UNL     1     189.068 185.688 172.578  1.00  0.00    -0.003 C 
ATOM     16  C   UNL     1     188.252 185.146 173.748  1.00  0.00     0.004 C 
ENDBRANCH  14  15
ENDBRANCH  13  14
ENDBRANCH  12  13
ENDBRANCH  11  12
ENDBRANCH  10  11
ENDBRANCH   1  10
TORSDOF 12
ENDMDL
MODEL 3
REMARK VINA RESULT:    -3.432      1.330      2.833
REMARK INTER + INTRA:          -7.960
REMARK INTER:                  -6.136
REMARK INTRA:                  -1.824
REMARK UNBOUND:                -2.120
REMARK SMILES CCCCCCCCCCCCCC(=O)[O-]
REMARK SMILES IDX 8 1 9 2 10 3 11 4 12 5 13 6 14 7 15 8 16 9 7 10 6 11 5 12
REMARK SMILES IDX 4 13 3 14 2 15 1 16
REMARK H PARENT
REMARK Flexibility Score: inf
ROOT
ATOM      1  C   UNL     1     187.071 188.415 169.950  1.00  0.00     0.000 C 
ENDROOT
BRANCH   1   2
ATOM      2  C   UNL     1     188.433 187.978 170.519  1.00  0.00     0.000 C 
BRANCH   2   3
ATOM      3  C   UNL     1     188.325 186.736 171.418  1.00  0.00     0.000 C 
BRANCH   3   4
ATOM      4  C   UNL     1     189.324 185.632 171.027  1.00  0.00     0.000 C 
BRANCH   4   5
ATOM      5  C   UNL     1     189.731 184.749 172.221  1.00  0.00     0.006 C 
BRANCH   5   6
ATOM      6  C   UNL     1     189.433 185.371 173.594  1.00  0.00     0.053 C 
BRANCH   6   7
ATOM      7  C   UNL     1     190.688 185.687 174.350  1.00  0.00     0.041 C 
ATOM      8  O   UNL     1     190.974 186.881 174.631  1.00  0.00    -0.550 OA
ATOM      9  O   UNL     1     191.556 184.666 174.715  1.00  0.00    -0.550 OA
ENDBRANCH   6   7
ENDBRANCH   5   6
ENDBRANCH   4   5
ENDBRANCH   3   4
ENDBRANCH   2   3
ENDBRANCH   1   2
BRANCH   1  10
ATOM     10  C   UNL     1     185.898 187.636 170.566  1.00  0.00     0.000 C 
BRANCH  10  11
ATOM     11  C   UNL     1     184.982 187.005 169.507  1.00  0.00    -0.000 C 
BRANCH  11  12
ATOM     12  C   UNL     1     185.776 186.619 168.252  1.00  0.00    -0.000 C 
BRANCH  12  13
ATOM     13  C   UNL     1     186.324 185.189 168.365  1.00  0.00    -0.000 C 
BRANCH  13  14
ATOM     14  C   UNL     1     187.699 185.028 167.700  1.00  0.00    -0.000 C 
BRANCH  14  15
ATOM     15  C   UNL     1     188.210 186.333 167.072  1.00  0.00    -0.003 C 
ATOM     16  C   UNL     1     189.686 186.554 167.387  1.00  0.00     0.004 C 
ENDBRANCH  14  15
ENDBRANCH  13  14
ENDBRANCH  12  13
ENDBRANCH  11  12
ENDBRANCH  10  11
ENDBRANCH   1  10
TORSDOF 12
ENDMDL
MODEL 4
REMARK VINA RESULT:    -3.422      1.097      2.879
REMARK INTER + INTRA:          -7.942
REMARK INTER:                  -5.832
REMARK INTRA:                  -2.110
REMARK UNBOUND:                -2.120
REMARK SMILES CCCCCCCCCCCCCC(=O)[O-]
REMARK SMILES IDX 8 1 9 2 10 3 11 4 12 5 13 6 14 7 15 8 16 9 7 10 6 11 5 12
REMARK SMILES IDX 4 13 3 14 2 15 1 16
REMARK H PARENT
REMARK Flexibility Score: inf
ROOT
ATOM      1  C   UNL     1     190.238 188.740 170.173  1.00  0.00     0.000 C 
ENDROOT
BRANCH   1   2
ATOM      2  C   UNL     1     190.712 187.439 170.843  1.00  0.00     0.000 C 
BRANCH   2   3
ATOM      3  C   UNL     1     190.213 186.183 170.111  1.00  0.00     0.000 C 
BRANCH   3   4
ATOM      4  C   UNL     1     189.448 185.221 171.037  1.00  0.00     0.000 C 
BRANCH   4   5
ATOM      5  C   UNL     1     188.660 185.956 172.137  1.00  0.00     0.006 C 
BRANCH   5   6
ATOM      6  C   UNL     1     188.763 185.306 173.526  1.00  0.00     0.053 C 
BRANCH   6   7
ATOM      7  C   UNL     1     190.169 185.316 174.046  1.00  0.00     0.041 C 
ATOM      8  O   UNL     1     190.718 186.403 174.365  1.00  0.00    -0.550 OA
ATOM      9  O   UNL     1     190.882 184.129 174.145  1.00  0.00    -0.550 OA
ENDBRANCH   6   7
ENDBRANCH   5   6
ENDBRANCH   4   5
ENDBRANCH   3   4
ENDBRANCH   2   3
ENDBRANCH   1   2
BRANCH   1  10
ATOM     10  C   UNL     1     189.548 188.490 168.822  1.00  0.00     0.000 C 
BRANCH  10  11
ATOM     11  C   UNL     1     188.100 189.001 168.791  1.00  0.00    -0.000 C 
BRANCH  11  12
ATOM     12  C   UNL     1     187.440 188.870 170.170  1.00  0.00    -0.000 C 
BRANCH  12  13
ATOM     13  C   UNL     1     186.227 187.930 170.112  1.00  0.00    -0.000 C 
BRANCH  13  14
ATOM     14  C   UNL     1     186.129 187.170 168.780  1.00  0.00    -0.000 C 
BRANCH  14  15
ATOM     15  C   UNL     1     186.285 185.652 168.952  1.00  0.00    -0.003 C 
ATOM     16  C   UNL     1     187.270 185.082 167.935  1.00  0.00     0.004 C 
ENDBRANCH  14  15
ENDBRANCH  13  14
ENDBRANCH  12  13
ENDBRANCH  11  12
ENDBRANCH  10  11
ENDBRANCH   1  10
TORSDOF 12
ENDMDL
MODEL 5
REMARK VINA RESULT:    -3.399      4.574      6.436
REMARK INTER + INTRA:          -7.904
REMARK INTER:                  -6.398
REMARK INTRA:                  -1.506
REMARK UNBOUND:                -2.120
REMARK SMILES CCCCCCCCCCCCCC(=O)[O-]
REMARK SMILES IDX 8 1 9 2 10 3 11 4 12 5 13 6 14 7 15 8 16 9 7 10 6 11 5 12
REMARK SMILES IDX 4 13 3 14 2 15 1 16
REMARK H PARENT
REMARK Flexibility Score: inf
ROOT
ATOM      1  C   UNL     1     185.889 186.496 167.806  1.00  0.00     0.000 C 
ENDROOT
BRANCH   1   2
ATOM      2  C   UNL     1     185.458 186.399 169.280  1.00  0.00     0.000 C 
BRANCH   2   3
ATOM      3  C   UNL     1     184.620 187.607 169.729  1.00  0.00     0.000 C 
BRANCH   3   4
ATOM      4  C   UNL     1     183.478 187.215 170.684  1.00  0.00     0.000 C 
BRANCH   4   5
ATOM      5  C   UNL     1     182.172 187.977 170.392  1.00  0.00     0.006 C 
BRANCH   5   6
ATOM      6  C   UNL     1     182.272 188.975 169.228  1.00  0.00     0.053 C 
BRANCH   6   7
ATOM      7  C   UNL     1     181.548 190.253 169.523  1.00  0.00     0.041 C 
ATOM      8  O   UNL     1     181.009 190.430 170.647  1.00  0.00    -0.550 OA
ATOM      9  O   UNL     1     181.439 191.233 168.545  1.00  0.00    -0.550 OA
ENDBRANCH   6   7
ENDBRANCH   5   6
ENDBRANCH   4   5
ENDBRANCH   3   4
ENDBRANCH   2   3
ENDBRANCH   1   2
BRANCH   1  10
ATOM     10  C   UNL     1     187.359 186.100 167.594  1.00  0.00     0.000 C 
BRANCH  10  11
ATOM     11  C   UNL     1     187.870 185.118 168.658  1.00  0.00    -0.000 C 
BRANCH  11  12
ATOM     12  C   UNL     1     189.144 185.647 169.329  1.00  0.00    -0.000 C 
BRANCH  12  13
ATOM     13  C   UNL     1     188.917 185.889 170.828  1.00  0.00    -0.000 C 
BRANCH  13  14
ATOM     14  C   UNL     1     188.455 187.322 171.134  1.00  0.00    -0.000 C 
BRANCH  14  15
ATOM     15  C   UNL     1     188.975 188.342 170.109  1.00  0.00    -0.003 C 
ATOM     16  C   UNL     1     187.857 189.270 169.641  1.00  0.00     0.004 C 
ENDBRANCH  14  15
ENDBRANCH  13  14
ENDBRANCH  12  13
ENDBRANCH  11  12
ENDBRANCH  10  11
ENDBRANCH   1  10
TORSDOF 12
ENDMDL
MODEL 6
REMARK VINA RESULT:    -3.393      1.366      3.155
REMARK INTER + INTRA:          -7.893
REMARK INTER:                  -5.771
REMARK INTRA:                  -2.122
REMARK UNBOUND:                -2.120
REMARK SMILES CCCCCCCCCCCCCC(=O)[O-]
REMARK SMILES IDX 8 1 9 2 10 3 11 4 12 5 13 6 14 7 15 8 16 9 7 10 6 11 5 12
REMARK SMILES IDX 4 13 3 14 2 15 1 16
REMARK H PARENT
REMARK Flexibility Score: inf
ROOT
ATOM      1  C   UNL     1     185.624 186.547 168.236  1.00  0.00     0.000 C 
ENDROOT
BRANCH   1   2
ATOM      2  C   UNL     1     185.713 187.389 169.521  1.00  0.00     0.000 C 
BRANCH   2   3
ATOM      3  C   UNL     1     186.900 188.366 169.504  1.00  0.00     0.000 C 
BRANCH   3   4
ATOM      4  C   UNL     1     187.889 188.118 170.657  1.00  0.00     0.000 C 
BRANCH   4   5
ATOM      5  C   UNL     1     187.742 186.715 171.275  1.00  0.00     0.006 C 
BRANCH   5   6
ATOM      6  C   UNL     1     189.064 185.943 171.405  1.00  0.00     0.053 C 
BRANCH   6   7
ATOM      7  C   UNL     1     189.714 186.167 172.737  1.00  0.00     0.041 C 
ATOM      8  O   UNL     1     190.732 186.904 172.828  1.00  0.00    -0.550 OA
ATOM      9  O   UNL     1     189.216 185.537 173.870  1.00  0.00    -0.550 OA
ENDBRANCH   6   7
ENDBRANCH   5   6
ENDBRANCH   4   5
ENDBRANCH   3   4
ENDBRANCH   2   3
ENDBRANCH   1   2
BRANCH   1  10
ATOM     10  C   UNL     1     186.155 185.118 168.429  1.00  0.00     0.000 C 
BRANCH  10  11
ATOM     11  C   UNL     1     187.612 184.958 167.973  1.00  0.00    -0.000 C 
BRANCH  11  12
ATOM     12  C   UNL     1     187.815 185.535 166.566  1.00  0.00    -0.000 C 
BRANCH  12  13
ATOM     13  C   UNL     1     188.909 186.613 166.565  1.00  0.00    -0.000 C 
BRANCH  13  14
ATOM     14  C   UNL     1     189.792 186.561 167.821  1.00  0.00    -0.000 C 
BRANCH  14  15
ATOM     15  C   UNL     1     190.451 187.911 168.138  1.00  0.00    -0.003 C 
ATOM     16  C   UNL     1     189.934 189.006 167.209  1.00  0.00     0.004 C 
ENDBRANCH  14  15
ENDBRANCH  13  14
ENDBRANCH  12  13
ENDBRANCH  11  12
ENDBRANCH  10  11
ENDBRANCH   1  10
TORSDOF 12
ENDMDL
MODEL 7
REMARK VINA RESULT:    -3.367      1.378      3.152
REMARK INTER + INTRA:          -7.849
REMARK INTER:                  -6.080
REMARK INTRA:                  -1.768
REMARK UNBOUND:                -2.120
REMARK SMILES CCCCCCCCCCCCCC(=O)[O-]
REMARK SMILES IDX 8 1 9 2 10 3 11 4 12 5 13 6 14 7 15 8 16 9 7 10 6 11 5 12
REMARK SMILES IDX 4 13 3 14 2 15 1 16
REMARK H PARENT
REMARK Flexibility Score: inf
ROOT
ATOM      1  C   UNL     1     189.833 187.304 167.656  1.00  0.00     0.000 C 
ENDROOT
BRANCH   1   2
ATOM      2  C   UNL     1     189.419 188.743 168.012  1.00  0.00     0.000 C 
BRANCH   2   3
ATOM      3  C   UNL     1     188.245 188.791 169.002  1.00  0.00     0.000 C 
BRANCH   3   4
ATOM      4  C   UNL     1     188.665 188.432 170.439  1.00  0.00     0.000 C 
BRANCH   4   5
ATOM      5  C   UNL     1     187.942 187.182 170.974  1.00  0.00     0.006 C 
BRANCH   5   6
ATOM      6  C   UNL     1     188.868 185.986 171.246  1.00  0.00     0.053 C 
BRANCH   6   7
ATOM      7  C   UNL     1     189.244 185.887 172.692  1.00  0.00     0.041 C 
ATOM      8  O   UNL     1     188.476 185.313 173.509  1.00  0.00    -0.550 OA
ATOM      9  O   UNL     1     190.428 186.456 173.144  1.00  0.00    -0.550 OA
ENDBRANCH   6   7
ENDBRANCH   5   6
ENDBRANCH   4   5
ENDBRANCH   3   4
ENDBRANCH   2   3
ENDBRANCH   1   2
BRANCH   1  10
ATOM     10  C   UNL     1     188.728 186.540 166.910  1.00  0.00     0.000 C 
BRANCH  10  11
ATOM     11  C   UNL     1     188.314 185.245 167.624  1.00  0.00    -0.000 C 
BRANCH  11  12
ATOM     12  C   UNL     1     186.815 184.974 167.445  1.00  0.00    -0.000 C 
BRANCH  12  13
ATOM     13  C   UNL     1     186.006 185.558 168.613  1.00  0.00    -0.000 C 
BRANCH  13  14
ATOM     14  C   UNL     1     185.288 186.864 168.241  1.00  0.00    -0.000 C 
BRANCH  14  15
ATOM     15  C   UNL     1     184.586 187.516 169.442  1.00  0.00    -0.003 C 
ATOM     16  C   UNL     1     183.266 188.158 169.025  1.00  0.00     0.004 C 
ENDBRANCH  14  15
ENDBRANCH  13  14
ENDBRANCH  12  13
ENDBRANCH  11  12
ENDBRANCH  10  11
ENDBRANCH   1  10
TORSDOF 12
ENDMDL
MODEL 8
REMARK VINA RESULT:    -3.349      1.490      3.249
REMARK INTER + INTRA:          -7.818
REMARK INTER:                  -5.726
REMARK INTRA:                  -2.092
REMARK UNBOUND:                -2.120
REMARK SMILES CCCCCCCCCCCCCC(=O)[O-]
REMARK SMILES IDX 8 1 9 2 10 3 11 4 12 5 13 6 14 7 15 8 16 9 7 10 6 11 5 12
REMARK SMILES IDX 4 13 3 14 2 15 1 16
REMARK H PARENT
REMARK Flexibility Score: inf
ROOT
ATOM      1  C   UNL     1     186.414 187.810 170.375  1.00  0.00     0.000 C 
ENDROOT
BRANCH   1   2
ATOM      2  C   UNL     1     187.392 188.990 170.232  1.00  0.00     0.000 C 
BRANCH   2   3
ATOM      3  C   UNL     1     188.616 188.638 169.371  1.00  0.00     0.000 C 
BRANCH   3   4
ATOM      4  C   UNL     1     189.808 188.142 170.209  1.00  0.00     0.000 C 
BRANCH   4   5
ATOM      5  C   UNL     1     190.229 186.705 169.849  1.00  0.00     0.006 C 
BRANCH   5   6
ATOM      6  C   UNL     1     189.353 185.614 170.484  1.00  0.00     0.053 C 
BRANCH   6   7
ATOM      7  C   UNL     1     189.351 185.698 171.980  1.00  0.00     0.041 C 
ATOM      8  O   UNL     1     190.437 185.657 172.618  1.00  0.00    -0.550 OA
ATOM      9  O   UNL     1     188.150 185.788 172.671  1.00  0.00    -0.550 OA
ENDBRANCH   6   7
ENDBRANCH   5   6
ENDBRANCH   4   5
ENDBRANCH   3   4
ENDBRANCH   2   3
ENDBRANCH   1   2
BRANCH   1  10
ATOM     10  C   UNL     1     185.232 187.902 169.397  1.00  0.00     0.000 C 
BRANCH  10  11
ATOM     11  C   UNL     1     185.298 186.846 168.284  1.00  0.00    -0.000 C 
BRANCH  11  12
ATOM     12  C   UNL     1     186.140 185.640 168.719  1.00  0.00    -0.000 C 
BRANCH  12  13
ATOM     13  C   UNL     1     186.989 185.112 167.553  1.00  0.00    -0.000 C 
BRANCH  13  14
ATOM     14  C   UNL     1     187.467 186.231 166.615  1.00  0.00    -0.000 C 
BRANCH  14  15
ATOM     15  C   UNL     1     188.994 186.246 166.443  1.00  0.00    -0.003 C 
ATOM     16  C   UNL     1     189.477 187.605 165.944  1.00  0.00     0.004 C 
ENDBRANCH  14  15
ENDBRANCH  13  14
ENDBRANCH  12  13
ENDBRANCH  11  12
ENDBRANCH  10  11
ENDBRANCH   1  10
TORSDOF 12
ENDMDL
MODEL 9
REMARK VINA RESULT:    -3.309      1.229      2.744
REMARK INTER + INTRA:          -7.750
REMARK INTER:                  -5.589
REMARK INTRA:                  -2.161
REMARK UNBOUND:                -2.120
REMARK SMILES CCCCCCCCCCCCCC(=O)[O-]
REMARK SMILES IDX 8 1 9 2 10 3 11 4 12 5 13 6 14 7 15 8 16 9 7 10 6 11 5 12
REMARK SMILES IDX 4 13 3 14 2 15 1 16
REMARK H PARENT
REMARK Flexibility Score: inf
ROOT
ATOM      1  C   UNL     1     189.879 187.572 168.948  1.00  0.00     0.000 C 
ENDROOT
BRANCH   1   2
ATOM      2  C   UNL     1     189.860 186.405 167.944  1.00  0.00     0.000 C 
BRANCH   2   3
ATOM      3  C   UNL     1     190.300 185.076 168.578  1.00  0.00     0.000 C 
BRANCH   3   4
ATOM      4  C   UNL     1     189.448 184.691 169.801  1.00  0.00     0.000 C 
BRANCH   4   5
ATOM      5  C   UNL     1     190.280 184.574 171.091  1.00  0.00     0.006 C 
BRANCH   5   6
ATOM      6  C   UNL     1     189.550 185.049 172.357  1.00  0.00     0.053 C 
BRANCH   6   7
ATOM      7  C   UNL     1     190.297 186.143 173.057  1.00  0.00     0.041 C 
ATOM      8  O   UNL     1     190.853 187.056 172.391  1.00  0.00    -0.550 OA
ATOM      9  O   UNL     1     190.408 186.135 174.441  1.00  0.00    -0.550 OA
ENDBRANCH   6   7
ENDBRANCH   5   6
ENDBRANCH   4   5
ENDBRANCH   3   4
ENDBRANCH   2   3
ENDBRANCH   1   2
BRANCH   1  10
ATOM     10  C   UNL     1     188.940 188.717 168.538  1.00  0.00     0.000 C 
BRANCH  10  11
ATOM     11  C   UNL     1     187.744 188.875 169.489  1.00  0.00    -0.000 C 
BRANCH  11  12
ATOM     12  C   UNL     1     187.870 187.933 170.692  1.00  0.00    -0.000 C 
BRANCH  12  13
ATOM     13  C   UNL     1     186.673 186.973 170.769  1.00  0.00    -0.000 C 
BRANCH  13  14
ATOM     14  C   UNL     1     185.842 186.960 169.476  1.00  0.00    -0.000 C 
BRANCH  14  15
ATOM     15  C   UNL     1     186.066 185.690 168.642  1.00  0.00    -0.003 C 
ATOM     16  C   UNL     1     186.382 186.035 167.190  1.00  0.00     0.004 C 
ENDBRANCH  14  15
ENDBRANCH  13  14
ENDBRANCH  12  13
ENDBRANCH  11  12
ENDBRANCH  10  11
ENDBRANCH   1  10
TORSDOF 12
ENDMDL
