MODEL 1
REMARK VINA RESULT:    -4.958      0.000      0.000
REMARK INTER + INTRA:          -6.779
REMARK INTER:                  -6.697
REMARK INTRA:                  -0.081
REMARK UNBOUND:                -0.081
REMARK SMILES C=C1C(=O)O[C@@H]2[C@@H]1CCC(C)=CCC[C@]1(C)O[C@H]21
REMARK SMILES IDX 6 1 7 2 2 3 1 4 3 5 4 6 5 7 8 8 9 9 10 10 11 11 12 12 18 14
REMARK SMILES IDX 15 15 17 16 16 17 14 18 13 19
REMARK H PARENT
REMARK Flexibility Score: 70.00
ROOT
ATOM      1  C   UNL     1       6.679  59.887 132.648  1.00  0.00     0.216 C 
ATOM      2  C   UNL     1       6.453  58.626 133.564  1.00  0.00     0.070 C 
ATOM      3  C   UNL     1       5.077  58.165 133.169  1.00  0.00     0.037 C 
ATOM      4  C   UNL     1       4.425  57.113 133.665  1.00  0.00     0.021 C 
ATOM      5  C   UNL     1       4.498  59.184 132.330  1.00  0.00     0.334 C 
ATOM      6  O   UNL     1       3.321  59.183 131.881  1.00  0.00    -0.247 OA
ATOM      7  O   UNL     1       5.397  60.202 132.109  1.00  0.00    -0.455 OA
ENDROOT
BRANCH   2   8
ATOM      8  C   UNL     1       7.540  57.528 133.375  1.00  0.00     0.017 C 
BRANCH   8   9
ATOM      9  C   UNL     1       8.720  57.692 134.360  1.00  0.00     0.031 C 
BRANCH   9  10
ATOM     10  C   UNL     1      10.062  57.411 133.707  1.00  0.00    -0.077 C 
ATOM     11  C   UNL     1      10.388  55.993 133.319  1.00  0.00     0.039 C 
ATOM     12  C   UNL     1      10.973  58.379 133.439  1.00  0.00    -0.028 CG0
ATOM     13  G   UNL     1      10.775  59.854 133.711  1.00  0.00     0.000 G0
ENDBRANCH   9  10
ENDBRANCH   8   9
ENDBRANCH   2   8
BRANCH   1  14
ATOM     14  C   UNL     1       7.251  61.132 133.365  1.00  0.00     0.192 C 
ATOM     15  C   UNL     1       8.728  61.414 133.362  1.00  0.00     0.096 C 
ATOM     16  O   UNL     1       8.085  60.798 134.453  1.00  0.00    -0.362 OA
ATOM     17  C   UNL     1       9.178  62.831 133.718  1.00  0.00     0.045 C 
BRANCH  15  18
ATOM     18  C   UNL     1       9.768  60.479 132.698  1.00  0.00     0.042 C 
BRANCH  18  19
ATOM     19  C   UNL     1      10.773  59.874 133.700  1.00  0.00     0.030 CG0
ATOM     20  G   UNL     1      10.982  58.397 133.452  1.00  0.00     0.000 G0
ENDBRANCH  18  19
ENDBRANCH  15  18
ENDBRANCH   1  14
TORSDOF 0
ENDMDL
MODEL 2
REMARK VINA RESULT:    -4.904      3.239      6.263
REMARK INTER + INTRA:          -6.705
REMARK INTER:                  -6.572
REMARK INTRA:                  -0.133
REMARK UNBOUND:                -0.081
REMARK SMILES C=C1C(=O)O[C@@H]2[C@@H]1CCC(C)=CCC[C@]1(C)O[C@H]21
REMARK SMILES IDX 6 1 7 2 2 3 1 4 3 5 4 6 5 7 8 8 9 9 10 10 11 11 12 12 18 14
REMARK SMILES IDX 15 15 17 16 16 17 14 18 13 19
REMARK H PARENT
REMARK Flexibility Score: 70.00
ROOT
ATOM      1  C   UNL     1       7.022  58.685 132.776  1.00  0.00     0.216 C 
ATOM      2  C   UNL     1       7.181  60.095 133.459  1.00  0.00     0.070 C 
ATOM      3  C   UNL     1       8.582  60.493 133.086  1.00  0.00     0.037 C 
ATOM      4  C   UNL     1       9.196  61.627 133.426  1.00  0.00     0.021 C 
ATOM      5  C   UNL     1       9.221  59.346 132.492  1.00  0.00     0.334 C 
ATOM      6  O   UNL     1      10.427  59.280 132.136  1.00  0.00    -0.247 OA
ATOM      7  O   UNL     1       8.340  58.293 132.398  1.00  0.00    -0.455 OA
ENDROOT
BRANCH   2   8
ATOM      8  C   UNL     1       6.110  61.125 132.995  1.00  0.00     0.017 C 
BRANCH   8   9
ATOM      9  C   UNL     1       4.936  61.243 133.992  1.00  0.00     0.031 C 
BRANCH   9  10
ATOM     10  C   UNL     1       3.595  61.383 133.292  1.00  0.00    -0.077 C 
ATOM     11  C   UNL     1       3.250  62.707 132.663  1.00  0.00     0.039 C 
ATOM     12  C   UNL     1       2.702  60.368 133.190  1.00  0.00    -0.028 CG0
ATOM     13  G   UNL     1       2.922  58.966 133.715  1.00  0.00     0.000 G0
ENDBRANCH   9  10
ENDBRANCH   8   9
ENDBRANCH   2   8
BRANCH   1  14
ATOM     14  C   UNL     1       6.399  57.584 133.667  1.00  0.00     0.192 C 
ATOM     15  C   UNL     1       4.915  57.342 133.670  1.00  0.00     0.096 C 
ATOM     16  O   UNL     1       5.552  58.107 134.667  1.00  0.00    -0.362 OA
ATOM     17  C   UNL     1       4.418  56.012 134.235  1.00  0.00     0.045 C 
BRANCH  15  18
ATOM     18  C   UNL     1       3.918  58.184 132.839  1.00  0.00     0.042 C 
BRANCH  18  19
ATOM     19  C   UNL     1       2.900  58.955 133.705  1.00  0.00     0.030 CG0
ATOM     20  G   UNL     1       2.695  60.365 133.197  1.00  0.00     0.000 G0
ENDBRANCH  18  19
ENDBRANCH  15  18
ENDBRANCH   1  14
TORSDOF 0
ENDMDL
MODEL 3
REMARK VINA RESULT:    -4.743      3.358      5.933
REMARK INTER + INTRA:          -6.488
REMARK INTER:                  -6.397
REMARK INTRA:                  -0.091
REMARK UNBOUND:                -0.081
REMARK SMILES C=C1C(=O)O[C@@H]2[C@@H]1CCC(C)=CCC[C@]1(C)O[C@H]21
REMARK SMILES IDX 6 1 7 2 2 3 1 4 3 5 4 6 5 7 8 8 9 9 10 10 11 11 12 12 18 14
REMARK SMILES IDX 15 15 17 16 16 17 14 18 13 19
REMARK H PARENT
REMARK Flexibility Score: 70.00
ROOT
ATOM      1  C   UNL     1       5.590  60.165 133.303  1.00  0.00     0.216 C 
ATOM      2  C   UNL     1       6.165  58.715 133.087  1.00  0.00     0.070 C 
ATOM      3  C   UNL     1       7.650  58.942 133.062  1.00  0.00     0.037 C 
ATOM      4  C   UNL     1       8.589  58.007 132.907  1.00  0.00     0.021 C 
ATOM      5  C   UNL     1       7.876  60.364 133.010  1.00  0.00     0.334 C 
ATOM      6  O   UNL     1       8.997  60.926 132.891  1.00  0.00    -0.247 OA
ATOM      7  O   UNL     1       6.683  61.049 133.064  1.00  0.00    -0.455 OA
ENDROOT
BRANCH   2   8
ATOM      8  C   UNL     1       5.720  57.708 134.188  1.00  0.00     0.017 C 
BRANCH   8   9
ATOM      9  C   UNL     1       4.438  56.938 133.800  1.00  0.00     0.031 C 
BRANCH   9  10
ATOM     10  C   UNL     1       3.493  56.757 134.975  1.00  0.00    -0.077 C 
ATOM     11  C   UNL     1       3.878  55.788 136.061  1.00  0.00     0.039 C 
ATOM     12  C   UNL     1       2.329  57.441 135.103  1.00  0.00    -0.028 CG0
ATOM     13  G   UNL     1       1.830  58.489 134.133  1.00  0.00     0.000 G0
ENDBRANCH   9  10
ENDBRANCH   8   9
ENDBRANCH   2   8
BRANCH   1  14
ATOM     14  C   UNL     1       4.409  60.553 132.383  1.00  0.00     0.192 C 
ATOM     15  C   UNL     1       2.987  60.398 132.845  1.00  0.00     0.096 C 
ATOM     16  O   UNL     1       3.614  59.445 132.020  1.00  0.00    -0.362 OA
ATOM     17  C   UNL     1       1.908  61.162 132.078  1.00  0.00     0.045 C 
BRANCH  15  18
ATOM     18  C   UNL     1       2.603  59.810 134.224  1.00  0.00     0.042 C 
BRANCH  18  19
ATOM     19  C   UNL     1       1.817  58.486 134.125  1.00  0.00     0.030 CG0
ATOM     20  G   UNL     1       2.331  57.461 135.112  1.00  0.00     0.000 G0
ENDBRANCH  18  19
ENDBRANCH  15  18
ENDBRANCH   1  14
TORSDOF 0
ENDMDL
MODEL 4
REMARK VINA RESULT:    -4.701      1.471      3.550
REMARK INTER + INTRA:          -6.432
REMARK INTER:                  -6.293
REMARK INTRA:                  -0.138
REMARK UNBOUND:                -0.081
REMARK SMILES C=C1C(=O)O[C@@H]2[C@@H]1CCC(C)=CCC[C@]1(C)O[C@H]21
REMARK SMILES IDX 6 1 7 2 2 3 1 4 3 5 4 6 5 7 8 8 9 9 10 10 11 11 12 12 18 14
REMARK SMILES IDX 15 15 17 16 16 17 14 18 13 19
REMARK H PARENT
REMARK Flexibility Score: 70.00
ROOT
ATOM      1  C   UNL     1       7.174  58.434 133.600  1.00  0.00     0.216 C 
ATOM      2  C   UNL     1       6.903  59.860 132.989  1.00  0.00     0.070 C 
ATOM      3  C   UNL     1       5.415  59.859 132.779  1.00  0.00     0.037 C 
ATOM      4  C   UNL     1       4.688  60.860 132.280  1.00  0.00     0.021 C 
ATOM      5  C   UNL     1       4.941  58.515 132.998  1.00  0.00     0.334 C 
ATOM      6  O   UNL     1       3.759  58.117 132.827  1.00  0.00    -0.247 OA
ATOM      7  O   UNL     1       5.974  57.693 133.386  1.00  0.00    -0.455 OA
ENDROOT
BRANCH   2   8
ATOM      8  C   UNL     1       7.389  61.022 133.904  1.00  0.00     0.017 C 
BRANCH   8   9
ATOM      9  C   UNL     1       8.694  61.670 133.391  1.00  0.00     0.031 C 
BRANCH   9  10
ATOM     10  C   UNL     1       9.642  62.035 134.520  1.00  0.00    -0.077 C 
ATOM     11  C   UNL     1       9.383  63.303 135.290  1.00  0.00     0.039 C 
ATOM     12  C   UNL     1      10.698  61.264 134.881  1.00  0.00    -0.028 CG0
ATOM     13  G   UNL     1      11.057  59.938 134.248  1.00  0.00     0.000 G0
ENDBRANCH   9  10
ENDBRANCH   8   9
ENDBRANCH   2   8
BRANCH   1  14
ATOM     14  C   UNL     1       8.365  57.665 132.983  1.00  0.00     0.192 C 
ATOM     15  C   UNL     1       9.759  57.840 133.519  1.00  0.00     0.096 C 
ATOM     16  O   UNL     1       9.307  58.519 132.371  1.00  0.00    -0.362 OA
ATOM     17  C   UNL     1      10.795  56.777 133.156  1.00  0.00     0.045 C 
BRANCH  15  18
ATOM     18  C   UNL     1      10.107  58.814 134.671  1.00  0.00     0.042 C 
BRANCH  18  19
ATOM     19  C   UNL     1      11.081  59.934 134.249  1.00  0.00     0.030 CG0
ATOM     20  G   UNL     1      10.712  61.257 134.884  1.00  0.00     0.000 G0
ENDBRANCH  18  19
ENDBRANCH  15  18
ENDBRANCH   1  14
TORSDOF 0
ENDMDL
MODEL 5
REMARK VINA RESULT:    -4.372      3.123      5.726
REMARK INTER + INTRA:          -5.987
REMARK INTER:                  -5.843
REMARK INTRA:                  -0.144
REMARK UNBOUND:                -0.081
REMARK SMILES C=C1C(=O)O[C@@H]2[C@@H]1CCC(C)=CCC[C@]1(C)O[C@H]21
REMARK SMILES IDX 6 1 7 2 2 3 1 4 3 5 4 6 5 7 8 8 9 9 10 10 11 11 12 12 18 14
REMARK SMILES IDX 15 15 17 16 16 17 14 18 13 19
REMARK H PARENT
REMARK Flexibility Score: 70.00
ROOT
ATOM      1  C   UNL     1       7.924  57.679 134.127  1.00  0.00     0.216 C 
ATOM      2  C   UNL     1       8.120  58.940 133.204  1.00  0.00     0.070 C 
ATOM      3  C   UNL     1       9.403  58.635 132.483  1.00  0.00     0.037 C 
ATOM      4  C   UNL     1      10.000  59.406 131.573  1.00  0.00     0.021 C 
ATOM      5  C   UNL     1       9.991  57.476 133.107  1.00  0.00     0.334 C 
ATOM      6  O   UNL     1      11.115  56.982 132.825  1.00  0.00    -0.247 OA
ATOM      7  O   UNL     1       9.173  56.991 134.101  1.00  0.00    -0.455 OA
ENDROOT
BRANCH   2   8
ATOM      8  C   UNL     1       6.923  59.185 132.239  1.00  0.00     0.017 C 
BRANCH   8   9
ATOM      9  C   UNL     1       5.991  60.316 132.732  1.00  0.00     0.031 C 
BRANCH   9  10
ATOM     10  C   UNL     1       4.525  60.004 132.489  1.00  0.00    -0.077 C 
ATOM     11  C   UNL     1       3.976  60.178 131.097  1.00  0.00     0.039 C 
ATOM     12  C   UNL     1       3.690  59.558 133.461  1.00  0.00    -0.028 CG0
ATOM     13  G   UNL     1       4.099  59.276 134.890  1.00  0.00     0.000 G0
ENDBRANCH   9  10
ENDBRANCH   8   9
ENDBRANCH   2   8
BRANCH   1  14
ATOM     14  C   UNL     1       7.540  57.985 135.593  1.00  0.00     0.192 C 
ATOM     15  C   UNL     1       6.099  58.104 136.005  1.00  0.00     0.096 C 
ATOM     16  O   UNL     1       6.899  59.233 135.739  1.00  0.00    -0.362 OA
ATOM     17  C   UNL     1       5.779  57.997 137.496  1.00  0.00     0.045 C 
BRANCH  15  18
ATOM     18  C   UNL     1       4.921  57.980 135.010  1.00  0.00     0.042 C 
BRANCH  18  19
ATOM     19  C   UNL     1       4.077  59.267 134.898  1.00  0.00     0.030 CG0
ATOM     20  G   UNL     1       3.689  59.553 133.465  1.00  0.00     0.000 G0
ENDBRANCH  18  19
ENDBRANCH  15  18
ENDBRANCH   1  14
TORSDOF 0
ENDMDL
MODEL 6
REMARK VINA RESULT:    -4.341      2.207      2.758
REMARK INTER + INTRA:          -5.945
REMARK INTER:                  -5.942
REMARK INTRA:                  -0.003
REMARK UNBOUND:                -0.081
REMARK SMILES C=C1C(=O)O[C@@H]2[C@@H]1CCC(C)=CCC[C@]1(C)O[C@H]21
REMARK SMILES IDX 6 1 7 2 2 3 1 4 3 5 4 6 5 7 8 8 9 9 10 10 11 11 12 12 18 14
REMARK SMILES IDX 15 15 17 16 16 17 14 18 13 19
REMARK H PARENT
REMARK Flexibility Score: 70.00
ROOT
ATOM      1  C   UNL     1       5.228  61.129 133.790  1.00  0.00     0.216 C 
ATOM      2  C   UNL     1       5.037  59.812 132.949  1.00  0.00     0.070 C 
ATOM      3  C   UNL     1       3.892  60.156 132.038  1.00  0.00     0.037 C 
ATOM      4  C   UNL     1       3.349  59.359 131.117  1.00  0.00     0.021 C 
ATOM      5  C   UNL     1       3.338  61.410 132.485  1.00  0.00     0.334 C 
ATOM      6  O   UNL     1       2.311  61.967 132.015  1.00  0.00    -0.247 OA
ATOM      7  O   UNL     1       4.062  61.913 133.542  1.00  0.00    -0.455 OA
ENDROOT
BRANCH   2   8
ATOM      8  C   UNL     1       6.321  59.385 132.179  1.00  0.00     0.017 C 
BRANCH   8   9
ATOM      9  C   UNL     1       7.279  58.543 133.051  1.00  0.00     0.031 C 
BRANCH   9  10
ATOM     10  C   UNL     1       8.733  58.937 132.860  1.00  0.00    -0.077 C 
ATOM     11  C   UNL     1       9.371  58.691 131.518  1.00  0.00     0.039 C 
ATOM     12  C   UNL     1       9.479  59.516 133.833  1.00  0.00    -0.028 CG0
ATOM     13  G   UNL     1       8.972  59.880 135.211  1.00  0.00     0.000 G0
ENDBRANCH   9  10
ENDBRANCH   8   9
ENDBRANCH   2   8
BRANCH   1  14
ATOM     14  C   UNL     1       5.388  60.924 135.315  1.00  0.00     0.192 C 
ATOM     15  C   UNL     1       6.747  60.944 135.957  1.00  0.00     0.096 C 
ATOM     16  O   UNL     1       6.089  59.742 135.634  1.00  0.00    -0.362 OA
ATOM     17  C   UNL     1       6.810  61.146 137.471  1.00  0.00     0.045 C 
BRANCH  15  18
ATOM     18  C   UNL     1       8.060  61.121 135.157  1.00  0.00     0.042 C 
BRANCH  18  19
ATOM     19  C   UNL     1       8.976  59.880 135.206  1.00  0.00     0.030 CG0
ATOM     20  G   UNL     1       9.504  59.528 133.833  1.00  0.00     0.000 G0
ENDBRANCH  18  19
ENDBRANCH  15  18
ENDBRANCH   1  14
TORSDOF 0
ENDMDL
MODEL 7
REMARK VINA RESULT:    -4.203      2.216      3.264
REMARK INTER + INTRA:          -5.759
REMARK INTER:                  -5.775
REMARK INTRA:                   0.016
REMARK UNBOUND:                -0.081
REMARK SMILES C=C1C(=O)O[C@@H]2[C@@H]1CCC(C)=CCC[C@]1(C)O[C@H]21
REMARK SMILES IDX 6 1 7 2 2 3 1 4 3 5 4 6 5 7 8 8 9 9 10 10 11 11 12 12 18 14
REMARK SMILES IDX 15 15 17 16 16 17 14 18 13 19
REMARK H PARENT
REMARK Flexibility Score: 70.00
ROOT
ATOM      1  C   UNL     1       6.005  59.328 132.913  1.00  0.00     0.216 C 
ATOM      2  C   UNL     1       5.679  60.266 134.135  1.00  0.00     0.070 C 
ATOM      3  C   UNL     1       4.310  60.790 133.801  1.00  0.00     0.037 C 
ATOM      4  C   UNL     1       3.586  61.632 134.539  1.00  0.00     0.021 C 
ATOM      5  C   UNL     1       4.012  60.405 132.444  1.00  0.00     0.334 C 
ATOM      6  O   UNL     1       2.988  60.742 131.794  1.00  0.00    -0.247 OA
ATOM      7  O   UNL     1       5.029  59.639 131.921  1.00  0.00    -0.455 OA
ENDROOT
BRANCH   2   8
ATOM      8  C   UNL     1       5.731  59.529 135.505  1.00  0.00     0.017 C 
BRANCH   8   9
ATOM      9  C   UNL     1       7.168  59.430 136.066  1.00  0.00     0.031 C 
BRANCH   9  10
ATOM     10  C   UNL     1       7.463  58.066 136.663  1.00  0.00    -0.077 C 
ATOM     11  C   UNL     1       6.684  57.631 137.877  1.00  0.00     0.039 C 
ATOM     12  C   UNL     1       8.382  57.212 136.146  1.00  0.00    -0.028 CG0
ATOM     13  G   UNL     1       9.202  57.474 134.902  1.00  0.00     0.000 G0
ENDBRANCH   9  10
ENDBRANCH   8   9
ENDBRANCH   2   8
BRANCH   1  14
ATOM     14  C   UNL     1       7.418  59.497 132.307  1.00  0.00     0.192 C 
ATOM     15  C   UNL     1       8.521  58.530 132.638  1.00  0.00     0.096 C 
ATOM     16  O   UNL     1       8.399  59.776 133.283  1.00  0.00    -0.362 OA
ATOM     17  C   UNL     1       9.740  58.506 131.716  1.00  0.00     0.045 C 
BRANCH  15  18
ATOM     18  C   UNL     1       8.344  57.348 133.621  1.00  0.00     0.042 C 
BRANCH  18  19
ATOM     19  C   UNL     1       9.202  57.481 134.897  1.00  0.00     0.030 CG0
ATOM     20  G   UNL     1       8.383  57.228 136.143  1.00  0.00     0.000 G0
ENDBRANCH  18  19
ENDBRANCH  15  18
ENDBRANCH   1  14
TORSDOF 0
ENDMDL
MODEL 8
REMARK VINA RESULT:    -4.146      2.254      3.657
REMARK INTER + INTRA:          -5.682
REMARK INTER:                  -5.664
REMARK INTRA:                  -0.018
REMARK UNBOUND:                -0.081
REMARK SMILES C=C1C(=O)O[C@@H]2[C@@H]1CCC(C)=CCC[C@]1(C)O[C@H]21
REMARK SMILES IDX 6 1 7 2 2 3 1 4 3 5 4 6 5 7 8 8 9 9 10 10 11 11 12 12 18 14
REMARK SMILES IDX 15 15 17 16 16 17 14 18 13 19
REMARK H PARENT
REMARK Flexibility Score: 70.00
ROOT
ATOM      1  C   UNL     1       4.593  59.726 134.149  1.00  0.00     0.216 C 
ATOM      2  C   UNL     1       4.994  59.350 132.674  1.00  0.00     0.070 C 
ATOM      3  C   UNL     1       3.978  60.090 131.849  1.00  0.00     0.037 C 
ATOM      4  C   UNL     1       3.897  60.097 130.518  1.00  0.00     0.021 C 
ATOM      5  C   UNL     1       2.975  60.605 132.747  1.00  0.00     0.334 C 
ATOM      6  O   UNL     1       1.923  61.205 132.405  1.00  0.00    -0.247 OA
ATOM      7  O   UNL     1       3.297  60.316 134.054  1.00  0.00    -0.455 OA
ENDROOT
BRANCH   2   8
ATOM      8  C   UNL     1       6.462  59.734 132.321  1.00  0.00     0.017 C 
BRANCH   8   9
ATOM      9  C   UNL     1       7.477  58.664 132.782  1.00  0.00     0.031 C 
BRANCH   9  10
ATOM     10  C   UNL     1       8.718  59.276 133.409  1.00  0.00    -0.077 C 
ATOM     11  C   UNL     1       9.623  60.109 132.539  1.00  0.00     0.039 C 
ATOM     12  C   UNL     1       9.040  59.125 134.718  1.00  0.00    -0.028 CG0
ATOM     13  G   UNL     1       8.208  58.372 135.732  1.00  0.00     0.000 G0
ENDBRANCH   9  10
ENDBRANCH   8   9
ENDBRANCH   2   8
BRANCH   1  14
ATOM     14  C   UNL     1       4.541  58.542 135.144  1.00  0.00     0.192 C 
ATOM     15  C   UNL     1       5.668  58.295 136.108  1.00  0.00     0.096 C 
ATOM     16  O   UNL     1       5.546  57.582 134.900  1.00  0.00    -0.362 OA
ATOM     17  C   UNL     1       5.385  57.392 137.308  1.00  0.00     0.045 C 
BRANCH  15  18
ATOM     18  C   UNL     1       6.953  59.155 136.148  1.00  0.00     0.042 C 
BRANCH  18  19
ATOM     19  C   UNL     1       8.221  58.377 135.739  1.00  0.00     0.030 CG0
ATOM     20  G   UNL     1       9.036  59.141 134.719  1.00  0.00     0.000 G0
ENDBRANCH  18  19
ENDBRANCH  15  18
ENDBRANCH   1  14
TORSDOF 0
ENDMDL
MODEL 9
REMARK VINA RESULT:    -4.112      3.060      5.271
REMARK INTER + INTRA:          -5.635
REMARK INTER:                  -5.507
REMARK INTRA:                  -0.128
REMARK UNBOUND:                -0.081
REMARK SMILES C=C1C(=O)O[C@@H]2[C@@H]1CCC(C)=CCC[C@]1(C)O[C@H]21
REMARK SMILES IDX 6 1 7 2 2 3 1 4 3 5 4 6 5 7 8 8 9 9 10 10 11 11 12 12 18 14
REMARK SMILES IDX 15 15 17 16 16 17 14 18 13 19
REMARK H PARENT
REMARK Flexibility Score: 70.00
ROOT
ATOM      1  C   UNL     1       8.890  58.769 134.515  1.00  0.00     0.216 C 
ATOM      2  C   UNL     1       8.708  59.323 133.053  1.00  0.00     0.070 C 
ATOM      3  C   UNL     1       9.705  58.525 132.262  1.00  0.00     0.037 C 
ATOM      4  C   UNL     1       9.933  58.622 130.951  1.00  0.00     0.021 C 
ATOM      5  C   UNL     1      10.527  57.799 133.198  1.00  0.00     0.334 C 
ATOM      6  O   UNL     1      11.526  57.091 132.903  1.00  0.00    -0.247 OA
ATOM      7  O   UNL     1      10.101  58.015 134.489  1.00  0.00    -0.455 OA
ENDROOT
BRANCH   2   8
ATOM      8  C   UNL     1       7.252  59.179 132.519  1.00  0.00     0.017 C 
BRANCH   8   9
ATOM      9  C   UNL     1       6.452  60.497 132.628  1.00  0.00     0.031 C 
BRANCH   9  10
ATOM     10  C   UNL     1       5.010  60.265 133.047  1.00  0.00    -0.077 C 
ATOM     11  C   UNL     1       4.042  59.740 132.020  1.00  0.00     0.039 C 
ATOM     12  C   UNL     1       4.557  60.491 134.305  1.00  0.00    -0.028 CG0
ATOM     13  G   UNL     1       5.412  60.961 135.460  1.00  0.00     0.000 G0
ENDBRANCH   9  10
ENDBRANCH   8   9
ENDBRANCH   2   8
BRANCH   1  14
ATOM     14  C   UNL     1       8.982  59.842 135.624  1.00  0.00     0.192 C 
ATOM     15  C   UNL     1       7.748  60.326 136.335  1.00  0.00     0.096 C 
ATOM     16  O   UNL     1       8.332  61.045 135.274  1.00  0.00    -0.362 OA
ATOM     17  C   UNL     1       7.939  61.057 137.663  1.00  0.00     0.045 C 
BRANCH  15  18
ATOM     18  C   UNL     1       6.323  59.832 135.988  1.00  0.00     0.042 C 
BRANCH  18  19
ATOM     19  C   UNL     1       5.398  60.954 135.471  1.00  0.00     0.030 CG0
ATOM     20  G   UNL     1       4.554  60.483 134.308  1.00  0.00     0.000 G0
ENDBRANCH  18  19
ENDBRANCH  15  18
ENDBRANCH   1  14
TORSDOF 0
ENDMDL
