MODEL 1
REMARK VINA RESULT:    -3.551      0.000      0.000
REMARK INTER + INTRA:          -5.372
REMARK INTER:                  -5.003
REMARK INTRA:                  -0.369
REMARK UNBOUND:                -0.369
REMARK SMILES CCCCCCCCC(=O)[O-]
REMARK SMILES IDX 6 1 7 2 8 3 9 4 10 5 11 6 5 7 4 8 3 9 2 10 1 11
REMARK H PARENT
REMARK Flexibility Score: inf
ROOT
ATOM      1  C   UNL     1      -8.988  16.934 -12.725  1.00  0.00     0.000 C 
ENDROOT
BRANCH   1   2
ATOM      2  C   UNL     1      -7.986  16.207 -13.634  1.00  0.00     0.006 C 
BRANCH   2   3
ATOM      3  C   UNL     1      -8.119  14.681 -13.554  1.00  0.00     0.053 C 
BRANCH   3   4
ATOM      4  C   UNL     1      -7.088  14.115 -12.629  1.00  0.00     0.041 C 
ATOM      5  O   UNL     1      -6.134  13.432 -13.085  1.00  0.00    -0.550 OA
ATOM      6  O   UNL     1      -7.207  14.300 -11.257  1.00  0.00    -0.550 OA
ENDBRANCH   3   4
ENDBRANCH   2   3
ENDBRANCH   1   2
BRANCH   1   7
ATOM      7  C   UNL     1      -8.601  18.402 -12.474  1.00  0.00     0.000 C 
BRANCH   7   8
ATOM      8  C   UNL     1      -7.805  19.015 -13.640  1.00  0.00    -0.000 C 
BRANCH   8   9
ATOM      9  C   UNL     1      -7.236  20.424 -13.371  1.00  0.00    -0.000 C 
BRANCH   9  10
ATOM     10  C   UNL     1      -5.704  20.491 -13.241  1.00  0.00    -0.003 C 
ATOM     11  C   UNL     1      -4.995  19.342 -13.954  1.00  0.00     0.004 C 
ENDBRANCH   9  10
ENDBRANCH   8   9
ENDBRANCH   7   8
ENDBRANCH   1   7
TORSDOF 7
ENDMDL
MODEL 2
REMARK VINA RESULT:    -3.545      3.096      5.508
REMARK INTER + INTRA:          -5.364
REMARK INTER:                  -5.111
REMARK INTRA:                  -0.254
REMARK UNBOUND:                -0.369
REMARK SMILES CCCCCCCCC(=O)[O-]
REMARK SMILES IDX 6 1 7 2 8 3 9 4 10 5 11 6 5 7 4 8 3 9 2 10 1 11
REMARK H PARENT
REMARK Flexibility Score: inf
ROOT
ATOM      1  C   UNL     1      -9.068  16.282 -12.457  1.00  0.00     0.000 C 
ENDROOT
BRANCH   1   2
ATOM      2  C   UNL     1      -8.657  17.762 -12.416  1.00  0.00     0.006 C 
BRANCH   2   3
ATOM      3  C   UNL     1      -7.960  18.215 -13.705  1.00  0.00     0.053 C 
BRANCH   3   4
ATOM      4  C   UNL     1      -7.627  19.673 -13.633  1.00  0.00     0.041 C 
ATOM      5  O   UNL     1      -7.852  20.424 -14.618  1.00  0.00    -0.550 OA
ATOM      6  O   UNL     1      -7.023  20.193 -12.495  1.00  0.00    -0.550 OA
ENDBRANCH   3   4
ENDBRANCH   2   3
ENDBRANCH   1   2
BRANCH   1   7
ATOM      7  C   UNL     1      -7.896  15.354 -12.824  1.00  0.00     0.000 C 
BRANCH   7   8
ATOM      8  C   UNL     1      -8.216  14.435 -14.016  1.00  0.00    -0.000 C 
BRANCH   8   9
ATOM      9  C   UNL     1      -7.607  13.020 -13.930  1.00  0.00    -0.000 C 
BRANCH   9  10
ATOM     10  C   UNL     1      -6.214  12.872 -14.567  1.00  0.00    -0.003 C 
ATOM     11  C   UNL     1      -5.134  12.491 -13.556  1.00  0.00     0.004 C 
ENDBRANCH   9  10
ENDBRANCH   8   9
ENDBRANCH   7   8
ENDBRANCH   1   7
TORSDOF 7
ENDMDL
MODEL 3
REMARK VINA RESULT:    -3.512      2.404      4.669
REMARK INTER + INTRA:          -5.319
REMARK INTER:                  -4.805
REMARK INTRA:                  -0.513
REMARK UNBOUND:                -0.369
REMARK SMILES CCCCCCCCC(=O)[O-]
REMARK SMILES IDX 6 1 7 2 8 3 9 4 10 5 11 6 5 7 4 8 3 9 2 10 1 11
REMARK H PARENT
REMARK Flexibility Score: inf
ROOT
ATOM      1  C   UNL     1      -8.278  18.267 -13.139  1.00  0.00     0.000 C 
ENDROOT
BRANCH   1   2
ATOM      2  C   UNL     1      -7.852  17.901 -14.569  1.00  0.00     0.006 C 
BRANCH   2   3
ATOM      3  C   UNL     1      -6.508  18.528 -14.961  1.00  0.00     0.053 C 
BRANCH   3   4
ATOM      4  C   UNL     1      -5.498  18.315 -13.877  1.00  0.00     0.041 C 
ATOM      5  O   UNL     1      -5.176  17.149 -13.531  1.00  0.00    -0.550 OA
ATOM      6  O   UNL     1      -4.947  19.406 -13.216  1.00  0.00    -0.550 OA
ENDBRANCH   3   4
ENDBRANCH   2   3
ENDBRANCH   1   2
BRANCH   1   7
ATOM      7  C   UNL     1      -8.772  17.050 -12.340  1.00  0.00     0.000 C 
BRANCH   7   8
ATOM      8  C   UNL     1      -8.557  15.720 -13.085  1.00  0.00    -0.000 C 
BRANCH   8   9
ATOM      9  C   UNL     1      -7.569  14.747 -12.410  1.00  0.00    -0.000 C 
BRANCH   9  10
ATOM     10  C   UNL     1      -6.866  13.767 -13.366  1.00  0.00    -0.003 C 
ATOM     11  C   UNL     1      -7.846  12.945 -14.202  1.00  0.00     0.004 C 
ENDBRANCH   9  10
ENDBRANCH   8   9
ENDBRANCH   7   8
ENDBRANCH   1   7
TORSDOF 7
ENDMDL
MODEL 4
REMARK VINA RESULT:    -3.493      2.019      4.721
REMARK INTER + INTRA:          -5.291
REMARK INTER:                  -4.715
REMARK INTRA:                  -0.576
REMARK UNBOUND:                -0.369
REMARK SMILES CCCCCCCCC(=O)[O-]
REMARK SMILES IDX 6 1 7 2 8 3 9 4 10 5 11 6 5 7 4 8 3 9 2 10 1 11
REMARK H PARENT
REMARK Flexibility Score: inf
ROOT
ATOM      1  C   UNL     1      -6.084  18.247 -14.341  1.00  0.00     0.000 C 
ENDROOT
BRANCH   1   2
ATOM      2  C   UNL     1      -7.616  18.315 -14.431  1.00  0.00     0.006 C 
BRANCH   2   3
ATOM      3  C   UNL     1      -8.277  18.495 -13.059  1.00  0.00     0.053 C 
BRANCH   3   4
ATOM      4  C   UNL     1      -8.677  17.168 -12.494  1.00  0.00     0.041 C 
ATOM      5  O   UNL     1      -9.784  16.654 -12.805  1.00  0.00    -0.550 OA
ATOM      6  O   UNL     1      -7.849  16.521 -11.586  1.00  0.00    -0.550 OA
ENDBRANCH   3   4
ENDBRANCH   2   3
ENDBRANCH   1   2
BRANCH   1   7
ATOM      7  C   UNL     1      -5.538  16.835 -14.615  1.00  0.00     0.000 C 
BRANCH   7   8
ATOM      8  C   UNL     1      -6.635  15.846 -15.049  1.00  0.00    -0.000 C 
BRANCH   8   9
ATOM      9  C   UNL     1      -6.564  14.458 -14.378  1.00  0.00    -0.000 C 
BRANCH   9  10
ATOM     10  C   UNL     1      -7.923  13.863 -13.970  1.00  0.00    -0.003 C 
ATOM     11  C   UNL     1      -8.476  12.881 -15.000  1.00  0.00     0.004 C 
ENDBRANCH   9  10
ENDBRANCH   8   9
ENDBRANCH   7   8
ENDBRANCH   1   7
TORSDOF 7
ENDMDL
MODEL 5
REMARK VINA RESULT:    -3.414      1.499      2.193
REMARK INTER + INTRA:          -5.180
REMARK INTER:                  -4.851
REMARK INTRA:                  -0.329
REMARK UNBOUND:                -0.369
REMARK SMILES CCCCCCCCC(=O)[O-]
REMARK SMILES IDX 6 1 7 2 8 3 9 4 10 5 11 6 5 7 4 8 3 9 2 10 1 11
REMARK H PARENT
REMARK Flexibility Score: inf
ROOT
ATOM      1  C   UNL     1      -7.870  15.319 -12.743  1.00  0.00     0.000 C 
ENDROOT
BRANCH   1   2
ATOM      2  C   UNL     1      -8.179  14.364 -13.906  1.00  0.00     0.006 C 
BRANCH   2   3
ATOM      3  C   UNL     1      -7.436  13.027 -13.782  1.00  0.00     0.053 C 
BRANCH   3   4
ATOM      4  C   UNL     1      -5.957  13.242 -13.873  1.00  0.00     0.041 C 
ATOM      5  O   UNL     1      -5.448  13.711 -14.924  1.00  0.00    -0.550 OA
ATOM      6  O   UNL     1      -5.136  12.877 -12.813  1.00  0.00    -0.550 OA
ENDBRANCH   3   4
ENDBRANCH   2   3
ENDBRANCH   1   2
BRANCH   1   7
ATOM      7  C   UNL     1      -9.006  16.324 -12.486  1.00  0.00     0.000 C 
BRANCH   7   8
ATOM      8  C   UNL     1      -8.567  17.784 -12.697  1.00  0.00    -0.000 C 
BRANCH   8   9
ATOM      9  C   UNL     1      -7.888  18.072 -14.052  1.00  0.00    -0.000 C 
BRANCH   9  10
ATOM     10  C   UNL     1      -7.502  19.543 -14.286  1.00  0.00    -0.003 C 
ATOM     11  C   UNL     1      -7.242  20.304 -12.987  1.00  0.00     0.004 C 
ENDBRANCH   9  10
ENDBRANCH   8   9
ENDBRANCH   7   8
ENDBRANCH   1   7
TORSDOF 7
ENDMDL
MODEL 6
REMARK VINA RESULT:    -3.353      1.792      2.733
REMARK INTER + INTRA:          -5.094
REMARK INTER:                  -4.448
REMARK INTRA:                  -0.646
REMARK UNBOUND:                -0.369
REMARK SMILES CCCCCCCCC(=O)[O-]
REMARK SMILES IDX 6 1 7 2 8 3 9 4 10 5 11 6 5 7 4 8 3 9 2 10 1 11
REMARK H PARENT
REMARK Flexibility Score: inf
ROOT
ATOM      1  C   UNL     1      -6.632  16.221 -15.046  1.00  0.00     0.000 C 
ENDROOT
BRANCH   1   2
ATOM      2  C   UNL     1      -6.709  14.992 -14.128  1.00  0.00     0.006 C 
BRANCH   2   3
ATOM      3  C   UNL     1      -8.107  14.790 -13.531  1.00  0.00     0.053 C 
BRANCH   3   4
ATOM      4  C   UNL     1      -8.472  15.947 -12.654  1.00  0.00     0.041 C 
ATOM      5  O   UNL     1      -7.686  16.326 -11.746  1.00  0.00    -0.550 OA
ATOM      6  O   UNL     1      -9.700  16.576 -12.807  1.00  0.00    -0.550 OA
ENDBRANCH   3   4
ENDBRANCH   2   3
ENDBRANCH   1   2
BRANCH   1   7
ATOM      7  C   UNL     1      -5.588  17.247 -14.573  1.00  0.00     0.000 C 
BRANCH   7   8
ATOM      8  C   UNL     1      -5.999  18.699 -14.880  1.00  0.00    -0.000 C 
BRANCH   8   9
ATOM      9  C   UNL     1      -7.488  19.021 -14.633  1.00  0.00    -0.000 C 
BRANCH   9  10
ATOM     10  C   UNL     1      -7.810  19.573 -13.233  1.00  0.00    -0.003 C 
ATOM     11  C   UNL     1      -6.950  20.778 -12.856  1.00  0.00     0.004 C 
ENDBRANCH   9  10
ENDBRANCH   8   9
ENDBRANCH   7   8
ENDBRANCH   1   7
TORSDOF 7
ENDMDL
MODEL 7
REMARK VINA RESULT:    -3.343      1.615      2.009
REMARK INTER + INTRA:          -5.080
REMARK INTER:                  -4.416
REMARK INTRA:                  -0.664
REMARK UNBOUND:                -0.369
REMARK SMILES CCCCCCCCC(=O)[O-]
REMARK SMILES IDX 6 1 7 2 8 3 9 4 10 5 11 6 5 7 4 8 3 9 2 10 1 11
REMARK H PARENT
REMARK Flexibility Score: inf
ROOT
ATOM      1  C   UNL     1      -8.385  15.819 -12.229  1.00  0.00     0.000 C 
ENDROOT
BRANCH   1   2
ATOM      2  C   UNL     1      -7.230  15.360 -13.132  1.00  0.00     0.006 C 
BRANCH   2   3
ATOM      3  C   UNL     1      -7.709  14.920 -14.521  1.00  0.00     0.053 C 
BRANCH   3   4
ATOM      4  C   UNL     1      -8.258  13.529 -14.467  1.00  0.00     0.041 C 
ATOM      5  O   UNL     1      -7.584  12.601 -13.949  1.00  0.00    -0.550 OA
ATOM      6  O   UNL     1      -9.495  13.248 -15.034  1.00  0.00    -0.550 OA
ENDBRANCH   3   4
ENDBRANCH   2   3
ENDBRANCH   1   2
BRANCH   1   7
ATOM      7  C   UNL     1      -9.159  17.010 -12.820  1.00  0.00     0.000 C 
BRANCH   7   8
ATOM      8  C   UNL     1      -8.376  18.332 -12.729  1.00  0.00    -0.000 C 
BRANCH   8   9
ATOM      9  C   UNL     1      -7.904  18.904 -14.083  1.00  0.00    -0.000 C 
BRANCH   9  10
ATOM     10  C   UNL     1      -6.480  19.487 -14.081  1.00  0.00    -0.003 C 
ATOM     11  C   UNL     1      -5.397  18.410 -14.108  1.00  0.00     0.004 C 
ENDBRANCH   9  10
ENDBRANCH   8   9
ENDBRANCH   7   8
ENDBRANCH   1   7
TORSDOF 7
ENDMDL
MODEL 8
REMARK VINA RESULT:    -3.226      1.400      1.636
REMARK INTER + INTRA:          -4.915
REMARK INTER:                  -4.437
REMARK INTRA:                  -0.478
REMARK UNBOUND:                -0.369
REMARK SMILES CCCCCCCCC(=O)[O-]
REMARK SMILES IDX 6 1 7 2 8 3 9 4 10 5 11 6 5 7 4 8 3 9 2 10 1 11
REMARK H PARENT
REMARK Flexibility Score: inf
ROOT
ATOM      1  C   UNL     1      -8.348  16.224 -12.530  1.00  0.00     0.000 C 
ENDROOT
BRANCH   1   2
ATOM      2  C   UNL     1      -7.257  15.883 -13.556  1.00  0.00     0.006 C 
BRANCH   2   3
ATOM      3  C   UNL     1      -7.811  15.141 -14.779  1.00  0.00     0.053 C 
BRANCH   3   4
ATOM      4  C   UNL     1      -8.211  13.748 -14.407  1.00  0.00     0.041 C 
ATOM      5  O   UNL     1      -9.290  13.262 -14.836  1.00  0.00    -0.550 OA
ATOM      6  O   UNL     1      -7.415  13.002 -13.547  1.00  0.00    -0.550 OA
ENDBRANCH   3   4
ENDBRANCH   2   3
ENDBRANCH   1   2
BRANCH   1   7
ATOM      7  C   UNL     1      -8.645  17.732 -12.463  1.00  0.00     0.000 C 
BRANCH   7   8
ATOM      8  C   UNL     1      -7.940  18.528 -13.576  1.00  0.00    -0.000 C 
BRANCH   8   9
ATOM      9  C   UNL     1      -7.444  19.929 -13.162  1.00  0.00    -0.000 C 
BRANCH   9  10
ATOM     10  C   UNL     1      -5.996  20.252 -13.568  1.00  0.00    -0.003 C 
ATOM     11  C   UNL     1      -5.212  19.018 -14.011  1.00  0.00     0.004 C 
ENDBRANCH   9  10
ENDBRANCH   8   9
ENDBRANCH   7   8
ENDBRANCH   1   7
TORSDOF 7
ENDMDL
MODEL 9
REMARK VINA RESULT:    -1.938      3.078      5.686
REMARK INTER + INTRA:          -3.100
REMARK INTER:                  -2.769
REMARK INTRA:                  -0.331
REMARK UNBOUND:                -0.369
REMARK SMILES CCCCCCCCC(=O)[O-]
REMARK SMILES IDX 6 1 7 2 8 3 9 4 10 5 11 6 5 7 4 8 3 9 2 10 1 11
REMARK H PARENT
REMARK Flexibility Score: inf
ROOT
ATOM      1  C   UNL     1      -8.785  16.642 -12.302  1.00  0.00     0.000 C 
ENDROOT
BRANCH   1   2
ATOM      2  C   UNL     1      -8.657  18.149 -12.569  1.00  0.00     0.006 C 
BRANCH   2   3
ATOM      3  C   UNL     1      -7.809  18.456 -13.810  1.00  0.00     0.053 C 
BRANCH   3   4
ATOM      4  C   UNL     1      -7.099  19.764 -13.647  1.00  0.00     0.041 C 
ATOM      5  O   UNL     1      -6.892  20.233 -12.497  1.00  0.00    -0.550 OA
ATOM      6  O   UNL     1      -6.710  20.488 -14.766  1.00  0.00    -0.550 OA
ENDBRANCH   3   4
ENDBRANCH   2   3
ENDBRANCH   1   2
BRANCH   1   7
ATOM      7  C   UNL     1      -8.201  15.788 -13.441  1.00  0.00     0.000 C 
BRANCH   7   8
ATOM      8  C   UNL     1      -7.318  14.636 -12.929  1.00  0.00    -0.000 C 
BRANCH   8   9
ATOM      9  C   UNL     1      -7.385  13.342 -13.766  1.00  0.00    -0.000 C 
BRANCH   9  10
ATOM     10  C   UNL     1      -8.188  13.455 -15.073  1.00  0.00    -0.003 C 
ATOM     11  C   UNL     1      -9.378  12.498 -15.125  1.00  0.00     0.004 C 
ENDBRANCH   9  10
ENDBRANCH   8   9
ENDBRANCH   7   8
ENDBRANCH   1   7
TORSDOF 7
ENDMDL
