MODEL 1
REMARK VINA RESULT:    -2.758      0.000      0.000
REMARK INTER + INTRA:          -3.541
REMARK INTER:                  -3.322
REMARK INTRA:                  -0.219
REMARK UNBOUND:                -0.219
REMARK SMILES OCC(O)CO
REMARK SMILES IDX 3 1 5 2 6 3 2 5 1 6 4 8
REMARK H PARENT 6 4 1 7 4 9
REMARK Flexibility Score: inf
ROOT
ATOM      1  C   UNL     1     158.945 157.415 163.083  1.00  0.00     0.165 C 
ENDROOT
BRANCH   1   2
ATOM      2  C   UNL     1     159.509 156.256 162.246  1.00  0.00     0.190 C 
BRANCH   2   3
ATOM      3  O   UNL     1     160.096 156.738 161.068  1.00  0.00    -0.394 OA
ATOM      4  H   UNL     1     160.978 157.113 161.323  1.00  0.00     0.210 HD
ENDBRANCH   2   3
ENDBRANCH   1   2
BRANCH   1   5
ATOM      5  C   UNL     1     159.716 158.709 162.797  1.00  0.00     0.190 C 
BRANCH   5   6
ATOM      6  O   UNL     1     159.169 159.370 161.688  1.00  0.00    -0.394 OA
ATOM      7  H   UNL     1     158.696 160.170 162.038  1.00  0.00     0.210 HD
ENDBRANCH   5   6
ENDBRANCH   1   5
BRANCH   1   8
ATOM      8  O   UNL     1     157.588 157.610 162.776  1.00  0.00    -0.388 OA
ATOM      9  H   UNL     1     157.121 157.791 163.632  1.00  0.00     0.211 HD
ENDBRANCH   1   8
TORSDOF 5
ENDMDL
MODEL 2
REMARK VINA RESULT:    -2.717      0.646      2.517
REMARK INTER + INTRA:          -3.492
REMARK INTER:                  -3.269
REMARK INTRA:                  -0.222
REMARK UNBOUND:                -0.219
REMARK SMILES OCC(O)CO
REMARK SMILES IDX 3 1 5 2 6 3 2 5 1 6 4 8
REMARK H PARENT 6 4 1 7 4 9
REMARK Flexibility Score: inf
ROOT
ATOM      1  C   UNL     1     159.947 157.476 162.440  1.00  0.00     0.165 C 
ENDROOT
BRANCH   1   2
ATOM      2  C   UNL     1     159.908 159.011 162.494  1.00  0.00     0.190 C 
BRANCH   2   3
ATOM      3  O   UNL     1     159.217 159.527 161.390  1.00  0.00    -0.394 OA
ATOM      4  H   UNL     1     158.498 160.108 161.751  1.00  0.00     0.210 HD
ENDBRANCH   2   3
ENDBRANCH   1   2
BRANCH   1   5
ATOM      5  C   UNL     1     158.714 156.883 163.133  1.00  0.00     0.190 C 
BRANCH   5   6
ATOM      6  O   UNL     1     157.571 157.632 162.825  1.00  0.00    -0.394 OA
ATOM      7  H   UNL     1     157.497 157.646 161.835  1.00  0.00     0.210 HD
ENDBRANCH   5   6
ENDBRANCH   1   5
BRANCH   1   8
ATOM      8  O   UNL     1     159.974 157.046 161.102  1.00  0.00    -0.388 OA
ATOM      9  H   UNL     1     159.261 156.363 161.004  1.00  0.00     0.211 HD
ENDBRANCH   1   8
TORSDOF 5
ENDMDL
MODEL 3
REMARK VINA RESULT:    -2.694      0.780      2.389
REMARK INTER + INTRA:          -3.465
REMARK INTER:                  -3.259
REMARK INTRA:                  -0.205
REMARK UNBOUND:                -0.219
REMARK SMILES OCC(O)CO
REMARK SMILES IDX 3 1 5 2 6 3 2 5 1 6 4 8
REMARK H PARENT 6 4 1 7 4 9
REMARK Flexibility Score: inf
ROOT
ATOM      1  C   UNL     1     159.797 158.506 162.652  1.00  0.00     0.165 C 
ENDROOT
BRANCH   1   2
ATOM      2  C   UNL     1     158.775 157.717 163.485  1.00  0.00     0.190 C 
BRANCH   2   3
ATOM      3  O   UNL     1     157.567 157.582 162.786  1.00  0.00    -0.394 OA
ATOM      4  H   UNL     1     157.321 158.488 162.465  1.00  0.00     0.210 HD
ENDBRANCH   2   3
ENDBRANCH   1   2
BRANCH   1   5
ATOM      5  C   UNL     1     160.727 157.549 161.897  1.00  0.00     0.190 C 
BRANCH   5   6
ATOM      6  O   UNL     1     159.983 156.676 161.092  1.00  0.00    -0.394 OA
ATOM      7  H   UNL     1     159.465 156.092 161.707  1.00  0.00     0.210 HD
ENDBRANCH   5   6
ENDBRANCH   1   5
BRANCH   1   8
ATOM      8  O   UNL     1     159.128 159.325 161.726  1.00  0.00    -0.388 OA
ATOM      9  H   UNL     1     159.674 159.328 160.897  1.00  0.00     0.211 HD
ENDBRANCH   1   8
TORSDOF 5
ENDMDL
MODEL 4
REMARK VINA RESULT:    -2.693     21.212     22.291
REMARK INTER + INTRA:          -3.464
REMARK INTER:                  -3.250
REMARK INTRA:                  -0.214
REMARK UNBOUND:                -0.219
REMARK SMILES OCC(O)CO
REMARK SMILES IDX 3 1 5 2 6 3 2 5 1 6 4 8
REMARK H PARENT 6 4 1 7 4 9
REMARK Flexibility Score: inf
ROOT
ATOM      1  C   UNL     1     170.786 173.294 153.166  1.00  0.00     0.165 C 
ENDROOT
BRANCH   1   2
ATOM      2  C   UNL     1     170.322 174.176 151.996  1.00  0.00     0.190 C 
BRANCH   2   3
ATOM      3  O   UNL     1     170.993 175.406 152.008  1.00  0.00    -0.394 OA
ATOM      4  H   UNL     1     171.423 175.504 151.119  1.00  0.00     0.210 HD
ENDBRANCH   2   3
ENDBRANCH   1   2
BRANCH   1   5
ATOM      5  C   UNL     1     172.260 173.565 153.490  1.00  0.00     0.190 C 
BRANCH   5   6
ATOM      6  O   UNL     1     172.370 174.467 154.557  1.00  0.00    -0.394 OA
ATOM      7  H   UNL     1     171.554 174.353 155.112  1.00  0.00     0.210 HD
ENDBRANCH   5   6
ENDBRANCH   1   5
BRANCH   1   8
ATOM      8  O   UNL     1     170.008 173.563 154.305  1.00  0.00    -0.388 OA
ATOM      9  H   UNL     1     170.223 172.862 154.973  1.00  0.00     0.211 HD
ENDBRANCH   1   8
TORSDOF 5
ENDMDL
MODEL 5
REMARK VINA RESULT:    -2.685      1.733      3.075
REMARK INTER + INTRA:          -3.454
REMARK INTER:                  -3.451
REMARK INTRA:                  -0.003
REMARK UNBOUND:                -0.219
REMARK SMILES OCC(O)CO
REMARK SMILES IDX 3 1 5 2 6 3 2 5 1 6 4 8
REMARK H PARENT 6 4 1 7 4 9
REMARK Flexibility Score: inf
ROOT
ATOM      1  C   UNL     1     158.446 156.876 163.632  1.00  0.00     0.165 C 
ENDROOT
BRANCH   1   2
ATOM      2  C   UNL     1     157.692 156.140 164.751  1.00  0.00     0.190 C 
BRANCH   2   3
ATOM      3  O   UNL     1     157.604 156.941 165.897  1.00  0.00    -0.394 OA
ATOM      4  H   UNL     1     157.193 157.799 165.614  1.00  0.00     0.210 HD
ENDBRANCH   2   3
ENDBRANCH   1   2
BRANCH   1   5
ATOM      5  C   UNL     1     159.200 155.878 162.745  1.00  0.00     0.190 C 
BRANCH   5   6
ATOM      6  O   UNL     1     159.649 156.505 161.574  1.00  0.00    -0.394 OA
ATOM      7  H   UNL     1     158.931 156.392 160.897  1.00  0.00     0.210 HD
ENDBRANCH   5   6
ENDBRANCH   1   5
BRANCH   1   8
ATOM      8  O   UNL     1     157.538 157.601 162.841  1.00  0.00    -0.388 OA
ATOM      9  H   UNL     1     156.771 156.999 162.658  1.00  0.00     0.211 HD
ENDBRANCH   1   8
TORSDOF 5
ENDMDL
MODEL 6
REMARK VINA RESULT:    -2.685     17.348     18.312
REMARK INTER + INTRA:          -3.454
REMARK INTER:                  -3.252
REMARK INTRA:                  -0.201
REMARK UNBOUND:                -0.219
REMARK SMILES OCC(O)CO
REMARK SMILES IDX 3 1 5 2 6 3 2 5 1 6 4 8
REMARK H PARENT 6 4 1 7 4 9
REMARK Flexibility Score: inf
ROOT
ATOM      1  C   UNL     1     160.485 173.034 153.259  1.00  0.00     0.165 C 
ENDROOT
BRANCH   1   2
ATOM      2  C   UNL     1     159.601 172.905 152.009  1.00  0.00     0.190 C 
BRANCH   2   3
ATOM      3  O   UNL     1     158.521 173.796 152.074  1.00  0.00    -0.394 OA
ATOM      4  H   UNL     1     158.004 173.558 152.887  1.00  0.00     0.210 HD
ENDBRANCH   2   3
ENDBRANCH   1   2
BRANCH   1   5
ATOM      5  C   UNL     1     160.613 174.504 153.677  1.00  0.00     0.190 C 
BRANCH   5   6
ATOM      6  O   UNL     1     159.746 174.789 154.741  1.00  0.00    -0.394 OA
ATOM      7  H   UNL     1     159.747 175.776 154.853  1.00  0.00     0.210 HD
ENDBRANCH   5   6
ENDBRANCH   1   5
BRANCH   1   8
ATOM      8  O   UNL     1     159.924 172.302 154.319  1.00  0.00    -0.388 OA
ATOM      9  H   UNL     1     159.744 171.389 153.976  1.00  0.00     0.211 HD
ENDBRANCH   1   8
TORSDOF 5
ENDMDL
MODEL 7
REMARK VINA RESULT:    -2.683     21.256     22.429
REMARK INTER + INTRA:          -3.452
REMARK INTER:                  -3.237
REMARK INTRA:                  -0.215
REMARK UNBOUND:                -0.219
REMARK SMILES OCC(O)CO
REMARK SMILES IDX 3 1 5 2 6 3 2 5 1 6 4 8
REMARK H PARENT 6 4 1 7 4 9
REMARK Flexibility Score: inf
ROOT
ATOM      1  C   UNL     1     172.093 173.634 153.240  1.00  0.00     0.165 C 
ENDROOT
BRANCH   1   2
ATOM      2  C   UNL     1     170.749 172.915 153.438  1.00  0.00     0.190 C 
BRANCH   2   3
ATOM      3  O   UNL     1     169.936 173.624 154.332  1.00  0.00    -0.394 OA
ATOM      4  H   UNL     1     168.999 173.363 154.133  1.00  0.00     0.210 HD
ENDBRANCH   2   3
ENDBRANCH   1   2
BRANCH   1   5
ATOM      5  C   UNL     1     172.049 174.519 151.989  1.00  0.00     0.190 C 
BRANCH   5   6
ATOM      6  O   UNL     1     170.886 175.302 151.983  1.00  0.00    -0.394 OA
ATOM      7  H   UNL     1     171.040 176.047 152.621  1.00  0.00     0.210 HD
ENDBRANCH   5   6
ENDBRANCH   1   5
BRANCH   1   8
ATOM      8  O   UNL     1     172.376 174.434 154.361  1.00  0.00    -0.388 OA
ATOM      9  H   UNL     1     173.304 174.224 154.638  1.00  0.00     0.211 HD
ENDBRANCH   1   8
TORSDOF 5
ENDMDL
MODEL 8
REMARK VINA RESULT:    -2.592     10.045     10.453
REMARK INTER + INTRA:          -3.341
REMARK INTER:                  -3.118
REMARK INTRA:                  -0.224
REMARK UNBOUND:                -0.219
REMARK SMILES OCC(O)CO
REMARK SMILES IDX 3 1 5 2 6 3 2 5 1 6 4 8
REMARK H PARENT 6 4 1 7 4 9
REMARK Flexibility Score: inf
ROOT
ATOM      1  C   UNL     1     158.232 162.209 152.896  1.00  0.00     0.165 C 
ENDROOT
BRANCH   1   2
ATOM      2  C   UNL     1     158.893 160.954 152.307  1.00  0.00     0.190 C 
BRANCH   2   3
ATOM      3  O   UNL     1     158.577 159.823 153.073  1.00  0.00    -0.394 OA
ATOM      4  H   UNL     1     157.720 160.022 153.533  1.00  0.00     0.210 HD
ENDBRANCH   2   3
ENDBRANCH   1   2
BRANCH   1   5
ATOM      5  C   UNL     1     156.852 162.434 152.267  1.00  0.00     0.190 C 
BRANCH   5   6
ATOM      6  O   UNL     1     156.238 161.207 151.980  1.00  0.00    -0.394 OA
ATOM      7  H   UNL     1     156.115 161.173 150.995  1.00  0.00     0.210 HD
ENDBRANCH   5   6
ENDBRANCH   1   5
BRANCH   1   8
ATOM      8  O   UNL     1     158.086 162.065 154.286  1.00  0.00    -0.388 OA
ATOM      9  H   UNL     1     157.128 162.219 154.493  1.00  0.00     0.211 HD
ENDBRANCH   1   8
TORSDOF 5
ENDMDL
MODEL 9
REMARK VINA RESULT:    -2.578     16.028     16.982
REMARK INTER + INTRA:          -3.325
REMARK INTER:                  -3.103
REMARK INTRA:                  -0.222
REMARK UNBOUND:                -0.219
REMARK SMILES OCC(O)CO
REMARK SMILES IDX 3 1 5 2 6 3 2 5 1 6 4 8
REMARK H PARENT 6 4 1 7 4 9
REMARK Flexibility Score: inf
ROOT
ATOM      1  C   UNL     1     159.045 170.916 152.636  1.00  0.00     0.165 C 
ENDROOT
BRANCH   1   2
ATOM      2  C   UNL     1     159.310 172.106 151.701  1.00  0.00     0.190 C 
BRANCH   2   3
ATOM      3  O   UNL     1     158.546 173.217 152.085  1.00  0.00    -0.394 OA
ATOM      4  H   UNL     1     158.187 173.618 151.251  1.00  0.00     0.210 HD
ENDBRANCH   2   3
ENDBRANCH   1   2
BRANCH   1   5
ATOM      5  C   UNL     1     159.965 170.980 153.861  1.00  0.00     0.190 C 
BRANCH   5   6
ATOM      6  O   UNL     1     159.938 172.262 154.428  1.00  0.00    -0.394 OA
ATOM      7  H   UNL     1     160.244 172.892 153.724  1.00  0.00     0.210 HD
ENDBRANCH   5   6
ENDBRANCH   1   5
BRANCH   1   8
ATOM      8  O   UNL     1     157.707 170.934 153.065  1.00  0.00    -0.388 OA
ATOM      9  H   UNL     1     157.416 169.990 153.143  1.00  0.00     0.211 HD
ENDBRANCH   1   8
TORSDOF 5
ENDMDL
