MODEL 1
REMARK VINA RESULT:    -3.950      0.000      0.000
REMARK INTER + INTRA:          -4.943
REMARK INTER:                  -4.874
REMARK INTRA:                  -0.068
REMARK UNBOUND:                -0.068
REMARK SMILES CCCCCC(=O)[O-]
REMARK SMILES IDX 4 1 5 2 6 3 7 4 8 5 3 6 2 7 1 8
REMARK H PARENT
REMARK Flexibility Score: inf
ROOT
ATOM      1  C   UNL     1     103.787  23.249 199.694  1.00  0.00     0.006 C 
ENDROOT
BRANCH   1   2
ATOM      2  C   UNL     1     105.264  23.232 200.117  1.00  0.00     0.053 C 
BRANCH   2   3
ATOM      3  C   UNL     1     106.095  22.365 199.221  1.00  0.00     0.041 C 
ATOM      4  O   UNL     1     105.745  22.172 198.026  1.00  0.00    -0.550 OA
ATOM      5  O   UNL     1     107.272  21.800 199.694  1.00  0.00    -0.550 OA
ENDBRANCH   2   3
ENDBRANCH   1   2
BRANCH   1   6
ATOM      6  C   UNL     1     102.785  23.184 200.864  1.00  0.00     0.000 C 
BRANCH   6   7
ATOM      7  C   UNL     1     101.408  23.806 200.575  1.00  0.00    -0.003 C 
ATOM      8  C   UNL     1     100.884  23.473 199.179  1.00  0.00     0.004 C 
ENDBRANCH   6   7
ENDBRANCH   1   6
TORSDOF 4
ENDMDL
MODEL 2
REMARK VINA RESULT:    -3.889      5.723      7.367
REMARK INTER + INTRA:          -4.867
REMARK INTER:                  -4.753
REMARK INTRA:                  -0.114
REMARK UNBOUND:                -0.068
REMARK SMILES CCCCCC(=O)[O-]
REMARK SMILES IDX 4 1 5 2 6 3 7 4 8 5 3 6 2 7 1 8
REMARK H PARENT
REMARK Flexibility Score: inf
ROOT
ATOM      1  C   UNL     1     104.814  22.625 194.481  1.00  0.00     0.006 C 
ENDROOT
BRANCH   1   2
ATOM      2  C   UNL     1     103.636  22.524 193.500  1.00  0.00     0.053 C 
BRANCH   2   3
ATOM      3  C   UNL     1     102.326  22.372 194.210  1.00  0.00     0.041 C 
ATOM      4  O   UNL     1     101.244  22.517 193.581  1.00  0.00    -0.550 OA
ATOM      5  O   UNL     1     102.298  22.038 195.557  1.00  0.00    -0.550 OA
ENDBRANCH   2   3
ENDBRANCH   1   2
BRANCH   1   6
ATOM      6  C   UNL     1     105.831  21.470 194.382  1.00  0.00     0.000 C 
BRANCH   6   7
ATOM      7  C   UNL     1     106.159  21.015 192.950  1.00  0.00    -0.003 C 
ATOM      8  C   UNL     1     107.657  21.022 192.648  1.00  0.00     0.004 C 
ENDBRANCH   6   7
ENDBRANCH   1   6
TORSDOF 4
ENDMDL
MODEL 3
REMARK VINA RESULT:    -3.888      2.823      4.549
REMARK INTER + INTRA:          -4.866
REMARK INTER:                  -4.716
REMARK INTRA:                  -0.150
REMARK UNBOUND:                -0.068
REMARK SMILES CCCCCC(=O)[O-]
REMARK SMILES IDX 4 1 5 2 6 3 7 4 8 5 3 6 2 7 1 8
REMARK H PARENT
REMARK Flexibility Score: inf
ROOT
ATOM      1  C   UNL     1     101.596  23.499 200.345  1.00  0.00     0.006 C 
ENDROOT
BRANCH   1   2
ATOM      2  C   UNL     1     101.411  23.837 198.858  1.00  0.00     0.053 C 
BRANCH   2   3
ATOM      3  C   UNL     1     100.637  22.777 198.134  1.00  0.00     0.041 C 
ATOM      4  O   UNL     1      99.379  22.835 198.083  1.00  0.00    -0.550 OA
ATOM      5  O   UNL     1     101.305  21.746 197.488  1.00  0.00    -0.550 OA
ENDBRANCH   2   3
ENDBRANCH   1   2
BRANCH   1   6
ATOM      6  C   UNL     1     103.050  23.188 200.756  1.00  0.00     0.000 C 
BRANCH   6   7
ATOM      7  C   UNL     1     104.077  23.269 199.614  1.00  0.00    -0.003 C 
ATOM      8  C   UNL     1     105.523  23.264 200.109  1.00  0.00     0.004 C 
ENDBRANCH   6   7
ENDBRANCH   1   6
TORSDOF 4
ENDMDL
MODEL 4
REMARK VINA RESULT:    -3.860      2.832      4.863
REMARK INTER + INTRA:          -4.831
REMARK INTER:                  -4.783
REMARK INTRA:                  -0.048
REMARK UNBOUND:                -0.068
REMARK SMILES CCCCCC(=O)[O-]
REMARK SMILES IDX 4 1 5 2 6 3 7 4 8 5 3 6 2 7 1 8
REMARK H PARENT
REMARK Flexibility Score: inf
ROOT
ATOM      1  C   UNL     1     103.896  23.253 199.526  1.00  0.00     0.006 C 
ENDROOT
BRANCH   1   2
ATOM      2  C   UNL     1     102.880  23.209 200.679  1.00  0.00     0.053 C 
BRANCH   2   3
ATOM      3  C   UNL     1     101.470  23.332 200.188  1.00  0.00     0.041 C 
ATOM      4  O   UNL     1     100.612  23.946 200.877  1.00  0.00    -0.550 OA
ATOM      5  O   UNL     1     101.111  22.800 198.957  1.00  0.00    -0.550 OA
ENDBRANCH   2   3
ENDBRANCH   1   2
BRANCH   1   6
ATOM      6  C   UNL     1     105.371  23.189 199.970  1.00  0.00     0.000 C 
BRANCH   6   7
ATOM      7  C   UNL     1     106.282  22.335 199.071  1.00  0.00    -0.003 C 
ATOM      8  C   UNL     1     107.512  21.800 199.803  1.00  0.00     0.004 C 
ENDBRANCH   6   7
ENDBRANCH   1   6
TORSDOF 4
ENDMDL
MODEL 5
REMARK VINA RESULT:    -3.858      5.451      7.002
REMARK INTER + INTRA:          -4.829
REMARK INTER:                  -4.717
REMARK INTRA:                  -0.112
REMARK UNBOUND:                -0.068
REMARK SMILES CCCCCC(=O)[O-]
REMARK SMILES IDX 4 1 5 2 6 3 7 4 8 5 3 6 2 7 1 8
REMARK H PARENT
REMARK Flexibility Score: inf
ROOT
ATOM      1  C   UNL     1     103.728  22.806 193.296  1.00  0.00     0.006 C 
ENDROOT
BRANCH   1   2
ATOM      2  C   UNL     1     102.484  22.280 194.028  1.00  0.00     0.053 C 
BRANCH   2   3
ATOM      3  C   UNL     1     102.645  22.332 195.517  1.00  0.00     0.041 C 
ATOM      4  O   UNL     1     102.674  23.442 196.112  1.00  0.00    -0.550 OA
ATOM      5  O   UNL     1     102.727  21.156 196.250  1.00  0.00    -0.550 OA
ENDBRANCH   2   3
ENDBRANCH   1   2
BRANCH   1   6
ATOM      6  C   UNL     1     105.048  22.121 193.704  1.00  0.00     0.000 C 
BRANCH   6   7
ATOM      7  C   UNL     1     105.713  21.284 192.598  1.00  0.00    -0.003 C 
ATOM      8  C   UNL     1     107.206  21.060 192.834  1.00  0.00     0.004 C 
ENDBRANCH   6   7
ENDBRANCH   1   6
TORSDOF 4
ENDMDL
MODEL 6
REMARK VINA RESULT:    -3.833      5.562      6.233
REMARK INTER + INTRA:          -4.798
REMARK INTER:                  -4.704
REMARK INTRA:                  -0.094
REMARK UNBOUND:                -0.068
REMARK SMILES CCCCCC(=O)[O-]
REMARK SMILES IDX 4 1 5 2 6 3 7 4 8 5 3 6 2 7 1 8
REMARK H PARENT
REMARK Flexibility Score: inf
ROOT
ATOM      1  C   UNL     1     104.804  22.306 193.752  1.00  0.00     0.006 C 
ENDROOT
BRANCH   1   2
ATOM      2  C   UNL     1     105.561  21.398 192.771  1.00  0.00     0.053 C 
BRANCH   2   3
ATOM      3  C   UNL     1     106.894  20.978 193.310  1.00  0.00     0.041 C 
ATOM      4  O   UNL     1     107.905  20.962 192.558  1.00  0.00    -0.550 OA
ATOM      5  O   UNL     1     107.028  20.639 194.650  1.00  0.00    -0.550 OA
ENDBRANCH   2   3
ENDBRANCH   1   2
BRANCH   1   6
ATOM      6  C   UNL     1     103.337  22.586 193.365  1.00  0.00     0.000 C 
BRANCH   6   7
ATOM      7  C   UNL     1     102.306  22.275 194.463  1.00  0.00    -0.003 C 
ATOM      8  C   UNL     1     102.949  21.870 195.789  1.00  0.00     0.004 C 
ENDBRANCH   6   7
ENDBRANCH   1   6
TORSDOF 4
ENDMDL
MODEL 7
REMARK VINA RESULT:    -3.833     12.621     13.540
REMARK INTER + INTRA:          -4.798
REMARK INTER:                  -4.531
REMARK INTRA:                  -0.267
REMARK UNBOUND:                -0.068
REMARK SMILES CCCCCC(=O)[O-]
REMARK SMILES IDX 4 1 5 2 6 3 7 4 8 5 3 6 2 7 1 8
REMARK H PARENT
REMARK Flexibility Score: inf
ROOT
ATOM      1  C   UNL     1     113.789  30.218 201.771  1.00  0.00     0.006 C 
ENDROOT
BRANCH   1   2
ATOM      2  C   UNL     1     114.270  29.640 203.111  1.00  0.00     0.053 C 
BRANCH   2   3
ATOM      3  C   UNL     1     113.795  30.455 204.276  1.00  0.00     0.041 C 
ATOM      4  O   UNL     1     114.619  31.112 204.967  1.00  0.00    -0.550 OA
ATOM      5  O   UNL     1     112.441  30.518 204.576  1.00  0.00    -0.550 OA
ENDBRANCH   2   3
ENDBRANCH   1   2
BRANCH   1   6
ATOM      6  C   UNL     1     114.339  31.622 201.444  1.00  0.00     0.000 C 
BRANCH   6   7
ATOM      7  C   UNL     1     113.281  32.737 201.396  1.00  0.00    -0.003 C 
ATOM      8  C   UNL     1     113.385  33.711 202.569  1.00  0.00     0.004 C 
ENDBRANCH   6   7
ENDBRANCH   1   6
TORSDOF 4
ENDMDL
MODEL 8
REMARK VINA RESULT:    -3.789      3.260      4.771
REMARK INTER + INTRA:          -4.744
REMARK INTER:                  -4.575
REMARK INTRA:                  -0.168
REMARK UNBOUND:                -0.068
REMARK SMILES CCCCCC(=O)[O-]
REMARK SMILES IDX 4 1 5 2 6 3 7 4 8 5 3 6 2 7 1 8
REMARK H PARENT
REMARK Flexibility Score: inf
ROOT
ATOM      1  C   UNL     1     102.524  24.254 198.135  1.00  0.00     0.006 C 
ENDROOT
BRANCH   1   2
ATOM      2  C   UNL     1     101.297  23.477 198.639  1.00  0.00     0.053 C 
BRANCH   2   3
ATOM      3  C   UNL     1     100.872  23.925 200.004  1.00  0.00     0.041 C 
ATOM      4  O   UNL     1      99.690  24.315 200.203  1.00  0.00    -0.550 OA
ATOM      5  O   UNL     1     101.768  23.878 201.063  1.00  0.00    -0.550 OA
ENDBRANCH   2   3
ENDBRANCH   1   2
BRANCH   1   6
ATOM      6  C   UNL     1     103.797  23.400 197.964  1.00  0.00     0.000 C 
BRANCH   6   7
ATOM      7  C   UNL     1     105.038  23.931 198.700  1.00  0.00    -0.003 C 
ATOM      8  C   UNL     1     105.278  23.241 200.042  1.00  0.00     0.004 C 
ENDBRANCH   6   7
ENDBRANCH   1   6
TORSDOF 4
ENDMDL
MODEL 9
REMARK VINA RESULT:    -3.775     12.419     13.630
REMARK INTER + INTRA:          -4.726
REMARK INTER:                  -4.516
REMARK INTRA:                  -0.209
REMARK UNBOUND:                -0.068
REMARK SMILES CCCCCC(=O)[O-]
REMARK SMILES IDX 4 1 5 2 6 3 7 4 8 5 3 6 2 7 1 8
REMARK H PARENT
REMARK Flexibility Score: inf
ROOT
ATOM      1  C   UNL     1     114.651  30.889 202.000  1.00  0.00     0.006 C 
ENDROOT
BRANCH   1   2
ATOM      2  C   UNL     1     114.689  32.099 201.054  1.00  0.00     0.053 C 
BRANCH   2   3
ATOM      3  C   UNL     1     114.313  33.370 201.753  1.00  0.00     0.041 C 
ATOM      4  O   UNL     1     115.119  33.915 202.552  1.00  0.00    -0.550 OA
ATOM      5  O   UNL     1     113.088  33.970 201.495  1.00  0.00    -0.550 OA
ENDBRANCH   2   3
ENDBRANCH   1   2
BRANCH   1   6
ATOM      6  C   UNL     1     113.575  29.839 201.653  1.00  0.00     0.000 C 
BRANCH   6   7
ATOM      7  C   UNL     1     112.128  30.361 201.677  1.00  0.00    -0.003 C 
ATOM      8  C   UNL     1     111.746  31.002 203.011  1.00  0.00     0.004 C 
ENDBRANCH   6   7
ENDBRANCH   1   6
TORSDOF 4
ENDMDL
