MODEL 1
REMARK VINA RESULT:     1.377      0.000      0.000
REMARK INTER + INTRA:           8.678
REMARK INTER:                   2.263
REMARK INTRA:                   6.415
REMARK UNBOUND:                 6.415
REMARK SMILES C[C@H]1O[C@@H](OC[C@H]2O[C@@H](Oc3c(-c4ccc(O)c(O)c4)oc4cc(O)cc(O)c4c3=O)[C@H](O)[C@@H](O)[C@@H]2O)[C@H](O)[C@@H](O)[C@H]1O
REMARK SMILES IDX 7 1 36 2 34 3 32 4 9 5 8 6 6 7 5 8 4 9 1 10 2 11 42 12 3 13
REMARK SMILES IDX 40 14 38 15 43 16 41 18 39 20 37 22 35 24 10 26 11 27 12 28
REMARK SMILES IDX 30 29 21 30 29 31 31 32 22 33 27 34 23 35 26 36 24 37 13 38
REMARK SMILES IDX 20 39 14 40 18 41 15 42 16 43 19 44 17 46 28 48 25 50 33 52
REMARK H PARENT 43 17 41 19 39 21 37 23 35 25 19 45 17 47 28 49 25 51 33 53
REMARK Flexibility Score: inf
ROOT
ATOM      1  C   UNL     1      10.698  -0.942  19.268  1.00  0.00     0.180 C 
ATOM      2  C   UNL     1      10.652   0.269  18.304  1.00  0.00     0.177 C 
ATOM      3  C   UNL     1      11.928   0.369  17.468  1.00  0.00     0.180 C 
ATOM      4  C   UNL     1      13.182   0.291  18.364  1.00  0.00     0.214 C 
ATOM      5  C   UNL     1      13.103  -0.863  19.393  1.00  0.00     0.339 C 
ATOM      6  O   UNL     1      11.863  -0.964  20.089  1.00  0.00    -0.332 OA
ENDROOT
BRANCH   1   7
ATOM      7  C   UNL     1      10.413  -2.320  18.612  1.00  0.00     0.198 C 
BRANCH   7   8
ATOM      8  O   UNL     1       9.048  -2.689  18.714  1.00  0.00    -0.347 OA
BRANCH   8   9
ATOM      9  C   UNL     1       8.336  -1.840  19.597  1.00  0.00     0.281 C 
ATOM     10  C   UNL     1       6.421  -4.311  18.686  1.00  0.00     0.041 C 
ATOM     11  C   UNL     1       6.213  -2.858  19.143  1.00  0.00     0.150 C 
ATOM     12  C   UNL     1       6.035  -1.831  17.980  1.00  0.00     0.174 C 
ATOM     13  O   UNL     1       7.182  -2.486  20.124  1.00  0.00    -0.344 OA
ATOM     14  C   UNL     1       6.501  -0.459  18.468  1.00  0.00     0.179 C 
ATOM     15  C   UNL     1       7.985  -0.516  18.866  1.00  0.00     0.202 C 
BRANCH  12  16
ATOM     16  O   UNL     1       6.776  -2.206  16.845  1.00  0.00    -0.388 OA
ATOM     17  H   UNL     1       6.241  -1.943  16.048  1.00  0.00     0.211 HD
ENDBRANCH  12  16
BRANCH  14  18
ATOM     18  O   UNL     1       6.268   0.542  17.509  1.00  0.00    -0.387 OA
ATOM     19  H   UNL     1       7.116   0.717  17.023  1.00  0.00     0.211 HD
ENDBRANCH  14  18
BRANCH  15  20
ATOM     20  O   UNL     1       8.278   0.587  19.685  1.00  0.00    -0.385 OA
ATOM     21  H   UNL     1       8.279   1.382  19.086  1.00  0.00     0.211 HD
ENDBRANCH  15  20
ENDBRANCH   8   9
ENDBRANCH   7   8
ENDBRANCH   1   7
BRANCH   2  22
ATOM     22  O   UNL     1      10.499   1.441  19.067  1.00  0.00    -0.387 OA
ATOM     23  H   UNL     1      11.017   2.164  18.619  1.00  0.00     0.211 HD
ENDBRANCH   2  22
BRANCH   3  24
ATOM     24  O   UNL     1      11.944  -0.668  16.519  1.00  0.00    -0.387 OA
ATOM     25  H   UNL     1      11.105  -1.188  16.644  1.00  0.00     0.211 HD
ENDBRANCH   3  24
BRANCH   5  26
ATOM     26  O   UNL     1      13.440  -2.105  18.771  1.00  0.00    -0.454 OA
BRANCH  26  27
ATOM     27  C   UNL     1      14.569  -2.861  19.115  1.00  0.00     0.214 A 
ATOM     28  C   UNL     1      14.399  -4.147  19.641  1.00  0.00     0.180 A 
ATOM     29  C   UNL     1      15.878  -2.368  18.955  1.00  0.00     0.239 A 
ATOM     30  O   UNL     1      15.451  -4.906  19.920  1.00  0.00    -0.452 OA
ATOM     31  C   UNL     1      16.980  -3.203  19.258  1.00  0.00     0.111 A 
ATOM     32  O   UNL     1      16.055  -1.185  18.564  1.00  0.00    -0.285 OA
ATOM     33  C   UNL     1      16.702  -4.502  19.739  1.00  0.00     0.146 A 
ATOM     34  C   UNL     1      18.327  -2.808  19.088  1.00  0.00     0.134 A 
ATOM     35  C   UNL     1      17.746  -5.384  20.036  1.00  0.00     0.094 A 
ATOM     36  C   UNL     1      19.361  -3.711  19.383  1.00  0.00     0.093 A 
ATOM     37  C   UNL     1      19.075  -4.995  19.854  1.00  0.00     0.123 A 
BRANCH  28  38
ATOM     38  C   UNL     1      13.059  -4.705  19.853  1.00  0.00     0.025 A 
ATOM     39  C   UNL     1      12.863  -6.090  19.880  1.00  0.00     0.062 A 
ATOM     40  C   UNL     1      11.954  -3.847  19.933  1.00  0.00     0.016 A 
ATOM     41  C   UNL     1      11.570  -6.627  19.967  1.00  0.00     0.158 A 
ATOM     42  C   UNL     1      10.666  -4.374  20.035  1.00  0.00     0.051 A 
ATOM     43  C   UNL     1      10.457  -5.757  20.036  1.00  0.00     0.157 A 
BRANCH  41  44
ATOM     44  O   UNL     1      11.432  -8.016  19.959  1.00  0.00    -0.504 OA
ATOM     45  H   UNL     1      11.618  -8.594  20.764  1.00  0.00     0.293 HD
ENDBRANCH  41  44
BRANCH  43  46
ATOM     46  O   UNL     1       9.141  -6.215  20.054  1.00  0.00    -0.504 OA
ATOM     47  H   UNL     1       8.449  -5.936  20.738  1.00  0.00     0.293 HD
ENDBRANCH  43  46
ENDBRANCH  28  38
BRANCH  34  48
ATOM     48  O   UNL     1      18.643  -1.529  18.622  1.00  0.00    -0.507 OA
ATOM     49  H   UNL     1      19.143  -1.385  17.751  1.00  0.00     0.293 HD
ENDBRANCH  34  48
BRANCH  37  50
ATOM     50  O   UNL     1      20.116  -5.882  20.125  1.00  0.00    -0.508 OA
ATOM     51  H   UNL     1      20.948  -5.922  19.543  1.00  0.00     0.293 HD
ENDBRANCH  37  50
ENDBRANCH  26  27
ENDBRANCH   5  26
BRANCH   4  52
ATOM     52  O   UNL     1      13.436   1.526  18.987  1.00  0.00    -0.384 OA
ATOM     53  H   UNL     1      14.256   1.430  19.539  1.00  0.00     0.211 HD
ENDBRANCH   4  52
TORSDOF 16
ENDMDL
MODEL 2
REMARK VINA RESULT:     3.386      1.960      8.157
REMARK INTER + INTRA:          11.978
REMARK INTER:                   8.929
REMARK INTRA:                   3.050
REMARK UNBOUND:                 6.415
REMARK SMILES C[C@H]1O[C@@H](OC[C@H]2O[C@@H](Oc3c(-c4ccc(O)c(O)c4)oc4cc(O)cc(O)c4c3=O)[C@H](O)[C@@H](O)[C@@H]2O)[C@H](O)[C@@H](O)[C@H]1O
REMARK SMILES IDX 7 1 36 2 34 3 32 4 9 5 8 6 6 7 5 8 4 9 1 10 2 11 42 12 3 13
REMARK SMILES IDX 40 14 38 15 43 16 41 18 39 20 37 22 35 24 10 26 11 27 12 28
REMARK SMILES IDX 30 29 21 30 29 31 31 32 22 33 27 34 23 35 26 36 24 37 13 38
REMARK SMILES IDX 20 39 14 40 18 41 15 42 16 43 19 44 17 46 28 48 25 50 33 52
REMARK H PARENT 43 17 41 19 39 21 37 23 35 25 19 45 17 47 28 49 25 51 33 53
REMARK Flexibility Score: inf
ROOT
ATOM      1  C   UNL     1      14.561  -3.543  18.817  1.00  0.00     0.180 C 
ATOM      2  C   UNL     1      14.387  -3.055  17.358  1.00  0.00     0.177 C 
ATOM      3  C   UNL     1      13.060  -2.322  17.164  1.00  0.00     0.180 C 
ATOM      4  C   UNL     1      11.885  -3.153  17.722  1.00  0.00     0.214 C 
ATOM      5  C   UNL     1      12.178  -3.721  19.132  1.00  0.00     0.339 C 
ATOM      6  O   UNL     1      13.462  -4.323  19.283  1.00  0.00    -0.332 OA
ENDROOT
BRANCH   1   7
ATOM      7  C   UNL     1      14.981  -2.448  19.834  1.00  0.00     0.198 C 
BRANCH   7   8
ATOM      8  O   UNL     1      16.240  -1.879  19.517  1.00  0.00    -0.347 OA
BRANCH   8   9
ATOM      9  C   UNL     1      17.312  -2.637  20.051  1.00  0.00     0.281 C 
ATOM     10  C   UNL     1      18.492  -0.015  18.522  1.00  0.00     0.041 C 
ATOM     11  C   UNL     1      18.996  -1.432  18.843  1.00  0.00     0.150 C 
ATOM     12  C   UNL     1      18.818  -2.461  17.682  1.00  0.00     0.174 C 
ATOM     13  O   UNL     1      18.512  -1.873  20.111  1.00  0.00    -0.344 OA
ATOM     14  C   UNL     1      18.706  -3.861  18.288  1.00  0.00     0.179 C 
ATOM     15  C   UNL     1      17.486  -3.937  19.220  1.00  0.00     0.202 C 
BRANCH  12  16
ATOM     16  O   UNL     1      17.670  -2.183  16.919  1.00  0.00    -0.388 OA
ATOM     17  H   UNL     1      17.439  -3.016  16.426  1.00  0.00     0.211 HD
ENDBRANCH  12  16
BRANCH  14  18
ATOM     18  O   UNL     1      18.653  -4.855  17.296  1.00  0.00    -0.387 OA
ATOM     19  H   UNL     1      17.992  -5.542  17.572  1.00  0.00     0.211 HD
ENDBRANCH  14  18
BRANCH  15  20
ATOM     20  O   UNL     1      17.633  -5.045  20.070  1.00  0.00    -0.385 OA
ATOM     21  H   UNL     1      18.463  -5.509  19.777  1.00  0.00     0.211 HD
ENDBRANCH  15  20
ENDBRANCH   8   9
ENDBRANCH   7   8
ENDBRANCH   1   7
BRANCH   2  22
ATOM     22  O   UNL     1      14.434  -4.173  16.505  1.00  0.00    -0.387 OA
ATOM     23  H   UNL     1      15.204  -4.737  16.787  1.00  0.00     0.211 HD
ENDBRANCH   2  22
BRANCH   3  24
ATOM     24  O   UNL     1      13.120  -1.074  17.809  1.00  0.00    -0.387 OA
ATOM     25  H   UNL     1      12.183  -0.755  17.909  1.00  0.00     0.211 HD
ENDBRANCH   3  24
BRANCH   5  26
ATOM     26  O   UNL     1      11.968  -2.714  20.124  1.00  0.00    -0.454 OA
BRANCH  26  27
ATOM     27  C   UNL     1      11.015  -1.693  20.000  1.00  0.00     0.214 A 
ATOM     28  C   UNL     1       9.660  -2.028  19.903  1.00  0.00     0.180 A 
ATOM     29  C   UNL     1      11.375  -0.332  19.964  1.00  0.00     0.239 A 
ATOM     30  O   UNL     1       8.733  -1.080  19.844  1.00  0.00    -0.452 OA
ATOM     31  C   UNL     1      10.364   0.656  19.905  1.00  0.00     0.111 A 
ATOM     32  O   UNL     1      12.592  -0.009  19.965  1.00  0.00    -0.285 OA
ATOM     33  C   UNL     1       9.022   0.216  19.857  1.00  0.00     0.146 A 
ATOM     34  C   UNL     1      10.631   2.045  19.907  1.00  0.00     0.134 A 
ATOM     35  C   UNL     1       7.975   1.141  19.820  1.00  0.00     0.094 A 
ATOM     36  C   UNL     1       9.565   2.959  19.879  1.00  0.00     0.093 A 
ATOM     37  C   UNL     1       8.242   2.512  19.836  1.00  0.00     0.123 A 
BRANCH  28  38
ATOM     38  C   UNL     1       9.226  -3.429  19.911  1.00  0.00     0.025 A 
ATOM     39  C   UNL     1      10.162  -4.461  20.038  1.00  0.00     0.062 A 
ATOM     40  C   UNL     1       7.877  -3.739  19.694  1.00  0.00     0.016 A 
ATOM     41  C   UNL     1       9.765  -5.803  19.930  1.00  0.00     0.158 A 
ATOM     42  C   UNL     1       7.473  -5.072  19.601  1.00  0.00     0.051 A 
ATOM     43  C   UNL     1       8.403  -6.110  19.700  1.00  0.00     0.157 A 
BRANCH  41  44
ATOM     44  O   UNL     1      10.746  -6.790  20.033  1.00  0.00    -0.504 OA
ATOM     45  H   UNL     1      10.955  -7.273  20.893  1.00  0.00     0.293 HD
ENDBRANCH  41  44
BRANCH  43  46
ATOM     46  O   UNL     1       7.946  -7.413  19.512  1.00  0.00    -0.504 OA
ATOM     47  H   UNL     1       7.419  -7.722  18.705  1.00  0.00     0.293 HD
ENDBRANCH  43  46
ENDBRANCH  28  38
BRANCH  34  48
ATOM     48  O   UNL     1      11.944   2.520  19.946  1.00  0.00    -0.507 OA
ATOM     49  H   UNL     1      12.718   1.931  20.236  1.00  0.00     0.293 HD
ENDBRANCH  34  48
BRANCH  37  50
ATOM     50  O   UNL     1       7.198   3.437  19.824  1.00  0.00    -0.508 OA
ATOM     51  H   UNL     1       6.677   3.665  20.666  1.00  0.00     0.293 HD
ENDBRANCH  37  50
ENDBRANCH  26  27
ENDBRANCH   5  26
BRANCH   4  52
ATOM     52  O   UNL     1      11.512  -4.167  16.821  1.00  0.00    -0.384 OA
ATOM     53  H   UNL     1      10.622  -4.513  17.099  1.00  0.00     0.211 HD
ENDBRANCH   4  52
TORSDOF 16
ENDMDL
