MODEL 1
REMARK VINA RESULT:    62.160      0.000      0.000
REMARK INTER + INTRA:          86.236
REMARK INTER:                  85.780
REMARK INTRA:                   0.456
REMARK UNBOUND:                 0.456
REMARK SMILES CC[C@@H](CC[C@H](C)[C@H]1CC[C@@H]2[C@H]3CC=C4C[C@H](O)CC[C@]4(C)[C@H]3CC[C@]21C)C(C)C
REMARK SMILES IDX 5 1 4 2 3 3 2 4 1 5 28 6 29 7 30 8 6 9 7 10 8 11 9 12 26 13
REMARK SMILES IDX 10 14 11 15 25 16 27 17 12 18 24 19 23 20 13 21 21 22 14 23
REMARK SMILES IDX 15 24 20 25 22 26 16 27 19 28 17 29 18 30
REMARK H PARENT 18 31
REMARK Flexibility Score: inf
ROOT
ATOM      1  C   UNL     1      90.936  14.786 105.511  1.00  0.00     0.004 C 
ENDROOT
BRANCH   1   2
ATOM      2  C   UNL     1      92.266  15.535 105.283  1.00  0.00     0.004 C 
BRANCH   2   3
ATOM      3  C   UNL     1      93.431  14.656 104.741  1.00  0.00    -0.009 C 
BRANCH   3   4
ATOM      4  C   UNL     1      94.627  14.641 105.735  1.00  0.00     0.000 C 
ATOM      5  C   UNL     1      95.148  16.037 106.090  1.00  0.00     0.004 C 
ENDBRANCH   3   4
BRANCH   3   6
ATOM      6  C   UNL     1      93.782  14.988 103.245  1.00  0.00    -0.014 C 
ATOM      7  C   UNL     1      94.438  13.795 102.525  1.00  0.00     0.007 C 
ATOM      8  C   UNL     1      94.639  16.254 103.047  1.00  0.00     0.007 C 
ENDBRANCH   3   6
ENDBRANCH   2   3
ENDBRANCH   1   2
BRANCH   1   9
ATOM      9  C   UNL     1      90.043  14.698 104.239  1.00  0.00    -0.011 C 
ATOM     10  C   UNL     1      89.673  16.115 103.749  1.00  0.00     0.008 C 
BRANCH   9  11
ATOM     11  C   UNL     1      88.804  13.758 104.504  1.00  0.00    -0.002 C 
ATOM     12  C   UNL     1      88.482  12.803 103.319  1.00  0.00     0.005 C 
ATOM     13  C   UNL     1      88.793  12.804 105.752  1.00  0.00    -0.026 C 
ATOM     14  C   UNL     1      88.729  11.364 103.798  1.00  0.00     0.005 C 
ATOM     15  C   UNL     1      89.378  11.505 105.168  1.00  0.00    -0.001 C 
ATOM     16  C   UNL     1      89.646  13.227 106.990  1.00  0.00     0.007 C 
ATOM     17  C   UNL     1      87.285  12.624 106.189  1.00  0.00     0.012 C 
ATOM     18  C   UNL     1      89.287  10.278 106.121  1.00  0.00     0.000 C 
ATOM     19  C   UNL     1      90.232  12.033 107.786  1.00  0.00     0.005 C 
ATOM     20  C   UNL     1      89.447  10.693 107.627  1.00  0.00     0.003 C 
ATOM     21  C   UNL     1      90.327   9.218 105.735  1.00  0.00     0.031 C 
ATOM     22  C   UNL     1      89.948   9.517 108.599  1.00  0.00    -0.008 C 
ATOM     23  C   UNL     1      90.152   8.017 106.600  1.00  0.00    -0.027 C 
ATOM     24  C   UNL     1      89.916   8.136 107.919  1.00  0.00    -0.065 C 
ATOM     25  C   UNL     1      89.002   9.492 109.840  1.00  0.00     0.014 C 
ATOM     26  C   UNL     1      91.410   9.733 109.079  1.00  0.00     0.016 C 
ATOM     27  C   UNL     1      89.925   6.876 108.763  1.00  0.00     0.063 C 
ATOM     28  C   UNL     1      89.163   8.259 110.738  1.00  0.00     0.033 C 
ATOM     29  C   UNL     1      88.949   6.965 109.941  1.00  0.00     0.118 C 
BRANCH  29  30
ATOM     30  O   UNL     1      87.621   6.900 109.481  1.00  0.00    -0.393 OA
ATOM     31  H   UNL     1      87.091   6.483 110.211  1.00  0.00     0.210 HD
ENDBRANCH  29  30
ENDBRANCH   9  11
ENDBRANCH   1   9
TORSDOF 7
ENDMDL
MODEL 2
REMARK VINA RESULT:    64.059      7.312      9.122
REMARK INTER + INTRA:          88.857
REMARK INTER:                  88.860
REMARK INTRA:                  -0.003
REMARK UNBOUND:                 0.456
REMARK SMILES CC[C@@H](CC[C@H](C)[C@H]1CC[C@@H]2[C@H]3CC=C4C[C@H](O)CC[C@]4(C)[C@H]3CC[C@]21C)C(C)C
REMARK SMILES IDX 5 1 4 2 3 3 2 4 1 5 28 6 29 7 30 8 6 9 7 10 8 11 9 12 26 13
REMARK SMILES IDX 10 14 11 15 25 16 27 17 12 18 24 19 23 20 13 21 21 22 14 23
REMARK SMILES IDX 15 24 20 25 22 26 16 27 19 28 17 29 18 30
REMARK H PARENT 18 31
REMARK Flexibility Score: inf
ROOT
ATOM      1  C   UNL     1      87.582  20.540 110.559  1.00  0.00     0.004 C 
ENDROOT
BRANCH   1   2
ATOM      2  C   UNL     1      88.253  21.623 111.430  1.00  0.00     0.004 C 
BRANCH   2   3
ATOM      3  C   UNL     1      89.734  21.332 111.814  1.00  0.00    -0.009 C 
BRANCH   3   4
ATOM      4  C   UNL     1      89.842  20.048 112.685  1.00  0.00     0.000 C 
ATOM      5  C   UNL     1      91.236  19.414 112.675  1.00  0.00     0.004 C 
ENDBRANCH   3   4
BRANCH   3   6
ATOM      6  C   UNL     1      90.466  22.607 112.372  1.00  0.00    -0.014 C 
ATOM      7  C   UNL     1      90.870  22.443 113.848  1.00  0.00     0.007 C 
ATOM      8  C   UNL     1      89.695  23.929 112.184  1.00  0.00     0.007 C 
ENDBRANCH   3   6
ENDBRANCH   2   3
ENDBRANCH   1   2
BRANCH   1   9
ATOM      9  C   UNL     1      87.233  21.023 109.121  1.00  0.00    -0.011 C 
ATOM     10  C   UNL     1      87.613  22.510 108.951  1.00  0.00     0.008 C 
BRANCH   9  11
ATOM     11  C   UNL     1      85.728  20.694 108.783  1.00  0.00    -0.002 C 
ATOM     12  C   UNL     1      85.356  20.938 107.292  1.00  0.00     0.005 C 
ATOM     13  C   UNL     1      85.151  19.262 109.071  1.00  0.00    -0.026 C 
ATOM     14  C   UNL     1      85.013  19.577 106.668  1.00  0.00     0.005 C 
ATOM     15  C   UNL     1      85.382  18.547 107.727  1.00  0.00    -0.001 C 
ATOM     16  C   UNL     1      85.828  18.428 110.206  1.00  0.00     0.007 C 
ATOM     17  C   UNL     1      83.612  19.433 109.390  1.00  0.00     0.012 C 
ATOM     18  C   UNL     1      84.701  17.151 107.620  1.00  0.00     0.000 C 
ATOM     19  C   UNL     1      85.814  16.899 109.953  1.00  0.00     0.005 C 
ATOM     20  C   UNL     1      84.680  16.403 109.001  1.00  0.00     0.003 C 
ATOM     21  C   UNL     1      85.389  16.297 106.548  1.00  0.00     0.031 C 
ATOM     22  C   UNL     1      84.559  14.805 108.898  1.00  0.00    -0.008 C 
ATOM     23  C   UNL     1      84.658  15.007 106.400  1.00  0.00    -0.027 C 
ATOM     24  C   UNL     1      84.213  14.331 107.474  1.00  0.00    -0.065 C 
ATOM     25  C   UNL     1      83.427  14.352 109.871  1.00  0.00     0.014 C 
ATOM     26  C   UNL     1      85.882  14.088 109.286  1.00  0.00     0.016 C 
ATOM     27  C   UNL     1      83.635  12.945 107.257  1.00  0.00     0.063 C 
ATOM     28  C   UNL     1      82.989  12.892 109.701  1.00  0.00     0.033 C 
ATOM     29  C   UNL     1      82.526  12.619 108.263  1.00  0.00     0.118 C 
BRANCH  29  30
ATOM     30  O   UNL     1      81.373  13.374 107.979  1.00  0.00    -0.393 OA
ATOM     31  H   UNL     1      80.736  12.755 107.536  1.00  0.00     0.210 HD
ENDBRANCH  29  30
ENDBRANCH   9  11
ENDBRANCH   1   9
TORSDOF 7
ENDMDL
MODEL 3
REMARK VINA RESULT:    64.432      7.245      9.083
REMARK INTER + INTRA:          89.372
REMARK INTER:                  89.654
REMARK INTRA:                  -0.282
REMARK UNBOUND:                 0.456
REMARK SMILES CC[C@@H](CC[C@H](C)[C@H]1CC[C@@H]2[C@H]3CC=C4C[C@H](O)CC[C@]4(C)[C@H]3CC[C@]21C)C(C)C
REMARK SMILES IDX 5 1 4 2 3 3 2 4 1 5 28 6 29 7 30 8 6 9 7 10 8 11 9 12 26 13
REMARK SMILES IDX 10 14 11 15 25 16 27 17 12 18 24 19 23 20 13 21 21 22 14 23
REMARK SMILES IDX 15 24 20 25 22 26 16 27 19 28 17 29 18 30
REMARK H PARENT 18 31
REMARK Flexibility Score: inf
ROOT
ATOM      1  C   UNL     1      88.032  20.611 110.516  1.00  0.00     0.004 C 
ENDROOT
BRANCH   1   2
ATOM      2  C   UNL     1      88.477  21.822 111.362  1.00  0.00     0.004 C 
BRANCH   2   3
ATOM      3  C   UNL     1      89.568  21.512 112.428  1.00  0.00    -0.009 C 
BRANCH   3   4
ATOM      4  C   UNL     1      90.338  22.803 112.830  1.00  0.00     0.000 C 
ATOM      5  C   UNL     1      91.054  22.697 114.180  1.00  0.00     0.004 C 
ENDBRANCH   3   4
BRANCH   3   6
ATOM      6  C   UNL     1      90.456  20.276 112.030  1.00  0.00    -0.014 C 
ATOM      7  C   UNL     1      90.293  19.105 113.016  1.00  0.00     0.007 C 
ATOM      8  C   UNL     1      91.952  20.591 111.834  1.00  0.00     0.007 C 
ENDBRANCH   3   6
ENDBRANCH   2   3
ENDBRANCH   1   2
BRANCH   1   9
ATOM      9  C   UNL     1      87.537  20.993 109.091  1.00  0.00    -0.011 C 
ATOM     10  C   UNL     1      87.976  22.432 108.742  1.00  0.00     0.008 C 
BRANCH   9  11
ATOM     11  C   UNL     1      85.986  20.738 108.963  1.00  0.00    -0.002 C 
ATOM     12  C   UNL     1      85.404  21.119 107.571  1.00  0.00     0.005 C 
ATOM     13  C   UNL     1      85.399  19.304 109.221  1.00  0.00    -0.026 C 
ATOM     14  C   UNL     1      84.914  19.826 106.900  1.00  0.00     0.005 C 
ATOM     15  C   UNL     1      85.395  18.699 107.805  1.00  0.00    -0.001 C 
ATOM     16  C   UNL     1      86.204  18.358 110.168  1.00  0.00     0.007 C 
ATOM     17  C   UNL     1      83.935  19.492 109.784  1.00  0.00     0.012 C 
ATOM     18  C   UNL     1      84.649  17.338 107.693  1.00  0.00     0.000 C 
ATOM     19  C   UNL     1      86.088  16.856 109.800  1.00  0.00     0.005 C 
ATOM     20  C   UNL     1      84.805  16.476 108.996  1.00  0.00     0.003 C 
ATOM     21  C   UNL     1      85.132  16.559 106.463  1.00  0.00     0.031 C 
ATOM     22  C   UNL     1      84.603  14.897 108.786  1.00  0.00    -0.008 C 
ATOM     23  C   UNL     1      84.333  15.308 106.327  1.00  0.00    -0.027 C 
ATOM     24  C   UNL     1      84.027  14.556 107.399  1.00  0.00    -0.065 C 
ATOM     25  C   UNL     1      83.613  14.396 109.882  1.00  0.00     0.014 C 
ATOM     26  C   UNL     1      85.939  14.111 108.908  1.00  0.00     0.016 C 
ATOM     27  C   UNL     1      83.366  13.211 107.163  1.00  0.00     0.063 C 
ATOM     28  C   UNL     1      83.093  12.969 109.665  1.00  0.00     0.033 C 
ATOM     29  C   UNL     1      82.409  12.833 108.298  1.00  0.00     0.118 C 
BRANCH  29  30
ATOM     30  O   UNL     1      81.258  13.642 108.256  1.00  0.00    -0.393 OA
ATOM     31  H   UNL     1      81.578  14.582 108.224  1.00  0.00     0.210 HD
ENDBRANCH  29  30
ENDBRANCH   9  11
ENDBRANCH   1   9
TORSDOF 7
ENDMDL
MODEL 4
REMARK VINA RESULT:    64.699      8.006     11.475
REMARK INTER + INTRA:          89.740
REMARK INTER:                  90.111
REMARK INTRA:                  -0.371
REMARK UNBOUND:                 0.456
REMARK SMILES CC[C@@H](CC[C@H](C)[C@H]1CC[C@@H]2[C@H]3CC=C4C[C@H](O)CC[C@]4(C)[C@H]3CC[C@]21C)C(C)C
REMARK SMILES IDX 5 1 4 2 3 3 2 4 1 5 28 6 29 7 30 8 6 9 7 10 8 11 9 12 26 13
REMARK SMILES IDX 10 14 11 15 25 16 27 17 12 18 24 19 23 20 13 21 21 22 14 23
REMARK SMILES IDX 15 24 20 25 22 26 16 27 19 28 17 29 18 30
REMARK H PARENT 18 31
REMARK Flexibility Score: inf
ROOT
ATOM      1  C   UNL     1      84.997  17.050 108.436  1.00  0.00     0.004 C 
ENDROOT
BRANCH   1   2
ATOM      2  C   UNL     1      84.574  16.026 107.362  1.00  0.00     0.004 C 
BRANCH   2   3
ATOM      3  C   UNL     1      84.236  14.607 107.906  1.00  0.00    -0.009 C 
BRANCH   3   4
ATOM      4  C   UNL     1      83.111  13.940 107.064  1.00  0.00     0.000 C 
ATOM      5  C   UNL     1      83.298  12.432 106.872  1.00  0.00     0.004 C 
ENDBRANCH   3   4
BRANCH   3   6
ATOM      6  C   UNL     1      84.026  14.600 109.464  1.00  0.00    -0.014 C 
ATOM      7  C   UNL     1      85.220  13.974 110.207  1.00  0.00     0.007 C 
ATOM      8  C   UNL     1      82.714  13.945 109.937  1.00  0.00     0.007 C 
ENDBRANCH   3   6
ENDBRANCH   2   3
ENDBRANCH   1   2
BRANCH   1   9
ATOM      9  C   UNL     1      84.505  18.498 108.145  1.00  0.00    -0.011 C 
ATOM     10  C   UNL     1      83.320  18.470 107.154  1.00  0.00     0.008 C 
BRANCH   9  11
ATOM     11  C   UNL     1      85.712  19.406 107.690  1.00  0.00    -0.002 C 
ATOM     12  C   UNL     1      85.310  20.883 107.408  1.00  0.00     0.005 C 
ATOM     13  C   UNL     1      86.982  19.544 108.603  1.00  0.00    -0.026 C 
ATOM     14  C   UNL     1      86.013  21.765 108.451  1.00  0.00     0.005 C 
ATOM     15  C   UNL     1      86.642  20.791 109.439  1.00  0.00    -0.001 C 
ATOM     16  C   UNL     1      87.302  18.362 109.573  1.00  0.00     0.007 C 
ATOM     17  C   UNL     1      88.218  19.793 107.651  1.00  0.00     0.012 C 
ATOM     18  C   UNL     1      87.824  21.326 110.300  1.00  0.00     0.000 C 
ATOM     19  C   UNL     1      87.975  18.804 110.899  1.00  0.00     0.005 C 
ATOM     20  C   UNL     1      88.740  20.163 110.823  1.00  0.00     0.003 C 
ATOM     21  C   UNL     1      87.301  22.174 111.465  1.00  0.00     0.031 C 
ATOM     22  C   UNL     1      89.587  20.515 112.140  1.00  0.00    -0.008 C 
ATOM     23  C   UNL     1      88.454  22.751 112.213  1.00  0.00    -0.027 C 
ATOM     24  C   UNL     1      89.547  22.016 112.483  1.00  0.00    -0.065 C 
ATOM     25  C   UNL     1      91.067  20.095 111.879  1.00  0.00     0.014 C 
ATOM     26  C   UNL     1      89.060  19.767 113.397  1.00  0.00     0.016 C 
ATOM     27  C   UNL     1      90.601  22.613 113.396  1.00  0.00     0.063 C 
ATOM     28  C   UNL     1      92.067  20.608 112.923  1.00  0.00     0.033 C 
ATOM     29  C   UNL     1      92.013  22.138 113.034  1.00  0.00     0.118 C 
BRANCH  29  30
ATOM     30  O   UNL     1      92.429  22.722 111.823  1.00  0.00    -0.393 OA
ATOM     31  H   UNL     1      93.165  22.152 111.477  1.00  0.00     0.210 HD
ENDBRANCH  29  30
ENDBRANCH   9  11
ENDBRANCH   1   9
TORSDOF 7
ENDMDL
