MODEL 1
REMARK VINA RESULT:    -4.215      0.000      0.000
REMARK INTER + INTRA:          -5.328
REMARK INTER:                  -5.940
REMARK INTRA:                   0.612
REMARK UNBOUND:                 0.612
REMARK SMILES CC1=CCC(=C(C)C)C(=O)CC(C)=CCC1
REMARK SMILES IDX 12 1 14 2 13 3 15 4 16 5 2 6 1 7 3 8 11 10 9 11 10 12 5 13
REMARK SMILES IDX 6 14 7 15 8 16 4 17
REMARK H PARENT
REMARK Flexibility Score: 60.00
ROOT
ATOM      1  C   UNL     1     212.824 204.564 217.500  1.00  0.00    -0.070 C 
ATOM      2  C   UNL     1     212.989 205.659 216.721  1.00  0.00    -0.027 C 
ATOM      3  C   UNL     1     211.648 204.535 218.443  1.00  0.00     0.039 C 
ENDROOT
BRANCH   2   4
ATOM      4  C   UNL     1     214.016 205.793 215.626  1.00  0.00     0.032 C 
BRANCH   4   5
ATOM      5  C   UNL     1     213.323 206.133 214.302  1.00  0.00     0.034 C 
BRANCH   5   6
ATOM      6  C   UNL     1     212.316 205.081 213.887  1.00  0.00    -0.077 C 
ATOM      7  C   UNL     1     210.919 205.520 213.522  1.00  0.00     0.039 C 
ATOM      8  C   UNL     1     212.575 203.749 213.894  1.00  0.00    -0.023 CG0
ATOM      9  G   UNL     1     213.907 203.070 214.165  1.00  0.00     0.000 G0
ENDBRANCH   5   6
ENDBRANCH   4   5
ENDBRANCH   2   4
BRANCH   1  10
ATOM     10  C   UNL     1     213.770 203.380 217.484  1.00  0.00     0.111 C 
BRANCH  10  11
ATOM     11  C   UNL     1     213.289 202.287 216.559  1.00  0.00     0.163 C 
ATOM     12  O   UNL     1     212.310 201.596 216.949  1.00  0.00    -0.294 OA
BRANCH  11  13
ATOM     13  C   UNL     1     213.924 201.976 215.235  1.00  0.00    -0.002 C 
ATOM     14  C   UNL     1     214.633 200.819 215.060  1.00  0.00    -0.069 C 
ATOM     15  C   UNL     1     215.478 200.574 213.829  1.00  0.00     0.039 C 
ATOM     16  C   UNL     1     214.569 199.693 216.067  1.00  0.00     0.039 C 
BRANCH  13  17
ATOM     17  C   UNL     1     213.910 203.063 214.166  1.00  0.00     0.066 CG0
ATOM     18  G   UNL     1     212.575 203.738 213.906  1.00  0.00     0.000 G0
ENDBRANCH  13  17
ENDBRANCH  11  13
ENDBRANCH  10  11
ENDBRANCH   1  10
TORSDOF 0
ENDMDL
MODEL 2
REMARK VINA RESULT:    -4.206      1.088      1.561
REMARK INTER + INTRA:          -5.315
REMARK INTER:                  -5.871
REMARK INTRA:                   0.556
REMARK UNBOUND:                 0.612
REMARK SMILES CC1=CCC(=C(C)C)C(=O)CC(C)=CCC1
REMARK SMILES IDX 12 1 14 2 13 3 15 4 16 5 2 6 1 7 3 8 11 10 9 11 10 12 5 13
REMARK SMILES IDX 6 14 7 15 8 16 4 17
REMARK H PARENT
REMARK Flexibility Score: 60.00
ROOT
ATOM      1  C   UNL     1     212.754 204.899 217.478  1.00  0.00    -0.070 C 
ATOM      2  C   UNL     1     212.765 206.202 217.115  1.00  0.00    -0.027 C 
ATOM      3  C   UNL     1     211.599 204.404 218.311  1.00  0.00     0.039 C 
ENDROOT
BRANCH   2   4
ATOM      4  C   UNL     1     213.757 206.827 216.167  1.00  0.00     0.032 C 
BRANCH   4   5
ATOM      5  C   UNL     1     213.216 206.770 214.735  1.00  0.00     0.034 C 
BRANCH   5   6
ATOM      6  C   UNL     1     214.125 205.995 213.802  1.00  0.00    -0.077 C 
ATOM      7  C   UNL     1     215.279 206.718 213.153  1.00  0.00     0.039 C 
ATOM      8  C   UNL     1     213.917 204.699 213.457  1.00  0.00    -0.023 CG0
ATOM      9  G   UNL     1     212.869 203.752 214.014  1.00  0.00     0.000 G0
ENDBRANCH   5   6
ENDBRANCH   4   5
ENDBRANCH   2   4
BRANCH   1  10
ATOM     10  C   UNL     1     213.850 203.921 217.106  1.00  0.00     0.111 C 
BRANCH  10  11
ATOM     11  C   UNL     1     213.310 202.730 216.350  1.00  0.00     0.163 C 
ATOM     12  O   UNL     1     212.785 201.808 217.030  1.00  0.00    -0.294 OA
BRANCH  11  13
ATOM     13  C   UNL     1     213.388 202.584 214.858  1.00  0.00    -0.002 C 
ATOM     14  C   UNL     1     214.052 201.527 214.297  1.00  0.00    -0.069 C 
ATOM     15  C   UNL     1     214.354 201.464 212.816  1.00  0.00     0.039 C 
ATOM     16  C   UNL     1     214.476 200.333 215.122  1.00  0.00     0.039 C 
BRANCH  13  17
ATOM     17  C   UNL     1     212.871 203.736 214.002  1.00  0.00     0.066 CG0
ATOM     18  G   UNL     1     213.915 204.694 213.457  1.00  0.00     0.000 G0
ENDBRANCH  13  17
ENDBRANCH  11  13
ENDBRANCH  10  11
ENDBRANCH   1  10
TORSDOF 0
ENDMDL
MODEL 3
REMARK VINA RESULT:    -4.164     13.327     15.982
REMARK INTER + INTRA:          -5.256
REMARK INTER:                  -5.947
REMARK INTRA:                   0.690
REMARK UNBOUND:                 0.612
REMARK SMILES CC1=CCC(=C(C)C)C(=O)CC(C)=CCC1
REMARK SMILES IDX 12 1 14 2 13 3 15 4 16 5 2 6 1 7 3 8 11 10 9 11 10 12 5 13
REMARK SMILES IDX 6 14 7 15 8 16 4 17
REMARK H PARENT
REMARK Flexibility Score: 60.00
ROOT
ATOM      1  C   UNL     1     199.480 207.800 217.488  1.00  0.00    -0.070 C 
ATOM      2  C   UNL     1     199.259 206.681 216.761  1.00  0.00    -0.027 C 
ATOM      3  C   UNL     1     200.732 207.868 218.324  1.00  0.00     0.039 C 
ENDROOT
BRANCH   2   4
ATOM      4  C   UNL     1     198.143 206.505 215.762  1.00  0.00     0.032 C 
BRANCH   4   5
ATOM      5  C   UNL     1     198.726 206.235 214.372  1.00  0.00     0.034 C 
BRANCH   5   6
ATOM      6  C   UNL     1     199.796 207.236 213.987  1.00  0.00    -0.077 C 
ATOM      7  C   UNL     1     201.178 206.727 213.660  1.00  0.00     0.039 C 
ATOM      8  C   UNL     1     199.602 208.579 213.988  1.00  0.00    -0.023 CG0
ATOM      9  G   UNL     1     198.299 209.323 214.223  1.00  0.00     0.000 G0
ENDBRANCH   5   6
ENDBRANCH   4   5
ENDBRANCH   2   4
BRANCH   1  10
ATOM     10  C   UNL     1     198.525 208.977 217.517  1.00  0.00     0.111 C 
BRANCH  10  11
ATOM     11  C   UNL     1     198.979 210.094 216.606  1.00  0.00     0.163 C 
ATOM     12  O   UNL     1     199.953 210.792 216.996  1.00  0.00    -0.294 OA
BRANCH  11  13
ATOM     13  C   UNL     1     198.323 210.418 215.295  1.00  0.00    -0.002 C 
ATOM     14  C   UNL     1     197.635 211.590 215.135  1.00  0.00    -0.069 C 
ATOM     15  C   UNL     1     196.770 211.853 213.921  1.00  0.00     0.039 C 
ATOM     16  C   UNL     1     197.743 212.714 216.141  1.00  0.00     0.039 C 
BRANCH  13  17
ATOM     17  C   UNL     1     198.293 209.332 214.226  1.00  0.00     0.066 CG0
ATOM     18  G   UNL     1     199.591 208.581 213.988  1.00  0.00     0.000 G0
ENDBRANCH  13  17
ENDBRANCH  11  13
ENDBRANCH  10  11
ENDBRANCH   1  10
TORSDOF 0
ENDMDL
MODEL 4
REMARK VINA RESULT:    -4.066     13.866     15.157
REMARK INTER + INTRA:          -5.119
REMARK INTER:                  -5.546
REMARK INTRA:                   0.427
REMARK UNBOUND:                 0.612
REMARK SMILES CC1=CCC(=C(C)C)C(=O)CC(C)=CCC1
REMARK SMILES IDX 12 1 14 2 13 3 15 4 16 5 2 6 1 7 3 8 11 10 9 11 10 12 5 13
REMARK SMILES IDX 6 14 7 15 8 16 4 17
REMARK H PARENT
REMARK Flexibility Score: 60.00
ROOT
ATOM      1  C   UNL     1     199.699 207.762 217.742  1.00  0.00    -0.070 C 
ATOM      2  C   UNL     1     198.807 208.772 217.874  1.00  0.00    -0.027 C 
ATOM      3  C   UNL     1     200.914 207.768 218.634  1.00  0.00     0.039 C 
ENDROOT
BRANCH   2   4
ATOM      4  C   UNL     1     197.475 208.845 217.173  1.00  0.00     0.032 C 
BRANCH   4   5
ATOM      5  C   UNL     1     197.393 210.129 216.342  1.00  0.00     0.034 C 
BRANCH   5   6
ATOM      6  C   UNL     1     198.677 210.418 215.592  1.00  0.00    -0.077 C 
ATOM      7  C   UNL     1     199.532 211.578 216.042  1.00  0.00     0.039 C 
ATOM      8  C   UNL     1     199.071 209.736 214.487  1.00  0.00    -0.023 CG0
ATOM      9  G   UNL     1     198.418 208.506 213.881  1.00  0.00     0.000 G0
ENDBRANCH   5   6
ENDBRANCH   4   5
ENDBRANCH   2   4
BRANCH   1  10
ATOM     10  C   UNL     1     199.545 206.641 216.734  1.00  0.00     0.111 C 
BRANCH  10  11
ATOM     11  C   UNL     1     199.994 207.059 215.353  1.00  0.00     0.163 C 
ATOM     12  O   UNL     1     201.210 207.359 215.212  1.00  0.00    -0.294 OA
BRANCH  11  13
ATOM     13  C   UNL     1     199.075 207.155 214.171  1.00  0.00    -0.002 C 
ATOM     14  C   UNL     1     198.973 206.117 213.285  1.00  0.00    -0.069 C 
ATOM     15  C   UNL     1     198.244 206.257 211.967  1.00  0.00     0.039 C 
ATOM     16  C   UNL     1     199.540 204.751 213.599  1.00  0.00     0.039 C 
BRANCH  13  17
ATOM     17  C   UNL     1     198.410 208.499 213.893  1.00  0.00     0.066 CG0
ATOM     18  G   UNL     1     199.077 209.721 214.499  1.00  0.00     0.000 G0
ENDBRANCH  13  17
ENDBRANCH  11  13
ENDBRANCH  10  11
ENDBRANCH   1  10
TORSDOF 0
ENDMDL
MODEL 5
REMARK VINA RESULT:    -3.980      1.635      3.882
REMARK INTER + INTRA:          -4.996
REMARK INTER:                  -5.574
REMARK INTRA:                   0.578
REMARK UNBOUND:                 0.612
REMARK SMILES CC1=CCC(=C(C)C)C(=O)CC(C)=CCC1
REMARK SMILES IDX 12 1 14 2 13 3 15 4 16 5 2 6 1 7 3 8 11 10 9 11 10 12 5 13
REMARK SMILES IDX 6 14 7 15 8 16 4 17
REMARK H PARENT
REMARK Flexibility Score: 60.00
ROOT
ATOM      1  C   UNL     1     212.770 204.532 217.590  1.00  0.00    -0.070 C 
ATOM      2  C   UNL     1     213.574 203.445 217.637  1.00  0.00    -0.027 C 
ATOM      3  C   UNL     1     211.625 204.611 218.566  1.00  0.00     0.039 C 
ENDROOT
BRANCH   2   4
ATOM      4  C   UNL     1     214.843 203.273 216.841  1.00  0.00     0.032 C 
BRANCH   4   5
ATOM      5  C   UNL     1     214.769 201.985 216.014  1.00  0.00     0.034 C 
BRANCH   5   6
ATOM      6  C   UNL     1     213.452 201.844 215.278  1.00  0.00    -0.077 C 
ATOM      7  C   UNL     1     212.494 200.761 215.711  1.00  0.00     0.039 C 
ATOM      8  C   UNL     1     213.111 202.592 214.198  1.00  0.00    -0.023 CG0
ATOM      9  G   UNL     1     213.873 203.768 213.614  1.00  0.00     0.000 G0
ENDBRANCH   5   6
ENDBRANCH   4   5
ENDBRANCH   2   4
BRANCH   1  10
ATOM     10  C   UNL     1     212.955 205.662 216.597  1.00  0.00     0.111 C 
BRANCH  10  11
ATOM     11  C   UNL     1     212.503 205.272 215.209  1.00  0.00     0.163 C 
ATOM     12  O   UNL     1     211.279 205.010 215.057  1.00  0.00    -0.294 OA
BRANCH  11  13
ATOM     13  C   UNL     1     213.427 205.160 214.032  1.00  0.00    -0.002 C 
ATOM     14  C   UNL     1     213.723 206.261 213.274  1.00  0.00    -0.069 C 
ATOM     15  C   UNL     1     214.455 206.154 211.955  1.00  0.00     0.039 C 
ATOM     16  C   UNL     1     213.378 207.657 213.741  1.00  0.00     0.039 C 
BRANCH  13  17
ATOM     17  C   UNL     1     213.871 203.766 213.605  1.00  0.00     0.066 CG0
ATOM     18  G   UNL     1     213.094 202.600 214.192  1.00  0.00     0.000 G0
ENDBRANCH  13  17
ENDBRANCH  11  13
ENDBRANCH  10  11
ENDBRANCH   1  10
TORSDOF 0
ENDMDL
MODEL 6
REMARK VINA RESULT:    -3.955      1.677      4.175
REMARK INTER + INTRA:          -4.962
REMARK INTER:                  -5.154
REMARK INTRA:                   0.193
REMARK UNBOUND:                 0.612
REMARK SMILES CC1=CCC(=C(C)C)C(=O)CC(C)=CCC1
REMARK SMILES IDX 12 1 14 2 13 3 15 4 16 5 2 6 1 7 3 8 11 10 9 11 10 12 5 13
REMARK SMILES IDX 6 14 7 15 8 16 4 17
REMARK H PARENT
REMARK Flexibility Score: 60.00
ROOT
ATOM      1  C   UNL     1     212.798 203.889 217.580  1.00  0.00    -0.070 C 
ATOM      2  C   UNL     1     212.637 202.598 217.206  1.00  0.00    -0.027 C 
ATOM      3  C   UNL     1     211.840 204.459 218.595  1.00  0.00     0.039 C 
ENDROOT
BRANCH   2   4
ATOM      4  C   UNL     1     213.586 201.829 216.322  1.00  0.00     0.032 C 
BRANCH   4   5
ATOM      5  C   UNL     1     212.952 201.611 214.945  1.00  0.00     0.034 C 
BRANCH   5   6
ATOM      6  C   UNL     1     213.796 202.175 213.821  1.00  0.00    -0.077 C 
ATOM      7  C   UNL     1     214.806 201.276 213.153  1.00  0.00     0.039 C 
ATOM      8  C   UNL     1     213.749 203.473 213.425  1.00  0.00    -0.023 CG0
ATOM      9  G   UNL     1     212.786 204.547 213.900  1.00  0.00     0.000 G0
ENDBRANCH   5   6
ENDBRANCH   4   5
ENDBRANCH   2   4
BRANCH   1  10
ATOM     10  C   UNL     1     213.879 204.790 217.018  1.00  0.00     0.111 C 
BRANCH  10  11
ATOM     11  C   UNL     1     213.312 205.839 216.091  1.00  0.00     0.163 C 
ATOM     12  O   UNL     1     212.718 206.815 216.624  1.00  0.00    -0.294 OA
BRANCH  11  13
ATOM     13  C   UNL     1     213.400 205.765 214.594  1.00  0.00    -0.002 C 
ATOM     14  C   UNL     1     213.870 206.828 213.872  1.00  0.00    -0.069 C 
ATOM     15  C   UNL     1     213.760 206.886 212.365  1.00  0.00     0.039 C 
ATOM     16  C   UNL     1     214.577 207.986 214.541  1.00  0.00     0.039 C 
BRANCH  13  17
ATOM     17  C   UNL     1     212.782 204.554 213.904  1.00  0.00     0.066 CG0
ATOM     18  G   UNL     1     213.748 203.488 213.417  1.00  0.00     0.000 G0
ENDBRANCH  13  17
ENDBRANCH  11  13
ENDBRANCH  10  11
ENDBRANCH   1  10
TORSDOF 0
ENDMDL
MODEL 7
REMARK VINA RESULT:    -3.952     13.056     15.091
REMARK INTER + INTRA:          -4.957
REMARK INTER:                  -5.409
REMARK INTRA:                   0.453
REMARK UNBOUND:                 0.612
REMARK SMILES CC1=CCC(=C(C)C)C(=O)CC(C)=CCC1
REMARK SMILES IDX 12 1 14 2 13 3 15 4 16 5 2 6 1 7 3 8 11 10 9 11 10 12 5 13
REMARK SMILES IDX 6 14 7 15 8 16 4 17
REMARK H PARENT
REMARK Flexibility Score: 60.00
ROOT
ATOM      1  C   UNL     1     198.155 207.733 217.163  1.00  0.00    -0.070 C 
ATOM      2  C   UNL     1     197.875 206.479 216.738  1.00  0.00    -0.027 C 
ATOM      3  C   UNL     1     197.001 208.637 217.516  1.00  0.00     0.039 C 
ENDROOT
BRANCH   2   4
ATOM      4  C   UNL     1     198.901 205.403 216.487  1.00  0.00     0.032 C 
BRANCH   4   5
ATOM      5  C   UNL     1     198.669 204.775 215.109  1.00  0.00     0.034 C 
BRANCH   5   6
ATOM      6  C   UNL     1     199.769 205.116 214.124  1.00  0.00    -0.077 C 
ATOM      7  C   UNL     1     200.768 204.047 213.757  1.00  0.00     0.039 C 
ATOM      8  C   UNL     1     199.953 206.356 213.604  1.00  0.00    -0.023 CG0
ATOM      9  G   UNL     1     199.057 207.570 213.774  1.00  0.00     0.000 G0
ENDBRANCH   5   6
ENDBRANCH   4   5
ENDBRANCH   2   4
BRANCH   1  10
ATOM     10  C   UNL     1     199.564 208.277 217.283  1.00  0.00     0.111 C 
BRANCH  10  11
ATOM     11  C   UNL     1     200.274 208.302 215.950  1.00  0.00     0.163 C 
ATOM     12  O   UNL     1     201.495 207.989 215.944  1.00  0.00    -0.294 OA
BRANCH  11  13
ATOM     13  C   UNL     1     199.614 208.697 214.661  1.00  0.00    -0.002 C 
ATOM     14  C   UNL     1     199.371 210.015 214.381  1.00  0.00    -0.069 C 
ATOM     15  C   UNL     1     198.507 210.440 213.214  1.00  0.00     0.039 C 
ATOM     16  C   UNL     1     199.998 211.124 215.194  1.00  0.00     0.039 C 
BRANCH  13  17
ATOM     17  C   UNL     1     199.063 207.587 213.774  1.00  0.00     0.066 CG0
ATOM     18  G   UNL     1     199.938 206.356 213.611  1.00  0.00     0.000 G0
ENDBRANCH  13  17
ENDBRANCH  11  13
ENDBRANCH  10  11
ENDBRANCH   1  10
TORSDOF 0
ENDMDL
MODEL 8
REMARK VINA RESULT:    -3.950      1.785      4.546
REMARK INTER + INTRA:          -4.955
REMARK INTER:                  -5.222
REMARK INTRA:                   0.267
REMARK UNBOUND:                 0.612
REMARK SMILES CC1=CCC(=C(C)C)C(=O)CC(C)=CCC1
REMARK SMILES IDX 12 1 14 2 13 3 15 4 16 5 2 6 1 7 3 8 11 10 9 11 10 12 5 13
REMARK SMILES IDX 6 14 7 15 8 16 4 17
REMARK H PARENT
REMARK Flexibility Score: 60.00
ROOT
ATOM      1  C   UNL     1     212.668 202.693 214.092  1.00  0.00    -0.070 C 
ATOM      2  C   UNL     1     213.591 202.478 213.126  1.00  0.00    -0.027 C 
ATOM      3  C   UNL     1     212.243 204.113 214.364  1.00  0.00     0.039 C 
ENDROOT
BRANCH   2   4
ATOM      4  C   UNL     1     214.019 201.122 212.625  1.00  0.00     0.032 C 
BRANCH   4   5
ATOM      5  C   UNL     1     215.427 200.798 213.136  1.00  0.00     0.034 C 
BRANCH   5   6
ATOM      6  C   UNL     1     215.412 199.846 214.315  1.00  0.00    -0.077 C 
ATOM      7  C   UNL     1     215.460 198.363 214.047  1.00  0.00     0.039 C 
ATOM      8  C   UNL     1     215.283 200.250 215.604  1.00  0.00    -0.023 CG0
ATOM      9  G   UNL     1     215.274 201.676 216.128  1.00  0.00     0.000 G0
ENDBRANCH   5   6
ENDBRANCH   4   5
ENDBRANCH   2   4
BRANCH   1  10
ATOM     10  C   UNL     1     212.058 201.582 214.923  1.00  0.00     0.111 C 
BRANCH  10  11
ATOM     11  C   UNL     1     212.701 201.478 216.286  1.00  0.00     0.163 C 
ATOM     12  O   UNL     1     212.124 200.750 217.138  1.00  0.00    -0.294 OA
BRANCH  11  13
ATOM     13  C   UNL     1     213.956 202.205 216.673  1.00  0.00    -0.002 C 
ATOM     14  C   UNL     1     213.889 203.396 217.343  1.00  0.00    -0.069 C 
ATOM     15  C   UNL     1     215.107 204.271 217.547  1.00  0.00     0.039 C 
ATOM     16  C   UNL     1     212.600 203.881 217.967  1.00  0.00     0.039 C 
BRANCH  13  17
ATOM     17  C   UNL     1     215.280 201.673 216.137  1.00  0.00     0.066 CG0
ATOM     18  G   UNL     1     215.272 200.251 215.605  1.00  0.00     0.000 G0
ENDBRANCH  13  17
ENDBRANCH  11  13
ENDBRANCH  10  11
ENDBRANCH   1  10
TORSDOF 0
ENDMDL
MODEL 9
REMARK VINA RESULT:    -3.913     13.894     14.668
REMARK INTER + INTRA:          -4.902
REMARK INTER:                  -5.161
REMARK INTRA:                   0.259
REMARK UNBOUND:                 0.612
REMARK SMILES CC1=CCC(=C(C)C)C(=O)CC(C)=CCC1
REMARK SMILES IDX 12 1 14 2 13 3 15 4 16 5 2 6 1 7 3 8 11 10 9 11 10 12 5 13
REMARK SMILES IDX 6 14 7 15 8 16 4 17
REMARK H PARENT
REMARK Flexibility Score: 60.00
ROOT
ATOM      1  C   UNL     1     199.339 208.699 217.534  1.00  0.00    -0.070 C 
ATOM      2  C   UNL     1     199.609 209.948 217.088  1.00  0.00    -0.027 C 
ATOM      3  C   UNL     1     199.984 208.250 218.820  1.00  0.00     0.039 C 
ENDROOT
BRANCH   2   4
ATOM      4  C   UNL     1     198.939 210.608 215.909  1.00  0.00     0.032 C 
BRANCH   4   5
ATOM      5  C   UNL     1     199.841 210.507 214.675  1.00  0.00     0.034 C 
BRANCH   5   6
ATOM      6  C   UNL     1     199.167 209.791 213.522  1.00  0.00    -0.077 C 
ATOM      7  C   UNL     1     198.246 210.577 212.622  1.00  0.00     0.039 C 
ATOM      8  C   UNL     1     199.288 208.459 213.292  1.00  0.00    -0.023 CG0
ATOM      9  G   UNL     1     200.191 207.476 214.016  1.00  0.00     0.000 G0
ENDBRANCH   5   6
ENDBRANCH   4   5
ENDBRANCH   2   4
BRANCH   1  10
ATOM     10  C   UNL     1     198.437 207.728 216.798  1.00  0.00     0.111 C 
BRANCH  10  11
ATOM     11  C   UNL     1     199.208 206.552 216.245  1.00  0.00     0.163 C 
ATOM     12  O   UNL     1     199.656 205.718 217.078  1.00  0.00    -0.294 OA
BRANCH  11  13
ATOM     13  C   UNL     1     199.480 206.346 214.784  1.00  0.00    -0.002 C 
ATOM     14  C   UNL     1     199.250 205.130 214.199  1.00  0.00    -0.069 C 
ATOM     15  C   UNL     1     199.724 204.811 212.799  1.00  0.00     0.039 C 
ATOM     16  C   UNL     1     198.461 204.051 214.906  1.00  0.00     0.039 C 
BRANCH  13  17
ATOM     17  C   UNL     1     200.185 207.465 214.026  1.00  0.00     0.066 CG0
ATOM     18  G   UNL     1     199.292 208.455 213.298  1.00  0.00     0.000 G0
ENDBRANCH  13  17
ENDBRANCH  11  13
ENDBRANCH  10  11
ENDBRANCH   1  10
TORSDOF 0
ENDMDL
