MODEL 1
REMARK VINA RESULT:    -4.994      0.000      0.000
REMARK INTER + INTRA:          -8.249
REMARK INTER:                  -7.621
REMARK INTRA:                  -0.628
REMARK UNBOUND:                -0.628
REMARK SMILES CCCCCCCCCCC(=O)[O-]
REMARK SMILES IDX 7 1 8 2 9 3 10 4 11 5 12 6 13 7 6 8 5 9 4 10 3 11 2 12 1 13
REMARK H PARENT
REMARK Flexibility Score: inf
ROOT
ATOM      1  C   UNL     1      46.468 -45.782 165.434  1.00  0.00     0.000 C 
ENDROOT
BRANCH   1   2
ATOM      2  C   UNL     1      45.230 -46.318 164.696  1.00  0.00     0.000 C 
BRANCH   2   3
ATOM      3  C   UNL     1      45.331 -46.318 163.157  1.00  0.00     0.006 C 
BRANCH   3   4
ATOM      4  C   UNL     1      44.866 -47.630 162.498  1.00  0.00     0.053 C 
BRANCH   4   5
ATOM      5  C   UNL     1      45.479 -48.843 163.131  1.00  0.00     0.041 C 
ATOM      6  O   UNL     1      46.687 -49.130 162.917  1.00  0.00    -0.550 OA
ATOM      7  O   UNL     1      44.729 -49.634 163.992  1.00  0.00    -0.550 OA
ENDBRANCH   4   5
ENDBRANCH   3   4
ENDBRANCH   2   3
ENDBRANCH   1   2
BRANCH   1   8
ATOM      8  C   UNL     1      47.741 -46.588 165.135  1.00  0.00     0.000 C 
BRANCH   8   9
ATOM      9  C   UNL     1      48.776 -45.727 164.400  1.00  0.00    -0.000 C 
BRANCH   9  10
ATOM     10  C   UNL     1      50.204 -46.152 164.763  1.00  0.00    -0.000 C 
BRANCH  10  11
ATOM     11  C   UNL     1      50.261 -47.643 165.116  1.00  0.00    -0.000 C 
BRANCH  11  12
ATOM     12  C   UNL     1      51.612 -48.007 165.741  1.00  0.00    -0.003 C 
ATOM     13  C   UNL     1      52.510 -46.779 165.866  1.00  0.00     0.004 C 
ENDBRANCH  11  12
ENDBRANCH  10  11
ENDBRANCH   9  10
ENDBRANCH   8   9
ENDBRANCH   1   8
TORSDOF 9
ENDMDL
MODEL 2
REMARK VINA RESULT:    -4.975      4.130      7.804
REMARK INTER + INTRA:          -8.220
REMARK INTER:                  -7.462
REMARK INTRA:                  -0.758
REMARK UNBOUND:                -0.628
REMARK SMILES CCCCCCCCCCC(=O)[O-]
REMARK SMILES IDX 7 1 8 2 9 3 10 4 11 5 12 6 13 7 6 8 5 9 4 10 3 11 2 12 1 13
REMARK H PARENT
REMARK Flexibility Score: inf
ROOT
ATOM      1  C   UNL     1      43.333 -48.240 165.555  1.00  0.00     0.000 C 
ENDROOT
BRANCH   1   2
ATOM      2  C   UNL     1      44.256 -49.270 164.884  1.00  0.00     0.000 C 
BRANCH   2   3
ATOM      3  C   UNL     1      45.514 -48.686 164.211  1.00  0.00     0.006 C 
BRANCH   3   4
ATOM      4  C   UNL     1      45.504 -48.776 162.674  1.00  0.00     0.053 C 
BRANCH   4   5
ATOM      5  C   UNL     1      44.646 -47.722 162.039  1.00  0.00     0.041 C 
ATOM      6  O   UNL     1      44.620 -46.554 162.512  1.00  0.00    -0.550 OA
ATOM      7  O   UNL     1      43.909 -48.016 160.899  1.00  0.00    -0.550 OA
ENDBRANCH   4   5
ENDBRANCH   3   4
ENDBRANCH   2   3
ENDBRANCH   1   2
BRANCH   1   8
ATOM      8  C   UNL     1      41.877 -48.338 165.077  1.00  0.00     0.000 C 
BRANCH   8   9
ATOM      9  C   UNL     1      41.764 -49.235 163.839  1.00  0.00    -0.000 C 
BRANCH   9  10
ATOM     10  C   UNL     1      40.697 -48.707 162.871  1.00  0.00    -0.000 C 
BRANCH  10  11
ATOM     11  C   UNL     1      39.439 -49.583 162.909  1.00  0.00    -0.000 C 
BRANCH  11  12
ATOM     12  C   UNL     1      38.238 -48.843 162.310  1.00  0.00    -0.003 C 
ATOM     13  C   UNL     1      38.681 -47.846 161.243  1.00  0.00     0.004 C 
ENDBRANCH  11  12
ENDBRANCH  10  11
ENDBRANCH   9  10
ENDBRANCH   8   9
ENDBRANCH   1   8
TORSDOF 9
ENDMDL
MODEL 3
REMARK VINA RESULT:    -4.951      3.867      5.147
REMARK INTER + INTRA:          -8.184
REMARK INTER:                  -7.302
REMARK INTRA:                  -0.882
REMARK UNBOUND:                -0.628
REMARK SMILES CCCCCCCCCCC(=O)[O-]
REMARK SMILES IDX 7 1 8 2 9 3 10 4 11 5 12 6 13 7 6 8 5 9 4 10 3 11 2 12 1 13
REMARK H PARENT
REMARK Flexibility Score: inf
ROOT
ATOM      1  C   UNL     1      43.988 -49.589 164.398  1.00  0.00     0.000 C 
ENDROOT
BRANCH   1   2
ATOM      2  C   UNL     1      43.227 -48.658 165.357  1.00  0.00     0.000 C 
BRANCH   2   3
ATOM      3  C   UNL     1      41.757 -48.386 164.980  1.00  0.00     0.006 C 
BRANCH   3   4
ATOM      4  C   UNL     1      41.439 -48.612 163.491  1.00  0.00     0.053 C 
BRANCH   4   5
ATOM      5  C   UNL     1      40.376 -49.649 163.278  1.00  0.00     0.041 C 
ATOM      6  O   UNL     1      40.576 -50.844 163.623  1.00  0.00    -0.550 OA
ATOM      7  O   UNL     1      39.148 -49.288 162.740  1.00  0.00    -0.550 OA
ENDBRANCH   4   5
ENDBRANCH   3   4
ENDBRANCH   2   3
ENDBRANCH   1   2
BRANCH   1   8
ATOM      8  C   UNL     1      45.501 -49.328 164.383  1.00  0.00     0.000 C 
BRANCH   8   9
ATOM      9  C   UNL     1      45.945 -48.744 163.035  1.00  0.00    -0.000 C 
BRANCH   9  10
ATOM     10  C   UNL     1      45.192 -47.445 162.723  1.00  0.00    -0.000 C 
BRANCH  10  11
ATOM     11  C   UNL     1      45.863 -46.244 163.399  1.00  0.00    -0.000 C 
BRANCH  11  12
ATOM     12  C   UNL     1      45.107 -45.835 164.667  1.00  0.00    -0.003 C 
ATOM     13  C   UNL     1      46.060 -45.674 165.849  1.00  0.00     0.004 C 
ENDBRANCH  11  12
ENDBRANCH  10  11
ENDBRANCH   9  10
ENDBRANCH   8   9
ENDBRANCH   1   8
TORSDOF 9
ENDMDL
MODEL 4
REMARK VINA RESULT:    -4.930      2.000      2.982
REMARK INTER + INTRA:          -8.152
REMARK INTER:                  -7.456
REMARK INTRA:                  -0.696
REMARK UNBOUND:                -0.628
REMARK SMILES CCCCCCCCCCC(=O)[O-]
REMARK SMILES IDX 7 1 8 2 9 3 10 4 11 5 12 6 13 7 6 8 5 9 4 10 3 11 2 12 1 13
REMARK H PARENT
REMARK Flexibility Score: inf
ROOT
ATOM      1  C   UNL     1      46.330 -49.435 162.851  1.00  0.00     0.000 C 
ENDROOT
BRANCH   1   2
ATOM      2  C   UNL     1      45.362 -49.532 164.042  1.00  0.00     0.000 C 
BRANCH   2   3
ATOM      3  C   UNL     1      44.188 -48.533 164.019  1.00  0.00     0.006 C 
BRANCH   3   4
ATOM      4  C   UNL     1      44.301 -47.408 165.064  1.00  0.00     0.053 C 
BRANCH   4   5
ATOM      5  C   UNL     1      45.072 -46.225 164.557  1.00  0.00     0.041 C 
ATOM      6  O   UNL     1      45.472 -45.338 165.357  1.00  0.00    -0.550 OA
ATOM      7  O   UNL     1      45.386 -46.123 163.209  1.00  0.00    -0.550 OA
ENDBRANCH   4   5
ENDBRANCH   3   4
ENDBRANCH   2   3
ENDBRANCH   1   2
BRANCH   1   8
ATOM      8  C   UNL     1      47.785 -49.198 163.278  1.00  0.00     0.000 C 
BRANCH   8   9
ATOM      9  C   UNL     1      47.852 -48.544 164.664  1.00  0.00    -0.000 C 
BRANCH   9  10
ATOM     10  C   UNL     1      49.076 -47.627 164.783  1.00  0.00    -0.000 C 
BRANCH  10  11
ATOM     11  C   UNL     1      50.231 -48.343 165.493  1.00  0.00    -0.000 C 
BRANCH  11  12
ATOM     12  C   UNL     1      51.455 -47.427 165.607  1.00  0.00    -0.003 C 
ATOM     13  C   UNL     1      51.141 -46.022 165.101  1.00  0.00     0.004 C 
ENDBRANCH  11  12
ENDBRANCH  10  11
ENDBRANCH   9  10
ENDBRANCH   8   9
ENDBRANCH   1   8
TORSDOF 9
ENDMDL
MODEL 5
REMARK VINA RESULT:    -4.929      2.909      5.876
REMARK INTER + INTRA:          -8.150
REMARK INTER:                  -7.260
REMARK INTRA:                  -0.890
REMARK UNBOUND:                -0.628
REMARK SMILES CCCCCCCCCCC(=O)[O-]
REMARK SMILES IDX 7 1 8 2 9 3 10 4 11 5 12 6 13 7 6 8 5 9 4 10 3 11 2 12 1 13
REMARK H PARENT
REMARK Flexibility Score: inf
ROOT
ATOM      1  C   UNL     1      48.361 -49.414 163.361  1.00  0.00     0.000 C 
ENDROOT
BRANCH   1   2
ATOM      2  C   UNL     1      48.238 -48.701 164.718  1.00  0.00     0.000 C 
BRANCH   2   3
ATOM      3  C   UNL     1      49.232 -47.544 164.945  1.00  0.00     0.006 C 
BRANCH   3   4
ATOM      4  C   UNL     1      50.590 -47.986 165.519  1.00  0.00     0.053 C 
BRANCH   4   5
ATOM      5  C   UNL     1      51.605 -46.881 165.518  1.00  0.00     0.041 C 
ATOM      6  O   UNL     1      51.327 -45.764 165.007  1.00  0.00    -0.550 OA
ATOM      7  O   UNL     1      52.841 -47.070 166.121  1.00  0.00    -0.550 OA
ENDBRANCH   4   5
ENDBRANCH   3   4
ENDBRANCH   2   3
ENDBRANCH   1   2
BRANCH   1   8
ATOM      8  C   UNL     1      47.008 -49.611 162.662  1.00  0.00     0.000 C 
BRANCH   8   9
ATOM      9  C   UNL     1      45.870 -48.995 163.485  1.00  0.00    -0.000 C 
BRANCH   9  10
ATOM     10  C   UNL     1      45.120 -47.929 162.676  1.00  0.00    -0.000 C 
BRANCH  10  11
ATOM     11  C   UNL     1      45.419 -46.523 163.210  1.00  0.00    -0.000 C 
BRANCH  11  12
ATOM     12  C   UNL     1      44.929 -46.368 164.654  1.00  0.00    -0.003 C 
ATOM     13  C   UNL     1      45.985 -45.693 165.525  1.00  0.00     0.004 C 
ENDBRANCH  11  12
ENDBRANCH  10  11
ENDBRANCH   9  10
ENDBRANCH   8   9
ENDBRANCH   1   8
TORSDOF 9
ENDMDL
MODEL 6
REMARK VINA RESULT:    -4.926      1.262      1.773
REMARK INTER + INTRA:          -8.146
REMARK INTER:                  -7.660
REMARK INTRA:                  -0.486
REMARK UNBOUND:                -0.628
REMARK SMILES CCCCCCCCCCC(=O)[O-]
REMARK SMILES IDX 7 1 8 2 9 3 10 4 11 5 12 6 13 7 6 8 5 9 4 10 3 11 2 12 1 13
REMARK H PARENT
REMARK Flexibility Score: inf
ROOT
ATOM      1  C   UNL     1      47.400 -45.930 165.410  1.00  0.00     0.000 C 
ENDROOT
BRANCH   1   2
ATOM      2  C   UNL     1      45.878 -45.727 165.498  1.00  0.00     0.000 C 
BRANCH   2   3
ATOM      3  C   UNL     1      45.032 -46.760 164.728  1.00  0.00     0.006 C 
BRANCH   3   4
ATOM      4  C   UNL     1      44.695 -46.344 163.284  1.00  0.00     0.053 C 
BRANCH   4   5
ATOM      5  C   UNL     1      44.372 -47.516 162.406  1.00  0.00     0.041 C 
ATOM      6  O   UNL     1      43.221 -47.639 161.909  1.00  0.00    -0.550 OA
ATOM      7  O   UNL     1      45.353 -48.451 162.101  1.00  0.00    -0.550 OA
ENDBRANCH   4   5
ENDBRANCH   3   4
ENDBRANCH   2   3
ENDBRANCH   1   2
BRANCH   1   8
ATOM      8  C   UNL     1      47.792 -47.246 164.723  1.00  0.00     0.000 C 
BRANCH   8   9
ATOM      9  C   UNL     1      49.311 -47.453 164.759  1.00  0.00    -0.000 C 
BRANCH   9  10
ATOM     10  C   UNL     1      50.051 -46.110 164.752  1.00  0.00    -0.000 C 
BRANCH  10  11
ATOM     11  C   UNL     1      51.399 -46.221 165.475  1.00  0.00    -0.000 C 
BRANCH  11  12
ATOM     12  C   UNL     1      51.814 -47.687 165.638  1.00  0.00    -0.003 C 
ATOM     13  C   UNL     1      53.326 -47.816 165.808  1.00  0.00     0.004 C 
ENDBRANCH  11  12
ENDBRANCH  10  11
ENDBRANCH   9  10
ENDBRANCH   8   9
ENDBRANCH   1   8
TORSDOF 9
ENDMDL
MODEL 7
REMARK VINA RESULT:    -4.881      4.983      6.636
REMARK INTER + INTRA:          -8.077
REMARK INTER:                  -7.187
REMARK INTRA:                  -0.890
REMARK UNBOUND:                -0.628
REMARK SMILES CCCCCCCCCCC(=O)[O-]
REMARK SMILES IDX 7 1 8 2 9 3 10 4 11 5 12 6 13 7 6 8 5 9 4 10 3 11 2 12 1 13
REMARK H PARENT
REMARK Flexibility Score: inf
ROOT
ATOM      1  C   UNL     1      41.917 -48.374 165.236  1.00  0.00     0.000 C 
ENDROOT
BRANCH   1   2
ATOM      2  C   UNL     1      41.849 -49.141 163.905  1.00  0.00     0.000 C 
BRANCH   2   3
ATOM      3  C   UNL     1      40.815 -48.609 162.892  1.00  0.00     0.006 C 
BRANCH   3   4
ATOM      4  C   UNL     1      39.487 -49.389 162.882  1.00  0.00     0.053 C 
BRANCH   4   5
ATOM      5  C   UNL     1      38.385 -48.644 162.189  1.00  0.00     0.041 C 
ATOM      6  O   UNL     1      38.655 -47.703 161.396  1.00  0.00    -0.550 OA
ATOM      7  O   UNL     1      37.062 -49.016 162.386  1.00  0.00    -0.550 OA
ENDBRANCH   4   5
ENDBRANCH   3   4
ENDBRANCH   2   3
ENDBRANCH   1   2
BRANCH   1   8
ATOM      8  C   UNL     1      43.341 -48.280 165.802  1.00  0.00     0.000 C 
BRANCH   8   9
ATOM      9  C   UNL     1      44.386 -48.457 164.693  1.00  0.00    -0.000 C 
BRANCH   9  10
ATOM     10  C   UNL     1      44.894 -47.099 164.192  1.00  0.00    -0.000 C 
BRANCH  10  11
ATOM     11  C   UNL     1      44.374 -46.804 162.780  1.00  0.00    -0.000 C 
BRANCH  11  12
ATOM     12  C   UNL     1      44.835 -47.880 161.791  1.00  0.00    -0.003 C 
ATOM     13  C   UNL     1      43.843 -48.031 160.640  1.00  0.00     0.004 C 
ENDBRANCH  11  12
ENDBRANCH  10  11
ENDBRANCH   9  10
ENDBRANCH   8   9
ENDBRANCH   1   8
TORSDOF 9
ENDMDL
MODEL 8
REMARK VINA RESULT:    -4.867      8.460     12.340
REMARK INTER + INTRA:          -8.056
REMARK INTER:                  -7.064
REMARK INTRA:                  -0.992
REMARK UNBOUND:                -0.628
REMARK SMILES CCCCCCCCCCC(=O)[O-]
REMARK SMILES IDX 7 1 8 2 9 3 10 4 11 5 12 6 13 7 6 8 5 9 4 10 3 11 2 12 1 13
REMARK H PARENT
REMARK Flexibility Score: inf
ROOT
ATOM      1  C   UNL     1      36.497 -50.715 162.544  1.00  0.00     0.000 C 
ENDROOT
BRANCH   1   2
ATOM      2  C   UNL     1      36.884 -49.241 162.343  1.00  0.00     0.000 C 
BRANCH   2   3
ATOM      3  C   UNL     1      38.400 -48.956 162.322  1.00  0.00     0.006 C 
BRANCH   3   4
ATOM      4  C   UNL     1      38.818 -47.854 161.332  1.00  0.00     0.053 C 
BRANCH   4   5
ATOM      5  C   UNL     1      40.142 -47.239 161.676  1.00  0.00     0.041 C 
ATOM      6  O   UNL     1      40.411 -46.064 161.312  1.00  0.00    -0.550 OA
ATOM      7  O   UNL     1      41.062 -47.949 162.437  1.00  0.00    -0.550 OA
ENDBRANCH   4   5
ENDBRANCH   3   4
ENDBRANCH   2   3
ENDBRANCH   1   2
BRANCH   1   8
ATOM      8  C   UNL     1      35.610 -51.262 161.417  1.00  0.00     0.000 C 
BRANCH   8   9
ATOM      9  C   UNL     1      34.926 -50.121 160.654  1.00  0.00    -0.000 C 
BRANCH   9  10
ATOM     10  C   UNL     1      35.323 -50.134 159.172  1.00  0.00    -0.000 C 
BRANCH  10  11
ATOM     11  C   UNL     1      35.570 -48.711 158.658  1.00  0.00    -0.000 C 
BRANCH  11  12
ATOM     12  C   UNL     1      34.940 -47.672 159.593  1.00  0.00    -0.003 C 
ATOM     13  C   UNL     1      35.839 -46.447 159.739  1.00  0.00     0.004 C 
ENDBRANCH  11  12
ENDBRANCH  10  11
ENDBRANCH   9  10
ENDBRANCH   8   9
ENDBRANCH   1   8
TORSDOF 9
ENDMDL
MODEL 9
REMARK VINA RESULT:    -4.855      2.894      5.598
REMARK INTER + INTRA:          -8.036
REMARK INTER:                  -7.472
REMARK INTRA:                  -0.564
REMARK UNBOUND:                -0.628
REMARK SMILES CCCCCCCCCCC(=O)[O-]
REMARK SMILES IDX 7 1 8 2 9 3 10 4 11 5 12 6 13 7 6 8 5 9 4 10 3 11 2 12 1 13
REMARK H PARENT
REMARK Flexibility Score: inf
ROOT
ATOM      1  C   UNL     1      52.729 -47.762 165.764  1.00  0.00     0.000 C 
ENDROOT
BRANCH   1   2
ATOM      2  C   UNL     1      52.052 -46.382 165.729  1.00  0.00     0.000 C 
BRANCH   2   3
ATOM      3  C   UNL     1      50.623 -46.365 165.150  1.00  0.00     0.006 C 
BRANCH   3   4
ATOM      4  C   UNL     1      49.929 -47.740 165.153  1.00  0.00     0.053 C 
BRANCH   4   5
ATOM      5  C   UNL     1      48.477 -47.654 164.786  1.00  0.00     0.041 C 
ATOM      6  O   UNL     1      47.892 -48.644 164.270  1.00  0.00    -0.550 OA
ATOM      7  O   UNL     1      47.757 -46.497 165.055  1.00  0.00    -0.550 OA
ENDBRANCH   4   5
ENDBRANCH   3   4
ENDBRANCH   2   3
ENDBRANCH   1   2
BRANCH   1   8
ATOM      8  C   UNL     1      54.239 -47.697 165.492  1.00  0.00     0.000 C 
BRANCH   8   9
ATOM      9  C   UNL     1      55.012 -48.580 166.479  1.00  0.00    -0.000 C 
BRANCH   9  10
ATOM     10  C   UNL     1      54.726 -48.169 167.929  1.00  0.00    -0.000 C 
BRANCH  10  11
ATOM     11  C   UNL     1      54.346 -49.386 168.780  1.00  0.00    -0.000 C 
BRANCH  11  12
ATOM     12  C   UNL     1      53.924 -50.564 167.895  1.00  0.00    -0.003 C 
ATOM     13  C   UNL     1      53.923 -51.872 168.683  1.00  0.00     0.004 C 
ENDBRANCH  11  12
ENDBRANCH  10  11
ENDBRANCH   9  10
ENDBRANCH   8   9
ENDBRANCH   1   8
TORSDOF 9
ENDMDL
