MODEL 1
REMARK VINA RESULT:    -4.378      0.000      0.000
REMARK INTER + INTRA:         -11.008
REMARK INTER:                  -8.472
REMARK INTRA:                  -2.536
REMARK UNBOUND:                -2.536
REMARK SMILES CCCCCCCCCCCCCCCCCC(=O)[O-]
REMARK SMILES IDX 10 1 11 2 12 3 13 4 14 5 15 6 16 7 17 8 18 9 19 10 20 11
REMARK SMILES IDX 9 12 8 13 7 14 6 15 5 16 4 17 3 18 2 19 1 20
REMARK H PARENT
REMARK Flexibility Score: inf
ROOT
ATOM      1  C   UNL     1      16.229  52.129 159.674  1.00  0.00     0.000 C 
ENDROOT
BRANCH   1   2
ATOM      2  C   UNL     1      15.326  51.905 158.449  1.00  0.00     0.000 C 
BRANCH   2   3
ATOM      3  C   UNL     1      13.994  52.668 158.543  1.00  0.00     0.000 C 
BRANCH   3   4
ATOM      4  C   UNL     1      13.615  53.416 157.246  1.00  0.00     0.000 C 
BRANCH   4   5
ATOM      5  C   UNL     1      14.836  53.678 156.348  1.00  0.00     0.000 C 
BRANCH   5   6
ATOM      6  C   UNL     1      14.996  55.174 155.996  1.00  0.00     0.000 C 
BRANCH   6   7
ATOM      7  C   UNL     1      16.345  55.769 156.441  1.00  0.00     0.006 C 
BRANCH   7   8
ATOM      8  C   UNL     1      16.294  56.490 157.795  1.00  0.00     0.053 C 
BRANCH   8   9
ATOM      9  C   UNL     1      17.069  57.772 157.774  1.00  0.00     0.041 C 
ATOM     10  O   UNL     1      16.806  58.690 158.595  1.00  0.00    -0.550 OA
ATOM     11  O   UNL     1      18.068  57.963 156.828  1.00  0.00    -0.550 OA
ENDBRANCH   8   9
ENDBRANCH   7   8
ENDBRANCH   6   7
ENDBRANCH   5   6
ENDBRANCH   4   5
ENDBRANCH   3   4
ENDBRANCH   2   3
ENDBRANCH   1   2
BRANCH   1  12
ATOM     12  C   UNL     1      17.183  53.322 159.493  1.00  0.00     0.000 C 
BRANCH  12  13
ATOM     13  C   UNL     1      18.156  53.125 158.318  1.00  0.00    -0.000 C 
BRANCH  13  14
ATOM     14  C   UNL     1      19.326  54.124 158.346  1.00  0.00    -0.000 C 
BRANCH  14  15
ATOM     15  C   UNL     1      20.420  53.725 159.353  1.00  0.00    -0.000 C 
BRANCH  15  16
ATOM     16  C   UNL     1      20.704  54.833 160.381  1.00  0.00    -0.000 C 
BRANCH  16  17
ATOM     17  C   UNL     1      20.178  54.490 161.785  1.00  0.00    -0.000 C 
BRANCH  17  18
ATOM     18  C   UNL     1      18.858  55.208 162.118  1.00  0.00    -0.000 C 
BRANCH  18  19
ATOM     19  C   UNL     1      18.489  56.355 161.160  1.00  0.00    -0.003 C 
ATOM     20  C   UNL     1      17.722  57.485 161.846  1.00  0.00     0.004 C 
ENDBRANCH  18  19
ENDBRANCH  17  18
ENDBRANCH  16  17
ENDBRANCH  15  16
ENDBRANCH  14  15
ENDBRANCH  13  14
ENDBRANCH  12  13
ENDBRANCH   1  12
TORSDOF 16
ENDMDL
MODEL 2
REMARK VINA RESULT:    -4.368      1.188      5.138
REMARK INTER + INTRA:         -10.990
REMARK INTER:                  -8.263
REMARK INTRA:                  -2.727
REMARK UNBOUND:                -2.536
REMARK SMILES CCCCCCCCCCCCCCCCCC(=O)[O-]
REMARK SMILES IDX 10 1 11 2 12 3 13 4 14 5 15 6 16 7 17 8 18 9 19 10 20 11
REMARK SMILES IDX 9 12 8 13 7 14 6 15 5 16 4 17 3 18 2 19 1 20
REMARK H PARENT
REMARK Flexibility Score: inf
ROOT
ATOM      1  C   UNL     1      17.144  53.238 159.800  1.00  0.00     0.000 C 
ENDROOT
BRANCH   1   2
ATOM      2  C   UNL     1      18.021  53.088 158.546  1.00  0.00     0.000 C 
BRANCH   2   3
ATOM      3  C   UNL     1      19.264  53.995 158.575  1.00  0.00     0.000 C 
BRANCH   3   4
ATOM      4  C   UNL     1      20.190  53.738 159.783  1.00  0.00     0.000 C 
BRANCH   4   5
ATOM      5  C   UNL     1      20.428  55.010 160.615  1.00  0.00     0.000 C 
BRANCH   5   6
ATOM      6  C   UNL     1      19.880  56.277 159.921  1.00  0.00     0.000 C 
BRANCH   6   7
ATOM      7  C   UNL     1      19.256  57.291 160.898  1.00  0.00     0.006 C 
BRANCH   7   8
ATOM      8  C   UNL     1      17.835  57.733 160.519  1.00  0.00     0.053 C 
BRANCH   8   9
ATOM      9  C   UNL     1      17.823  59.095 159.896  1.00  0.00     0.041 C 
ATOM     10  O   UNL     1      16.735  59.705 159.718  1.00  0.00    -0.550 OA
ATOM     11  O   UNL     1      19.013  59.683 159.489  1.00  0.00    -0.550 OA
ENDBRANCH   8   9
ENDBRANCH   7   8
ENDBRANCH   6   7
ENDBRANCH   5   6
ENDBRANCH   4   5
ENDBRANCH   3   4
ENDBRANCH   2   3
ENDBRANCH   1   2
BRANCH   1  12
ATOM     12  C   UNL     1      16.127  52.094 159.949  1.00  0.00     0.000 C 
BRANCH  12  13
ATOM     13  C   UNL     1      15.331  51.842 158.656  1.00  0.00    -0.000 C 
BRANCH  13  14
ATOM     14  C   UNL     1      14.021  52.646 158.603  1.00  0.00    -0.000 C 
BRANCH  14  15
ATOM     15  C   UNL     1      13.817  53.355 157.252  1.00  0.00    -0.000 C 
BRANCH  15  16
ATOM     16  C   UNL     1      14.962  53.078 156.264  1.00  0.00    -0.000 C 
BRANCH  16  17
ATOM     17  C   UNL     1      15.745  54.348 155.890  1.00  0.00    -0.000 C 
BRANCH  17  18
ATOM     18  C   UNL     1      15.255  55.595 156.648  1.00  0.00    -0.000 C 
BRANCH  18  19
ATOM     19  C   UNL     1      16.287  56.210 157.611  1.00  0.00    -0.003 C 
ATOM     20  C   UNL     1      17.500  56.797 156.892  1.00  0.00     0.004 C 
ENDBRANCH  18  19
ENDBRANCH  17  18
ENDBRANCH  16  17
ENDBRANCH  15  16
ENDBRANCH  14  15
ENDBRANCH  13  14
ENDBRANCH  12  13
ENDBRANCH   1  12
TORSDOF 16
ENDMDL
MODEL 3
REMARK VINA RESULT:    -4.347      2.403      4.510
REMARK INTER + INTRA:         -10.949
REMARK INTER:                  -8.650
REMARK INTRA:                  -2.299
REMARK UNBOUND:                -2.536
REMARK SMILES CCCCCCCCCCCCCCCCCC(=O)[O-]
REMARK SMILES IDX 10 1 11 2 12 3 13 4 14 5 15 6 16 7 17 8 18 9 19 10 20 11
REMARK SMILES IDX 9 12 8 13 7 14 6 15 5 16 4 17 3 18 2 19 1 20
REMARK H PARENT
REMARK Flexibility Score: inf
ROOT
ATOM      1  C   UNL     1      14.129  52.833 157.143  1.00  0.00     0.000 C 
ENDROOT
BRANCH   1   2
ATOM      2  C   UNL     1      13.782  52.627 158.626  1.00  0.00     0.000 C 
BRANCH   2   3
ATOM      3  C   UNL     1      14.872  51.858 159.393  1.00  0.00     0.000 C 
BRANCH   3   4
ATOM      4  C   UNL     1      16.115  51.529 158.539  1.00  0.00     0.000 C 
BRANCH   4   5
ATOM      5  C   UNL     1      17.352  52.331 158.978  1.00  0.00     0.000 C 
BRANCH   5   6
ATOM      6  C   UNL     1      17.108  53.119 160.284  1.00  0.00     0.000 C 
BRANCH   6   7
ATOM      7  C   UNL     1      18.035  54.337 160.449  1.00  0.00     0.006 C 
BRANCH   7   8
ATOM      8  C   UNL     1      18.884  54.308 161.728  1.00  0.00     0.053 C 
BRANCH   8   9
ATOM      9  C   UNL     1      20.351  54.315 161.423  1.00  0.00     0.041 C 
ATOM     10  O   UNL     1      21.109  55.165 161.961  1.00  0.00    -0.550 OA
ATOM     11  O   UNL     1      20.878  53.397 160.525  1.00  0.00    -0.550 OA
ENDBRANCH   8   9
ENDBRANCH   7   8
ENDBRANCH   6   7
ENDBRANCH   5   6
ENDBRANCH   4   5
ENDBRANCH   3   4
ENDBRANCH   2   3
ENDBRANCH   1   2
BRANCH   1  12
ATOM     12  C   UNL     1      13.604  54.171 156.594  1.00  0.00     0.000 C 
BRANCH  12  13
ATOM     13  C   UNL     1      14.737  55.165 156.281  1.00  0.00    -0.000 C 
BRANCH  13  14
ATOM     14  C   UNL     1      15.763  55.269 157.422  1.00  0.00    -0.000 C 
BRANCH  14  15
ATOM     15  C   UNL     1      17.194  55.511 156.910  1.00  0.00    -0.000 C 
BRANCH  15  16
ATOM     16  C   UNL     1      17.852  56.738 157.560  1.00  0.00    -0.000 C 
BRANCH  16  17
ATOM     17  C   UNL     1      16.869  57.905 157.758  1.00  0.00    -0.000 C 
BRANCH  17  18
ATOM     18  C   UNL     1      17.187  58.747 159.006  1.00  0.00    -0.000 C 
BRANCH  18  19
ATOM     19  C   UNL     1      17.715  57.943 160.207  1.00  0.00    -0.003 C 
ATOM     20  C   UNL     1      19.144  58.321 160.597  1.00  0.00     0.004 C 
ENDBRANCH  18  19
ENDBRANCH  17  18
ENDBRANCH  16  17
ENDBRANCH  15  16
ENDBRANCH  14  15
ENDBRANCH  13  14
ENDBRANCH  12  13
ENDBRANCH   1  12
TORSDOF 16
ENDMDL
MODEL 4
REMARK VINA RESULT:    -4.326      1.538      3.496
REMARK INTER + INTRA:         -10.908
REMARK INTER:                  -8.413
REMARK INTRA:                  -2.495
REMARK UNBOUND:                -2.536
REMARK SMILES CCCCCCCCCCCCCCCCCC(=O)[O-]
REMARK SMILES IDX 10 1 11 2 12 3 13 4 14 5 15 6 16 7 17 8 18 9 19 10 20 11
REMARK SMILES IDX 9 12 8 13 7 14 6 15 5 16 4 17 3 18 2 19 1 20
REMARK H PARENT
REMARK Flexibility Score: inf
ROOT
ATOM      1  C   UNL     1      14.484  53.087 156.951  1.00  0.00     0.000 C 
ENDROOT
BRANCH   1   2
ATOM      2  C   UNL     1      13.893  54.453 156.563  1.00  0.00     0.000 C 
BRANCH   2   3
ATOM      3  C   UNL     1      14.973  55.503 156.248  1.00  0.00     0.000 C 
BRANCH   3   4
ATOM      4  C   UNL     1      16.075  55.601 157.324  1.00  0.00     0.000 C 
BRANCH   4   5
ATOM      5  C   UNL     1      17.457  55.893 156.717  1.00  0.00     0.000 C 
BRANCH   5   6
ATOM      6  C   UNL     1      18.050  57.228 157.219  1.00  0.00     0.000 C 
BRANCH   6   7
ATOM      7  C   UNL     1      17.330  57.792 158.458  1.00  0.00     0.006 C 
BRANCH   7   8
ATOM      8  C   UNL     1      18.264  58.477 159.467  1.00  0.00     0.053 C 
BRANCH   8   9
ATOM      9  C   UNL     1      17.986  59.944 159.577  1.00  0.00     0.041 C 
ATOM     10  O   UNL     1      18.901  60.784 159.370  1.00  0.00    -0.550 OA
ATOM     11  O   UNL     1      16.718  60.386 159.934  1.00  0.00    -0.550 OA
ENDBRANCH   8   9
ENDBRANCH   7   8
ENDBRANCH   6   7
ENDBRANCH   5   6
ENDBRANCH   4   5
ENDBRANCH   3   4
ENDBRANCH   2   3
ENDBRANCH   1   2
BRANCH   1  12
ATOM     12  C   UNL     1      14.032  52.624 158.346  1.00  0.00     0.000 C 
BRANCH  12  13
ATOM     13  C   UNL     1      15.183  52.010 159.164  1.00  0.00    -0.000 C 
BRANCH  13  14
ATOM     14  C   UNL     1      16.499  51.940 158.372  1.00  0.00    -0.000 C 
BRANCH  14  15
ATOM     15  C   UNL     1      17.651  52.683 159.072  1.00  0.00    -0.000 C 
BRANCH  15  16
ATOM     16  C   UNL     1      17.166  53.539 160.253  1.00  0.00    -0.000 C 
BRANCH  16  17
ATOM     17  C   UNL     1      18.139  54.680 160.599  1.00  0.00    -0.000 C 
BRANCH  17  18
ATOM     18  C   UNL     1      19.382  54.699 159.692  1.00  0.00    -0.000 C 
BRANCH  18  19
ATOM     19  C   UNL     1      20.725  54.619 160.438  1.00  0.00    -0.003 C 
ATOM     20  C   UNL     1      21.596  53.450 159.979  1.00  0.00     0.004 C 
ENDBRANCH  18  19
ENDBRANCH  17  18
ENDBRANCH  16  17
ENDBRANCH  15  16
ENDBRANCH  14  15
ENDBRANCH  13  14
ENDBRANCH  12  13
ENDBRANCH   1  12
TORSDOF 16
ENDMDL
MODEL 5
REMARK VINA RESULT:    -4.310      1.337      2.579
REMARK INTER + INTRA:         -10.876
REMARK INTER:                  -8.453
REMARK INTRA:                  -2.423
REMARK UNBOUND:                -2.536
REMARK SMILES CCCCCCCCCCCCCCCCCC(=O)[O-]
REMARK SMILES IDX 10 1 11 2 12 3 13 4 14 5 15 6 16 7 17 8 18 9 19 10 20 11
REMARK SMILES IDX 9 12 8 13 7 14 6 15 5 16 4 17 3 18 2 19 1 20
REMARK H PARENT
REMARK Flexibility Score: inf
ROOT
ATOM      1  C   UNL     1      14.234  52.688 157.879  1.00  0.00     0.000 C 
ENDROOT
BRANCH   1   2
ATOM      2  C   UNL     1      15.028  52.412 156.592  1.00  0.00     0.000 C 
BRANCH   2   3
ATOM      3  C   UNL     1      15.471  53.700 155.876  1.00  0.00     0.000 C 
BRANCH   3   4
ATOM      4  C   UNL     1      14.636  54.940 156.259  1.00  0.00     0.000 C 
BRANCH   4   5
ATOM      5  C   UNL     1      15.518  56.161 156.573  1.00  0.00     0.000 C 
BRANCH   5   6
ATOM      6  C   UNL     1      16.314  55.990 157.886  1.00  0.00     0.000 C 
BRANCH   6   7
ATOM      7  C   UNL     1      17.113  57.243 158.288  1.00  0.00     0.006 C 
BRANCH   7   8
ATOM      8  C   UNL     1      17.924  57.079 159.582  1.00  0.00     0.053 C 
BRANCH   8   9
ATOM      9  C   UNL     1      18.651  58.337 159.947  1.00  0.00     0.041 C 
ATOM     10  O   UNL     1      18.011  59.379 160.246  1.00  0.00    -0.550 OA
ATOM     11  O   UNL     1      20.040  58.364 159.934  1.00  0.00    -0.550 OA
ENDBRANCH   8   9
ENDBRANCH   7   8
ENDBRANCH   6   7
ENDBRANCH   5   6
ENDBRANCH   4   5
ENDBRANCH   3   4
ENDBRANCH   2   3
ENDBRANCH   1   2
BRANCH   1  12
ATOM     12  C   UNL     1      14.995  52.261 159.145  1.00  0.00     0.000 C 
BRANCH  12  13
ATOM     13  C   UNL     1      16.423  51.775 158.838  1.00  0.00    -0.000 C 
BRANCH  13  14
ATOM     14  C   UNL     1      17.499  52.773 159.298  1.00  0.00    -0.000 C 
BRANCH  14  15
ATOM     15  C   UNL     1      18.431  53.207 158.153  1.00  0.00    -0.000 C 
BRANCH  15  16
ATOM     16  C   UNL     1      19.657  53.986 158.657  1.00  0.00    -0.000 C 
BRANCH  16  17
ATOM     17  C   UNL     1      20.211  53.431 159.981  1.00  0.00    -0.000 C 
BRANCH  17  18
ATOM     18  C   UNL     1      21.041  54.467 160.760  1.00  0.00    -0.000 C 
BRANCH  18  19
ATOM     19  C   UNL     1      20.286  55.169 161.903  1.00  0.00    -0.003 C 
ATOM     20  C   UNL     1      19.067  54.384 162.386  1.00  0.00     0.004 C 
ENDBRANCH  18  19
ENDBRANCH  17  18
ENDBRANCH  16  17
ENDBRANCH  15  16
ENDBRANCH  14  15
ENDBRANCH  13  14
ENDBRANCH  12  13
ENDBRANCH   1  12
TORSDOF 16
ENDMDL
MODEL 6
REMARK VINA RESULT:    -4.296      2.207      4.920
REMARK INTER + INTRA:         -10.851
REMARK INTER:                  -8.099
REMARK INTRA:                  -2.752
REMARK UNBOUND:                -2.536
REMARK SMILES CCCCCCCCCCCCCCCCCC(=O)[O-]
REMARK SMILES IDX 10 1 11 2 12 3 13 4 14 5 15 6 16 7 17 8 18 9 19 10 20 11
REMARK SMILES IDX 9 12 8 13 7 14 6 15 5 16 4 17 3 18 2 19 1 20
REMARK H PARENT
REMARK Flexibility Score: inf
ROOT
ATOM      1  C   UNL     1      15.519  55.078 157.373  1.00  0.00     0.000 C 
ENDROOT
BRANCH   1   2
ATOM      2  C   UNL     1      16.865  55.243 156.649  1.00  0.00     0.000 C 
BRANCH   2   3
ATOM      3  C   UNL     1      17.519  56.611 156.910  1.00  0.00     0.000 C 
BRANCH   3   4
ATOM      4  C   UNL     1      16.539  57.674 157.451  1.00  0.00     0.000 C 
BRANCH   4   5
ATOM      5  C   UNL     1      17.107  58.422 158.669  1.00  0.00     0.000 C 
BRANCH   5   6
ATOM      6  C   UNL     1      18.559  58.004 158.991  1.00  0.00     0.000 C 
BRANCH   6   7
ATOM      7  C   UNL     1      18.953  58.234 160.462  1.00  0.00     0.006 C 
BRANCH   7   8
ATOM      8  C   UNL     1      17.843  57.895 161.467  1.00  0.00     0.053 C 
BRANCH   8   9
ATOM      9  C   UNL     1      18.392  57.285 162.720  1.00  0.00     0.041 C 
ATOM     10  O   UNL     1      17.889  57.568 163.840  1.00  0.00    -0.550 OA
ATOM     11  O   UNL     1      19.478  56.422 162.654  1.00  0.00    -0.550 OA
ENDBRANCH   8   9
ENDBRANCH   7   8
ENDBRANCH   6   7
ENDBRANCH   5   6
ENDBRANCH   4   5
ENDBRANCH   3   4
ENDBRANCH   2   3
ENDBRANCH   1   2
BRANCH   1  12
ATOM     12  C   UNL     1      14.488  54.305 156.534  1.00  0.00     0.000 C 
BRANCH  12  13
ATOM     13  C   UNL     1      14.359  52.834 156.969  1.00  0.00    -0.000 C 
BRANCH  13  14
ATOM     14  C   UNL     1      13.808  52.686 158.397  1.00  0.00    -0.000 C 
BRANCH  14  15
ATOM     15  C   UNL     1      14.803  51.995 159.346  1.00  0.00    -0.000 C 
BRANCH  15  16
ATOM     16  C   UNL     1      16.046  51.467 158.612  1.00  0.00    -0.000 C 
BRANCH  16  17
ATOM     17  C   UNL     1      17.323  52.247 158.969  1.00  0.00    -0.000 C 
BRANCH  17  18
ATOM     18  C   UNL     1      17.150  53.136 160.213  1.00  0.00    -0.000 C 
BRANCH  18  19
ATOM     19  C   UNL     1      17.923  54.466 160.167  1.00  0.00    -0.003 C 
ATOM     20  C   UNL     1      19.298  54.336 159.512  1.00  0.00     0.004 C 
ENDBRANCH  18  19
ENDBRANCH  17  18
ENDBRANCH  16  17
ENDBRANCH  15  16
ENDBRANCH  14  15
ENDBRANCH  13  14
ENDBRANCH  12  13
ENDBRANCH   1  12
TORSDOF 16
ENDMDL
MODEL 7
REMARK VINA RESULT:    -4.295      1.758      5.523
REMARK INTER + INTRA:         -10.848
REMARK INTER:                  -8.843
REMARK INTRA:                  -2.005
REMARK UNBOUND:                -2.536
REMARK SMILES CCCCCCCCCCCCCCCCCC(=O)[O-]
REMARK SMILES IDX 10 1 11 2 12 3 13 4 14 5 15 6 16 7 17 8 18 9 19 10 20 11
REMARK SMILES IDX 9 12 8 13 7 14 6 15 5 16 4 17 3 18 2 19 1 20
REMARK H PARENT
REMARK Flexibility Score: inf
ROOT
ATOM      1  C   UNL     1      16.455  51.602 158.908  1.00  0.00     0.000 C 
ENDROOT
BRANCH   1   2
ATOM      2  C   UNL     1      17.411  52.725 159.344  1.00  0.00     0.000 C 
BRANCH   2   3
ATOM      3  C   UNL     1      18.152  53.371 158.161  1.00  0.00     0.000 C 
BRANCH   3   4
ATOM      4  C   UNL     1      19.525  53.967 158.540  1.00  0.00     0.000 C 
BRANCH   4   5
ATOM      5  C   UNL     1      20.088  53.355 159.834  1.00  0.00     0.000 C 
BRANCH   5   6
ATOM      6  C   UNL     1      20.962  54.354 160.624  1.00  0.00     0.000 C 
BRANCH   6   7
ATOM      7  C   UNL     1      20.464  54.602 162.061  1.00  0.00     0.006 C 
BRANCH   7   8
ATOM      8  C   UNL     1      19.019  55.115 162.142  1.00  0.00     0.053 C 
BRANCH   8   9
ATOM      9  C   UNL     1      18.965  56.599 162.342  1.00  0.00     0.041 C 
ATOM     10  O   UNL     1      20.017  57.248 162.584  1.00  0.00    -0.550 OA
ATOM     11  O   UNL     1      17.747  57.263 162.286  1.00  0.00    -0.550 OA
ENDBRANCH   8   9
ENDBRANCH   7   8
ENDBRANCH   6   7
ENDBRANCH   5   6
ENDBRANCH   4   5
ENDBRANCH   3   4
ENDBRANCH   2   3
ENDBRANCH   1   2
BRANCH   1  12
ATOM     12  C   UNL     1      15.130  51.620 159.689  1.00  0.00     0.000 C 
BRANCH  12  13
ATOM     13  C   UNL     1      14.041  52.450 158.984  1.00  0.00    -0.000 C 
BRANCH  13  14
ATOM     14  C   UNL     1      14.387  52.752 157.517  1.00  0.00    -0.000 C 
BRANCH  14  15
ATOM     15  C   UNL     1      13.334  53.644 156.833  1.00  0.00    -0.000 C 
BRANCH  15  16
ATOM     16  C   UNL     1      13.967  54.811 156.059  1.00  0.00    -0.000 C 
BRANCH  16  17
ATOM     17  C   UNL     1      15.433  55.061 156.452  1.00  0.00    -0.000 C 
BRANCH  17  18
ATOM     18  C   UNL     1      15.657  56.455 157.064  1.00  0.00    -0.000 C 
BRANCH  18  19
ATOM     19  C   UNL     1      17.133  56.840 157.267  1.00  0.00    -0.003 C 
ATOM     20  C   UNL     1      17.482  57.120 158.728  1.00  0.00     0.004 C 
ENDBRANCH  18  19
ENDBRANCH  17  18
ENDBRANCH  16  17
ENDBRANCH  15  16
ENDBRANCH  14  15
ENDBRANCH  13  14
ENDBRANCH  12  13
ENDBRANCH   1  12
TORSDOF 16
ENDMDL
MODEL 8
REMARK VINA RESULT:    -4.235      2.473      5.524
REMARK INTER + INTRA:         -10.731
REMARK INTER:                  -8.223
REMARK INTRA:                  -2.509
REMARK UNBOUND:                -2.536
REMARK SMILES CCCCCCCCCCCCCCCCCC(=O)[O-]
REMARK SMILES IDX 10 1 11 2 12 3 13 4 14 5 15 6 16 7 17 8 18 9 19 10 20 11
REMARK SMILES IDX 9 12 8 13 7 14 6 15 5 16 4 17 3 18 2 19 1 20
REMARK H PARENT
REMARK Flexibility Score: inf
ROOT
ATOM      1  C   UNL     1      15.442  51.547 159.155  1.00  0.00     0.000 C 
ENDROOT
BRANCH   1   2
ATOM      2  C   UNL     1      16.571  52.399 159.758  1.00  0.00     0.000 C 
BRANCH   2   3
ATOM      3  C   UNL     1      17.710  52.672 158.760  1.00  0.00     0.000 C 
BRANCH   3   4
ATOM      4  C   UNL     1      18.579  53.893 159.131  1.00  0.00     0.000 C 
BRANCH   4   5
ATOM      5  C   UNL     1      17.826  54.894 160.024  1.00  0.00     0.000 C 
BRANCH   5   6
ATOM      6  C   UNL     1      18.723  55.478 161.138  1.00  0.00     0.000 C 
BRANCH   6   7
ATOM      7  C   UNL     1      19.774  54.483 161.665  1.00  0.00     0.006 C 
BRANCH   7   8
ATOM      8  C   UNL     1      21.156  55.105 161.911  1.00  0.00     0.053 C 
BRANCH   8   9
ATOM      9  C   UNL     1      22.142  54.705 160.856  1.00  0.00     0.041 C 
ATOM     10  O   UNL     1      21.895  53.741 160.085  1.00  0.00    -0.550 OA
ATOM     11  O   UNL     1      23.348  55.385 160.741  1.00  0.00    -0.550 OA
ENDBRANCH   8   9
ENDBRANCH   7   8
ENDBRANCH   6   7
ENDBRANCH   5   6
ENDBRANCH   4   5
ENDBRANCH   3   4
ENDBRANCH   2   3
ENDBRANCH   1   2
BRANCH   1  12
ATOM     12  C   UNL     1      14.070  52.236 159.244  1.00  0.00     0.000 C 
BRANCH  12  13
ATOM     13  C   UNL     1      13.709  52.999 157.957  1.00  0.00    -0.000 C 
BRANCH  13  14
ATOM     14  C   UNL     1      14.600  52.604 156.767  1.00  0.00    -0.000 C 
BRANCH  14  15
ATOM     15  C   UNL     1      15.353  53.805 156.167  1.00  0.00    -0.000 C 
BRANCH  15  16
ATOM     16  C   UNL     1      15.296  55.046 157.073  1.00  0.00    -0.000 C 
BRANCH  16  17
ATOM     17  C   UNL     1      16.323  56.120 156.675  1.00  0.00    -0.000 C 
BRANCH  17  18
ATOM     18  C   UNL     1      17.597  55.524 156.050  1.00  0.00    -0.000 C 
BRANCH  18  19
ATOM     19  C   UNL     1      18.757  56.521 155.876  1.00  0.00    -0.003 C 
ATOM     20  C   UNL     1      19.331  57.008 157.205  1.00  0.00     0.004 C 
ENDBRANCH  18  19
ENDBRANCH  17  18
ENDBRANCH  16  17
ENDBRANCH  15  16
ENDBRANCH  14  15
ENDBRANCH  13  14
ENDBRANCH  12  13
ENDBRANCH   1  12
TORSDOF 16
ENDMDL
MODEL 9
REMARK VINA RESULT:    -4.219      2.219      5.571
REMARK INTER + INTRA:         -10.701
REMARK INTER:                  -8.380
REMARK INTRA:                  -2.320
REMARK UNBOUND:                -2.536
REMARK SMILES CCCCCCCCCCCCCCCCCC(=O)[O-]
REMARK SMILES IDX 10 1 11 2 12 3 13 4 14 5 15 6 16 7 17 8 18 9 19 10 20 11
REMARK SMILES IDX 9 12 8 13 7 14 6 15 5 16 4 17 3 18 2 19 1 20
REMARK H PARENT
REMARK Flexibility Score: inf
ROOT
ATOM      1  C   UNL     1      15.152  56.387 156.077  1.00  0.00     0.000 C 
ENDROOT
BRANCH   1   2
ATOM      2  C   UNL     1      16.384  57.283 156.287  1.00  0.00     0.000 C 
BRANCH   2   3
ATOM      3  C   UNL     1      16.603  57.661 157.762  1.00  0.00     0.000 C 
BRANCH   3   4
ATOM      4  C   UNL     1      18.028  58.171 158.066  1.00  0.00     0.000 C 
BRANCH   4   5
ATOM      5  C   UNL     1      18.741  57.311 159.123  1.00  0.00     0.000 C 
BRANCH   5   6
ATOM      6  C   UNL     1      17.748  56.622 160.086  1.00  0.00     0.000 C 
BRANCH   6   7
ATOM      7  C   UNL     1      17.991  56.967 161.568  1.00  0.00     0.006 C 
BRANCH   7   8
ATOM      8  C   UNL     1      19.396  56.607 162.071  1.00  0.00     0.053 C 
BRANCH   8   9
ATOM      9  C   UNL     1      19.668  55.138 161.962  1.00  0.00     0.041 C 
ATOM     10  O   UNL     1      20.580  54.714 161.204  1.00  0.00    -0.550 OA
ATOM     11  O   UNL     1      18.897  54.234 162.681  1.00  0.00    -0.550 OA
ENDBRANCH   8   9
ENDBRANCH   7   8
ENDBRANCH   6   7
ENDBRANCH   5   6
ENDBRANCH   4   5
ENDBRANCH   3   4
ENDBRANCH   2   3
ENDBRANCH   1   2
BRANCH   1  12
ATOM     12  C   UNL     1      15.150  55.161 157.007  1.00  0.00     0.000 C 
BRANCH  12  13
ATOM     13  C   UNL     1      14.142  54.086 156.562  1.00  0.00    -0.000 C 
BRANCH  13  14
ATOM     14  C   UNL     1      14.460  52.700 157.148  1.00  0.00    -0.000 C 
BRANCH  14  15
ATOM     15  C   UNL     1      14.068  52.582 158.632  1.00  0.00    -0.000 C 
BRANCH  15  16
ATOM     16  C   UNL     1      15.083  51.761 159.444  1.00  0.00    -0.000 C 
BRANCH  16  17
ATOM     17  C   UNL     1      16.507  51.836 158.866  1.00  0.00    -0.000 C 
BRANCH  17  18
ATOM     18  C   UNL     1      17.356  52.943 159.515  1.00  0.00    -0.000 C 
BRANCH  18  19
ATOM     19  C   UNL     1      18.554  53.414 158.672  1.00  0.00    -0.003 C 
ATOM     20  C   UNL     1      18.235  53.509 157.180  1.00  0.00     0.004 C 
ENDBRANCH  18  19
ENDBRANCH  17  18
ENDBRANCH  16  17
ENDBRANCH  15  16
ENDBRANCH  14  15
ENDBRANCH  13  14
ENDBRANCH  12  13
ENDBRANCH   1  12
TORSDOF 16
ENDMDL
