MODEL 1
REMARK VINA RESULT:    -4.018      0.000      0.000
REMARK INTER + INTRA:          -8.991
REMARK INTER:                  -7.071
REMARK INTRA:                  -1.920
REMARK UNBOUND:                -1.920
REMARK SMILES CCCCCCC=CCCCCCCCC(=O)[O-]
REMARK SMILES IDX 10 1 11 2 12 3 13 4 14 5 15 6 16 7 17 8 18 9 9 10 8 11 7 12
REMARK SMILES IDX 6 13 5 14 4 15 3 16 2 17 1 18
REMARK H PARENT
REMARK Flexibility Score: inf
ROOT
ATOM      1  C   UNL     1      -7.628   4.607   0.007  1.00  0.00     0.004 C 
ENDROOT
BRANCH   1   2
ATOM      2  C   UNL     1      -8.652   3.726  -0.728  1.00  0.00     0.000 C 
BRANCH   2   3
ATOM      3  C   UNL     1      -9.547   4.527  -1.689  1.00  0.00     0.000 C 
BRANCH   3   4
ATOM      4  C   UNL     1      -9.263   4.304  -3.188  1.00  0.00     0.000 C 
BRANCH   4   5
ATOM      5  C   UNL     1     -10.469   3.816  -4.017  1.00  0.00     0.006 C 
BRANCH   5   6
ATOM      6  C   UNL     1     -11.286   2.699  -3.349  1.00  0.00     0.053 C 
BRANCH   6   7
ATOM      7  C   UNL     1     -10.766   1.339  -3.699  1.00  0.00     0.041 C 
ATOM      8  O   UNL     1      -9.805   0.843  -3.055  1.00  0.00    -0.550 OA
ATOM      9  O   UNL     1     -11.321   0.634  -4.759  1.00  0.00    -0.550 OA
ENDBRANCH   6   7
ENDBRANCH   5   6
ENDBRANCH   4   5
ENDBRANCH   3   4
ENDBRANCH   2   3
ENDBRANCH   1   2
BRANCH   1  10
ATOM     10  C   UNL     1      -7.238   4.030   1.376  1.00  0.00     0.027 C 
BRANCH  10  11
ATOM     11  C   UNL     1      -8.169   2.938   1.846  1.00  0.00    -0.031 C 
ATOM     12  C   UNL     1      -8.682   2.830   3.088  1.00  0.00    -0.031 C 
BRANCH  12  13
ATOM     13  C   UNL     1      -8.394   3.764   4.240  1.00  0.00     0.027 C 
BRANCH  13  14
ATOM     14  C   UNL     1      -9.654   4.515   4.704  1.00  0.00     0.004 C 
BRANCH  14  15
ATOM     15  C   UNL     1      -9.812   5.932   4.121  1.00  0.00     0.000 C 
BRANCH  15  16
ATOM     16  C   UNL     1     -11.062   6.083   3.240  1.00  0.00    -0.000 C 
BRANCH  16  17
ATOM     17  C   UNL     1     -10.756   5.704   1.787  1.00  0.00    -0.003 C 
ATOM     18  C   UNL     1     -11.594   4.510   1.340  1.00  0.00     0.004 C 
ENDBRANCH  16  17
ENDBRANCH  15  16
ENDBRANCH  14  15
ENDBRANCH  13  14
ENDBRANCH  12  13
ENDBRANCH  10  11
ENDBRANCH   1  10
TORSDOF 13
ENDMDL
MODEL 2
REMARK VINA RESULT:    -3.999      1.629      3.172
REMARK INTER + INTRA:          -8.958
REMARK INTER:                  -6.791
REMARK INTRA:                  -2.167
REMARK UNBOUND:                -1.920
REMARK SMILES CCCCCCC=CCCCCCCCC(=O)[O-]
REMARK SMILES IDX 10 1 11 2 12 3 13 4 14 5 15 6 16 7 17 8 18 9 9 10 8 11 7 12
REMARK SMILES IDX 6 13 5 14 4 15 3 16 2 17 1 18
REMARK H PARENT
REMARK Flexibility Score: inf
ROOT
ATOM      1  C   UNL     1     -10.935   4.743  -0.195  1.00  0.00     0.004 C 
ENDROOT
BRANCH   1   2
ATOM      2  C   UNL     1     -11.670   3.909   0.867  1.00  0.00     0.000 C 
BRANCH   2   3
ATOM      3  C   UNL     1     -11.614   2.398   0.582  1.00  0.00     0.000 C 
BRANCH   3   4
ATOM      4  C   UNL     1     -10.687   1.984  -0.579  1.00  0.00     0.000 C 
BRANCH   4   5
ATOM      5  C   UNL     1     -11.400   1.353  -1.792  1.00  0.00     0.006 C 
BRANCH   5   6
ATOM      6  C   UNL     1     -10.698   1.599  -3.137  1.00  0.00     0.053 C 
BRANCH   6   7
ATOM      7  C   UNL     1     -10.382   3.048  -3.346  1.00  0.00     0.041 C 
ATOM      8  O   UNL     1     -11.294   3.858  -3.657  1.00  0.00    -0.550 OA
ATOM      9  O   UNL     1      -9.073   3.497  -3.230  1.00  0.00    -0.550 OA
ENDBRANCH   6   7
ENDBRANCH   5   6
ENDBRANCH   4   5
ENDBRANCH   3   4
ENDBRANCH   2   3
ENDBRANCH   1   2
BRANCH   1  10
ATOM     10  C   UNL     1      -9.674   5.420   0.364  1.00  0.00     0.027 C 
BRANCH  10  11
ATOM     11  C   UNL     1      -8.408   4.987  -0.336  1.00  0.00    -0.031 C 
ATOM     12  C   UNL     1      -7.379   4.337   0.243  1.00  0.00    -0.031 C 
BRANCH  12  13
ATOM     13  C   UNL     1      -7.294   3.952   1.702  1.00  0.00     0.027 C 
BRANCH  13  14
ATOM     14  C   UNL     1      -8.266   2.813   2.056  1.00  0.00     0.004 C 
BRANCH  14  15
ATOM     15  C   UNL     1      -8.684   2.757   3.537  1.00  0.00     0.000 C 
BRANCH  15  16
ATOM     16  C   UNL     1      -9.909   3.629   3.848  1.00  0.00    -0.000 C 
BRANCH  16  17
ATOM     17  C   UNL     1      -9.490   5.068   4.168  1.00  0.00    -0.003 C 
ATOM     18  C   UNL     1     -10.621   6.050   3.875  1.00  0.00     0.004 C 
ENDBRANCH  16  17
ENDBRANCH  15  16
ENDBRANCH  14  15
ENDBRANCH  13  14
ENDBRANCH  12  13
ENDBRANCH  10  11
ENDBRANCH   1  10
TORSDOF 13
ENDMDL
MODEL 3
REMARK VINA RESULT:    -3.911      1.797      3.522
REMARK INTER + INTRA:          -8.802
REMARK INTER:                  -6.877
REMARK INTRA:                  -1.925
REMARK UNBOUND:                -1.920
REMARK SMILES CCCCCCC=CCCCCCCCC(=O)[O-]
REMARK SMILES IDX 10 1 11 2 12 3 13 4 14 5 15 6 16 7 17 8 18 9 9 10 8 11 7 12
REMARK SMILES IDX 6 13 5 14 4 15 3 16 2 17 1 18
REMARK H PARENT
REMARK Flexibility Score: inf
ROOT
ATOM      1  C   UNL     1     -11.409   4.433  -0.110  1.00  0.00     0.004 C 
ENDROOT
BRANCH   1   2
ATOM      2  C   UNL     1     -11.107   2.941   0.108  1.00  0.00     0.000 C 
BRANCH   2   3
ATOM      3  C   UNL     1     -12.125   2.019  -0.587  1.00  0.00     0.000 C 
BRANCH   3   4
ATOM      4  C   UNL     1     -11.522   1.012  -1.587  1.00  0.00     0.000 C 
BRANCH   4   5
ATOM      5  C   UNL     1     -10.338   1.546  -2.418  1.00  0.00     0.006 C 
BRANCH   5   6
ATOM      6  C   UNL     1     -10.721   2.617  -3.452  1.00  0.00     0.053 C 
BRANCH   6   7
ATOM      7  C   UNL     1      -9.776   3.779  -3.429  1.00  0.00     0.041 C 
ATOM      8  O   UNL     1      -8.816   3.800  -2.616  1.00  0.00    -0.550 OA
ATOM      9  O   UNL     1      -9.978   4.855  -4.284  1.00  0.00    -0.550 OA
ENDBRANCH   6   7
ENDBRANCH   5   6
ENDBRANCH   4   5
ENDBRANCH   3   4
ENDBRANCH   2   3
ENDBRANCH   1   2
BRANCH   1  10
ATOM     10  C   UNL     1     -10.252   5.335   0.346  1.00  0.00     0.027 C 
BRANCH  10  11
ATOM     11  C   UNL     1     -10.674   6.373   1.359  1.00  0.00    -0.031 C 
ATOM     12  C   UNL     1     -10.877   6.145   2.672  1.00  0.00    -0.031 C 
BRANCH  12  13
ATOM     13  C   UNL     1     -10.751   4.806   3.359  1.00  0.00     0.027 C 
BRANCH  13  14
ATOM     14  C   UNL     1      -9.281   4.416   3.598  1.00  0.00     0.004 C 
BRANCH  14  15
ATOM     15  C   UNL     1      -8.936   2.956   3.250  1.00  0.00     0.000 C 
BRANCH  15  16
ATOM     16  C   UNL     1      -8.081   2.828   1.980  1.00  0.00    -0.000 C 
BRANCH  16  17
ATOM     17  C   UNL     1      -7.231   4.085   1.762  1.00  0.00    -0.003 C 
ATOM     18  C   UNL     1      -6.957   4.317   0.279  1.00  0.00     0.004 C 
ENDBRANCH  16  17
ENDBRANCH  15  16
ENDBRANCH  14  15
ENDBRANCH  13  14
ENDBRANCH  12  13
ENDBRANCH  10  11
ENDBRANCH   1  10
TORSDOF 13
ENDMDL
MODEL 4
REMARK VINA RESULT:    -3.828      3.079      6.476
REMARK INTER + INTRA:          -8.656
REMARK INTER:                  -6.540
REMARK INTRA:                  -2.117
REMARK UNBOUND:                -1.920
REMARK SMILES CCCCCCC=CCCCCCCCC(=O)[O-]
REMARK SMILES IDX 10 1 11 2 12 3 13 4 14 5 15 6 16 7 17 8 18 9 9 10 8 11 7 12
REMARK SMILES IDX 6 13 5 14 4 15 3 16 2 17 1 18
REMARK H PARENT
REMARK Flexibility Score: inf
ROOT
ATOM      1  C   UNL     1      -7.684   4.790   0.077  1.00  0.00     0.004 C 
ENDROOT
BRANCH   1   2
ATOM      2  C   UNL     1      -7.134   3.971   1.257  1.00  0.00     0.000 C 
BRANCH   2   3
ATOM      3  C   UNL     1      -8.246   3.347   2.120  1.00  0.00     0.000 C 
BRANCH   3   4
ATOM      4  C   UNL     1      -8.316   3.862   3.571  1.00  0.00     0.000 C 
BRANCH   4   5
ATOM      5  C   UNL     1      -9.634   4.563   3.955  1.00  0.00     0.006 C 
BRANCH   5   6
ATOM      6  C   UNL     1     -10.523   4.940   2.759  1.00  0.00     0.053 C 
BRANCH   6   7
ATOM      7  C   UNL     1     -10.618   6.424   2.578  1.00  0.00     0.041 C 
ATOM      8  O   UNL     1     -10.800   6.913   1.433  1.00  0.00    -0.550 OA
ATOM      9  O   UNL     1     -10.471   7.267   3.672  1.00  0.00    -0.550 OA
ENDBRANCH   6   7
ENDBRANCH   5   6
ENDBRANCH   4   5
ENDBRANCH   3   4
ENDBRANCH   2   3
ENDBRANCH   1   2
BRANCH   1  10
ATOM     10  C   UNL     1      -8.571   3.948  -0.853  1.00  0.00     0.027 C 
BRANCH  10  11
ATOM     11  C   UNL     1      -9.993   4.451  -0.932  1.00  0.00    -0.031 C 
ATOM     12  C   UNL     1     -11.092   3.740  -0.614  1.00  0.00    -0.031 C 
BRANCH  12  13
ATOM     13  C   UNL     1     -11.101   2.301  -0.151  1.00  0.00     0.027 C 
BRANCH  13  14
ATOM     14  C   UNL     1     -11.547   1.339  -1.266  1.00  0.00     0.004 C 
BRANCH  14  15
ATOM     15  C   UNL     1     -10.496   1.093  -2.365  1.00  0.00     0.000 C 
BRANCH  15  16
ATOM     16  C   UNL     1     -11.080   1.176  -3.783  1.00  0.00    -0.000 C 
BRANCH  16  17
ATOM     17  C   UNL     1     -11.903   2.456  -3.963  1.00  0.00    -0.003 C 
ATOM     18  C   UNL     1     -11.030   3.611  -4.443  1.00  0.00     0.004 C 
ENDBRANCH  16  17
ENDBRANCH  15  16
ENDBRANCH  14  15
ENDBRANCH  13  14
ENDBRANCH  12  13
ENDBRANCH  10  11
ENDBRANCH   1  10
TORSDOF 13
ENDMDL
MODEL 5
REMARK VINA RESULT:    -3.799     16.882     18.615
REMARK INTER + INTRA:          -8.606
REMARK INTER:                  -6.283
REMARK INTRA:                  -2.324
REMARK UNBOUND:                -1.920
REMARK SMILES CCCCCCC=CCCCCCCCC(=O)[O-]
REMARK SMILES IDX 10 1 11 2 12 3 13 4 14 5 15 6 16 7 17 8 18 9 9 10 8 11 7 12
REMARK SMILES IDX 6 13 5 14 4 15 3 16 2 17 1 18
REMARK H PARENT
REMARK Flexibility Score: inf
ROOT
ATOM      1  C   UNL     1       4.170  -7.707  -0.890  1.00  0.00     0.004 C 
ENDROOT
BRANCH   1   2
ATOM      2  C   UNL     1       5.349  -8.652  -0.602  1.00  0.00     0.000 C 
BRANCH   2   3
ATOM      3  C   UNL     1       6.107  -9.064  -1.876  1.00  0.00     0.000 C 
BRANCH   3   4
ATOM      4  C   UNL     1       6.160  -7.992  -2.982  1.00  0.00     0.000 C 
BRANCH   4   5
ATOM      5  C   UNL     1       7.413  -7.094  -2.964  1.00  0.00     0.006 C 
BRANCH   5   6
ATOM      6  C   UNL     1       7.114  -5.588  -3.028  1.00  0.00     0.053 C 
BRANCH   6   7
ATOM      7  C   UNL     1       6.728  -5.037  -1.689  1.00  0.00     0.041 C 
ATOM      8  O   UNL     1       5.795  -4.199  -1.593  1.00  0.00    -0.550 OA
ATOM      9  O   UNL     1       7.423  -5.427  -0.552  1.00  0.00    -0.550 OA
ENDBRANCH   6   7
ENDBRANCH   5   6
ENDBRANCH   4   5
ENDBRANCH   3   4
ENDBRANCH   2   3
ENDBRANCH   1   2
BRANCH   1  10
ATOM     10  C   UNL     1       3.975  -6.664   0.222  1.00  0.00     0.027 C 
BRANCH  10  11
ATOM     11  C   UNL     1       4.740  -6.990   1.482  1.00  0.00    -0.031 C 
ATOM     12  C   UNL     1       4.256  -6.896   2.736  1.00  0.00    -0.031 C 
BRANCH  12  13
ATOM     13  C   UNL     1       2.872  -6.417   3.108  1.00  0.00     0.027 C 
BRANCH  13  14
ATOM     14  C   UNL     1       1.899  -7.587   3.340  1.00  0.00     0.004 C 
BRANCH  14  15
ATOM     15  C   UNL     1       1.285  -8.180   2.058  1.00  0.00     0.000 C 
BRANCH  15  16
ATOM     16  C   UNL     1       1.292  -9.717   2.045  1.00  0.00    -0.000 C 
BRANCH  16  17
ATOM     17  C   UNL     1       2.463 -10.252   1.214  1.00  0.00    -0.003 C 
ATOM     18  C   UNL     1       3.674 -10.547   2.093  1.00  0.00     0.004 C 
ENDBRANCH  16  17
ENDBRANCH  15  16
ENDBRANCH  14  15
ENDBRANCH  13  14
ENDBRANCH  12  13
ENDBRANCH  10  11
ENDBRANCH   1  10
TORSDOF 13
ENDMDL
MODEL 6
REMARK VINA RESULT:    -3.721     17.040     18.781
REMARK INTER + INTRA:          -8.468
REMARK INTER:                  -6.145
REMARK INTRA:                  -2.324
REMARK UNBOUND:                -1.920
REMARK SMILES CCCCCCC=CCCCCCCCC(=O)[O-]
REMARK SMILES IDX 10 1 11 2 12 3 13 4 14 5 15 6 16 7 17 8 18 9 9 10 8 11 7 12
REMARK SMILES IDX 6 13 5 14 4 15 3 16 2 17 1 18
REMARK H PARENT
REMARK Flexibility Score: inf
ROOT
ATOM      1  C   UNL     1       4.448  -9.670  -1.357  1.00  0.00     0.004 C 
ENDROOT
BRANCH   1   2
ATOM      2  C   UNL     1       5.829 -10.310  -1.143  1.00  0.00     0.000 C 
BRANCH   2   3
ATOM      3  C   UNL     1       6.747  -9.461  -0.245  1.00  0.00     0.000 C 
BRANCH   3   4
ATOM      4  C   UNL     1       7.747  -8.561  -0.996  1.00  0.00     0.000 C 
BRANCH   4   5
ATOM      5  C   UNL     1       7.443  -7.050  -0.935  1.00  0.00     0.006 C 
BRANCH   5   6
ATOM      6  C   UNL     1       6.606  -6.524  -2.111  1.00  0.00     0.053 C 
BRANCH   6   7
ATOM      7  C   UNL     1       6.750  -5.043  -2.282  1.00  0.00     0.041 C 
ATOM      8  O   UNL     1       6.074  -4.254  -1.572  1.00  0.00    -0.550 OA
ATOM      9  O   UNL     1       7.607  -4.536  -3.250  1.00  0.00    -0.550 OA
ENDBRANCH   6   7
ENDBRANCH   5   6
ENDBRANCH   4   5
ENDBRANCH   3   4
ENDBRANCH   2   3
ENDBRANCH   1   2
BRANCH   1  10
ATOM     10  C   UNL     1       3.873  -9.076  -0.062  1.00  0.00     0.027 C 
BRANCH  10  11
ATOM     11  C   UNL     1       3.495  -7.620  -0.193  1.00  0.00    -0.031 C 
ATOM     12  C   UNL     1       3.977  -6.617   0.567  1.00  0.00    -0.031 C 
BRANCH  12  13
ATOM     13  C   UNL     1       4.957  -6.774   1.707  1.00  0.00     0.027 C 
BRANCH  13  14
ATOM     14  C   UNL     1       4.245  -6.938   3.062  1.00  0.00     0.004 C 
BRANCH  14  15
ATOM     15  C   UNL     1       2.832  -6.328   3.126  1.00  0.00     0.000 C 
BRANCH  15  16
ATOM     16  C   UNL     1       1.785  -7.300   3.691  1.00  0.00    -0.000 C 
BRANCH  16  17
ATOM     17  C   UNL     1       1.984  -8.710   3.124  1.00  0.00    -0.003 C 
ATOM     18  C   UNL     1       0.739  -9.187   2.381  1.00  0.00     0.004 C 
ENDBRANCH  16  17
ENDBRANCH  15  16
ENDBRANCH  14  15
ENDBRANCH  13  14
ENDBRANCH  12  13
ENDBRANCH  10  11
ENDBRANCH   1  10
TORSDOF 13
ENDMDL
MODEL 7
REMARK VINA RESULT:    -3.606     16.584     18.322
REMARK INTER + INTRA:          -8.266
REMARK INTER:                  -6.230
REMARK INTRA:                  -2.036
REMARK UNBOUND:                -1.920
REMARK SMILES CCCCCCC=CCCCCCCCC(=O)[O-]
REMARK SMILES IDX 10 1 11 2 12 3 13 4 14 5 15 6 16 7 17 8 18 9 9 10 8 11 7 12
REMARK SMILES IDX 6 13 5 14 4 15 3 16 2 17 1 18
REMARK H PARENT
REMARK Flexibility Score: inf
ROOT
ATOM      1  C   UNL     1       3.674  -7.430  -0.072  1.00  0.00     0.004 C 
ENDROOT
BRANCH   1   2
ATOM      2  C   UNL     1       4.902  -8.355  -0.070  1.00  0.00     0.000 C 
BRANCH   2   3
ATOM      3  C   UNL     1       6.217  -7.601  -0.333  1.00  0.00     0.000 C 
BRANCH   3   4
ATOM      4  C   UNL     1       6.532  -6.465   0.661  1.00  0.00     0.000 C 
BRANCH   4   5
ATOM      5  C   UNL     1       7.079  -5.171   0.025  1.00  0.00     0.006 C 
BRANCH   5   6
ATOM      6  C   UNL     1       7.648  -5.352  -1.391  1.00  0.00     0.053 C 
BRANCH   6   7
ATOM      7  C   UNL     1       7.046  -4.385  -2.363  1.00  0.00     0.041 C 
ATOM      8  O   UNL     1       7.571  -4.213  -3.494  1.00  0.00    -0.550 OA
ATOM      9  O   UNL     1       5.925  -3.648  -2.005  1.00  0.00    -0.550 OA
ENDBRANCH   6   7
ENDBRANCH   5   6
ENDBRANCH   4   5
ENDBRANCH   3   4
ENDBRANCH   2   3
ENDBRANCH   1   2
BRANCH   1  10
ATOM     10  C   UNL     1       2.360  -8.203   0.118  1.00  0.00     0.027 C 
BRANCH  10  11
ATOM     11  C   UNL     1       2.520  -9.444   0.965  1.00  0.00    -0.031 C 
ATOM     12  C   UNL     1       1.750  -9.773   2.020  1.00  0.00    -0.031 C 
BRANCH  12  13
ATOM     13  C   UNL     1       0.608  -8.945   2.565  1.00  0.00     0.027 C 
BRANCH  13  14
ATOM     14  C   UNL     1       0.949  -8.320   3.930  1.00  0.00     0.004 C 
BRANCH  14  15
ATOM     15  C   UNL     1       1.747  -7.005   3.856  1.00  0.00     0.000 C 
BRANCH  15  16
ATOM     16  C   UNL     1       3.131  -7.106   4.516  1.00  0.00    -0.000 C 
BRANCH  16  17
ATOM     17  C   UNL     1       4.238  -7.177   3.457  1.00  0.00    -0.003 C 
ATOM     18  C   UNL     1       5.139  -8.387   3.682  1.00  0.00     0.004 C 
ENDBRANCH  16  17
ENDBRANCH  15  16
ENDBRANCH  14  15
ENDBRANCH  13  14
ENDBRANCH  12  13
ENDBRANCH  10  11
ENDBRANCH   1  10
TORSDOF 13
ENDMDL
MODEL 8
REMARK VINA RESULT:    -3.597      0.825      3.047
REMARK INTER + INTRA:          -8.249
REMARK INTER:                  -6.445
REMARK INTRA:                  -1.804
REMARK UNBOUND:                -1.920
REMARK SMILES CCCCCCC=CCCCCCCCC(=O)[O-]
REMARK SMILES IDX 10 1 11 2 12 3 13 4 14 5 15 6 16 7 17 8 18 9 9 10 8 11 7 12
REMARK SMILES IDX 6 13 5 14 4 15 3 16 2 17 1 18
REMARK H PARENT
REMARK Flexibility Score: inf
ROOT
ATOM      1  C   UNL     1     -10.513   5.726   0.846  1.00  0.00     0.004 C 
ENDROOT
BRANCH   1   2
ATOM      2  C   UNL     1     -11.301   4.608   0.144  1.00  0.00     0.000 C 
BRANCH   2   3
ATOM      3  C   UNL     1     -10.396   3.654  -0.657  1.00  0.00     0.000 C 
BRANCH   3   4
ATOM      4  C   UNL     1      -9.477   4.335  -1.690  1.00  0.00     0.000 C 
BRANCH   4   5
ATOM      5  C   UNL     1      -9.696   3.896  -3.152  1.00  0.00     0.006 C 
BRANCH   5   6
ATOM      6  C   UNL     1     -10.993   3.105  -3.388  1.00  0.00     0.053 C 
BRANCH   6   7
ATOM      7  C   UNL     1     -10.722   1.657  -3.660  1.00  0.00     0.041 C 
ATOM      8  O   UNL     1     -11.388   1.041  -4.533  1.00  0.00    -0.550 OA
ATOM      9  O   UNL     1      -9.758   0.981  -2.925  1.00  0.00    -0.550 OA
ENDBRANCH   6   7
ENDBRANCH   5   6
ENDBRANCH   4   5
ENDBRANCH   3   4
ENDBRANCH   2   3
ENDBRANCH   1   2
BRANCH   1  10
ATOM     10  C   UNL     1     -11.412   6.610   1.724  1.00  0.00     0.027 C 
BRANCH  10  11
ATOM     11  C   UNL     1     -10.664   7.288   2.846  1.00  0.00    -0.031 C 
ATOM     12  C   UNL     1     -10.352   6.724   4.030  1.00  0.00    -0.031 C 
BRANCH  12  13
ATOM     13  C   UNL     1     -10.722   5.322   4.457  1.00  0.00     0.027 C 
BRANCH  13  14
ATOM     14  C   UNL     1      -9.494   4.514   4.911  1.00  0.00     0.004 C 
BRANCH  14  15
ATOM     15  C   UNL     1      -8.509   4.148   3.784  1.00  0.00     0.000 C 
BRANCH  15  16
ATOM     16  C   UNL     1      -9.017   3.005   2.893  1.00  0.00    -0.000 C 
BRANCH  16  17
ATOM     17  C   UNL     1      -8.057   2.755   1.724  1.00  0.00    -0.003 C 
ATOM     18  C   UNL     1      -7.243   4.005   1.401  1.00  0.00     0.004 C 
ENDBRANCH  16  17
ENDBRANCH  15  16
ENDBRANCH  14  15
ENDBRANCH  13  14
ENDBRANCH  12  13
ENDBRANCH  10  11
ENDBRANCH   1  10
TORSDOF 13
ENDMDL
MODEL 9
REMARK VINA RESULT:    -3.564     17.018     18.721
REMARK INTER + INTRA:          -8.192
REMARK INTER:                  -6.013
REMARK INTRA:                  -2.179
REMARK UNBOUND:                -1.920
REMARK SMILES CCCCCCC=CCCCCCCCC(=O)[O-]
REMARK SMILES IDX 10 1 11 2 12 3 13 4 14 5 15 6 16 7 17 8 18 9 9 10 8 11 7 12
REMARK SMILES IDX 6 13 5 14 4 15 3 16 2 17 1 18
REMARK H PARENT
REMARK Flexibility Score: inf
ROOT
ATOM      1  C   UNL     1       4.194  -6.630   0.441  1.00  0.00     0.004 C 
ENDROOT
BRANCH   1   2
ATOM      2  C   UNL     1       4.112  -7.687  -0.672  1.00  0.00     0.000 C 
BRANCH   2   3
ATOM      3  C   UNL     1       5.486  -8.023  -1.278  1.00  0.00     0.000 C 
BRANCH   3   4
ATOM      4  C   UNL     1       5.591  -7.842  -2.805  1.00  0.00     0.000 C 
BRANCH   4   5
ATOM      5  C   UNL     1       6.716  -6.899  -3.278  1.00  0.00     0.006 C 
BRANCH   5   6
ATOM      6  C   UNL     1       7.268  -5.973  -2.183  1.00  0.00     0.053 C 
BRANCH   6   7
ATOM      7  C   UNL     1       6.813  -4.557  -2.368  1.00  0.00     0.041 C 
ATOM      8  O   UNL     1       5.917  -4.077  -1.627  1.00  0.00    -0.550 OA
ATOM      9  O   UNL     1       7.358  -3.780  -3.382  1.00  0.00    -0.550 OA
ENDBRANCH   6   7
ENDBRANCH   5   6
ENDBRANCH   4   5
ENDBRANCH   3   4
ENDBRANCH   2   3
ENDBRANCH   1   2
BRANCH   1  10
ATOM     10  C   UNL     1       5.623  -6.457   0.977  1.00  0.00     0.027 C 
BRANCH  10  11
ATOM     11  C   UNL     1       5.723  -6.648   2.472  1.00  0.00    -0.031 C 
ATOM     12  C   UNL     1       5.786  -7.835   3.106  1.00  0.00    -0.031 C 
BRANCH  12  13
ATOM     13  C   UNL     1       5.735  -9.189   2.437  1.00  0.00     0.027 C 
BRANCH  13  14
ATOM     14  C   UNL     1       4.527 -10.020   2.905  1.00  0.00     0.004 C 
BRANCH  14  15
ATOM     15  C   UNL     1       3.169  -9.301   2.796  1.00  0.00     0.000 C 
BRANCH  15  16
ATOM     16  C   UNL     1       2.413  -9.241   4.132  1.00  0.00    -0.000 C 
BRANCH  16  17
ATOM     17  C   UNL     1       2.381  -7.810   4.679  1.00  0.00    -0.003 C 
ATOM     18  C   UNL     1       2.204  -6.793   3.555  1.00  0.00     0.004 C 
ENDBRANCH  16  17
ENDBRANCH  15  16
ENDBRANCH  14  15
ENDBRANCH  13  14
ENDBRANCH  12  13
ENDBRANCH  10  11
ENDBRANCH   1  10
TORSDOF 13
ENDMDL
