MODEL 1
REMARK VINA RESULT:    -6.130      0.000      0.000
REMARK INTER + INTRA:          -6.309
REMARK INTER:                  -6.309
REMARK INTRA:                   0.000
REMARK UNBOUND:                 0.000
REMARK SMILES Oc1ccc2[nH]ccc2c1
REMARK SMILES IDX 3 1 4 2 5 3 9 4 8 5 7 6 6 7 10 8 2 9 1 11
REMARK H PARENT 6 10 1 12
REMARK Flexibility Score: inf
ROOT
ATOM      1  C   UNL     1      19.438  29.324  26.984  1.00  0.00     0.048 A 
ATOM      2  C   UNL     1      18.818  30.501  26.529  1.00  0.00     0.030 A 
ATOM      3  C   UNL     1      17.849  30.383  25.534  1.00  0.00     0.046 A 
ATOM      4  C   UNL     1      17.504  29.168  25.006  1.00  0.00     0.003 A 
ATOM      5  C   UNL     1      16.531  29.392  24.057  1.00  0.00     0.028 A 
ATOM      6  C   UNL     1      16.333  30.770  24.059  1.00  0.00     0.083 A 
ATOM      7  N   UNL     1      17.140  31.370  24.963  1.00  0.00    -0.361 N 
ATOM      8  C   UNL     1      18.099  27.982  25.434  1.00  0.00     0.056 A 
ATOM      9  C   UNL     1      19.081  28.065  26.439  1.00  0.00     0.116 A 
ATOM     10  H   UNL     1      17.197  32.392  25.170  1.00  0.00     0.166 HD
ENDROOT
BRANCH   9  11
ATOM     11  O   UNL     1      19.698  26.900  26.890  1.00  0.00    -0.508 OA
ATOM     12  H   UNL     1      19.200  26.019  26.925  1.00  0.00     0.293 HD
ENDBRANCH   9  11
TORSDOF 1
ENDMDL
MODEL 2
REMARK VINA RESULT:    -5.647      2.559      4.068
REMARK INTER + INTRA:          -5.812
REMARK INTER:                  -5.812
REMARK INTRA:                   0.000
REMARK UNBOUND:                 0.000
REMARK SMILES Oc1ccc2[nH]ccc2c1
REMARK SMILES IDX 3 1 4 2 5 3 9 4 8 5 7 6 6 7 10 8 2 9 1 11
REMARK H PARENT 6 10 1 12
REMARK Flexibility Score: inf
ROOT
ATOM      1  C   UNL     1      17.542  29.036  24.659  1.00  0.00     0.048 A 
ATOM      2  C   UNL     1      18.221  28.238  25.597  1.00  0.00     0.030 A 
ATOM      3  C   UNL     1      18.917  28.883  26.617  1.00  0.00     0.046 A 
ATOM      4  C   UNL     1      18.950  30.248  26.716  1.00  0.00     0.003 A 
ATOM      5  C   UNL     1      19.712  30.564  27.818  1.00  0.00     0.028 A 
ATOM      6  C   UNL     1      20.113  29.340  28.345  1.00  0.00     0.083 A 
ATOM      7  N   UNL     1      19.625  28.317  27.608  1.00  0.00    -0.361 N 
ATOM      8  C   UNL     1      18.288  31.068  25.803  1.00  0.00     0.056 A 
ATOM      9  C   UNL     1      17.574  30.449  24.759  1.00  0.00     0.116 A 
ATOM     10  H   UNL     1      19.772  27.296  27.778  1.00  0.00     0.166 HD
ENDROOT
BRANCH   9  11
ATOM     11  O   UNL     1      16.902  31.239  23.828  1.00  0.00    -0.508 OA
ATOM     12  H   UNL     1      17.368  31.594  23.003  1.00  0.00     0.293 HD
ENDBRANCH   9  11
TORSDOF 1
ENDMDL
MODEL 3
REMARK VINA RESULT:    -5.586      3.012      4.555
REMARK INTER + INTRA:          -5.749
REMARK INTER:                  -5.749
REMARK INTRA:                   0.000
REMARK UNBOUND:                 0.000
REMARK SMILES Oc1ccc2[nH]ccc2c1
REMARK SMILES IDX 3 1 4 2 5 3 9 4 8 5 7 6 6 7 10 8 2 9 1 11
REMARK H PARENT 6 10 1 12
REMARK Flexibility Score: inf
ROOT
ATOM      1  C   UNL     1      15.229  30.430  22.986  1.00  0.00     0.048 A 
ATOM      2  C   UNL     1      15.544  29.384  23.872  1.00  0.00     0.030 A 
ATOM      3  C   UNL     1      16.698  29.510  24.644  1.00  0.00     0.046 A 
ATOM      4  C   UNL     1      17.509  30.609  24.551  1.00  0.00     0.003 A 
ATOM      5  C   UNL     1      18.551  30.428  25.433  1.00  0.00     0.028 A 
ATOM      6  C   UNL     1      18.310  29.194  26.031  1.00  0.00     0.083 A 
ATOM      7  N   UNL     1      17.178  28.638  25.545  1.00  0.00    -0.361 N 
ATOM      8  C   UNL     1      17.227  31.662  23.683  1.00  0.00     0.056 A 
ATOM      9  C   UNL     1      16.068  31.568  22.889  1.00  0.00     0.116 A 
ATOM     10  H   UNL     1      16.764  27.718  25.818  1.00  0.00     0.166 HD
ENDROOT
BRANCH   9  11
ATOM     11  O   UNL     1      15.756  32.602  22.009  1.00  0.00    -0.508 OA
ATOM     12  H   UNL     1      15.249  33.423  22.317  1.00  0.00     0.293 HD
ENDBRANCH   9  11
TORSDOF 1
ENDMDL
MODEL 4
REMARK VINA RESULT:    -5.528      1.646      2.306
REMARK INTER + INTRA:          -5.690
REMARK INTER:                  -5.690
REMARK INTRA:                   0.000
REMARK UNBOUND:                 0.000
REMARK SMILES Oc1ccc2[nH]ccc2c1
REMARK SMILES IDX 3 1 4 2 5 3 9 4 8 5 7 6 6 7 10 8 2 9 1 11
REMARK H PARENT 6 10 1 12
REMARK Flexibility Score: inf
ROOT
ATOM      1  C   UNL     1      18.446  30.102  25.094  1.00  0.00     0.048 A 
ATOM      2  C   UNL     1      18.172  31.192  24.248  1.00  0.00     0.030 A 
ATOM      3  C   UNL     1      16.949  31.207  23.580  1.00  0.00     0.046 A 
ATOM      4  C   UNL     1      16.034  30.200  23.731  1.00  0.00     0.003 A 
ATOM      5  C   UNL     1      14.945  30.510  22.947  1.00  0.00     0.028 A 
ATOM      6  C   UNL     1      15.267  31.723  22.344  1.00  0.00     0.083 A 
ATOM      7  N   UNL     1      16.491  32.144  22.734  1.00  0.00    -0.361 N 
ATOM      8  C   UNL     1      16.273  29.106  24.561  1.00  0.00     0.056 A 
ATOM      9  C   UNL     1      17.499  29.059  25.252  1.00  0.00     0.116 A 
ATOM     10  H   UNL     1      16.978  33.019  22.436  1.00  0.00     0.166 HD
ENDROOT
BRANCH   9  11
ATOM     11  O   UNL     1      17.771  27.979  26.089  1.00  0.00    -0.508 OA
ATOM     12  H   UNL     1      17.085  27.638  26.751  1.00  0.00     0.293 HD
ENDBRANCH   9  11
TORSDOF 1
ENDMDL
MODEL 5
REMARK VINA RESULT:    -5.245      9.300     10.679
REMARK INTER + INTRA:          -5.399
REMARK INTER:                  -5.399
REMARK INTRA:                   0.000
REMARK UNBOUND:                 0.000
REMARK SMILES Oc1ccc2[nH]ccc2c1
REMARK SMILES IDX 3 1 4 2 5 3 9 4 8 5 7 6 6 7 10 8 2 9 1 11
REMARK H PARENT 6 10 1 12
REMARK Flexibility Score: inf
ROOT
ATOM      1  C   UNL     1       7.572  33.199  22.713  1.00  0.00     0.048 A 
ATOM      2  C   UNL     1       7.549  32.496  23.931  1.00  0.00     0.030 A 
ATOM      3  C   UNL     1       8.641  32.637  24.785  1.00  0.00     0.046 A 
ATOM      4  C   UNL     1       9.710  33.429  24.462  1.00  0.00     0.003 A 
ATOM      5  C   UNL     1      10.609  33.353  25.503  1.00  0.00     0.028 A 
ATOM      6  C   UNL     1      10.021  32.496  26.429  1.00  0.00     0.083 A 
ATOM      7  N   UNL     1       8.820  32.061  25.985  1.00  0.00    -0.361 N 
ATOM      8  C   UNL     1       9.766  34.138  23.264  1.00  0.00     0.056 A 
ATOM      9  C   UNL     1       8.678  34.019  22.377  1.00  0.00     0.116 A 
ATOM     10  H   UNL     1       8.168  31.411  26.479  1.00  0.00     0.166 HD
ENDROOT
BRANCH   9  11
ATOM     11  O   UNL     1       8.701  34.714  21.170  1.00  0.00    -0.508 OA
ATOM     12  H   UNL     1       8.821  35.719  21.141  1.00  0.00     0.293 HD
ENDBRANCH   9  11
TORSDOF 1
ENDMDL
MODEL 6
REMARK VINA RESULT:    -5.111      9.061     10.018
REMARK INTER + INTRA:          -5.260
REMARK INTER:                  -5.260
REMARK INTRA:                   0.000
REMARK UNBOUND:                 0.000
REMARK SMILES Oc1ccc2[nH]ccc2c1
REMARK SMILES IDX 3 1 4 2 5 3 9 4 8 5 7 6 6 7 10 8 2 9 1 11
REMARK H PARENT 6 10 1 12
REMARK Flexibility Score: inf
ROOT
ATOM      1  C   UNL     1       8.623  32.074  25.727  1.00  0.00     0.048 A 
ATOM      2  C   UNL     1       7.747  32.283  24.647  1.00  0.00     0.030 A 
ATOM      3  C   UNL     1       8.214  33.026  23.565  1.00  0.00     0.046 A 
ATOM      4  C   UNL     1       9.481  33.544  23.540  1.00  0.00     0.003 A 
ATOM      5  C   UNL     1       9.629  34.217  22.347  1.00  0.00     0.028 A 
ATOM      6  C   UNL     1       8.409  34.068  21.693  1.00  0.00     0.083 A 
ATOM      7  N   UNL     1       7.549  33.340  22.441  1.00  0.00    -0.361 N 
ATOM      8  C   UNL     1      10.374  33.357  24.593  1.00  0.00     0.056 A 
ATOM      9  C   UNL     1       9.935  32.609  25.703  1.00  0.00     0.116 A 
ATOM     10  H   UNL     1       6.569  33.078  22.191  1.00  0.00     0.166 HD
ENDROOT
BRANCH   9  11
ATOM     11  O   UNL     1      10.802  32.403  26.774  1.00  0.00    -0.508 OA
ATOM     12  H   UNL     1      10.521  31.865  27.585  1.00  0.00     0.293 HD
ENDBRANCH   9  11
TORSDOF 1
ENDMDL
MODEL 7
REMARK VINA RESULT:    -4.871      8.755     10.011
REMARK INTER + INTRA:          -5.014
REMARK INTER:                  -5.014
REMARK INTRA:                   0.000
REMARK UNBOUND:                 0.000
REMARK SMILES Oc1ccc2[nH]ccc2c1
REMARK SMILES IDX 3 1 4 2 5 3 9 4 8 5 7 6 6 7 10 8 2 9 1 11
REMARK H PARENT 6 10 1 12
REMARK Flexibility Score: inf
ROOT
ATOM      1  C   UNL     1      10.721  33.110  24.914  1.00  0.00     0.048 A 
ATOM      2  C   UNL     1      10.669  33.502  23.565  1.00  0.00     0.030 A 
ATOM      3  C   UNL     1       9.429  33.487  22.929  1.00  0.00     0.046 A 
ATOM      4  C   UNL     1       8.290  33.103  23.584  1.00  0.00     0.003 A 
ATOM      5  C   UNL     1       7.248  33.198  22.688  1.00  0.00     0.028 A 
ATOM      6  C   UNL     1       7.827  33.647  21.505  1.00  0.00     0.083 A 
ATOM      7  N   UNL     1       9.159  33.821  21.657  1.00  0.00    -0.361 N 
ATOM      8  C   UNL     1       8.305  32.708  24.920  1.00  0.00     0.056 A 
ATOM      9  C   UNL     1       9.542  32.712  25.594  1.00  0.00     0.116 A 
ATOM     10  H   UNL     1       9.835  34.150  20.932  1.00  0.00     0.166 HD
ENDROOT
BRANCH   9  11
ATOM     11  O   UNL     1       9.595  32.322  26.930  1.00  0.00    -0.508 OA
ATOM     12  H   UNL     1      10.415  31.872  27.317  1.00  0.00     0.293 HD
ENDBRANCH   9  11
TORSDOF 1
ENDMDL
MODEL 8
REMARK VINA RESULT:    -4.836     15.138     15.898
REMARK INTER + INTRA:          -4.977
REMARK INTER:                  -4.977
REMARK INTRA:                   0.000
REMARK UNBOUND:                 0.000
REMARK SMILES Oc1ccc2[nH]ccc2c1
REMARK SMILES IDX 3 1 4 2 5 3 9 4 8 5 7 6 6 7 10 8 2 9 1 11
REMARK H PARENT 6 10 1 12
REMARK Flexibility Score: inf
ROOT
ATOM      1  C   UNL     1       5.875  20.830  29.868  1.00  0.00     0.048 A 
ATOM      2  C   UNL     1       5.876  19.625  30.594  1.00  0.00     0.030 A 
ATOM      3  C   UNL     1       6.693  19.544  31.720  1.00  0.00     0.046 A 
ATOM      4  C   UNL     1       7.475  20.594  32.118  1.00  0.00     0.003 A 
ATOM      5  C   UNL     1       8.153  20.198  33.250  1.00  0.00     0.028 A 
ATOM      6  C   UNL     1       7.733  18.892  33.485  1.00  0.00     0.083 A 
ATOM      7  N   UNL     1       6.841  18.498  32.548  1.00  0.00    -0.361 N 
ATOM      8  C   UNL     1       7.499  21.802  31.422  1.00  0.00     0.056 A 
ATOM      9  C   UNL     1       6.685  21.918  30.279  1.00  0.00     0.116 A 
ATOM     10  H   UNL     1       6.368  17.569  32.484  1.00  0.00     0.166 HD
ENDROOT
BRANCH   9  11
ATOM     11  O   UNL     1       6.684  23.111  29.559  1.00  0.00    -0.508 OA
ATOM     12  H   UNL     1       7.119  23.177  28.646  1.00  0.00     0.293 HD
ENDBRANCH   9  11
TORSDOF 1
ENDMDL
MODEL 9
REMARK VINA RESULT:    -4.734     10.573     11.048
REMARK INTER + INTRA:          -4.872
REMARK INTER:                  -4.872
REMARK INTRA:                   0.000
REMARK UNBOUND:                 0.000
REMARK SMILES Oc1ccc2[nH]ccc2c1
REMARK SMILES IDX 3 1 4 2 5 3 9 4 8 5 7 6 6 7 10 8 2 9 1 11
REMARK H PARENT 6 10 1 12
REMARK Flexibility Score: inf
ROOT
ATOM      1  C   UNL     1       9.249  34.625  23.374  1.00  0.00     0.048 A 
ATOM      2  C   UNL     1       9.116  33.988  24.621  1.00  0.00     0.030 A 
ATOM      3  C   UNL     1       8.403  32.792  24.668  1.00  0.00     0.046 A 
ATOM      4  C   UNL     1       7.844  32.243  23.546  1.00  0.00     0.003 A 
ATOM      5  C   UNL     1       7.217  31.076  23.925  1.00  0.00     0.028 A 
ATOM      6  C   UNL     1       7.435  30.977  25.296  1.00  0.00     0.083 A 
ATOM      7  N   UNL     1       8.160  32.027  25.745  1.00  0.00    -0.361 N 
ATOM      8  C   UNL     1       7.956  32.847  22.295  1.00  0.00     0.056 A 
ATOM      9  C   UNL     1       8.671  34.058  22.211  1.00  0.00     0.116 A 
ATOM     10  H   UNL     1       8.466  32.203  26.728  1.00  0.00     0.166 HD
ENDROOT
BRANCH   9  11
ATOM     11  O   UNL     1       8.802  34.690  20.977  1.00  0.00    -0.508 OA
ATOM     12  H   UNL     1       7.993  35.008  20.457  1.00  0.00     0.293 HD
ENDBRANCH   9  11
TORSDOF 1
ENDMDL
