MODEL 1
REMARK VINA RESULT:    -4.893      0.000      0.000
REMARK INTER + INTRA:          -4.893
REMARK INTER:                  -4.893
REMARK INTRA:                   0.000
REMARK UNBOUND:                 0.000
REMARK SMILES CC1=CC[C@H]2[C@H](C1)C2(C)C
REMARK SMILES IDX 1 1 2 2 3 3 4 4 5 5 6 6 7 7 8 8 9 9 10 10
REMARK H PARENT
REMARK Flexibility Score: inf
ROOT
ATOM      1  C   UNL     1     105.649 102.304 123.557  1.00  0.00     0.039 C 
ATOM      2  C   UNL     1     106.161 102.153 124.960  1.00  0.00    -0.077 C 
ATOM      3  C   UNL     1     107.140 102.990 125.413  1.00  0.00    -0.028 C 
ATOM      4  C   UNL     1     107.685 102.902 126.836  1.00  0.00     0.031 C 
ATOM      5  C   UNL     1     106.619 102.227 127.707  1.00  0.00     0.003 C 
ATOM      6  C   UNL     1     106.517 100.812 127.021  1.00  0.00     0.003 C 
ATOM      7  C   UNL     1     105.531 101.102 125.884  1.00  0.00     0.034 C 
ATOM      8  C   UNL     1     106.521 100.959 128.526  1.00  0.00    -0.029 C 
ATOM      9  C   UNL     1     107.800 100.545 129.260  1.00  0.00     0.012 C 
ATOM     10  C   UNL     1     105.185 100.683 129.222  1.00  0.00     0.012 C 
ENDROOT
TORSDOF 0
ENDMDL
MODEL 2
REMARK VINA RESULT:    -4.882      6.111      6.695
REMARK INTER + INTRA:          -4.882
REMARK INTER:                  -4.882
REMARK INTRA:                   0.000
REMARK UNBOUND:                 0.000
REMARK SMILES CC1=CC[C@H]2[C@H](C1)C2(C)C
REMARK SMILES IDX 1 1 2 2 3 3 4 4 5 5 6 6 7 7 8 8 9 9 10 10
REMARK H PARENT
REMARK Flexibility Score: inf
ROOT
ATOM      1  C   UNL     1     110.026 105.750 123.607  1.00  0.00     0.039 C 
ATOM      2  C   UNL     1     110.218 106.244 125.012  1.00  0.00    -0.077 C 
ATOM      3  C   UNL     1     109.413 107.237 125.491  1.00  0.00    -0.028 C 
ATOM      4  C   UNL     1     109.541 107.765 126.918  1.00  0.00     0.031 C 
ATOM      5  C   UNL     1     110.210 106.676 127.764  1.00  0.00     0.003 C 
ATOM      6  C   UNL     1     111.607 106.549 127.048  1.00  0.00     0.003 C 
ATOM      7  C   UNL     1     111.272 105.581 125.908  1.00  0.00     0.034 C 
ATOM      8  C   UNL     1     111.491 106.541 128.556  1.00  0.00    -0.029 C 
ATOM      9  C   UNL     1     111.950 107.802 129.294  1.00  0.00     0.012 C 
ATOM     10  C   UNL     1     111.751 105.192 129.232  1.00  0.00     0.012 C 
ENDROOT
TORSDOF 0
ENDMDL
MODEL 3
REMARK VINA RESULT:    -4.882      6.073      6.636
REMARK INTER + INTRA:          -4.882
REMARK INTER:                  -4.882
REMARK INTRA:                   0.000
REMARK UNBOUND:                 0.000
REMARK SMILES CC1=CC[C@H]2[C@H](C1)C2(C)C
REMARK SMILES IDX 1 1 2 2 3 3 4 4 5 5 6 6 7 7 8 8 9 9 10 10
REMARK H PARENT
REMARK Flexibility Score: inf
ROOT
ATOM      1  C   UNL     1     102.325 106.770 123.534  1.00  0.00     0.039 C 
ATOM      2  C   UNL     1     102.187 106.266 124.941  1.00  0.00    -0.077 C 
ATOM      3  C   UNL     1     103.034 105.295 125.394  1.00  0.00    -0.028 C 
ATOM      4  C   UNL     1     102.960 104.758 126.822  1.00  0.00     0.031 C 
ATOM      5  C   UNL     1     102.282 105.824 127.690  1.00  0.00     0.003 C 
ATOM      6  C   UNL     1     100.863 105.911 127.013  1.00  0.00     0.003 C 
ATOM      7  C   UNL     1     101.137 106.893 125.868  1.00  0.00     0.034 C 
ATOM      8  C   UNL     1     101.019 105.917 128.517  1.00  0.00    -0.029 C 
ATOM      9  C   UNL     1     100.619 104.640 129.262  1.00  0.00     0.012 C 
ATOM     10  C   UNL     1     100.737 107.255 129.206  1.00  0.00     0.012 C 
ENDROOT
TORSDOF 0
ENDMDL
MODEL 4
REMARK VINA RESULT:    -4.855      8.162      9.392
REMARK INTER + INTRA:          -4.855
REMARK INTER:                  -4.855
REMARK INTRA:                   0.000
REMARK UNBOUND:                 0.000
REMARK SMILES CC1=CC[C@H]2[C@H](C1)C2(C)C
REMARK SMILES IDX 1 1 2 2 3 3 4 4 5 5 6 6 7 7 8 8 9 9 10 10
REMARK H PARENT
REMARK Flexibility Score: inf
ROOT
ATOM      1  C   UNL     1     106.466 109.913 123.692  1.00  0.00     0.039 C 
ATOM      2  C   UNL     1     106.041 110.130 125.115  1.00  0.00    -0.077 C 
ATOM      3  C   UNL     1     105.094 109.314 125.666  1.00  0.00    -0.028 C 
ATOM      4  C   UNL     1     104.637 109.468 127.114  1.00  0.00     0.031 C 
ATOM      5  C   UNL     1     105.752 110.185 127.885  1.00  0.00     0.003 C 
ATOM      6  C   UNL     1     105.806 111.565 127.128  1.00  0.00     0.003 C 
ATOM      7  C   UNL     1     106.722 111.224 125.948  1.00  0.00     0.034 C 
ATOM      8  C   UNL     1     105.894 111.490 128.636  1.00  0.00    -0.029 C 
ATOM      9  C   UNL     1     104.662 111.938 129.427  1.00  0.00     0.012 C 
ATOM     10  C   UNL     1     107.269 111.800 129.235  1.00  0.00     0.012 C 
ENDROOT
TORSDOF 0
ENDMDL
MODEL 5
REMARK VINA RESULT:    -4.799      7.324      9.174
REMARK INTER + INTRA:          -4.799
REMARK INTER:                  -4.799
REMARK INTRA:                   0.000
REMARK UNBOUND:                 0.000
REMARK SMILES CC1=CC[C@H]2[C@H](C1)C2(C)C
REMARK SMILES IDX 1 1 2 2 3 3 4 4 5 5 6 6 7 7 8 8 9 9 10 10
REMARK H PARENT
REMARK Flexibility Score: inf
ROOT
ATOM      1  C   UNL     1     109.065 107.260 128.551  1.00  0.00     0.039 C 
ATOM      2  C   UNL     1     108.232 108.468 128.234  1.00  0.00    -0.077 C 
ATOM      3  C   UNL     1     107.863 109.314 129.240  1.00  0.00    -0.028 C 
ATOM      4  C   UNL     1     107.037 110.571 128.979  1.00  0.00     0.031 C 
ATOM      5  C   UNL     1     107.236 110.968 127.511  1.00  0.00     0.003 C 
ATOM      6  C   UNL     1     106.650 109.706 126.773  1.00  0.00     0.003 C 
ATOM      7  C   UNL     1     107.862 108.768 126.775  1.00  0.00     0.034 C 
ATOM      8  C   UNL     1     106.356 111.108 126.289  1.00  0.00    -0.029 C 
ATOM      9  C   UNL     1     104.948 111.650 126.546  1.00  0.00     0.012 C 
ATOM     10  C   UNL     1     107.043 111.515 124.982  1.00  0.00     0.012 C 
ENDROOT
TORSDOF 0
ENDMDL
MODEL 6
REMARK VINA RESULT:    -4.789      1.089      4.193
REMARK INTER + INTRA:          -4.789
REMARK INTER:                  -4.789
REMARK INTRA:                   0.000
REMARK UNBOUND:                 0.000
REMARK SMILES CC1=CC[C@H]2[C@H](C1)C2(C)C
REMARK SMILES IDX 1 1 2 2 3 3 4 4 5 5 6 6 7 7 8 8 9 9 10 10
REMARK H PARENT
REMARK Flexibility Score: inf
ROOT
ATOM      1  C   UNL     1     107.689 100.351 129.391  1.00  0.00     0.039 C 
ATOM      2  C   UNL     1     106.921 101.074 128.322  1.00  0.00    -0.077 C 
ATOM      3  C   UNL     1     105.754 101.706 128.643  1.00  0.00    -0.028 C 
ATOM      4  C   UNL     1     104.941 102.478 127.606  1.00  0.00     0.031 C 
ATOM      5  C   UNL     1     105.888 102.882 126.471  1.00  0.00     0.003 C 
ATOM      6  C   UNL     1     106.344 101.471 125.939  1.00  0.00     0.003 C 
ATOM      7  C   UNL     1     107.493 101.145 126.900  1.00  0.00     0.034 C 
ATOM      8  C   UNL     1     106.001 102.597 124.990  1.00  0.00    -0.029 C 
ATOM      9  C   UNL     1     104.674 102.487 124.234  1.00  0.00     0.012 C 
ATOM     10  C   UNL     1     107.186 103.224 124.250  1.00  0.00     0.012 C 
ENDROOT
TORSDOF 0
ENDMDL
MODEL 7
REMARK VINA RESULT:    -4.781      6.562      7.680
REMARK INTER + INTRA:          -4.781
REMARK INTER:                  -4.781
REMARK INTRA:                   0.000
REMARK UNBOUND:                 0.000
REMARK SMILES CC1=CC[C@H]2[C@H](C1)C2(C)C
REMARK SMILES IDX 1 1 2 2 3 3 4 4 5 5 6 6 7 7 8 8 9 9 10 10
REMARK H PARENT
REMARK Flexibility Score: inf
ROOT
ATOM      1  C   UNL     1     105.294 109.097 128.526  1.00  0.00     0.039 C 
ATOM      2  C   UNL     1     104.082 108.255 128.245  1.00  0.00    -0.077 C 
ATOM      3  C   UNL     1     103.270 107.881 129.277  1.00  0.00    -0.028 C 
ATOM      4  C   UNL     1     102.011 107.047 129.053  1.00  0.00     0.031 C 
ATOM      5  C   UNL     1     101.569 107.242 127.599  1.00  0.00     0.003 C 
ATOM      6  C   UNL     1     102.812 106.664 126.823  1.00  0.00     0.003 C 
ATOM      7  C   UNL     1     103.742 107.882 126.797  1.00  0.00     0.034 C 
ATOM      8  C   UNL     1     101.398 106.361 126.382  1.00  0.00    -0.029 C 
ATOM      9  C   UNL     1     100.873 104.949 126.656  1.00  0.00     0.012 C 
ATOM     10  C   UNL     1     100.947 107.043 125.087  1.00  0.00     0.012 C 
ENDROOT
TORSDOF 0
ENDMDL
MODEL 8
REMARK VINA RESULT:    -4.770      6.501      7.065
REMARK INTER + INTRA:          -4.770
REMARK INTER:                  -4.770
REMARK INTRA:                   0.000
REMARK UNBOUND:                 0.000
REMARK SMILES CC1=CC[C@H]2[C@H](C1)C2(C)C
REMARK SMILES IDX 1 1 2 2 3 3 4 4 5 5 6 6 7 7 8 8 9 9 10 10
REMARK H PARENT
REMARK Flexibility Score: inf
ROOT
ATOM      1  C   UNL     1     108.350 108.491 125.018  1.00  0.00     0.039 C 
ATOM      2  C   UNL     1     109.372 107.757 125.838  1.00  0.00    -0.077 C 
ATOM      3  C   UNL     1     110.184 106.840 125.235  1.00  0.00    -0.028 C 
ATOM      4  C   UNL     1     111.258 106.078 126.008  1.00  0.00     0.031 C 
ATOM      5  C   UNL     1     111.614 106.901 127.252  1.00  0.00     0.003 C 
ATOM      6  C   UNL     1     110.234 106.918 128.011  1.00  0.00     0.003 C 
ATOM      7  C   UNL     1     109.531 108.095 127.326  1.00  0.00     0.034 C 
ATOM      8  C   UNL     1     111.536 106.705 128.750  1.00  0.00    -0.029 C 
ATOM      9  C   UNL     1     111.827 105.287 129.248  1.00  0.00     0.012 C 
ATOM     10  C   UNL     1     111.998 107.872 129.628  1.00  0.00     0.012 C 
ENDROOT
TORSDOF 0
ENDMDL
MODEL 9
REMARK VINA RESULT:    -4.693      5.903      7.390
REMARK INTER + INTRA:          -4.693
REMARK INTER:                  -4.693
REMARK INTRA:                   0.000
REMARK UNBOUND:                 0.000
REMARK SMILES CC1=CC[C@H]2[C@H](C1)C2(C)C
REMARK SMILES IDX 1 1 2 2 3 3 4 4 5 5 6 6 7 7 8 8 9 9 10 10
REMARK H PARENT
REMARK Flexibility Score: inf
ROOT
ATOM      1  C   UNL     1     100.361 104.843 129.273  1.00  0.00     0.039 C 
ATOM      2  C   UNL     1     101.103 105.546 128.173  1.00  0.00    -0.077 C 
ATOM      3  C   UNL     1     101.766 106.708 128.445  1.00  0.00    -0.028 C 
ATOM      4  C   UNL     1     102.558 107.457 127.376  1.00  0.00     0.031 C 
ATOM      5  C   UNL     1     102.935 106.453 126.281  1.00  0.00     0.003 C 
ATOM      6  C   UNL     1     101.512 106.013 125.768  1.00  0.00     0.003 C 
ATOM      7  C   UNL     1     101.157 104.914 126.776  1.00  0.00     0.034 C 
ATOM      8  C   UNL     1     102.646 106.287 124.806  1.00  0.00    -0.029 C 
ATOM      9  C   UNL     1     102.571 107.584 123.995  1.00  0.00     0.012 C 
ATOM     10  C   UNL     1     103.240 105.055 124.116  1.00  0.00     0.012 C 
ENDROOT
TORSDOF 0
ENDMDL
