MODEL 1
REMARK VINA RESULT:    -4.891      0.000      0.000
REMARK INTER + INTRA:          -5.510
REMARK INTER:                  -5.320
REMARK INTRA:                  -0.190
REMARK UNBOUND:                -0.190
REMARK SMILES Cc1ccc(C(C)C)c(O)c1
REMARK SMILES IDX 1 1 2 2 11 3 9 4 5 5 4 6 3 7 10 8 6 10 7 11 8 12
REMARK H PARENT 10 9
REMARK Flexibility Score: inf
ROOT
ATOM      1  C   UNL     1       9.471   1.363  -3.173  1.00  0.00     0.044 C 
ATOM      2  C   UNL     1       9.080   0.561  -1.967  1.00  0.00    -0.047 A 
ATOM      3  C   UNL     1       7.876   0.825  -1.305  1.00  0.00     0.049 A 
ATOM      4  C   UNL     1       7.474   0.054  -0.207  1.00  0.00     0.119 A 
ATOM      5  C   UNL     1       8.316  -0.984   0.276  1.00  0.00    -0.004 A 
ATOM      6  C   UNL     1       9.493  -1.279  -0.445  1.00  0.00     0.008 A 
ATOM      7  C   UNL     1       9.870  -0.513  -1.549  1.00  0.00     0.004 A 
ENDROOT
BRANCH   4   8
ATOM      8  O   UNL     1       6.227   0.341   0.354  1.00  0.00    -0.508 OA
ATOM      9  H   UNL     1       5.373   0.434  -0.178  1.00  0.00     0.293 HD
ENDBRANCH   4   8
BRANCH   5  10
ATOM     10  C   UNL     1       7.934  -1.819   1.495  1.00  0.00     0.017 C 
ATOM     11  C   UNL     1       9.143  -2.242   2.346  1.00  0.00     0.012 C 
ATOM     12  C   UNL     1       7.120  -3.043   1.064  1.00  0.00     0.012 C 
ENDBRANCH   5  10
TORSDOF 2
ENDMDL
MODEL 2
REMARK VINA RESULT:    -4.819      6.035      7.707
REMARK INTER + INTRA:          -5.432
REMARK INTER:                  -5.292
REMARK INTRA:                  -0.140
REMARK UNBOUND:                -0.190
REMARK SMILES Cc1ccc(C(C)C)c(O)c1
REMARK SMILES IDX 1 1 2 2 11 3 9 4 5 5 4 6 3 7 10 8 6 10 7 11 8 12
REMARK H PARENT 10 9
REMARK Flexibility Score: inf
ROOT
ATOM      1  C   UNL     1      10.125  -1.303   9.094  1.00  0.00     0.044 C 
ATOM      2  C   UNL     1       9.904  -2.124   7.857  1.00  0.00    -0.047 A 
ATOM      3  C   UNL     1       9.684  -1.499   6.626  1.00  0.00     0.049 A 
ATOM      4  C   UNL     1       9.525  -2.251   5.455  1.00  0.00     0.119 A 
ATOM      5  C   UNL     1       9.542  -3.670   5.516  1.00  0.00    -0.004 A 
ATOM      6  C   UNL     1       9.833  -4.282   6.755  1.00  0.00     0.008 A 
ATOM      7  C   UNL     1      10.008  -3.517   7.909  1.00  0.00     0.004 A 
ENDROOT
BRANCH   4   8
ATOM      8  O   UNL     1       9.375  -1.546   4.257  1.00  0.00    -0.508 OA
ATOM      9  H   UNL     1       8.622  -1.697   3.600  1.00  0.00     0.293 HD
ENDBRANCH   4   8
BRANCH   5  10
ATOM     10  C   UNL     1       9.330  -4.526   4.271  1.00  0.00     0.017 C 
ATOM     11  C   UNL     1       7.877  -4.520   3.767  1.00  0.00     0.012 C 
ATOM     12  C   UNL     1       9.808  -5.959   4.525  1.00  0.00     0.012 C 
ENDBRANCH   5  10
TORSDOF 2
ENDMDL
MODEL 3
REMARK VINA RESULT:    -4.806      1.661      2.124
REMARK INTER + INTRA:          -5.417
REMARK INTER:                  -5.225
REMARK INTRA:                  -0.192
REMARK UNBOUND:                -0.190
REMARK SMILES Cc1ccc(C(C)C)c(O)c1
REMARK SMILES IDX 1 1 2 2 11 3 9 4 5 5 4 6 3 7 10 8 6 10 7 11 8 12
REMARK H PARENT 10 9
REMARK Flexibility Score: inf
ROOT
ATOM      1  C   UNL     1       8.257   0.938  -1.681  1.00  0.00     0.044 C 
ATOM      2  C   UNL     1       8.380  -0.071  -0.578  1.00  0.00    -0.047 A 
ATOM      3  C   UNL     1       8.526   0.348   0.749  1.00  0.00     0.049 A 
ATOM      4  C   UNL     1       8.594  -0.581   1.794  1.00  0.00     0.119 A 
ATOM      5  C   UNL     1       8.558  -1.973   1.509  1.00  0.00    -0.004 A 
ATOM      6  C   UNL     1       8.342  -2.376   0.174  1.00  0.00     0.008 A 
ATOM      7  C   UNL     1       8.258  -1.436  -0.855  1.00  0.00     0.004 A 
ENDROOT
BRANCH   4   8
ATOM      8  O   UNL     1       8.674  -0.076   3.095  1.00  0.00    -0.508 OA
ATOM      9  H   UNL     1       8.431  -0.602   3.923  1.00  0.00     0.293 HD
ENDBRANCH   4   8
BRANCH   5  10
ATOM     10  C   UNL     1       8.672  -3.018   2.615  1.00  0.00     0.017 C 
ATOM     11  C   UNL     1      10.125  -3.383   2.962  1.00  0.00     0.012 C 
ATOM     12  C   UNL     1       7.873  -4.271   2.244  1.00  0.00     0.012 C 
ENDBRANCH   5  10
TORSDOF 2
ENDMDL
MODEL 4
REMARK VINA RESULT:    -4.802      1.129      4.032
REMARK INTER + INTRA:          -5.413
REMARK INTER:                  -5.226
REMARK INTRA:                  -0.187
REMARK UNBOUND:                -0.190
REMARK SMILES Cc1ccc(C(C)C)c(O)c1
REMARK SMILES IDX 1 1 2 2 11 3 9 4 5 5 4 6 3 7 10 8 6 10 7 11 8 12
REMARK H PARENT 10 9
REMARK Flexibility Score: inf
ROOT
ATOM      1  C   UNL     1       9.550  -2.316   2.326  1.00  0.00     0.044 C 
ATOM      2  C   UNL     1       9.145  -1.609   1.066  1.00  0.00    -0.047 A 
ATOM      3  C   UNL     1       8.048  -0.741   1.066  1.00  0.00     0.049 A 
ATOM      4  C   UNL     1       7.687  -0.037  -0.090  1.00  0.00     0.119 A 
ATOM      5  C   UNL     1       8.413  -0.234  -1.295  1.00  0.00    -0.004 A 
ATOM      6  C   UNL     1       9.557  -1.059  -1.258  1.00  0.00     0.008 A 
ATOM      7  C   UNL     1       9.914  -1.740  -0.093  1.00  0.00     0.004 A 
ENDROOT
BRANCH   4   8
ATOM      8  O   UNL     1       6.619   0.858   0.014  1.00  0.00    -0.508 OA
ATOM      9  H   UNL     1       6.530   1.702  -0.536  1.00  0.00     0.293 HD
ENDBRANCH   4   8
BRANCH   5  10
ATOM     10  C   UNL     1       8.026   0.482  -2.586  1.00  0.00     0.017 C 
ATOM     11  C   UNL     1       8.316  -0.343  -3.851  1.00  0.00     0.012 C 
ATOM     12  C   UNL     1       8.715   1.848  -2.661  1.00  0.00     0.012 C 
ENDBRANCH   5  10
TORSDOF 2
ENDMDL
MODEL 5
REMARK VINA RESULT:    -4.771      2.064      2.988
REMARK INTER + INTRA:          -5.380
REMARK INTER:                  -5.187
REMARK INTRA:                  -0.192
REMARK UNBOUND:                -0.190
REMARK SMILES Cc1ccc(C(C)C)c(O)c1
REMARK SMILES IDX 1 1 2 2 11 3 9 4 5 5 4 6 3 7 10 8 6 10 7 11 8 12
REMARK H PARENT 10 9
REMARK Flexibility Score: inf
ROOT
ATOM      1  C   UNL     1       7.864   0.925  -0.172  1.00  0.00     0.044 C 
ATOM      2  C   UNL     1       8.017  -0.433   0.446  1.00  0.00    -0.047 A 
ATOM      3  C   UNL     1       6.990  -1.377   0.339  1.00  0.00     0.049 A 
ATOM      4  C   UNL     1       7.138  -2.665   0.869  1.00  0.00     0.119 A 
ATOM      5  C   UNL     1       8.326  -3.013   1.565  1.00  0.00    -0.004 A 
ATOM      6  C   UNL     1       9.377  -2.072   1.604  1.00  0.00     0.008 A 
ATOM      7  C   UNL     1       9.221  -0.798   1.055  1.00  0.00     0.004 A 
ENDROOT
BRANCH   4   8
ATOM      8  O   UNL     1       6.091  -3.567   0.661  1.00  0.00    -0.508 OA
ATOM      9  H   UNL     1       6.219  -4.542   0.428  1.00  0.00     0.293 HD
ENDBRANCH   4   8
BRANCH   5  10
ATOM     10  C   UNL     1       8.509  -4.392   2.194  1.00  0.00     0.017 C 
ATOM     11  C   UNL     1       7.914  -4.501   3.608  1.00  0.00     0.012 C 
ATOM     12  C   UNL     1       9.991  -4.778   2.199  1.00  0.00     0.012 C 
ENDBRANCH   5  10
TORSDOF 2
ENDMDL
MODEL 6
REMARK VINA RESULT:    -4.743      1.979      2.634
REMARK INTER + INTRA:          -5.349
REMARK INTER:                  -5.161
REMARK INTRA:                  -0.188
REMARK UNBOUND:                -0.190
REMARK SMILES Cc1ccc(C(C)C)c(O)c1
REMARK SMILES IDX 1 1 2 2 11 3 9 4 5 5 4 6 3 7 10 8 6 10 7 11 8 12
REMARK H PARENT 10 9
REMARK Flexibility Score: inf
ROOT
ATOM      1  C   UNL     1       8.889   2.214  -3.013  1.00  0.00     0.044 C 
ATOM      2  C   UNL     1       8.267   1.042  -2.311  1.00  0.00    -0.047 A 
ATOM      3  C   UNL     1       8.000  -0.139  -3.012  1.00  0.00     0.049 A 
ATOM      4  C   UNL     1       7.465  -1.257  -2.359  1.00  0.00     0.119 A 
ATOM      5  C   UNL     1       7.145  -1.186  -0.977  1.00  0.00    -0.004 A 
ATOM      6  C   UNL     1       7.485  -0.010  -0.273  1.00  0.00     0.008 A 
ATOM      7  C   UNL     1       8.035   1.089  -0.934  1.00  0.00     0.004 A 
ENDROOT
BRANCH   4   8
ATOM      8  O   UNL     1       7.291  -2.418  -3.118  1.00  0.00    -0.508 OA
ATOM      9  H   UNL     1       7.709  -2.571  -4.026  1.00  0.00     0.293 HD
ENDBRANCH   4   8
BRANCH   5  10
ATOM     10  C   UNL     1       6.522  -2.368  -0.239  1.00  0.00     0.017 C 
ATOM     11  C   UNL     1       5.006  -2.221  -0.023  1.00  0.00     0.012 C 
ATOM     12  C   UNL     1       7.239  -2.596   1.095  1.00  0.00     0.012 C 
ENDBRANCH   5  10
TORSDOF 2
ENDMDL
MODEL 7
REMARK VINA RESULT:    -4.703      2.108      4.685
REMARK INTER + INTRA:          -5.306
REMARK INTER:                  -5.145
REMARK INTRA:                  -0.161
REMARK UNBOUND:                -0.190
REMARK SMILES Cc1ccc(C(C)C)c(O)c1
REMARK SMILES IDX 1 1 2 2 11 3 9 4 5 5 4 6 3 7 10 8 6 10 7 11 8 12
REMARK H PARENT 10 9
REMARK Flexibility Score: inf
ROOT
ATOM      1  C   UNL     1       9.455  -4.247   3.802  1.00  0.00     0.044 C 
ATOM      2  C   UNL     1       8.852  -3.378   2.738  1.00  0.00    -0.047 A 
ATOM      3  C   UNL     1       7.718  -3.804   2.038  1.00  0.00     0.049 A 
ATOM      4  C   UNL     1       7.115  -2.983   1.077  1.00  0.00     0.119 A 
ATOM      5  C   UNL     1       7.681  -1.717   0.770  1.00  0.00    -0.004 A 
ATOM      6  C   UNL     1       8.783  -1.275   1.534  1.00  0.00     0.008 A 
ATOM      7  C   UNL     1       9.361  -2.098   2.502  1.00  0.00     0.004 A 
ENDROOT
BRANCH   4   8
ATOM      8  O   UNL     1       5.948  -3.458   0.471  1.00  0.00    -0.508 OA
ATOM      9  H   UNL     1       5.016  -3.154   0.719  1.00  0.00     0.293 HD
ENDBRANCH   4   8
BRANCH   5  10
ATOM     10  C   UNL     1       7.079  -0.810  -0.300  1.00  0.00     0.017 C 
ATOM     11  C   UNL     1       7.386  -1.274  -1.734  1.00  0.00     0.012 C 
ATOM     12  C   UNL     1       7.537   0.636  -0.088  1.00  0.00     0.012 C 
ENDBRANCH   5  10
TORSDOF 2
ENDMDL
MODEL 8
REMARK VINA RESULT:    -4.695     11.884     13.308
REMARK INTER + INTRA:          -5.297
REMARK INTER:                  -5.109
REMARK INTRA:                  -0.188
REMARK UNBOUND:                -0.190
REMARK SMILES Cc1ccc(C(C)C)c(O)c1
REMARK SMILES IDX 1 1 2 2 11 3 9 4 5 5 4 6 3 7 10 8 6 10 7 11 8 12
REMARK H PARENT 10 9
REMARK Flexibility Score: inf
ROOT
ATOM      1  C   UNL     1      -0.740  -4.442  -3.170  1.00  0.00     0.044 C 
ATOM      2  C   UNL     1      -2.114  -4.178  -2.626  1.00  0.00    -0.047 A 
ATOM      3  C   UNL     1      -3.245  -4.491  -3.386  1.00  0.00     0.049 A 
ATOM      4  C   UNL     1      -4.534  -4.295  -2.872  1.00  0.00     0.119 A 
ATOM      5  C   UNL     1      -4.703  -3.730  -1.580  1.00  0.00    -0.004 A 
ATOM      6  C   UNL     1      -3.552  -3.485  -0.802  1.00  0.00     0.008 A 
ATOM      7  C   UNL     1      -2.275  -3.703  -1.321  1.00  0.00     0.004 A 
ENDROOT
BRANCH   4   8
ATOM      8  O   UNL     1      -5.608  -4.696  -3.671  1.00  0.00    -0.508 OA
ATOM      9  H   UNL     1      -5.843  -5.660  -3.865  1.00  0.00     0.293 HD
ENDBRANCH   4   8
BRANCH   5  10
ATOM     10  C   UNL     1      -6.090  -3.462  -1.001  1.00  0.00     0.017 C 
ATOM     11  C   UNL     1      -6.525  -1.991  -1.118  1.00  0.00     0.012 C 
ATOM     12  C   UNL     1      -6.156  -3.932   0.455  1.00  0.00     0.012 C 
ENDBRANCH   5  10
TORSDOF 2
ENDMDL
MODEL 9
REMARK VINA RESULT:    -4.653      2.570      5.164
REMARK INTER + INTRA:          -5.251
REMARK INTER:                  -5.066
REMARK INTRA:                  -0.186
REMARK UNBOUND:                -0.190
REMARK SMILES Cc1ccc(C(C)C)c(O)c1
REMARK SMILES IDX 1 1 2 2 11 3 9 4 5 5 4 6 3 7 10 8 6 10 7 11 8 12
REMARK H PARENT 10 9
REMARK Flexibility Score: inf
ROOT
ATOM      1  C   UNL     1       9.547  -4.652   4.793  1.00  0.00     0.044 C 
ATOM      2  C   UNL     1       8.982  -3.864   3.647  1.00  0.00    -0.047 A 
ATOM      3  C   UNL     1       9.515  -2.613   3.321  1.00  0.00     0.049 A 
ATOM      4  C   UNL     1       9.031  -1.888   2.224  1.00  0.00     0.119 A 
ATOM      5  C   UNL     1       7.954  -2.403   1.454  1.00  0.00    -0.004 A 
ATOM      6  C   UNL     1       7.476  -3.696   1.755  1.00  0.00     0.008 A 
ATOM      7  C   UNL     1       7.982  -4.414   2.840  1.00  0.00     0.004 A 
ENDROOT
BRANCH   4   8
ATOM      8  O   UNL     1       9.663  -0.677   1.929  1.00  0.00    -0.508 OA
ATOM      9  H   UNL     1       9.438   0.204   2.371  1.00  0.00     0.293 HD
ENDBRANCH   4   8
BRANCH   5  10
ATOM     10  C   UNL     1       7.370  -1.625   0.277  1.00  0.00     0.017 C 
ATOM     11  C   UNL     1       5.840  -1.487   0.338  1.00  0.00     0.012 C 
ATOM     12  C   UNL     1       7.803  -2.263  -1.046  1.00  0.00     0.012 C 
ENDBRANCH   5  10
TORSDOF 2
ENDMDL
