MODEL 1
REMARK VINA RESULT:    21.780      0.000      0.000
REMARK INTER + INTRA:          33.753
REMARK INTER:                  30.056
REMARK INTRA:                   3.697
REMARK UNBOUND:                 3.697
REMARK SMILES O=C([O-])[C@H]1O[C@@H](Oc2cc3oc(-c4ccccc4)cc(=O)c3c(O)c2O)[C@H](O)[C@@H](O)[C@@H]1O
REMARK SMILES IDX 7 1 6 2 4 3 31 4 5 5 29 6 27 7 2 8 1 9 3 10 32 11 30 13
REMARK SMILES IDX 28 15 8 17 25 18 9 19 23 20 10 21 22 22 11 23 20 24 12 25
REMARK SMILES IDX 19 26 21 27 26 28 24 30 13 32 14 33 18 34 15 35 17 36 16 37
REMARK H PARENT 32 12 30 14 28 16 26 29 24 31
REMARK Flexibility Score: inf
ROOT
ATOM      1  O   UNL     1      10.546  23.244  -2.512  1.00  0.00    -0.458 OA
ENDROOT
BRANCH   1   2
ATOM      2  C   UNL     1      11.027  22.951  -3.831  1.00  0.00     0.339 C 
ATOM      3  C   UNL     1      10.394  20.645  -3.839  1.00  0.00     0.199 C 
ATOM      4  C   UNL     1      11.865  20.169  -3.771  1.00  0.00     0.180 C 
ATOM      5  O   UNL     1      10.243  21.929  -4.435  1.00  0.00    -0.328 OA
ATOM      6  C   UNL     1      12.766  21.239  -3.144  1.00  0.00     0.181 C 
ATOM      7  C   UNL     1      12.536  22.606  -3.814  1.00  0.00     0.214 C 
BRANCH   3   8
ATOM      8  C   UNL     1       9.686  20.559  -2.518  1.00  0.00     0.073 C 
ATOM      9  O   UNL     1      10.165  19.937  -1.535  1.00  0.00    -0.547 OA
ATOM     10  O   UNL     1      10.312  19.877  -1.477  1.00  0.00    -0.547 OA
ENDBRANCH   3   8
BRANCH   4  11
ATOM     11  O   UNL     1      12.316  19.876  -5.067  1.00  0.00    -0.387 OA
ATOM     12  H   UNL     1      13.013  20.538  -5.305  1.00  0.00     0.211 HD
ENDBRANCH   4  11
BRANCH   6  13
ATOM     13  O   UNL     1      12.499  21.311  -1.766  1.00  0.00    -0.387 OA
ATOM     14  H   UNL     1      13.233  20.829  -1.301  1.00  0.00     0.211 HD
ENDBRANCH   6  13
BRANCH   7  15
ATOM     15  O   UNL     1      13.039  22.584  -5.124  1.00  0.00    -0.384 OA
ATOM     16  H   UNL     1      13.117  23.532  -5.417  1.00  0.00     0.211 HD
ENDBRANCH   7  15
ENDBRANCH   1   2
BRANCH   1  17
ATOM     17  C   UNL     1      11.356  23.460  -1.374  1.00  0.00     0.172 A 
ATOM     18  C   UNL     1      12.448  24.335  -1.493  1.00  0.00     0.201 A 
ATOM     19  C   UNL     1      11.100  22.828  -0.142  1.00  0.00     0.098 A 
ATOM     20  C   UNL     1      13.298  24.567  -0.378  1.00  0.00     0.176 A 
ATOM     21  C   UNL     1      11.933  23.032   0.948  1.00  0.00     0.146 A 
ATOM     22  C   UNL     1      13.051  23.886   0.840  1.00  0.00     0.111 A 
ATOM     23  O   UNL     1      11.659  22.404   2.087  1.00  0.00    -0.456 OA
ATOM     24  C   UNL     1      13.872  24.015   1.976  1.00  0.00     0.197 A 
ATOM     25  C   UNL     1      12.400  22.512   3.183  1.00  0.00     0.138 A 
ATOM     26  C   UNL     1      13.547  23.322   3.149  1.00  0.00     0.100 A 
ATOM     27  O   UNL     1      14.900  24.743   1.959  1.00  0.00    -0.289 OA
BRANCH  18  28
ATOM     28  O   UNL     1      12.656  24.943  -2.737  1.00  0.00    -0.502 OA
ATOM     29  H   UNL     1      13.510  25.404  -3.012  1.00  0.00     0.293 HD
ENDBRANCH  18  28
BRANCH  20  30
ATOM     30  O   UNL     1      14.374  25.458  -0.454  1.00  0.00    -0.504 OA
ATOM     31  H   UNL     1      14.895  25.790   0.342  1.00  0.00     0.293 HD
ENDBRANCH  20  30
BRANCH  25  32
ATOM     32  C   UNL     1      11.986  21.749   4.397  1.00  0.00     0.017 A 
ATOM     33  C   UNL     1      10.981  20.756   4.360  1.00  0.00     0.012 A 
ATOM     34  C   UNL     1      12.645  21.988   5.620  1.00  0.00     0.012 A 
ATOM     35  C   UNL     1      10.629  20.055   5.520  1.00  0.00     0.001 A 
ATOM     36  C   UNL     1      12.297  21.274   6.772  1.00  0.00     0.001 A 
ATOM     37  C   UNL     1      11.284  20.315   6.723  1.00  0.00     0.000 A 
ENDBRANCH  25  32
ENDBRANCH   1  17
TORSDOF 9
ENDMDL
MODEL 2
REMARK VINA RESULT:    21.873      1.626      2.963
REMARK INTER + INTRA:          33.882
REMARK INTER:                  30.974
REMARK INTRA:                   2.908
REMARK UNBOUND:                 3.697
REMARK SMILES O=C([O-])[C@H]1O[C@@H](Oc2cc3oc(-c4ccccc4)cc(=O)c3c(O)c2O)[C@H](O)[C@@H](O)[C@@H]1O
REMARK SMILES IDX 7 1 6 2 4 3 31 4 5 5 29 6 27 7 2 8 1 9 3 10 32 11 30 13
REMARK SMILES IDX 28 15 8 17 25 18 9 19 23 20 10 21 22 22 11 23 20 24 12 25
REMARK SMILES IDX 19 26 21 27 26 28 24 30 13 32 14 33 18 34 15 35 17 36 16 37
REMARK H PARENT 32 12 30 14 28 16 26 29 24 31
REMARK Flexibility Score: inf
ROOT
ATOM      1  O   UNL     1      13.106  23.515  -2.485  1.00  0.00    -0.458 OA
ENDROOT
BRANCH   1   2
ATOM      2  C   UNL     1      13.411  22.260  -3.108  1.00  0.00     0.339 C 
ATOM      3  C   UNL     1      11.969  22.542  -4.996  1.00  0.00     0.199 C 
ATOM      4  C   UNL     1      10.989  21.453  -4.497  1.00  0.00     0.180 C 
ATOM      5  O   UNL     1      13.301  22.362  -4.523  1.00  0.00    -0.328 OA
ATOM      6  C   UNL     1      11.076  21.282  -2.976  1.00  0.00     0.181 C 
ATOM      7  C   UNL     1      12.540  21.119  -2.529  1.00  0.00     0.214 C 
BRANCH   3   8
ATOM      8  C   UNL     1      11.474  23.937  -4.746  1.00  0.00     0.073 C 
ATOM      9  O   UNL     1      12.178  24.954  -4.975  1.00  0.00    -0.547 OA
ATOM     10  O   UNL     1      12.314  25.003  -5.063  1.00  0.00    -0.547 OA
ENDBRANCH   3   8
BRANCH   4  11
ATOM     11  O   UNL     1      11.294  20.235  -5.124  1.00  0.00    -0.387 OA
ATOM     12  H   UNL     1      11.760  19.662  -4.467  1.00  0.00     0.211 HD
ENDBRANCH   4  11
BRANCH   6  13
ATOM     13  O   UNL     1      10.490  22.400  -2.357  1.00  0.00    -0.387 OA
ATOM     14  H   UNL     1      10.798  22.403  -1.412  1.00  0.00     0.211 HD
ENDBRANCH   6  13
BRANCH   7  15
ATOM     15  O   UNL     1      13.031  19.875  -2.955  1.00  0.00    -0.384 OA
ATOM     16  H   UNL     1      14.015  19.980  -3.069  1.00  0.00     0.211 HD
ENDBRANCH   7  15
ENDBRANCH   1   2
BRANCH   1  17
ATOM     17  C   UNL     1      12.327  23.682  -1.318  1.00  0.00     0.172 A 
ATOM     18  C   UNL     1      11.193  24.508  -1.390  1.00  0.00     0.201 A 
ATOM     19  C   UNL     1      12.655  23.052  -0.102  1.00  0.00     0.098 A 
ATOM     20  C   UNL     1      10.392  24.717  -0.234  1.00  0.00     0.176 A 
ATOM     21  C   UNL     1      11.892  23.263   1.036  1.00  0.00     0.146 A 
ATOM     22  C   UNL     1      10.765  24.112   0.991  1.00  0.00     0.111 A 
ATOM     23  O   UNL     1      12.248  22.658   2.165  1.00  0.00    -0.456 OA
ATOM     24  C   UNL     1      10.061  24.308   2.194  1.00  0.00     0.197 A 
ATOM     25  C   UNL     1      11.601  22.806   3.315  1.00  0.00     0.138 A 
ATOM     26  C   UNL     1      10.484  23.656   3.359  1.00  0.00     0.100 A 
ATOM     27  O   UNL     1       9.054  25.063   2.246  1.00  0.00    -0.289 OA
BRANCH  18  28
ATOM     28  O   UNL     1      10.905  25.106  -2.623  1.00  0.00    -0.502 OA
ATOM     29  H   UNL     1      10.015  25.510  -2.868  1.00  0.00     0.293 HD
ENDBRANCH  18  28
BRANCH  20  30
ATOM     30  O   UNL     1       9.238  25.507  -0.281  1.00  0.00    -0.504 OA
ATOM     31  H   UNL     1       8.355  25.202  -0.660  1.00  0.00     0.293 HD
ENDBRANCH  20  30
BRANCH  25  32
ATOM     32  C   UNL     1      12.107  22.073   4.512  1.00  0.00     0.017 A 
ATOM     33  C   UNL     1      11.635  20.789   4.868  1.00  0.00     0.012 A 
ATOM     34  C   UNL     1      13.124  22.653   5.297  1.00  0.00     0.012 A 
ATOM     35  C   UNL     1      12.145  20.130   5.994  1.00  0.00     0.001 A 
ATOM     36  C   UNL     1      13.637  21.983   6.413  1.00  0.00     0.001 A 
ATOM     37  C   UNL     1      13.141  20.727   6.766  1.00  0.00     0.000 A 
ENDBRANCH  25  32
ENDBRANCH   1  17
TORSDOF 9
ENDMDL
MODEL 3
REMARK VINA RESULT:    24.352      0.967      2.140
REMARK INTER + INTRA:          37.302
REMARK INTER:                  34.733
REMARK INTRA:                   2.569
REMARK UNBOUND:                 3.697
REMARK SMILES O=C([O-])[C@H]1O[C@@H](Oc2cc3oc(-c4ccccc4)cc(=O)c3c(O)c2O)[C@H](O)[C@@H](O)[C@@H]1O
REMARK SMILES IDX 7 1 6 2 4 3 31 4 5 5 29 6 27 7 2 8 1 9 3 10 32 11 30 13
REMARK SMILES IDX 28 15 8 17 25 18 9 19 23 20 10 21 22 22 11 23 20 24 12 25
REMARK SMILES IDX 19 26 21 27 26 28 24 30 13 32 14 33 18 34 15 35 17 36 16 37
REMARK H PARENT 32 12 30 14 28 16 26 29 24 31
REMARK Flexibility Score: inf
ROOT
ATOM      1  O   UNL     1      11.085  23.502  -2.451  1.00  0.00    -0.458 OA
ENDROOT
BRANCH   1   2
ATOM      2  C   UNL     1      10.646  22.257  -3.012  1.00  0.00     0.339 C 
ATOM      3  C   UNL     1      12.733  21.111  -2.783  1.00  0.00     0.199 C 
ATOM      4  C   UNL     1      12.978  21.107  -4.311  1.00  0.00     0.180 C 
ATOM      5  O   UNL     1      11.354  21.168  -2.432  1.00  0.00    -0.328 OA
ATOM      6  C   UNL     1      12.222  22.250  -4.998  1.00  0.00     0.181 C 
ATOM      7  C   UNL     1      10.747  22.271  -4.557  1.00  0.00     0.214 C 
BRANCH   3   8
ATOM      8  C   UNL     1      13.533  22.159  -2.063  1.00  0.00     0.073 C 
ATOM      9  O   UNL     1      14.778  22.069  -1.908  1.00  0.00    -0.547 OA
ATOM     10  O   UNL     1      14.913  21.988  -1.971  1.00  0.00    -0.547 OA
ENDBRANCH   3   8
BRANCH   4  11
ATOM     11  O   UNL     1      12.554  19.878  -4.842  1.00  0.00    -0.387 OA
ATOM     12  H   UNL     1      11.842  20.061  -5.505  1.00  0.00     0.211 HD
ENDBRANCH   4  11
BRANCH   6  13
ATOM     13  O   UNL     1      12.852  23.467  -4.683  1.00  0.00    -0.387 OA
ATOM     14  H   UNL     1      12.854  24.016  -5.512  1.00  0.00     0.211 HD
ENDBRANCH   6  13
BRANCH   7  15
ATOM     15  O   UNL     1      10.075  21.162  -5.093  1.00  0.00    -0.384 OA
ATOM     16  H   UNL     1       9.749  20.624  -4.321  1.00  0.00     0.211 HD
ENDBRANCH   7  15
ENDBRANCH   1   2
BRANCH   1  17
ATOM     17  C   UNL     1      11.747  23.654  -1.211  1.00  0.00     0.172 A 
ATOM     18  C   UNL     1      12.808  24.571  -1.134  1.00  0.00     0.201 A 
ATOM     19  C   UNL     1      11.374  22.920  -0.069  1.00  0.00     0.098 A 
ATOM     20  C   UNL     1      13.511  24.742   0.089  1.00  0.00     0.176 A 
ATOM     21  C   UNL     1      12.065  23.065   1.125  1.00  0.00     0.146 A 
ATOM     22  C   UNL     1      13.152  23.961   1.215  1.00  0.00     0.111 A 
ATOM     23  O   UNL     1      11.687  22.341   2.173  1.00  0.00    -0.456 OA
ATOM     24  C   UNL     1      13.829  24.028   2.447  1.00  0.00     0.197 A 
ATOM     25  C   UNL     1      12.289  22.387   3.355  1.00  0.00     0.138 A 
ATOM     26  C   UNL     1      13.398  23.235   3.518  1.00  0.00     0.100 A 
ATOM     27  O   UNL     1      14.820  24.787   2.608  1.00  0.00    -0.289 OA
BRANCH  18  28
ATOM     28  O   UNL     1      13.135  25.281  -2.296  1.00  0.00    -0.502 OA
ATOM     29  H   UNL     1      13.293  26.276  -2.332  1.00  0.00     0.293 HD
ENDBRANCH  18  28
BRANCH  20  30
ATOM     30  O   UNL     1      14.551  25.672   0.208  1.00  0.00    -0.504 OA
ATOM     31  H   UNL     1      14.424  26.671   0.198  1.00  0.00     0.293 HD
ENDBRANCH  20  30
BRANCH  25  32
ATOM     32  C   UNL     1      11.768  21.519   4.451  1.00  0.00     0.017 A 
ATOM     33  C   UNL     1      12.460  21.343   5.671  1.00  0.00     0.012 A 
ATOM     34  C   UNL     1      10.521  20.882   4.292  1.00  0.00     0.012 A 
ATOM     35  C   UNL     1      11.930  20.527   6.679  1.00  0.00     0.001 A 
ATOM     36  C   UNL     1       9.992  20.080   5.309  1.00  0.00     0.001 A 
ATOM     37  C   UNL     1      10.700  19.895   6.497  1.00  0.00     0.000 A 
ENDBRANCH  25  32
ENDBRANCH   1  17
TORSDOF 9
ENDMDL
