MODEL 1
REMARK VINA RESULT:    -6.677      0.000      0.000
REMARK INTER + INTRA:          -8.138
REMARK INTER:                  -7.848
REMARK INTRA:                  -0.290
REMARK UNBOUND:                -0.290
REMARK SMILES O=c1c(O)c(-c2ccc(O)cc2)oc2cc(O)cc(O)c12
REMARK SMILES IDX 5 1 3 2 2 3 1 4 21 5 19 6 18 7 16 8 15 9 14 10 13 11 6 12
REMARK SMILES IDX 7 13 8 14 9 15 12 16 11 17 10 18 4 20 20 22 17 24
REMARK H PARENT 10 19 4 21 20 23 17 25
REMARK Flexibility Score: inf
ROOT
ATOM      1  C   UNL     1    -118.435  -2.241  76.953  1.00  0.00     0.180 A 
ATOM      2  C   UNL     1    -118.633  -0.964  77.505  1.00  0.00     0.208 A 
ATOM      3  C   UNL     1    -117.543  -0.297  78.086  1.00  0.00     0.238 A 
ATOM      4  O   UNL     1    -117.713   0.869  78.531  1.00  0.00    -0.285 OA
ATOM      5  C   UNL     1    -116.273  -0.922  78.123  1.00  0.00     0.111 A 
ATOM      6  C   UNL     1    -115.108  -0.356  78.723  1.00  0.00     0.134 A 
ATOM      7  C   UNL     1    -113.875  -1.006  78.586  1.00  0.00     0.093 A 
ATOM      8  C   UNL     1    -113.778  -2.234  77.927  1.00  0.00     0.123 A 
ATOM      9  C   UNL     1    -114.920  -2.822  77.390  1.00  0.00     0.094 A 
ATOM     10  C   UNL     1    -116.158  -2.181  77.479  1.00  0.00     0.146 A 
ATOM     11  O   UNL     1    -117.219  -2.774  76.944  1.00  0.00    -0.452 OA
ENDROOT
BRANCH   1  12
ATOM     12  C   UNL     1    -119.541  -3.017  76.346  1.00  0.00     0.021 A 
ATOM     13  C   UNL     1    -119.694  -3.026  74.950  1.00  0.00     0.016 A 
ATOM     14  C   UNL     1    -120.718  -3.769  74.353  1.00  0.00     0.047 A 
ATOM     15  C   UNL     1    -121.589  -4.525  75.143  1.00  0.00     0.115 A 
ATOM     16  C   UNL     1    -120.411  -3.794  77.134  1.00  0.00     0.016 A 
ATOM     17  C   UNL     1    -121.432  -4.537  76.535  1.00  0.00     0.047 A 
BRANCH  15  18
ATOM     18  O   UNL     1    -122.606  -5.260  74.536  1.00  0.00    -0.508 OA
ATOM     19  H   UNL     1    -123.424  -4.810  74.145  1.00  0.00     0.293 HD
ENDBRANCH  15  18
ENDBRANCH   1  12
BRANCH   2  20
ATOM     20  O   UNL     1    -119.890  -0.356  77.439  1.00  0.00    -0.502 OA
ATOM     21  H   UNL     1    -120.753  -0.887  77.464  1.00  0.00     0.293 HD
ENDBRANCH   2  20
BRANCH   6  22
ATOM     22  O   UNL     1    -115.113   0.819  79.482  1.00  0.00    -0.507 OA
ATOM     23  H   UNL     1    -114.340   1.465  79.545  1.00  0.00     0.293 HD
ENDBRANCH   6  22
BRANCH   8  24
ATOM     24  O   UNL     1    -112.550  -2.881  77.808  1.00  0.00    -0.508 OA
ATOM     25  H   UNL     1    -112.196  -3.485  78.541  1.00  0.00     0.293 HD
ENDBRANCH   8  24
TORSDOF 5
ENDMDL
MODEL 2
REMARK VINA RESULT:    -5.968      3.486      4.174
REMARK INTER + INTRA:          -7.304
REMARK INTER:                  -7.005
REMARK INTRA:                  -0.299
REMARK UNBOUND:                -0.290
REMARK SMILES O=c1c(O)c(-c2ccc(O)cc2)oc2cc(O)cc(O)c12
REMARK SMILES IDX 5 1 3 2 2 3 1 4 21 5 19 6 18 7 16 8 15 9 14 10 13 11 6 12
REMARK SMILES IDX 7 13 8 14 9 15 12 16 11 17 10 18 4 20 20 22 17 24
REMARK H PARENT 10 19 4 21 20 23 17 25
REMARK Flexibility Score: inf
ROOT
ATOM      1  C   UNL     1    -117.216  -1.649  79.510  1.00  0.00     0.180 A 
ATOM      2  C   UNL     1    -116.302  -0.591  79.649  1.00  0.00     0.208 A 
ATOM      3  C   UNL     1    -115.449  -0.571  80.764  1.00  0.00     0.238 A 
ATOM      4  O   UNL     1    -114.595   0.350  80.856  1.00  0.00    -0.285 OA
ATOM      5  C   UNL     1    -115.532  -1.599  81.734  1.00  0.00     0.111 A 
ATOM      6  C   UNL     1    -114.745  -1.658  82.923  1.00  0.00     0.134 A 
ATOM      7  C   UNL     1    -114.818  -2.790  83.745  1.00  0.00     0.093 A 
ATOM      8  C   UNL     1    -115.699  -3.834  83.455  1.00  0.00     0.123 A 
ATOM      9  C   UNL     1    -116.514  -3.759  82.328  1.00  0.00     0.094 A 
ATOM     10  C   UNL     1    -116.437  -2.660  81.469  1.00  0.00     0.146 A 
ATOM     11  O   UNL     1    -117.225  -2.634  80.401  1.00  0.00    -0.452 OA
ENDROOT
BRANCH   1  12
ATOM     12  C   UNL     1    -118.165  -1.727  78.375  1.00  0.00     0.021 A 
ATOM     13  C   UNL     1    -117.829  -2.486  77.243  1.00  0.00     0.016 A 
ATOM     14  C   UNL     1    -118.719  -2.591  76.169  1.00  0.00     0.047 A 
ATOM     15  C   UNL     1    -119.961  -1.952  76.221  1.00  0.00     0.115 A 
ATOM     16  C   UNL     1    -119.425  -1.101  78.429  1.00  0.00     0.016 A 
ATOM     17  C   UNL     1    -120.313  -1.209  77.355  1.00  0.00     0.047 A 
BRANCH  15  18
ATOM     18  O   UNL     1    -120.838  -2.064  75.144  1.00  0.00    -0.508 OA
ATOM     19  H   UNL     1    -120.563  -1.795  74.208  1.00  0.00     0.293 HD
ENDBRANCH  15  18
ENDBRANCH   1  12
BRANCH   2  20
ATOM     20  O   UNL     1    -116.222   0.402  78.670  1.00  0.00    -0.502 OA
ATOM     21  H   UNL     1    -116.682   0.318  77.770  1.00  0.00     0.293 HD
ENDBRANCH   2  20
BRANCH   6  22
ATOM     22  O   UNL     1    -113.903  -0.628  83.353  1.00  0.00    -0.507 OA
ATOM     23  H   UNL     1    -113.596   0.141  82.777  1.00  0.00     0.293 HD
ENDBRANCH   6  22
BRANCH   8  24
ATOM     24  O   UNL     1    -115.777  -4.949  84.287  1.00  0.00    -0.508 OA
ATOM     25  H   UNL     1    -114.970  -5.285  84.800  1.00  0.00     0.293 HD
ENDBRANCH   8  24
TORSDOF 5
ENDMDL
MODEL 3
REMARK VINA RESULT:    -5.858     14.079     15.205
REMARK INTER + INTRA:          -7.175
REMARK INTER:                  -6.909
REMARK INTRA:                  -0.266
REMARK UNBOUND:                -0.290
REMARK SMILES O=c1c(O)c(-c2ccc(O)cc2)oc2cc(O)cc(O)c12
REMARK SMILES IDX 5 1 3 2 2 3 1 4 21 5 19 6 18 7 16 8 15 9 14 10 13 11 6 12
REMARK SMILES IDX 7 13 8 14 9 15 12 16 11 17 10 18 4 20 20 22 17 24
REMARK H PARENT 10 19 4 21 20 23 17 25
REMARK Flexibility Score: inf
ROOT
ATOM      1  C   UNL     1    -118.461 -13.509  87.157  1.00  0.00     0.180 A 
ATOM      2  C   UNL     1    -117.841 -12.358  87.671  1.00  0.00     0.208 A 
ATOM      3  C   UNL     1    -117.534 -11.303  86.797  1.00  0.00     0.238 A 
ATOM      4  O   UNL     1    -117.029 -10.252  87.272  1.00  0.00    -0.285 OA
ATOM      5  C   UNL     1    -117.834 -11.419  85.419  1.00  0.00     0.111 A 
ATOM      6  C   UNL     1    -117.530 -10.430  84.436  1.00  0.00     0.134 A 
ATOM      7  C   UNL     1    -117.990 -10.594  83.124  1.00  0.00     0.093 A 
ATOM      8  C   UNL     1    -118.686 -11.744  82.744  1.00  0.00     0.123 A 
ATOM      9  C   UNL     1    -118.936 -12.743  83.683  1.00  0.00     0.094 A 
ATOM     10  C   UNL     1    -118.522 -12.591  85.008  1.00  0.00     0.146 A 
ATOM     11  O   UNL     1    -118.789 -13.563  85.871  1.00  0.00    -0.452 OA
ENDROOT
BRANCH   1  12
ATOM     12  C   UNL     1    -118.793 -14.674  88.011  1.00  0.00     0.021 A 
ATOM     13  C   UNL     1    -119.978 -14.662  88.766  1.00  0.00     0.016 A 
ATOM     14  C   UNL     1    -120.322 -15.759  89.562  1.00  0.00     0.047 A 
ATOM     15  C   UNL     1    -119.496 -16.886  89.600  1.00  0.00     0.115 A 
ATOM     16  C   UNL     1    -117.976 -15.819  88.039  1.00  0.00     0.016 A 
ATOM     17  C   UNL     1    -118.324 -16.915  88.835  1.00  0.00     0.047 A 
BRANCH  15  18
ATOM     18  O   UNL     1    -119.851 -17.972  90.398  1.00  0.00    -0.508 OA
ATOM     19  H   UNL     1    -119.245 -18.305  91.138  1.00  0.00     0.293 HD
ENDBRANCH  15  18
ENDBRANCH   1  12
BRANCH   2  20
ATOM     20  O   UNL     1    -117.574 -12.254  89.039  1.00  0.00    -0.502 OA
ATOM     21  H   UNL     1    -117.515 -11.361  89.516  1.00  0.00     0.293 HD
ENDBRANCH   2  20
BRANCH   6  22
ATOM     22  O   UNL     1    -116.762  -9.289  84.689  1.00  0.00    -0.507 OA
ATOM     23  H   UNL     1    -116.034  -9.229  85.385  1.00  0.00     0.293 HD
ENDBRANCH   6  22
BRANCH   8  24
ATOM     24  O   UNL     1    -119.127 -11.907  81.432  1.00  0.00    -0.508 OA
ATOM     25  H   UNL     1    -119.775 -12.644  81.178  1.00  0.00     0.293 HD
ENDBRANCH   8  24
TORSDOF 5
ENDMDL
MODEL 4
REMARK VINA RESULT:    -5.833     16.508     17.673
REMARK INTER + INTRA:          -7.147
REMARK INTER:                  -6.851
REMARK INTRA:                  -0.296
REMARK UNBOUND:                -0.290
REMARK SMILES O=c1c(O)c(-c2ccc(O)cc2)oc2cc(O)cc(O)c12
REMARK SMILES IDX 5 1 3 2 2 3 1 4 21 5 19 6 18 7 16 8 15 9 14 10 13 11 6 12
REMARK SMILES IDX 7 13 8 14 9 15 12 16 11 17 10 18 4 20 20 22 17 24
REMARK H PARENT 10 19 4 21 20 23 17 25
REMARK Flexibility Score: inf
ROOT
ATOM      1  C   UNL     1    -118.084 -14.006  88.300  1.00  0.00     0.180 A 
ATOM      2  C   UNL     1    -119.343 -14.359  88.816  1.00  0.00     0.208 A 
ATOM      3  C   UNL     1    -119.494 -15.604  89.447  1.00  0.00     0.238 A 
ATOM      4  O   UNL     1    -120.610 -15.892  89.956  1.00  0.00    -0.285 OA
ATOM      5  C   UNL     1    -118.392 -16.487  89.539  1.00  0.00     0.111 A 
ATOM      6  C   UNL     1    -118.442 -17.789  90.120  1.00  0.00     0.134 A 
ATOM      7  C   UNL     1    -117.259 -18.524  90.274  1.00  0.00     0.093 A 
ATOM      8  C   UNL     1    -116.039 -18.029  89.807  1.00  0.00     0.123 A 
ATOM      9  C   UNL     1    -115.990 -16.783  89.185  1.00  0.00     0.094 A 
ATOM     10  C   UNL     1    -117.146 -16.012  89.050  1.00  0.00     0.146 A 
ATOM     11  O   UNL     1    -117.053 -14.827  88.459  1.00  0.00    -0.452 OA
ENDROOT
BRANCH   1  12
ATOM     12  C   UNL     1    -117.852 -12.721  87.600  1.00  0.00     0.021 A 
ATOM     13  C   UNL     1    -117.311 -11.635  88.308  1.00  0.00     0.016 A 
ATOM     14  C   UNL     1    -117.063 -10.420  87.662  1.00  0.00     0.047 A 
ATOM     15  C   UNL     1    -117.337 -10.281  86.298  1.00  0.00     0.115 A 
ATOM     16  C   UNL     1    -118.108 -12.580  86.223  1.00  0.00     0.016 A 
ATOM     17  C   UNL     1    -117.858 -11.365  85.580  1.00  0.00     0.047 A 
BRANCH  15  18
ATOM     18  O   UNL     1    -117.086  -9.064  85.666  1.00  0.00    -0.508 OA
ATOM     19  H   UNL     1    -117.835  -8.423  85.437  1.00  0.00     0.293 HD
ENDBRANCH  15  18
ENDBRANCH   1  12
BRANCH   2  20
ATOM     20  O   UNL     1    -120.413 -13.463  88.735  1.00  0.00    -0.502 OA
ATOM     21  H   UNL     1    -120.484 -12.645  89.330  1.00  0.00     0.293 HD
ENDBRANCH   2  20
BRANCH   6  22
ATOM     22  O   UNL     1    -119.622 -18.415  90.534  1.00  0.00    -0.507 OA
ATOM     23  H   UNL     1    -120.079 -18.251  91.419  1.00  0.00     0.293 HD
ENDBRANCH   6  22
BRANCH   8  24
ATOM     24  O   UNL     1    -114.870 -18.773  89.950  1.00  0.00    -0.508 OA
ATOM     25  H   UNL     1    -114.431 -18.903  90.854  1.00  0.00     0.293 HD
ENDBRANCH   8  24
TORSDOF 5
ENDMDL
MODEL 5
REMARK VINA RESULT:    -5.784      8.634     10.665
REMARK INTER + INTRA:          -7.088
REMARK INTER:                  -6.822
REMARK INTRA:                  -0.266
REMARK UNBOUND:                -0.290
REMARK SMILES O=c1c(O)c(-c2ccc(O)cc2)oc2cc(O)cc(O)c12
REMARK SMILES IDX 5 1 3 2 2 3 1 4 21 5 19 6 18 7 16 8 15 9 14 10 13 11 6 12
REMARK SMILES IDX 7 13 8 14 9 15 12 16 11 17 10 18 4 20 20 22 17 24
REMARK H PARENT 10 19 4 21 20 23 17 25
REMARK Flexibility Score: inf
ROOT
ATOM      1  C   UNL     1    -114.931  -9.962  80.360  1.00  0.00     0.180 A 
ATOM      2  C   UNL     1    -114.520  -9.405  81.583  1.00  0.00     0.208 A 
ATOM      3  C   UNL     1    -115.350  -9.543  82.707  1.00  0.00     0.238 A 
ATOM      4  O   UNL     1    -114.951  -9.090  83.812  1.00  0.00    -0.285 OA
ATOM      5  C   UNL     1    -116.588 -10.220  82.591  1.00  0.00     0.111 A 
ATOM      6  C   UNL     1    -117.526 -10.384  83.653  1.00  0.00     0.134 A 
ATOM      7  C   UNL     1    -118.658 -11.184  83.459  1.00  0.00     0.093 A 
ATOM      8  C   UNL     1    -118.919 -11.773  82.219  1.00  0.00     0.123 A 
ATOM      9  C   UNL     1    -118.039 -11.570  81.158  1.00  0.00     0.094 A 
ATOM     10  C   UNL     1    -116.883 -10.807  81.332  1.00  0.00     0.146 A 
ATOM     11  O   UNL     1    -116.067 -10.648  80.297  1.00  0.00    -0.452 OA
ENDROOT
BRANCH   1  12
ATOM     12  C   UNL     1    -114.123  -9.836  79.125  1.00  0.00     0.021 A 
ATOM     13  C   UNL     1    -113.061 -10.727  78.900  1.00  0.00     0.016 A 
ATOM     14  C   UNL     1    -112.298 -10.641  77.731  1.00  0.00     0.047 A 
ATOM     15  C   UNL     1    -112.597  -9.675  76.767  1.00  0.00     0.115 A 
ATOM     16  C   UNL     1    -114.431  -8.878  78.141  1.00  0.00     0.016 A 
ATOM     17  C   UNL     1    -113.668  -8.795  76.973  1.00  0.00     0.047 A 
BRANCH  15  18
ATOM     18  O   UNL     1    -111.829  -9.599  75.607  1.00  0.00    -0.508 OA
ATOM     19  H   UNL     1    -110.931  -9.132  75.596  1.00  0.00     0.293 HD
ENDBRANCH  15  18
ENDBRANCH   1  12
BRANCH   2  20
ATOM     20  O   UNL     1    -113.284  -8.760  81.681  1.00  0.00    -0.502 OA
ATOM     21  H   UNL     1    -112.838  -8.314  80.888  1.00  0.00     0.293 HD
ENDBRANCH   2  20
BRANCH   6  22
ATOM     22  O   UNL     1    -117.407  -9.764  84.901  1.00  0.00    -0.507 OA
ATOM     23  H   UNL     1    -118.178  -9.579  85.526  1.00  0.00     0.293 HD
ENDBRANCH   6  22
BRANCH   8  24
ATOM     24  O   UNL     1    -120.057 -12.555  82.030  1.00  0.00    -0.508 OA
ATOM     25  H   UNL     1    -120.796 -12.592  82.722  1.00  0.00     0.293 HD
ENDBRANCH   8  24
TORSDOF 5
ENDMDL
MODEL 6
REMARK VINA RESULT:    -5.779      6.546      9.318
REMARK INTER + INTRA:          -7.083
REMARK INTER:                  -6.929
REMARK INTRA:                  -0.154
REMARK UNBOUND:                -0.290
REMARK SMILES O=c1c(O)c(-c2ccc(O)cc2)oc2cc(O)cc(O)c12
REMARK SMILES IDX 5 1 3 2 2 3 1 4 21 5 19 6 18 7 16 8 15 9 14 10 13 11 6 12
REMARK SMILES IDX 7 13 8 14 9 15 12 16 11 17 10 18 4 20 20 22 17 24
REMARK H PARENT 10 19 4 21 20 23 17 25
REMARK Flexibility Score: inf
ROOT
ATOM      1  C   UNL     1    -109.885  -1.952  74.441  1.00  0.00     0.180 A 
ATOM      2  C   UNL     1    -109.450  -0.619  74.535  1.00  0.00     0.208 A 
ATOM      3  C   UNL     1    -108.088  -0.333  74.347  1.00  0.00     0.238 A 
ATOM      4  O   UNL     1    -107.712   0.868  74.377  1.00  0.00    -0.285 OA
ATOM      5  C   UNL     1    -107.176  -1.384  74.085  1.00  0.00     0.111 A 
ATOM      6  C   UNL     1    -105.769  -1.215  73.918  1.00  0.00     0.134 A 
ATOM      7  C   UNL     1    -104.982  -2.307  73.533  1.00  0.00     0.093 A 
ATOM      8  C   UNL     1    -105.543  -3.577  73.374  1.00  0.00     0.123 A 
ATOM      9  C   UNL     1    -106.905  -3.764  73.592  1.00  0.00     0.094 A 
ATOM     10  C   UNL     1    -107.723  -2.687  73.941  1.00  0.00     0.146 A 
ATOM     11  O   UNL     1    -109.018  -2.908  74.130  1.00  0.00    -0.452 OA
ENDROOT
BRANCH   1  12
ATOM     12  C   UNL     1    -111.300  -2.335  74.652  1.00  0.00     0.021 A 
ATOM     13  C   UNL     1    -111.656  -3.062  75.799  1.00  0.00     0.016 A 
ATOM     14  C   UNL     1    -112.990  -3.416  76.029  1.00  0.00     0.047 A 
ATOM     15  C   UNL     1    -113.984  -3.034  75.125  1.00  0.00     0.115 A 
ATOM     16  C   UNL     1    -112.309  -1.937  73.755  1.00  0.00     0.016 A 
ATOM     17  C   UNL     1    -113.641  -2.291  73.988  1.00  0.00     0.047 A 
BRANCH  15  18
ATOM     18  O   UNL     1    -115.309  -3.393  75.365  1.00  0.00    -0.508 OA
ATOM     19  H   UNL     1    -116.020  -2.698  75.553  1.00  0.00     0.293 HD
ENDBRANCH  15  18
ENDBRANCH   1  12
BRANCH   2  20
ATOM     20  O   UNL     1    -110.369   0.407  74.772  1.00  0.00    -0.502 OA
ATOM     21  H   UNL     1    -111.369   0.244  74.801  1.00  0.00     0.293 HD
ENDBRANCH   2  20
BRANCH   6  22
ATOM     22  O   UNL     1    -105.096  -0.010  74.144  1.00  0.00    -0.507 OA
ATOM     23  H   UNL     1    -104.096   0.109  74.080  1.00  0.00     0.293 HD
ENDBRANCH   6  22
BRANCH   8  24
ATOM     24  O   UNL     1    -104.750  -4.662  73.006  1.00  0.00    -0.508 OA
ATOM     25  H   UNL     1    -104.834  -5.561  73.465  1.00  0.00     0.293 HD
ENDBRANCH   8  24
TORSDOF 5
ENDMDL
MODEL 7
REMARK VINA RESULT:    -5.779      6.788     10.269
REMARK INTER + INTRA:          -7.082
REMARK INTER:                  -6.793
REMARK INTRA:                  -0.289
REMARK UNBOUND:                -0.290
REMARK SMILES O=c1c(O)c(-c2ccc(O)cc2)oc2cc(O)cc(O)c12
REMARK SMILES IDX 5 1 3 2 2 3 1 4 21 5 19 6 18 7 16 8 15 9 14 10 13 11 6 12
REMARK SMILES IDX 7 13 8 14 9 15 12 16 11 17 10 18 4 20 20 22 17 24
REMARK H PARENT 10 19 4 21 20 23 17 25
REMARK Flexibility Score: inf
ROOT
ATOM      1  C   UNL     1    -109.242  -1.889  74.974  1.00  0.00     0.180 A 
ATOM      2  C   UNL     1    -108.948  -3.243  74.734  1.00  0.00     0.208 A 
ATOM      3  C   UNL     1    -107.695  -3.582  74.197  1.00  0.00     0.238 A 
ATOM      4  O   UNL     1    -107.417  -4.799  74.034  1.00  0.00    -0.285 OA
ATOM      5  C   UNL     1    -106.760  -2.564  73.891  1.00  0.00     0.111 A 
ATOM      6  C   UNL     1    -105.478  -2.790  73.305  1.00  0.00     0.134 A 
ATOM      7  C   UNL     1    -104.584  -1.721  73.168  1.00  0.00     0.093 A 
ATOM      8  C   UNL     1    -104.951  -0.424  73.532  1.00  0.00     0.123 A 
ATOM      9  C   UNL     1    -106.221  -0.184  74.050  1.00  0.00     0.094 A 
ATOM     10  C   UNL     1    -107.123  -1.235  74.233  1.00  0.00     0.146 A 
ATOM     11  O   UNL     1    -108.320  -0.963  74.738  1.00  0.00    -0.452 OA
ENDROOT
BRANCH   1  12
ATOM     12  C   UNL     1    -110.549  -1.451  75.515  1.00  0.00     0.021 A 
ATOM     13  C   UNL     1    -111.612  -1.195  74.633  1.00  0.00     0.016 A 
ATOM     14  C   UNL     1    -112.861  -0.801  75.123  1.00  0.00     0.047 A 
ATOM     15  C   UNL     1    -113.067  -0.674  76.500  1.00  0.00     0.115 A 
ATOM     16  C   UNL     1    -110.769  -1.340  76.901  1.00  0.00     0.016 A 
ATOM     17  C   UNL     1    -112.019  -0.947  77.388  1.00  0.00     0.047 A 
BRANCH  15  18
ATOM     18  O   UNL     1    -114.316  -0.280  76.975  1.00  0.00    -0.508 OA
ATOM     19  H   UNL     1    -115.138  -0.858  76.848  1.00  0.00     0.293 HD
ENDBRANCH  15  18
ENDBRANCH   1  12
BRANCH   2  20
ATOM     20  O   UNL     1    -109.876  -4.233  75.064  1.00  0.00    -0.502 OA
ATOM     21  H   UNL     1    -109.993  -5.075  74.511  1.00  0.00     0.293 HD
ENDBRANCH   2  20
BRANCH   6  22
ATOM     22  O   UNL     1    -105.048  -4.029  72.822  1.00  0.00    -0.507 OA
ATOM     23  H   UNL     1    -105.005  -4.282  71.846  1.00  0.00     0.293 HD
ENDBRANCH   6  22
BRANCH   8  24
ATOM     24  O   UNL     1    -104.060   0.636  73.377  1.00  0.00    -0.508 OA
ATOM     25  H   UNL     1    -103.057   0.489  73.364  1.00  0.00     0.293 HD
ENDBRANCH   8  24
TORSDOF 5
ENDMDL
MODEL 8
REMARK VINA RESULT:    -5.671      2.815      5.389
REMARK INTER + INTRA:          -6.956
REMARK INTER:                  -6.661
REMARK INTRA:                  -0.294
REMARK UNBOUND:                -0.290
REMARK SMILES O=c1c(O)c(-c2ccc(O)cc2)oc2cc(O)cc(O)c12
REMARK SMILES IDX 5 1 3 2 2 3 1 4 21 5 19 6 18 7 16 8 15 9 14 10 13 11 6 12
REMARK SMILES IDX 7 13 8 14 9 15 12 16 11 17 10 18 4 20 20 22 17 24
REMARK H PARENT 10 19 4 21 20 23 17 25
REMARK Flexibility Score: inf
ROOT
ATOM      1  C   UNL     1    -114.861  -2.187  76.903  1.00  0.00     0.180 A 
ATOM      2  C   UNL     1    -114.092  -3.190  77.519  1.00  0.00     0.208 A 
ATOM      3  C   UNL     1    -112.825  -3.494  76.996  1.00  0.00     0.238 A 
ATOM      4  O   UNL     1    -112.119  -4.354  77.584  1.00  0.00    -0.285 OA
ATOM      5  C   UNL     1    -112.350  -2.805  75.854  1.00  0.00     0.111 A 
ATOM      6  C   UNL     1    -111.100  -3.060  75.215  1.00  0.00     0.134 A 
ATOM      7  C   UNL     1    -110.674  -2.229  74.171  1.00  0.00     0.093 A 
ATOM      8  C   UNL     1    -111.485  -1.193  73.701  1.00  0.00     0.123 A 
ATOM      9  C   UNL     1    -112.733  -0.974  74.279  1.00  0.00     0.094 A 
ATOM     10  C   UNL     1    -113.169  -1.763  75.346  1.00  0.00     0.146 A 
ATOM     11  O   UNL     1    -114.361  -1.513  75.873  1.00  0.00    -0.452 OA
ENDROOT
BRANCH   1  12
ATOM     12  C   UNL     1    -116.216  -1.827  77.381  1.00  0.00     0.021 A 
ATOM     13  C   UNL     1    -116.379  -0.717  78.225  1.00  0.00     0.016 A 
ATOM     14  C   UNL     1    -117.651  -0.346  78.671  1.00  0.00     0.047 A 
ATOM     15  C   UNL     1    -118.776  -1.070  78.266  1.00  0.00     0.115 A 
ATOM     16  C   UNL     1    -117.354  -2.541  76.962  1.00  0.00     0.016 A 
ATOM     17  C   UNL     1    -118.625  -2.167  77.408  1.00  0.00     0.047 A 
BRANCH  15  18
ATOM     18  O   UNL     1    -120.039  -0.690  78.718  1.00  0.00    -0.508 OA
ATOM     19  H   UNL     1    -120.647  -1.342  79.198  1.00  0.00     0.293 HD
ENDBRANCH  15  18
ENDBRANCH   1  12
BRANCH   2  20
ATOM     20  O   UNL     1    -114.571  -3.842  78.658  1.00  0.00    -0.502 OA
ATOM     21  H   UNL     1    -114.806  -3.347  79.511  1.00  0.00     0.293 HD
ENDBRANCH   2  20
BRANCH   6  22
ATOM     22  O   UNL     1    -110.256  -4.125  75.547  1.00  0.00    -0.507 OA
ATOM     23  H   UNL     1    -109.411  -4.041  76.091  1.00  0.00     0.293 HD
ENDBRANCH   6  22
BRANCH   8  24
ATOM     24  O   UNL     1    -111.061  -0.380  72.651  1.00  0.00    -0.508 OA
ATOM     25  H   UNL     1    -110.663   0.537  72.818  1.00  0.00     0.293 HD
ENDBRANCH   8  24
TORSDOF 5
ENDMDL
MODEL 9
REMARK VINA RESULT:    -5.648      6.736     10.304
REMARK INTER + INTRA:          -6.929
REMARK INTER:                  -6.644
REMARK INTRA:                  -0.285
REMARK UNBOUND:                -0.290
REMARK SMILES O=c1c(O)c(-c2ccc(O)cc2)oc2cc(O)cc(O)c12
REMARK SMILES IDX 5 1 3 2 2 3 1 4 21 5 19 6 18 7 16 8 15 9 14 10 13 11 6 12
REMARK SMILES IDX 7 13 8 14 9 15 12 16 11 17 10 18 4 20 20 22 17 24
REMARK H PARENT 10 19 4 21 20 23 17 25
REMARK Flexibility Score: inf
ROOT
ATOM      1  C   UNL     1    -109.202  -2.745  75.141  1.00  0.00     0.180 A 
ATOM      2  C   UNL     1    -109.001  -4.124  75.319  1.00  0.00     0.208 A 
ATOM      3  C   UNL     1    -107.778  -4.690  74.924  1.00  0.00     0.238 A 
ATOM      4  O   UNL     1    -107.582  -5.916  75.136  1.00  0.00    -0.285 OA
ATOM      5  C   UNL     1    -106.779  -3.874  74.341  1.00  0.00     0.111 A 
ATOM      6  C   UNL     1    -105.520  -4.348  73.866  1.00  0.00     0.134 A 
ATOM      7  C   UNL     1    -104.557  -3.430  73.428  1.00  0.00     0.093 A 
ATOM      8  C   UNL     1    -104.834  -2.062  73.384  1.00  0.00     0.123 A 
ATOM      9  C   UNL     1    -106.082  -1.596  73.789  1.00  0.00     0.094 A 
ATOM     10  C   UNL     1    -107.050  -2.482  74.266  1.00  0.00     0.146 A 
ATOM     11  O   UNL     1    -108.223  -1.994  74.651  1.00  0.00    -0.452 OA
ENDROOT
BRANCH   1  12
ATOM     12  C   UNL     1    -110.474  -2.080  75.509  1.00  0.00     0.021 A 
ATOM     13  C   UNL     1    -111.495  -1.962  74.553  1.00  0.00     0.016 A 
ATOM     14  C   UNL     1    -112.712  -1.358  74.885  1.00  0.00     0.047 A 
ATOM     15  C   UNL     1    -112.928  -0.878  76.180  1.00  0.00     0.115 A 
ATOM     16  C   UNL     1    -110.704  -1.612  76.816  1.00  0.00     0.016 A 
ATOM     17  C   UNL     1    -111.922  -1.009  77.146  1.00  0.00     0.047 A 
BRANCH  15  18
ATOM     18  O   UNL     1    -114.144  -0.277  76.498  1.00  0.00    -0.508 OA
ATOM     19  H   UNL     1    -114.397   0.632  76.131  1.00  0.00     0.293 HD
ENDBRANCH  15  18
ENDBRANCH   1  12
BRANCH   2  20
ATOM     20  O   UNL     1    -109.991  -4.908  75.918  1.00  0.00    -0.502 OA
ATOM     21  H   UNL     1    -110.016  -5.917  75.826  1.00  0.00     0.293 HD
ENDBRANCH   2  20
BRANCH   6  22
ATOM     22  O   UNL     1    -105.177  -5.701  73.781  1.00  0.00    -0.507 OA
ATOM     23  H   UNL     1    -104.500  -6.160  74.372  1.00  0.00     0.293 HD
ENDBRANCH   6  22
BRANCH   8  24
ATOM     24  O   UNL     1    -103.875  -1.158  72.931  1.00  0.00    -0.508 OA
ATOM     25  H   UNL     1    -103.712  -0.277  73.404  1.00  0.00     0.293 HD
ENDBRANCH   8  24
TORSDOF 5
ENDMDL
