MODEL 1
REMARK VINA RESULT:    -3.903      0.000      0.000
REMARK INTER + INTRA:          -4.017
REMARK INTER:                  -4.017
REMARK INTRA:                   0.000
REMARK UNBOUND:                 0.000
REMARK SMILES Nc1ncnc2nc[nH]c12
REMARK SMILES IDX 8 1 7 2 6 3 5 4 4 5 3 6 2 7 10 8 9 9 1 11
REMARK H PARENT 9 10 1 12 1 13
REMARK Flexibility Score: inf
ROOT
ATOM      1  C   UNL     1      82.623   4.725  65.565  1.00  0.00     0.199 A 
ATOM      2  N   UNL     1      82.135   3.526  65.987  1.00  0.00    -0.217 NA
ATOM      3  C   UNL     1      81.871   2.902  64.827  1.00  0.00     0.182 A 
ATOM      4  N   UNL     1      81.361   1.657  64.678  1.00  0.00    -0.215 NA
ATOM      5  C   UNL     1      81.159   1.190  63.408  1.00  0.00     0.226 A 
ATOM      6  N   UNL     1      81.470   1.968  62.323  1.00  0.00    -0.217 NA
ATOM      7  C   UNL     1      81.986   3.225  62.471  1.00  0.00     0.152 A 
ATOM      8  C   UNL     1      82.184   3.686  63.769  1.00  0.00     0.127 A 
ATOM      9  N   UNL     1      82.665   4.853  64.215  1.00  0.00    -0.340 N 
ATOM     10  H   UNL     1      82.997   5.676  63.664  1.00  0.00     0.168 HD
ENDROOT
BRANCH   7  11
ATOM     11  N   UNL     1      82.301   4.018  61.326  1.00  0.00    -0.382 N 
ATOM     12  H   UNL     1      83.288   4.267  61.092  1.00  0.00     0.158 HD
ATOM     13  H   UNL     1      81.538   4.361  60.702  1.00  0.00     0.158 HD
ENDBRANCH   7  11
TORSDOF 1
ENDMDL
MODEL 2
REMARK VINA RESULT:    -3.892     12.091     14.179
REMARK INTER + INTRA:          -4.005
REMARK INTER:                  -4.005
REMARK INTRA:                   0.000
REMARK UNBOUND:                 0.000
REMARK SMILES Nc1ncnc2nc[nH]c12
REMARK SMILES IDX 8 1 7 2 6 3 5 4 4 5 3 6 2 7 10 8 9 9 1 11
REMARK H PARENT 9 10 1 12 1 13
REMARK Flexibility Score: inf
ROOT
ATOM      1  C   UNL     1      81.131   4.196  48.220  1.00  0.00     0.199 A 
ATOM      2  N   UNL     1      81.885   3.118  47.875  1.00  0.00    -0.217 NA
ATOM      3  C   UNL     1      82.250   2.629  49.072  1.00  0.00     0.182 A 
ATOM      4  N   UNL     1      83.021   1.540  49.299  1.00  0.00    -0.215 NA
ATOM      5  C   UNL     1      83.287   1.197  50.597  1.00  0.00     0.226 A 
ATOM      6  N   UNL     1      82.781   1.941  51.631  1.00  0.00    -0.217 NA
ATOM      7  C   UNL     1      82.002   3.041  51.404  1.00  0.00     0.152 A 
ATOM      8  C   UNL     1      81.742   3.377  50.079  1.00  0.00     0.127 A 
ATOM      9  N   UNL     1      81.024   4.382  49.561  1.00  0.00    -0.340 N 
ATOM     10  H   UNL     1      80.502   5.136  50.059  1.00  0.00     0.168 HD
ENDROOT
BRANCH   7  11
ATOM     11  N   UNL     1      81.486   3.801  52.498  1.00  0.00    -0.382 N 
ATOM     12  H   UNL     1      81.114   4.767  52.361  1.00  0.00     0.158 HD
ATOM     13  H   UNL     1      81.476   3.393  53.458  1.00  0.00     0.158 HD
ENDBRANCH   7  11
TORSDOF 1
ENDMDL
MODEL 3
REMARK VINA RESULT:    -3.809      1.537      3.362
REMARK INTER + INTRA:          -3.921
REMARK INTER:                  -3.921
REMARK INTRA:                   0.000
REMARK UNBOUND:                 0.000
REMARK SMILES Nc1ncnc2nc[nH]c12
REMARK SMILES IDX 8 1 7 2 6 3 5 4 4 5 3 6 2 7 10 8 9 9 1 11
REMARK H PARENT 9 10 1 12 1 13
REMARK Flexibility Score: inf
ROOT
ATOM      1  C   UNL     1      81.163   1.520  64.726  1.00  0.00     0.199 A 
ATOM      2  N   UNL     1      82.124   1.368  63.774  1.00  0.00    -0.217 NA
ATOM      3  C   UNL     1      82.756   2.553  63.816  1.00  0.00     0.182 A 
ATOM      4  N   UNL     1      83.811   2.932  63.056  1.00  0.00    -0.215 NA
ATOM      5  C   UNL     1      84.322   4.187  63.242  1.00  0.00     0.226 A 
ATOM      6  N   UNL     1      83.777   5.029  64.177  1.00  0.00    -0.217 NA
ATOM      7  C   UNL     1      82.712   4.648  64.945  1.00  0.00     0.152 A 
ATOM      8  C   UNL     1      82.203   3.369  64.742  1.00  0.00     0.127 A 
ATOM      9  N   UNL     1      81.186   2.732  65.336  1.00  0.00    -0.340 N 
ATOM     10  H   UNL     1      80.552   3.077  66.091  1.00  0.00     0.168 HD
ENDROOT
BRANCH   7  11
ATOM     11  N   UNL     1      82.160   5.543  65.912  1.00  0.00    -0.382 N 
ATOM     12  H   UNL     1      82.536   5.591  66.885  1.00  0.00     0.158 HD
ATOM     13  H   UNL     1      81.365   6.166  65.652  1.00  0.00     0.158 HD
ENDBRANCH   7  11
TORSDOF 1
ENDMDL
MODEL 4
REMARK VINA RESULT:    -3.787     12.907     14.207
REMARK INTER + INTRA:          -3.898
REMARK INTER:                  -3.898
REMARK INTRA:                   0.000
REMARK UNBOUND:                 0.000
REMARK SMILES Nc1ncnc2nc[nH]c12
REMARK SMILES IDX 8 1 7 2 6 3 5 4 4 5 3 6 2 7 10 8 9 9 1 11
REMARK H PARENT 9 10 1 12 1 13
REMARK Flexibility Score: inf
ROOT
ATOM      1  C   UNL     1      72.596   4.544  56.120  1.00  0.00     0.199 A 
ATOM      2  N   UNL     1      73.471   5.321  55.426  1.00  0.00    -0.217 NA
ATOM      3  C   UNL     1      73.109   5.092  54.153  1.00  0.00     0.182 A 
ATOM      4  N   UNL     1      73.671   5.629  53.045  1.00  0.00    -0.215 NA
ATOM      5  C   UNL     1      73.163   5.272  51.825  1.00  0.00     0.226 A 
ATOM      6  N   UNL     1      72.113   4.394  51.739  1.00  0.00    -0.217 NA
ATOM      7  C   UNL     1      71.545   3.850  52.857  1.00  0.00     0.152 A 
ATOM      8  C   UNL     1      72.074   4.223  54.089  1.00  0.00     0.127 A 
ATOM      9  N   UNL     1      71.729   3.860  55.331  1.00  0.00    -0.340 N 
ATOM     10  H   UNL     1      70.973   3.206  55.634  1.00  0.00     0.168 HD
ENDROOT
BRANCH   7  11
ATOM     11  N   UNL     1      70.452   2.937  52.743  1.00  0.00    -0.382 N 
ATOM     12  H   UNL     1      69.469   3.241  52.919  1.00  0.00     0.158 HD
ATOM     13  H   UNL     1      70.628   1.944  52.478  1.00  0.00     0.158 HD
ENDBRANCH   7  11
TORSDOF 1
ENDMDL
MODEL 5
REMARK VINA RESULT:    -3.748      1.101      3.072
REMARK INTER + INTRA:          -3.858
REMARK INTER:                  -3.858
REMARK INTRA:                   0.000
REMARK UNBOUND:                 0.000
REMARK SMILES Nc1ncnc2nc[nH]c12
REMARK SMILES IDX 8 1 7 2 6 3 5 4 4 5 3 6 2 7 10 8 9 9 1 11
REMARK H PARENT 9 10 1 12 1 13
REMARK Flexibility Score: inf
ROOT
ATOM      1  C   UNL     1      81.624   2.729  62.146  1.00  0.00     0.199 A 
ATOM      2  N   UNL     1      81.801   1.664  62.974  1.00  0.00    -0.217 NA
ATOM      3  C   UNL     1      82.185   2.253  64.118  1.00  0.00     0.182 A 
ATOM      4  N   UNL     1      82.493   1.633  65.282  1.00  0.00    -0.215 NA
ATOM      5  C   UNL     1      82.866   2.407  66.347  1.00  0.00     0.226 A 
ATOM      6  N   UNL     1      82.923   3.772  66.229  1.00  0.00    -0.217 NA
ATOM      7  C   UNL     1      82.612   4.399  65.055  1.00  0.00     0.152 A 
ATOM      8  C   UNL     1      82.235   3.598  63.981  1.00  0.00     0.127 A 
ATOM      9  N   UNL     1      81.882   3.925  62.732  1.00  0.00    -0.340 N 
ATOM     10  H   UNL     1      81.816   4.873  62.299  1.00  0.00     0.168 HD
ENDROOT
BRANCH   7  11
ATOM     11  N   UNL     1      82.679   5.823  64.955  1.00  0.00    -0.382 N 
ATOM     12  H   UNL     1      82.265   6.439  65.689  1.00  0.00     0.158 HD
ATOM     13  H   UNL     1      83.149   6.267  64.136  1.00  0.00     0.158 HD
ENDBRANCH   7  11
TORSDOF 1
ENDMDL
MODEL 6
REMARK VINA RESULT:    -3.681     16.336     17.769
REMARK INTER + INTRA:          -3.789
REMARK INTER:                  -3.789
REMARK INTRA:                   0.000
REMARK UNBOUND:                 0.000
REMARK SMILES Nc1ncnc2nc[nH]c12
REMARK SMILES IDX 8 1 7 2 6 3 5 4 4 5 3 6 2 7 10 8 9 9 1 11
REMARK H PARENT 9 10 1 12 1 13
REMARK Flexibility Score: inf
ROOT
ATOM      1  C   UNL     1      73.324   5.988  51.526  1.00  0.00     0.199 A 
ATOM      2  N   UNL     1      72.214   5.203  51.487  1.00  0.00    -0.217 NA
ATOM      3  C   UNL     1      71.580   5.658  50.393  1.00  0.00     0.182 A 
ATOM      4  N   UNL     1      70.403   5.210  49.896  1.00  0.00    -0.215 NA
ATOM      5  C   UNL     1      69.913   5.803  48.765  1.00  0.00     0.226 A 
ATOM      6  N   UNL     1      70.602   6.821  48.158  1.00  0.00    -0.217 NA
ATOM      7  C   UNL     1      71.791   7.275  48.658  1.00  0.00     0.152 A 
ATOM      8  C   UNL     1      72.276   6.661  49.810  1.00  0.00     0.127 A 
ATOM      9  N   UNL     1      73.392   6.889  50.514  1.00  0.00    -0.340 N 
ATOM     10  H   UNL     1      74.143   7.592  50.337  1.00  0.00     0.168 HD
ENDROOT
BRANCH   7  11
ATOM     11  N   UNL     1      72.491   8.337  48.009  1.00  0.00    -0.382 N 
ATOM     12  H   UNL     1      73.398   8.171  47.520  1.00  0.00     0.158 HD
ATOM     13  H   UNL     1      72.098   9.303  48.018  1.00  0.00     0.158 HD
ENDBRANCH   7  11
TORSDOF 1
ENDMDL
MODEL 7
REMARK VINA RESULT:    -3.662     12.361     14.216
REMARK INTER + INTRA:          -3.769
REMARK INTER:                  -3.769
REMARK INTRA:                   0.000
REMARK UNBOUND:                 0.000
REMARK SMILES Nc1ncnc2nc[nH]c12
REMARK SMILES IDX 8 1 7 2 6 3 5 4 4 5 3 6 2 7 10 8 9 9 1 11
REMARK H PARENT 9 10 1 12 1 13
REMARK Flexibility Score: inf
ROOT
ATOM      1  C   UNL     1      82.531   2.797  51.987  1.00  0.00     0.199 A 
ATOM      2  N   UNL     1      82.615   1.648  51.262  1.00  0.00    -0.217 NA
ATOM      3  C   UNL     1      82.083   2.015  50.083  1.00  0.00     0.182 A 
ATOM      4  N   UNL     1      81.926   1.233  48.990  1.00  0.00    -0.215 NA
ATOM      5  C   UNL     1      81.360   1.788  47.875  1.00  0.00     0.226 A 
ATOM      6  N   UNL     1      80.967   3.102  47.875  1.00  0.00    -0.217 NA
ATOM      7  C   UNL     1      81.125   3.894  48.978  1.00  0.00     0.152 A 
ATOM      8  C   UNL     1      81.702   3.313  50.104  1.00  0.00     0.127 A 
ATOM      9  N   UNL     1      81.978   3.833  51.307  1.00  0.00    -0.340 N 
ATOM     10  H   UNL     1      81.811   4.804  51.653  1.00  0.00     0.168 HD
ENDROOT
BRANCH   7  11
ATOM     11  N   UNL     1      80.709   5.259  48.955  1.00  0.00    -0.382 N 
ATOM     12  H   UNL     1      81.340   6.026  49.278  1.00  0.00     0.158 HD
ATOM     13  H   UNL     1      79.756   5.508  48.611  1.00  0.00     0.158 HD
ENDBRANCH   7  11
TORSDOF 1
ENDMDL
MODEL 8
REMARK VINA RESULT:    -3.628     12.570     14.469
REMARK INTER + INTRA:          -3.734
REMARK INTER:                  -3.734
REMARK INTRA:                   0.000
REMARK UNBOUND:                 0.000
REMARK SMILES Nc1ncnc2nc[nH]c12
REMARK SMILES IDX 8 1 7 2 6 3 5 4 4 5 3 6 2 7 10 8 9 9 1 11
REMARK H PARENT 9 10 1 12 1 13
REMARK Flexibility Score: inf
ROOT
ATOM      1  C   UNL     1      81.361   3.958  47.882  1.00  0.00     0.199 A 
ATOM      2  N   UNL     1      80.759   4.116  49.092  1.00  0.00    -0.217 NA
ATOM      3  C   UNL     1      81.412   3.223  49.855  1.00  0.00     0.182 A 
ATOM      4  N   UNL     1      81.198   2.973  51.168  1.00  0.00    -0.215 NA
ATOM      5  C   UNL     1      81.967   2.019  51.777  1.00  0.00     0.226 A 
ATOM      6  N   UNL     1      82.926   1.342  51.069  1.00  0.00    -0.217 NA
ATOM      7  C   UNL     1      83.144   1.593  49.743  1.00  0.00     0.152 A 
ATOM      8  C   UNL     1      82.353   2.566  49.138  1.00  0.00     0.127 A 
ATOM      9  N   UNL     1      82.340   3.017  47.877  1.00  0.00    -0.340 N 
ATOM     10  H   UNL     1      82.936   2.723  47.072  1.00  0.00     0.168 HD
ENDROOT
BRANCH   7  11
ATOM     11  N   UNL     1      84.149   0.876  49.025  1.00  0.00    -0.382 N 
ATOM     12  H   UNL     1      85.164   1.083  49.157  1.00  0.00     0.158 HD
ATOM     13  H   UNL     1      83.875   0.126  48.353  1.00  0.00     0.158 HD
ENDBRANCH   7  11
TORSDOF 1
ENDMDL
MODEL 9
REMARK VINA RESULT:    -3.588     12.808     14.314
REMARK INTER + INTRA:          -3.693
REMARK INTER:                  -3.693
REMARK INTRA:                   0.000
REMARK UNBOUND:                 0.000
REMARK SMILES Nc1ncnc2nc[nH]c12
REMARK SMILES IDX 8 1 7 2 6 3 5 4 4 5 3 6 2 7 10 8 9 9 1 11
REMARK H PARENT 9 10 1 12 1 13
REMARK Flexibility Score: inf
ROOT
ATOM      1  C   UNL     1      73.601   4.265  54.321  1.00  0.00     0.199 A 
ATOM      2  N   UNL     1      74.493   3.402  53.765  1.00  0.00    -0.217 NA
ATOM      3  C   UNL     1      74.657   3.914  52.534  1.00  0.00     0.182 A 
ATOM      4  N   UNL     1      75.457   3.426  51.556  1.00  0.00    -0.215 NA
ATOM      5  C   UNL     1      75.491   4.089  50.360  1.00  0.00     0.226 A 
ATOM      6  N   UNL     1      74.733   5.216  50.167  1.00  0.00    -0.217 NA
ATOM      7  C   UNL     1      73.925   5.710  51.153  1.00  0.00     0.152 A 
ATOM      8  C   UNL     1      73.902   5.023  52.363  1.00  0.00     0.127 A 
ATOM      9  N   UNL     1      73.219   5.267  53.489  1.00  0.00    -0.340 N 
ATOM     10  H   UNL     1      72.549   6.042  53.692  1.00  0.00     0.168 HD
ENDROOT
BRANCH   7  11
ATOM     11  N   UNL     1      73.145   6.885  50.929  1.00  0.00    -0.382 N 
ATOM     12  H   UNL     1      72.102   6.859  50.960  1.00  0.00     0.158 HD
ATOM     13  H   UNL     1      73.616   7.794  50.728  1.00  0.00     0.158 HD
ENDBRANCH   7  11
TORSDOF 1
ENDMDL
