MODEL 1
REMARK VINA RESULT:    -4.317      0.000      0.000
REMARK INTER + INTRA:          -6.279
REMARK INTER:                  -5.831
REMARK INTRA:                  -0.448
REMARK UNBOUND:                -0.448
REMARK SMILES CCCCCCC=CC(=O)[O-]
REMARK SMILES IDX 5 1 6 2 7 3 8 4 9 5 10 6 11 7 4 8 3 9 2 10 1 11
REMARK H PARENT
REMARK Flexibility Score: inf
ROOT
ATOM      1  C   UNL     1      -7.654   4.586  16.528  1.00  0.00     0.004 C 
ENDROOT
BRANCH   1   2
ATOM      2  C   UNL     1      -8.666   3.426  16.534  1.00  0.00     0.027 C 
BRANCH   2   3
ATOM      3  C   UNL     1      -8.844   2.808  15.175  1.00  0.00    -0.025 C 
ATOM      4  C   UNL     1      -7.990   1.891  14.708  1.00  0.00     0.020 C 
BRANCH   4   5
ATOM      5  C   UNL     1      -8.142   1.278  13.378  1.00  0.00     0.064 C 
ATOM      6  O   UNL     1      -7.491   1.705  12.387  1.00  0.00    -0.545 OA
ATOM      7  O   UNL     1      -9.019   0.214  13.213  1.00  0.00    -0.545 OA
ENDBRANCH   4   5
ENDBRANCH   2   3
ENDBRANCH   1   2
BRANCH   1   8
ATOM      8  C   UNL     1      -8.268   5.961  16.202  1.00  0.00     0.000 C 
BRANCH   8   9
ATOM      9  C   UNL     1      -8.095   6.420  14.742  1.00  0.00    -0.000 C 
BRANCH   9  10
ATOM     10  C   UNL     1      -7.012   5.639  13.969  1.00  0.00    -0.003 C 
ATOM     11  C   UNL     1      -6.557   6.364  12.702  1.00  0.00     0.004 C 
ENDBRANCH   9  10
ENDBRANCH   8   9
ENDBRANCH   1   8
TORSDOF 6
ENDMDL
MODEL 2
REMARK VINA RESULT:    -4.166     14.855     16.705
REMARK INTER + INTRA:          -6.076
REMARK INTER:                  -5.695
REMARK INTRA:                  -0.381
REMARK UNBOUND:                -0.448
REMARK SMILES CCCCCCC=CC(=O)[O-]
REMARK SMILES IDX 5 1 6 2 7 3 8 4 9 5 10 6 11 7 4 8 3 9 2 10 1 11
REMARK H PARENT
REMARK Flexibility Score: inf
ROOT
ATOM      1  C   UNL     1     -10.899  -5.294  27.203  1.00  0.00     0.004 C 
ENDROOT
BRANCH   1   2
ATOM      2  C   UNL     1      -9.906  -5.386  26.031  1.00  0.00     0.027 C 
BRANCH   2   3
ATOM      3  C   UNL     1      -9.795  -6.778  25.475  1.00  0.00    -0.025 C 
ATOM      4  C   UNL     1     -10.559  -7.187  24.457  1.00  0.00     0.020 C 
BRANCH   4   5
ATOM      5  C   UNL     1     -10.472  -8.548  23.903  1.00  0.00     0.064 C 
ATOM      6  O   UNL     1     -10.997  -9.527  24.496  1.00  0.00    -0.545 OA
ATOM      7  O   UNL     1      -9.796  -8.756  22.707  1.00  0.00    -0.545 OA
ENDBRANCH   4   5
ENDBRANCH   2   3
ENDBRANCH   1   2
BRANCH   1   8
ATOM      8  C   UNL     1     -10.286  -5.614  28.580  1.00  0.00     0.000 C 
BRANCH   8   9
ATOM      9  C   UNL     1     -10.507  -7.058  29.068  1.00  0.00    -0.000 C 
BRANCH   9  10
ATOM     10  C   UNL     1     -11.595  -7.821  28.284  1.00  0.00    -0.003 C 
ATOM     11  C   UNL     1     -12.109  -9.049  29.035  1.00  0.00     0.004 C 
ENDBRANCH   9  10
ENDBRANCH   8   9
ENDBRANCH   1   8
TORSDOF 6
ENDMDL
MODEL 3
REMARK VINA RESULT:    -2.915      1.270      2.210
REMARK INTER + INTRA:          -4.385
REMARK INTER:                  -4.334
REMARK INTRA:                  -0.051
REMARK UNBOUND:                -0.448
REMARK SMILES CCCCCCC=CC(=O)[O-]
REMARK SMILES IDX 5 1 6 2 7 3 8 4 9 5 10 6 11 7 4 8 3 9 2 10 1 11
REMARK H PARENT
REMARK Flexibility Score: inf
ROOT
ATOM      1  C   UNL     1      -7.180   4.401  13.979  1.00  0.00     0.004 C 
ENDROOT
BRANCH   1   2
ATOM      2  C   UNL     1      -7.601   3.485  15.142  1.00  0.00     0.027 C 
BRANCH   2   3
ATOM      3  C   UNL     1      -8.399   2.297  14.682  1.00  0.00    -0.025 C 
ATOM      4  C   UNL     1      -7.953   1.486  13.717  1.00  0.00     0.020 C 
BRANCH   4   5
ATOM      5  C   UNL     1      -8.722   0.323  13.247  1.00  0.00     0.064 C 
ATOM      6  O   UNL     1      -9.247   0.309  12.102  1.00  0.00    -0.545 OA
ATOM      7  O   UNL     1      -8.873  -0.778  14.081  1.00  0.00    -0.545 OA
ENDBRANCH   4   5
ENDBRANCH   2   3
ENDBRANCH   1   2
BRANCH   1   8
ATOM      8  C   UNL     1      -7.023   5.884  14.366  1.00  0.00     0.000 C 
BRANCH   8   9
ATOM      9  C   UNL     1      -8.332   6.697  14.362  1.00  0.00    -0.000 C 
BRANCH   9  10
ATOM     10  C   UNL     1      -8.870   7.018  15.772  1.00  0.00    -0.003 C 
ATOM     11  C   UNL     1      -8.241   6.141  16.854  1.00  0.00     0.004 C 
ENDBRANCH   9  10
ENDBRANCH   8   9
ENDBRANCH   1   8
TORSDOF 6
ENDMDL
MODEL 4
REMARK VINA RESULT:    -2.598     14.873     16.305
REMARK INTER + INTRA:          -3.958
REMARK INTER:                  -4.085
REMARK INTRA:                   0.127
REMARK UNBOUND:                -0.448
REMARK SMILES CCCCCCC=CC(=O)[O-]
REMARK SMILES IDX 5 1 6 2 7 3 8 4 9 5 10 6 11 7 4 8 3 9 2 10 1 11
REMARK H PARENT
REMARK Flexibility Score: inf
ROOT
ATOM      1  C   UNL     1     -11.667  -7.955  27.787  1.00  0.00     0.004 C 
ENDROOT
BRANCH   1   2
ATOM      2  C   UNL     1     -11.392  -7.265  26.439  1.00  0.00     0.027 C 
BRANCH   2   3
ATOM      3  C   UNL     1     -10.898  -8.222  25.390  1.00  0.00    -0.025 C 
ATOM      4  C   UNL     1     -10.407  -7.788  24.224  1.00  0.00     0.020 C 
BRANCH   4   5
ATOM      5  C   UNL     1      -9.925  -8.708  23.182  1.00  0.00     0.064 C 
ATOM      6  O   UNL     1      -9.734  -9.929  23.429  1.00  0.00    -0.545 OA
ATOM      7  O   UNL     1      -9.673  -8.222  21.906  1.00  0.00    -0.545 OA
ENDBRANCH   4   5
ENDBRANCH   2   3
ENDBRANCH   1   2
BRANCH   1   8
ATOM      8  C   UNL     1     -10.960  -7.300  28.990  1.00  0.00     0.000 C 
BRANCH   8   9
ATOM      9  C   UNL     1      -9.914  -6.230  28.623  1.00  0.00    -0.000 C 
BRANCH   9  10
ATOM     10  C   UNL     1     -10.489  -4.800  28.544  1.00  0.00    -0.003 C 
ATOM     11  C   UNL     1     -10.716  -4.337  27.105  1.00  0.00     0.004 C 
ENDBRANCH   9  10
ENDBRANCH   8   9
ENDBRANCH   1   8
TORSDOF 6
ENDMDL
MODEL 5
REMARK VINA RESULT:    -2.548      2.008      4.125
REMARK INTER + INTRA:          -3.890
REMARK INTER:                  -3.573
REMARK INTRA:                  -0.317
REMARK UNBOUND:                -0.448
REMARK SMILES CCCCCCC=CC(=O)[O-]
REMARK SMILES IDX 5 1 6 2 7 3 8 4 9 5 10 6 11 7 4 8 3 9 2 10 1 11
REMARK H PARENT
REMARK Flexibility Score: inf
ROOT
ATOM      1  C   UNL     1      -7.669   4.558  16.727  1.00  0.00     0.004 C 
ENDROOT
BRANCH   1   2
ATOM      2  C   UNL     1      -8.290   5.895  16.283  1.00  0.00     0.027 C 
BRANCH   2   3
ATOM      3  C   UNL     1      -8.068   6.180  14.824  1.00  0.00    -0.025 C 
ATOM      4  C   UNL     1      -6.961   5.772  14.193  1.00  0.00     0.020 C 
BRANCH   4   5
ATOM      5  C   UNL     1      -6.721   6.046  12.768  1.00  0.00     0.064 C 
ATOM      6  O   UNL     1      -5.930   6.957  12.404  1.00  0.00    -0.545 OA
ATOM      7  O   UNL     1      -7.379   5.290  11.807  1.00  0.00    -0.545 OA
ENDBRANCH   4   5
ENDBRANCH   2   3
ENDBRANCH   1   2
BRANCH   1   8
ATOM      8  C   UNL     1      -8.615   3.348  16.600  1.00  0.00     0.000 C 
BRANCH   8   9
ATOM      9  C   UNL     1      -8.940   2.927  15.154  1.00  0.00    -0.000 C 
BRANCH   9  10
ATOM     10  C   UNL     1      -7.814   2.121  14.473  1.00  0.00    -0.003 C 
ATOM     11  C   UNL     1      -8.349   0.960  13.634  1.00  0.00     0.004 C 
ENDBRANCH   9  10
ENDBRANCH   8   9
ENDBRANCH   1   8
TORSDOF 6
ENDMDL
MODEL 6
REMARK VINA RESULT:    -2.293     15.999     17.352
REMARK INTER + INTRA:          -3.545
REMARK INTER:                  -3.296
REMARK INTRA:                  -0.249
REMARK UNBOUND:                -0.448
REMARK SMILES CCCCCCC=CC(=O)[O-]
REMARK SMILES IDX 5 1 6 2 7 3 8 4 9 5 10 6 11 7 4 8 3 9 2 10 1 11
REMARK H PARENT
REMARK Flexibility Score: inf
ROOT
ATOM      1  C   UNL     1     -10.270  -5.337  26.322  1.00  0.00     0.004 C 
ENDROOT
BRANCH   1   2
ATOM      2  C   UNL     1     -10.526  -5.435  27.837  1.00  0.00     0.027 C 
BRANCH   2   3
ATOM      3  C   UNL     1     -10.645  -6.857  28.312  1.00  0.00    -0.025 C 
ATOM      4  C   UNL     1     -11.786  -7.542  28.187  1.00  0.00     0.020 C 
BRANCH   4   5
ATOM      5  C   UNL     1     -11.926  -8.931  28.651  1.00  0.00     0.064 C 
ATOM      6  O   UNL     1     -11.280  -9.867  28.108  1.00  0.00    -0.545 OA
ATOM      7  O   UNL     1     -12.786  -9.216  29.703  1.00  0.00    -0.545 OA
ENDBRANCH   4   5
ENDBRANCH   2   3
ENDBRANCH   1   2
BRANCH   1   8
ATOM      8  C   UNL     1      -9.781  -6.648  25.676  1.00  0.00     0.000 C 
BRANCH   8   9
ATOM      9  C   UNL     1     -10.702  -7.213  24.579  1.00  0.00    -0.000 C 
BRANCH   9  10
ATOM     10  C   UNL     1     -10.552  -8.734  24.362  1.00  0.00    -0.003 C 
ATOM     11  C   UNL     1      -9.734  -9.071  23.116  1.00  0.00     0.004 C 
ENDBRANCH   9  10
ENDBRANCH   8   9
ENDBRANCH   1   8
TORSDOF 6
ENDMDL
MODEL 7
REMARK VINA RESULT:    -2.140      2.640      4.844
REMARK INTER + INTRA:          -3.339
REMARK INTER:                  -3.162
REMARK INTRA:                  -0.177
REMARK UNBOUND:                -0.448
REMARK SMILES CCCCCCC=CC(=O)[O-]
REMARK SMILES IDX 5 1 6 2 7 3 8 4 9 5 10 6 11 7 4 8 3 9 2 10 1 11
REMARK H PARENT
REMARK Flexibility Score: inf
ROOT
ATOM      1  C   UNL     1      -8.928   2.645  15.506  1.00  0.00     0.004 C 
ENDROOT
BRANCH   1   2
ATOM      2  C   UNL     1      -8.256   3.761  16.328  1.00  0.00     0.027 C 
BRANCH   2   3
ATOM      3  C   UNL     1      -7.934   4.974  15.501  1.00  0.00    -0.025 C 
ATOM      4  C   UNL     1      -7.135   4.897  14.431  1.00  0.00     0.020 C 
BRANCH   4   5
ATOM      5  C   UNL     1      -6.801   6.073  13.612  1.00  0.00     0.064 C 
ATOM      6  O   UNL     1      -5.708   6.142  12.988  1.00  0.00    -0.545 OA
ATOM      7  O   UNL     1      -7.704   7.125  13.526  1.00  0.00    -0.545 OA
ENDBRANCH   4   5
ENDBRANCH   2   3
ENDBRANCH   1   2
BRANCH   1   8
ATOM      8  C   UNL     1      -7.939   1.673  14.833  1.00  0.00     0.000 C 
BRANCH   8   9
ATOM      9  C   UNL     1      -8.112   1.523  13.310  1.00  0.00    -0.000 C 
BRANCH   9  10
ATOM     10  C   UNL     1      -9.032   0.354  12.900  1.00  0.00    -0.003 C 
ATOM     11  C   UNL     1      -9.005  -0.795  13.908  1.00  0.00     0.004 C 
ENDBRANCH   9  10
ENDBRANCH   8   9
ENDBRANCH   1   8
TORSDOF 6
ENDMDL
MODEL 8
REMARK VINA RESULT:    -1.891      1.228      2.759
REMARK INTER + INTRA:          -3.003
REMARK INTER:                  -2.559
REMARK INTRA:                  -0.444
REMARK UNBOUND:                -0.448
REMARK SMILES CCCCCCC=CC(=O)[O-]
REMARK SMILES IDX 5 1 6 2 7 3 8 4 9 5 10 6 11 7 4 8 3 9 2 10 1 11
REMARK H PARENT
REMARK Flexibility Score: inf
ROOT
ATOM      1  C   UNL     1      -6.854   5.643  14.427  1.00  0.00     0.004 C 
ENDROOT
BRANCH   1   2
ATOM      2  C   UNL     1      -6.862   4.532  13.362  1.00  0.00     0.027 C 
BRANCH   2   3
ATOM      3  C   UNL     1      -7.632   3.317  13.801  1.00  0.00    -0.025 C 
ATOM      4  C   UNL     1      -7.637   2.194  13.076  1.00  0.00     0.020 C 
BRANCH   4   5
ATOM      5  C   UNL     1      -8.389   0.996  13.485  1.00  0.00     0.064 C 
ATOM      6  O   UNL     1      -8.310   0.547  14.660  1.00  0.00    -0.545 OA
ATOM      7  O   UNL     1      -9.197   0.348  12.559  1.00  0.00    -0.545 OA
ENDBRANCH   4   5
ENDBRANCH   2   3
ENDBRANCH   1   2
BRANCH   1   8
ATOM      8  C   UNL     1      -8.227   5.913  15.071  1.00  0.00     0.000 C 
BRANCH   8   9
ATOM      9  C   UNL     1      -8.232   5.913  16.612  1.00  0.00    -0.000 C 
BRANCH   9  10
ATOM     10  C   UNL     1      -7.679   4.615  17.236  1.00  0.00    -0.003 C 
ATOM     11  C   UNL     1      -8.604   3.418  17.017  1.00  0.00     0.004 C 
ENDBRANCH   9  10
ENDBRANCH   8   9
ENDBRANCH   1   8
TORSDOF 6
ENDMDL
MODEL 9
REMARK VINA RESULT:    -1.837      3.100      5.582
REMARK INTER + INTRA:          -2.929
REMARK INTER:                  -2.800
REMARK INTRA:                  -0.128
REMARK UNBOUND:                -0.448
REMARK SMILES CCCCCCC=CC(=O)[O-]
REMARK SMILES IDX 5 1 6 2 7 3 8 4 9 5 10 6 11 7 4 8 3 9 2 10 1 11
REMARK H PARENT
REMARK Flexibility Score: inf
ROOT
ATOM      1  C   UNL     1      -7.521   2.308  13.809  1.00  0.00     0.004 C 
ENDROOT
BRANCH   1   2
ATOM      2  C   UNL     1      -8.282   2.239  15.146  1.00  0.00     0.027 C 
BRANCH   2   3
ATOM      3  C   UNL     1      -8.581   3.599  15.711  1.00  0.00    -0.025 C 
ATOM      4  C   UNL     1      -8.011   4.702  15.216  1.00  0.00     0.020 C 
BRANCH   4   5
ATOM      5  C   UNL     1      -8.285   6.043  15.759  1.00  0.00     0.064 C 
ATOM      6  O   UNL     1      -8.569   7.007  15.000  1.00  0.00    -0.545 OA
ATOM      7  O   UNL     1      -8.229   6.248  17.131  1.00  0.00    -0.545 OA
ENDBRANCH   4   5
ENDBRANCH   2   3
ENDBRANCH   1   2
BRANCH   1   8
ATOM      8  C   UNL     1      -7.840   1.155  12.838  1.00  0.00     0.000 C 
BRANCH   8   9
ATOM      9  C   UNL     1      -9.148   0.397  13.139  1.00  0.00    -0.000 C 
BRANCH   9  10
ATOM     10  C   UNL     1      -8.959  -0.831  14.054  1.00  0.00    -0.003 C 
ATOM     11  C   UNL     1      -9.312  -2.143  13.355  1.00  0.00     0.004 C 
ENDBRANCH   9  10
ENDBRANCH   8   9
ENDBRANCH   1   8
TORSDOF 6
ENDMDL
