MODEL 1
REMARK VINA RESULT:    -6.171      0.000      0.000
REMARK INTER + INTRA:          -6.821
REMARK INTER:                  -6.712
REMARK INTRA:                  -0.109
REMARK UNBOUND:                -0.109
REMARK SMILES CC(=O)[C@@H]1CC[C@@H]2[C@H]3CC=C4C[C@H](O)CC[C@]4(C)[C@H]3CC[C@]21C
REMARK SMILES IDX 4 1 5 2 6 3 7 4 22 5 21 6 20 7 19 8 8 9 9 10 10 11 11 12
REMARK SMILES IDX 17 13 16 14 15 15 13 16 12 17 18 18 23 19 2 20 1 21 3 22
REMARK SMILES IDX 14 23
REMARK H PARENT 14 24
REMARK Flexibility Score: inf
ROOT
ATOM      1  C   UNL     1      13.558  10.155  48.048  1.00  0.00     0.062 C 
ATOM      2  C   UNL     1      13.468   9.133  49.209  1.00  0.00     0.012 C 
ATOM      3  C   UNL     1      14.563   9.522  50.217  1.00  0.00     0.005 C 
ATOM      4  C   UNL     1      15.305  10.680  49.556  1.00  0.00    -0.001 C 
ATOM      5  C   UNL     1      14.259  11.384  48.676  1.00  0.00    -0.020 C 
ATOM      6  C   UNL     1      14.983  12.314  47.655  1.00  0.00     0.008 C 
ATOM      7  C   UNL     1      16.402  12.749  48.109  1.00  0.00     0.005 C 
ATOM      8  C   UNL     1      16.548  12.939  49.656  1.00  0.00     0.003 C 
ATOM      9  C   UNL     1      16.068  11.667  50.467  1.00  0.00     0.000 C 
ATOM     10  C   UNL     1      17.216  10.958  51.201  1.00  0.00     0.031 C 
ATOM     11  C   UNL     1      17.952  11.957  52.040  1.00  0.00    -0.027 C 
ATOM     12  C   UNL     1      18.239  13.187  51.568  1.00  0.00    -0.065 C 
ATOM     13  C   UNL     1      17.968  13.516  50.082  1.00  0.00    -0.008 C 
ATOM     14  C   UNL     1      18.003  15.062  49.792  1.00  0.00     0.014 C 
ATOM     15  C   UNL     1      17.785  15.929  51.029  1.00  0.00     0.033 C 
ATOM     16  C   UNL     1      18.887  15.627  52.041  1.00  0.00     0.118 C 
ATOM     17  C   UNL     1      18.726  14.206  52.586  1.00  0.00     0.063 C 
ATOM     18  C   UNL     1      19.125  12.879  49.262  1.00  0.00     0.016 C 
ATOM     19  C   UNL     1      13.232  12.218  49.510  1.00  0.00     0.012 C 
ENDROOT
BRANCH   1  20
ATOM     20  C   UNL     1      12.257  10.467  47.323  1.00  0.00     0.133 C 
ATOM     21  C   UNL     1      10.905  10.223  47.932  1.00  0.00     0.088 C 
ATOM     22  O   UNL     1      12.314  10.931  46.194  1.00  0.00    -0.300 OA
ENDBRANCH   1  20
BRANCH  16  23
ATOM     23  O   UNL     1      18.825  16.539  53.106  1.00  0.00    -0.393 OA
ATOM     24  H   UNL     1      19.247  16.097  53.889  1.00  0.00     0.210 HD
ENDBRANCH  16  23
TORSDOF 2
ENDMDL
MODEL 2
REMARK VINA RESULT:    -6.126      5.902     11.751
REMARK INTER + INTRA:          -6.773
REMARK INTER:                  -6.654
REMARK INTRA:                  -0.118
REMARK UNBOUND:                -0.109
REMARK SMILES CC(=O)[C@@H]1CC[C@@H]2[C@H]3CC=C4C[C@H](O)CC[C@]4(C)[C@H]3CC[C@]21C
REMARK SMILES IDX 4 1 5 2 6 3 7 4 22 5 21 6 20 7 19 8 8 9 9 10 10 11 11 12
REMARK SMILES IDX 17 13 16 14 15 15 13 16 12 17 18 18 23 19 2 20 1 21 3 22
REMARK SMILES IDX 14 23
REMARK H PARENT 14 24
REMARK Flexibility Score: inf
ROOT
ATOM      1  C   UNL     1      10.237  10.764  47.556  1.00  0.00     0.062 C 
ATOM      2  C   UNL     1      10.608  12.004  46.706  1.00  0.00     0.012 C 
ATOM      3  C   UNL     1       9.295  12.515  46.085  1.00  0.00     0.005 C 
ATOM      4  C   UNL     1       8.242  11.497  46.514  1.00  0.00    -0.001 C 
ATOM      5  C   UNL     1       8.731  10.951  47.865  1.00  0.00    -0.020 C 
ATOM      6  C   UNL     1       7.965   9.633  48.198  1.00  0.00     0.008 C 
ATOM      7  C   UNL     1       6.597   9.511  47.476  1.00  0.00     0.005 C 
ATOM      8  C   UNL     1       5.856  10.876  47.275  1.00  0.00     0.003 C 
ATOM      9  C   UNL     1       6.768  11.957  46.563  1.00  0.00     0.000 C 
ATOM     10  C   UNL     1       6.265  12.334  45.162  1.00  0.00     0.031 C 
ATOM     11  C   UNL     1       4.824  12.733  45.249  1.00  0.00    -0.027 C 
ATOM     12  C   UNL     1       3.953  12.040  46.009  1.00  0.00    -0.065 C 
ATOM     13  C   UNL     1       4.399  10.709  46.658  1.00  0.00    -0.008 C 
ATOM     14  C   UNL     1       3.414  10.232  47.789  1.00  0.00     0.014 C 
ATOM     15  C   UNL     1       2.549  11.347  48.369  1.00  0.00     0.033 C 
ATOM     16  C   UNL     1       1.705  11.947  47.246  1.00  0.00     0.118 C 
ATOM     17  C   UNL     1       2.600  12.689  46.253  1.00  0.00     0.063 C 
ATOM     18  C   UNL     1       4.359   9.629  45.542  1.00  0.00     0.016 C 
ATOM     19  C   UNL     1       8.547  11.975  49.033  1.00  0.00     0.012 C 
ENDROOT
BRANCH   1  20
ATOM     20  C   UNL     1      11.107  10.499  48.776  1.00  0.00     0.133 C 
ATOM     21  C   UNL     1      11.990  11.548  49.391  1.00  0.00     0.088 C 
ATOM     22  O   UNL     1      11.093   9.383  49.273  1.00  0.00    -0.300 OA
ENDBRANCH   1  20
BRANCH  16  23
ATOM     23  O   UNL     1       0.765  12.843  47.779  1.00  0.00    -0.393 OA
ATOM     24  H   UNL     1      -0.134  12.465  47.587  1.00  0.00     0.210 HD
ENDBRANCH  16  23
TORSDOF 2
ENDMDL
MODEL 3
REMARK VINA RESULT:    -6.110     14.824     16.914
REMARK INTER + INTRA:          -6.755
REMARK INTER:                  -6.633
REMARK INTRA:                  -0.122
REMARK UNBOUND:                -0.109
REMARK SMILES CC(=O)[C@@H]1CC[C@@H]2[C@H]3CC=C4C[C@H](O)CC[C@]4(C)[C@H]3CC[C@]21C
REMARK SMILES IDX 4 1 5 2 6 3 7 4 22 5 21 6 20 7 19 8 8 9 9 10 10 11 11 12
REMARK SMILES IDX 17 13 16 14 15 15 13 16 12 17 18 18 23 19 2 20 1 21 3 22
REMARK SMILES IDX 14 23
REMARK H PARENT 14 24
REMARK Flexibility Score: inf
ROOT
ATOM      1  C   UNL     1      15.578  22.254  37.718  1.00  0.00     0.062 C 
ATOM      2  C   UNL     1      15.464  20.744  37.390  1.00  0.00     0.012 C 
ATOM      3  C   UNL     1      14.042  20.318  37.794  1.00  0.00     0.005 C 
ATOM      4  C   UNL     1      13.430  21.562  38.430  1.00  0.00    -0.001 C 
ATOM      5  C   UNL     1      14.112  22.752  37.735  1.00  0.00    -0.020 C 
ATOM      6  C   UNL     1      13.873  24.046  38.572  1.00  0.00     0.008 C 
ATOM      7  C   UNL     1      12.621  23.972  39.486  1.00  0.00     0.005 C 
ATOM      8  C   UNL     1      11.439  23.140  38.886  1.00  0.00     0.003 C 
ATOM      9  C   UNL     1      11.890  21.689  38.438  1.00  0.00     0.000 C 
ATOM     10  C   UNL     1      11.254  20.577  39.285  1.00  0.00     0.031 C 
ATOM     11  C   UNL     1       9.767  20.762  39.300  1.00  0.00    -0.027 C 
ATOM     12  C   UNL     1       9.218  21.985  39.442  1.00  0.00    -0.065 C 
ATOM     13  C   UNL     1      10.122  23.193  39.777  1.00  0.00    -0.008 C 
ATOM     14  C   UNL     1       9.398  24.570  39.542  1.00  0.00     0.014 C 
ATOM     15  C   UNL     1       8.207  24.489  38.592  1.00  0.00     0.033 C 
ATOM     16  C   UNL     1       7.178  23.523  39.175  1.00  0.00     0.118 C 
ATOM     17  C   UNL     1       7.728  22.095  39.157  1.00  0.00     0.063 C 
ATOM     18  C   UNL     1      10.443  23.107  41.295  1.00  0.00     0.016 C 
ATOM     19  C   UNL     1      13.604  22.970  36.273  1.00  0.00     0.012 C 
ENDROOT
BRANCH   1  20
ATOM     20  C   UNL     1      16.514  23.066  36.834  1.00  0.00     0.133 C 
ATOM     21  C   UNL     1      17.008  22.576  35.503  1.00  0.00     0.088 C 
ATOM     22  O   UNL     1      16.885  24.162  37.229  1.00  0.00    -0.300 OA
ENDBRANCH   1  20
BRANCH  16  23
ATOM     23  O   UNL     1       5.994  23.571  38.424  1.00  0.00    -0.393 OA
ATOM     24  H   UNL     1       5.526  22.707  38.567  1.00  0.00     0.210 HD
ENDBRANCH  16  23
TORSDOF 2
ENDMDL
MODEL 4
REMARK VINA RESULT:    -6.035     15.209     18.088
REMARK INTER + INTRA:          -6.673
REMARK INTER:                  -6.544
REMARK INTRA:                  -0.129
REMARK UNBOUND:                -0.109
REMARK SMILES CC(=O)[C@@H]1CC[C@@H]2[C@H]3CC=C4C[C@H](O)CC[C@]4(C)[C@H]3CC[C@]21C
REMARK SMILES IDX 4 1 5 2 6 3 7 4 22 5 21 6 20 7 19 8 8 9 9 10 10 11 11 12
REMARK SMILES IDX 17 13 16 14 15 15 13 16 12 17 18 18 23 19 2 20 1 21 3 22
REMARK SMILES IDX 14 23
REMARK H PARENT 14 24
REMARK Flexibility Score: inf
ROOT
ATOM      1  C   UNL     1      10.203  22.378  39.368  1.00  0.00     0.062 C 
ATOM      2  C   UNL     1      10.458  21.352  40.500  1.00  0.00     0.012 C 
ATOM      3  C   UNL     1       9.084  21.030  41.113  1.00  0.00     0.005 C 
ATOM      4  C   UNL     1       8.109  21.952  40.386  1.00  0.00    -0.001 C 
ATOM      5  C   UNL     1       8.716  22.166  38.990  1.00  0.00    -0.020 C 
ATOM      6  C   UNL     1       8.034  23.394  38.312  1.00  0.00     0.008 C 
ATOM      7  C   UNL     1       6.625  23.712  38.878  1.00  0.00     0.005 C 
ATOM      8  C   UNL     1       5.813  22.449  39.320  1.00  0.00     0.003 C 
ATOM      9  C   UNL     1       6.624  21.532  40.324  1.00  0.00     0.000 C 
ATOM     10  C   UNL     1       6.007  21.495  41.730  1.00  0.00     0.031 C 
ATOM     11  C   UNL     1       4.560  21.125  41.621  1.00  0.00    -0.027 C 
ATOM     12  C   UNL     1       3.776  21.651  40.659  1.00  0.00    -0.065 C 
ATOM     13  C   UNL     1       4.324  22.789  39.766  1.00  0.00    -0.008 C 
ATOM     14  C   UNL     1       3.444  23.024  38.483  1.00  0.00     0.014 C 
ATOM     15  C   UNL     1       2.575  21.830  38.101  1.00  0.00     0.033 C 
ATOM     16  C   UNL     1       1.627  21.522  39.258  1.00  0.00     0.118 C 
ATOM     17  C   UNL     1       2.416  21.000  40.460  1.00  0.00     0.063 C 
ATOM     18  C   UNL     1       4.252  24.094  40.606  1.00  0.00     0.016 C 
ATOM     19  C   UNL     1       8.572  20.910  38.070  1.00  0.00     0.012 C 
ENDROOT
BRANCH   1  20
ATOM     20  C   UNL     1      11.169  22.337  38.192  1.00  0.00     0.133 C 
ATOM     21  C   UNL     1      12.112  21.193  37.951  1.00  0.00     0.088 C 
ATOM     22  O   UNL     1      11.183  23.280  37.415  1.00  0.00    -0.300 OA
ENDBRANCH   1  20
BRANCH  16  23
ATOM     23  O   UNL     1       0.689  20.554  38.866  1.00  0.00    -0.393 OA
ATOM     24  H   UNL     1       0.490  20.719  37.907  1.00  0.00     0.210 HD
ENDBRANCH  16  23
TORSDOF 2
ENDMDL
MODEL 5
REMARK VINA RESULT:    -6.019     14.559     16.804
REMARK INTER + INTRA:          -6.656
REMARK INTER:                  -6.531
REMARK INTRA:                  -0.125
REMARK UNBOUND:                -0.109
REMARK SMILES CC(=O)[C@@H]1CC[C@@H]2[C@H]3CC=C4C[C@H](O)CC[C@]4(C)[C@H]3CC[C@]21C
REMARK SMILES IDX 4 1 5 2 6 3 7 4 22 5 21 6 20 7 19 8 8 9 9 10 10 11 11 12
REMARK SMILES IDX 17 13 16 14 15 15 13 16 12 17 18 18 23 19 2 20 1 21 3 22
REMARK SMILES IDX 14 23
REMARK H PARENT 14 24
REMARK Flexibility Score: inf
ROOT
ATOM      1  C   UNL     1      16.669  20.703  36.790  1.00  0.00     0.062 C 
ATOM      2  C   UNL     1      17.193  21.912  35.976  1.00  0.00     0.012 C 
ATOM      3  C   UNL     1      16.048  22.939  35.937  1.00  0.00     0.005 C 
ATOM      4  C   UNL     1      14.882  22.246  36.636  1.00  0.00    -0.001 C 
ATOM      5  C   UNL     1      15.527  21.291  37.653  1.00  0.00    -0.020 C 
ATOM      6  C   UNL     1      14.467  20.250  38.130  1.00  0.00     0.008 C 
ATOM      7  C   UNL     1      13.002  20.734  37.962  1.00  0.00     0.005 C 
ATOM      8  C   UNL     1      12.810  22.273  38.174  1.00  0.00     0.003 C 
ATOM      9  C   UNL     1      13.788  23.132  37.272  1.00  0.00     0.000 C 
ATOM     10  C   UNL     1      13.051  23.947  36.199  1.00  0.00     0.031 C 
ATOM     11  C   UNL     1      11.975  24.758  36.852  1.00  0.00    -0.027 C 
ATOM     12  C   UNL     1      11.194  24.233  37.818  1.00  0.00    -0.065 C 
ATOM     13  C   UNL     1      11.284  22.722  38.133  1.00  0.00    -0.008 C 
ATOM     14  C   UNL     1      10.603  22.352  39.503  1.00  0.00     0.014 C 
ATOM     15  C   UNL     1      10.454  23.531  40.459  1.00  0.00     0.033 C 
ATOM     16  C   UNL     1       9.592  24.600  39.791  1.00  0.00     0.118 C 
ATOM     17  C   UNL     1      10.339  25.213  38.605  1.00  0.00     0.063 C 
ATOM     18  C   UNL     1      10.489  21.983  37.021  1.00  0.00     0.016 C 
ATOM     19  C   UNL     1      16.122  22.039  38.891  1.00  0.00     0.012 C 
ENDROOT
BRANCH   1  20
ATOM     20  C   UNL     1      17.712  19.913  37.568  1.00  0.00     0.133 C 
ATOM     21  C   UNL     1      19.125  20.388  37.752  1.00  0.00     0.088 C 
ATOM     22  O   UNL     1      17.387  18.842  38.059  1.00  0.00    -0.300 OA
ENDBRANCH   1  20
BRANCH  16  23
ATOM     23  O   UNL     1       9.280  25.611  40.713  1.00  0.00    -0.393 OA
ATOM     24  H   UNL     1       9.571  26.470  40.308  1.00  0.00     0.210 HD
ENDBRANCH  16  23
TORSDOF 2
ENDMDL
MODEL 6
REMARK VINA RESULT:    -6.006      3.378      8.274
REMARK INTER + INTRA:          -6.642
REMARK INTER:                  -6.522
REMARK INTRA:                  -0.120
REMARK UNBOUND:                -0.109
REMARK SMILES CC(=O)[C@@H]1CC[C@@H]2[C@H]3CC=C4C[C@H](O)CC[C@]4(C)[C@H]3CC[C@]21C
REMARK SMILES IDX 4 1 5 2 6 3 7 4 22 5 21 6 20 7 19 8 8 9 9 10 10 11 11 12
REMARK SMILES IDX 17 13 16 14 15 15 13 16 12 17 18 18 23 19 2 20 1 21 3 22
REMARK SMILES IDX 14 23
REMARK H PARENT 14 24
REMARK Flexibility Score: inf
ROOT
ATOM      1  C   UNL     1      15.265  10.872  48.991  1.00  0.00     0.062 C 
ATOM      2  C   UNL     1      15.202  12.344  49.470  1.00  0.00     0.012 C 
ATOM      3  C   UNL     1      13.808  12.868  49.081  1.00  0.00     0.005 C 
ATOM      4  C   UNL     1      13.165  11.721  48.307  1.00  0.00    -0.001 C 
ATOM      5  C   UNL     1      13.782  10.439  48.890  1.00  0.00    -0.020 C 
ATOM      6  C   UNL     1      13.515   9.248  47.920  1.00  0.00     0.008 C 
ATOM      7  C   UNL     1      12.291   9.466  46.991  1.00  0.00     0.005 C 
ATOM      8  C   UNL     1      11.127  10.281  47.648  1.00  0.00     0.003 C 
ATOM      9  C   UNL     1      11.622  11.659  48.252  1.00  0.00     0.000 C 
ATOM     10  C   UNL     1      11.052  12.876  47.509  1.00  0.00     0.031 C 
ATOM     11  C   UNL     1       9.561  12.756  47.443  1.00  0.00    -0.027 C 
ATOM     12  C   UNL     1       8.967  11.578  47.164  1.00  0.00    -0.065 C 
ATOM     13  C   UNL     1       9.833  10.373  46.727  1.00  0.00    -0.008 C 
ATOM     14  C   UNL     1       9.050   9.010  46.804  1.00  0.00     0.014 C 
ATOM     15  C   UNL     1       7.839   9.043  47.731  1.00  0.00     0.033 C 
ATOM     16  C   UNL     1       6.864  10.106  47.227  1.00  0.00     0.118 C 
ATOM     17  C   UNL     1       7.468  11.500  47.403  1.00  0.00     0.063 C 
ATOM     18  C   UNL     1      10.197  10.599  45.233  1.00  0.00     0.016 C 
ATOM     19  C   UNL     1      13.228  10.095  50.311  1.00  0.00     0.012 C 
ENDROOT
BRANCH   1  20
ATOM     20  C   UNL     1      16.146   9.936  49.807  1.00  0.00     0.133 C 
ATOM     21  C   UNL     1      16.614  10.262  51.197  1.00  0.00     0.088 C 
ATOM     22  O   UNL     1      16.493   8.877  49.307  1.00  0.00    -0.300 OA
ENDBRANCH   1  20
BRANCH  16  23
ATOM     23  O   UNL     1       5.659  10.030  47.943  1.00  0.00    -0.393 OA
ATOM     24  H   UNL     1       5.900   9.908  48.899  1.00  0.00     0.210 HD
ENDBRANCH  16  23
TORSDOF 2
ENDMDL
MODEL 7
REMARK VINA RESULT:    -5.910     14.464     16.675
REMARK INTER + INTRA:          -6.537
REMARK INTER:                  -6.498
REMARK INTRA:                  -0.039
REMARK UNBOUND:                -0.109
REMARK SMILES CC(=O)[C@@H]1CC[C@@H]2[C@H]3CC=C4C[C@H](O)CC[C@]4(C)[C@H]3CC[C@]21C
REMARK SMILES IDX 4 1 5 2 6 3 7 4 22 5 21 6 20 7 19 8 8 9 9 10 10 11 11 12
REMARK SMILES IDX 17 13 16 14 15 15 13 16 12 17 18 18 23 19 2 20 1 21 3 22
REMARK SMILES IDX 14 23
REMARK H PARENT 14 24
REMARK Flexibility Score: inf
ROOT
ATOM      1  C   UNL     1      14.854  23.512  37.038  1.00  0.00     0.062 C 
ATOM      2  C   UNL     1      15.239  24.335  38.293  1.00  0.00     0.012 C 
ATOM      3  C   UNL     1      14.039  24.250  39.253  1.00  0.00     0.005 C 
ATOM      4  C   UNL     1      12.977  23.475  38.479  1.00  0.00    -0.001 C 
ATOM      5  C   UNL     1      13.758  22.541  37.540  1.00  0.00    -0.020 C 
ATOM      6  C   UNL     1      12.802  22.005  36.430  1.00  0.00     0.008 C 
ATOM      7  C   UNL     1      11.304  22.037  36.833  1.00  0.00     0.005 C 
ATOM      8  C   UNL     1      11.045  21.769  38.353  1.00  0.00     0.003 C 
ATOM      9  C   UNL     1      11.894  22.726  39.287  1.00  0.00     0.000 C 
ATOM     10  C   UNL     1      11.024  23.712  40.081  1.00  0.00     0.031 C 
ATOM     11  C   UNL     1       9.964  22.950  40.814  1.00  0.00    -0.027 C 
ATOM     12  C   UNL     1       9.299  21.937  40.225  1.00  0.00    -0.065 C 
ATOM     13  C   UNL     1       9.499  21.670  38.715  1.00  0.00    -0.008 C 
ATOM     14  C   UNL     1       8.958  20.259  38.276  1.00  0.00     0.014 C 
ATOM     15  C   UNL     1       8.827  19.262  39.424  1.00  0.00     0.033 C 
ATOM     16  C   UNL     1       7.852  19.827  40.455  1.00  0.00     0.118 C 
ATOM     17  C   UNL     1       8.460  21.055  41.137  1.00  0.00     0.063 C 
ATOM     18  C   UNL     1       8.654  22.731  37.955  1.00  0.00     0.016 C 
ATOM     19  C   UNL     1      14.414  21.338  38.294  1.00  0.00     0.012 C 
ENDROOT
BRANCH   1  20
ATOM     20  C   UNL     1      16.001  22.845  36.293  1.00  0.00     0.133 C 
ATOM     21  C   UNL     1      17.254  22.376  36.976  1.00  0.00     0.088 C 
ATOM     22  O   UNL     1      15.901  22.691  35.084  1.00  0.00    -0.300 OA
ENDBRANCH   1  20
BRANCH  16  23
ATOM     23  O   UNL     1       7.565  18.855  41.427  1.00  0.00    -0.393 OA
ATOM     24  H   UNL     1       8.214  18.986  42.166  1.00  0.00     0.210 HD
ENDBRANCH  16  23
TORSDOF 2
ENDMDL
MODEL 8
REMARK VINA RESULT:    -5.908     16.771     19.982
REMARK INTER + INTRA:          -6.535
REMARK INTER:                  -6.407
REMARK INTRA:                  -0.127
REMARK UNBOUND:                -0.109
REMARK SMILES CC(=O)[C@@H]1CC[C@@H]2[C@H]3CC=C4C[C@H](O)CC[C@]4(C)[C@H]3CC[C@]21C
REMARK SMILES IDX 4 1 5 2 6 3 7 4 22 5 21 6 20 7 19 8 8 9 9 10 10 11 11 12
REMARK SMILES IDX 17 13 16 14 15 15 13 16 12 17 18 18 23 19 2 20 1 21 3 22
REMARK SMILES IDX 14 23
REMARK H PARENT 14 24
REMARK Flexibility Score: inf
ROOT
ATOM      1  C   UNL     1       6.693  24.248  41.928  1.00  0.00     0.062 C 
ATOM      2  C   UNL     1       5.977  24.731  43.214  1.00  0.00     0.012 C 
ATOM      3  C   UNL     1       4.467  24.595  42.948  1.00  0.00     0.005 C 
ATOM      4  C   UNL     1       4.369  24.142  41.495  1.00  0.00    -0.001 C 
ATOM      5  C   UNL     1       5.652  23.337  41.231  1.00  0.00    -0.020 C 
ATOM      6  C   UNL     1       5.855  23.174  39.694  1.00  0.00     0.008 C 
ATOM      7  C   UNL     1       4.541  23.307  38.877  1.00  0.00     0.005 C 
ATOM      8  C   UNL     1       3.273  22.758  39.613  1.00  0.00     0.003 C 
ATOM      9  C   UNL     1       3.097  23.380  41.058  1.00  0.00     0.000 C 
ATOM     10  C   UNL     1       1.856  24.277  41.175  1.00  0.00     0.031 C 
ATOM     11  C   UNL     1       0.655  23.516  40.704  1.00  0.00    -0.027 C 
ATOM     12  C   UNL     1       0.708  22.742  39.601  1.00  0.00    -0.065 C 
ATOM     13  C   UNL     1       1.967  22.779  38.704  1.00  0.00    -0.008 C 
ATOM     14  C   UNL     1       2.023  21.572  37.696  1.00  0.00     0.014 C 
ATOM     15  C   UNL     1       1.166  20.379  38.110  1.00  0.00     0.033 C 
ATOM     16  C   UNL     1      -0.290  20.831  38.206  1.00  0.00     0.118 C 
ATOM     17  C   UNL     1      -0.464  21.800  39.378  1.00  0.00     0.063 C 
ATOM     18  C   UNL     1       1.873  24.074  37.850  1.00  0.00     0.016 C 
ATOM     19  C   UNL     1       5.633  21.929  41.912  1.00  0.00     0.012 C 
ENDROOT
BRANCH   1  20
ATOM     20  C   UNL     1       8.064  23.615  42.118  1.00  0.00     0.133 C 
ATOM     21  C   UNL     1       8.584  23.183  43.460  1.00  0.00     0.088 C 
ATOM     22  O   UNL     1       8.776  23.459  41.137  1.00  0.00    -0.300 OA
ENDBRANCH   1  20
BRANCH  16  23
ATOM     23  O   UNL     1      -1.125  19.719  38.399  1.00  0.00    -0.393 OA
ATOM     24  H   UNL     1      -0.722  18.966  37.892  1.00  0.00     0.210 HD
ENDBRANCH  16  23
TORSDOF 2
ENDMDL
MODEL 9
REMARK VINA RESULT:    -5.891      2.177      7.338
REMARK INTER + INTRA:          -6.517
REMARK INTER:                  -6.402
REMARK INTRA:                  -0.114
REMARK UNBOUND:                -0.109
REMARK SMILES CC(=O)[C@@H]1CC[C@@H]2[C@H]3CC=C4C[C@H](O)CC[C@]4(C)[C@H]3CC[C@]21C
REMARK SMILES IDX 4 1 5 2 6 3 7 4 22 5 21 6 20 7 19 8 8 9 9 10 10 11 11 12
REMARK SMILES IDX 17 13 16 14 15 15 13 16 12 17 18 18 23 19 2 20 1 21 3 22
REMARK SMILES IDX 14 23
REMARK H PARENT 14 24
REMARK Flexibility Score: inf
ROOT
ATOM      1  C   UNL     1      16.620  12.617  50.109  1.00  0.00     0.062 C 
ATOM      2  C   UNL     1      17.089  11.411  50.960  1.00  0.00     0.012 C 
ATOM      3  C   UNL     1      15.919  10.412  50.981  1.00  0.00     0.005 C 
ATOM      4  C   UNL     1      14.791  11.119  50.236  1.00  0.00    -0.001 C 
ATOM      5  C   UNL     1      15.489  12.040  49.222  1.00  0.00    -0.020 C 
ATOM      6  C   UNL     1      14.470  13.097  48.695  1.00  0.00     0.008 C 
ATOM      7  C   UNL     1      12.990  12.651  48.827  1.00  0.00     0.005 C 
ATOM      8  C   UNL     1      12.766  11.113  48.637  1.00  0.00     0.003 C 
ATOM      9  C   UNL     1      13.696  10.247  49.582  1.00  0.00     0.000 C 
ATOM     10  C   UNL     1      12.908   9.471  50.647  1.00  0.00     0.031 C 
ATOM     11  C   UNL     1      11.832   8.673  49.976  1.00  0.00    -0.027 C 
ATOM     12  C   UNL     1      11.094   9.198  48.978  1.00  0.00    -0.065 C 
ATOM     13  C   UNL     1      11.229  10.701  48.639  1.00  0.00    -0.008 C 
ATOM     14  C   UNL     1      10.599  11.062  47.243  1.00  0.00     0.014 C 
ATOM     15  C   UNL     1      10.450   9.869  46.304  1.00  0.00     0.033 C 
ATOM     16  C   UNL     1       9.542   8.834  46.964  1.00  0.00     0.118 C 
ATOM     17  C   UNL     1      10.239   8.224  48.183  1.00  0.00     0.063 C 
ATOM     18  C   UNL     1      10.420  11.479  49.713  1.00  0.00     0.016 C 
ATOM     19  C   UNL     1      16.103  11.256  48.016  1.00  0.00     0.012 C 
ENDROOT
BRANCH   1  20
ATOM     20  C   UNL     1      17.704  13.367  49.349  1.00  0.00     0.133 C 
ATOM     21  C   UNL     1      19.125  12.887  49.269  1.00  0.00     0.088 C 
ATOM     22  O   UNL     1      17.406  14.410  48.785  1.00  0.00    -0.300 OA
ENDBRANCH   1  20
BRANCH  16  23
ATOM     23  O   UNL     1       9.234   7.814  46.051  1.00  0.00    -0.393 OA
ATOM     24  H   UNL     1       8.393   7.389  46.366  1.00  0.00     0.210 HD
ENDBRANCH  16  23
TORSDOF 2
ENDMDL
