MODEL 1
REMARK VINA RESULT:    19.982      0.000      0.000
REMARK INTER + INTRA:          27.410
REMARK INTER:                  28.159
REMARK INTRA:                  -0.749
REMARK UNBOUND:                -0.749
REMARK SMILES O=C(C=Cc1ccc(O)cc1)CC(=O)C=Cc1ccc(O)cc1
REMARK SMILES IDX 12 1 2 2 1 3 3 4 4 5 5 6 6 7 7 8 8 9 11 10 10 11 9 12 13 14
REMARK SMILES IDX 14 15 15 16 16 17 17 18 18 19 23 20 19 21 22 22 20 23 21 24
REMARK H PARENT 9 13 21 25
REMARK Flexibility Score: inf
ROOT
ATOM      1  C   UNL     1      14.988   2.505  16.577  1.00  0.00     0.160 C 
ENDROOT
BRANCH   1   2
ATOM      2  C   UNL     1      14.095   3.263  17.533  1.00  0.00     0.163 C 
ATOM      3  O   UNL     1      13.375   2.623  18.345  1.00  0.00    -0.294 OA
BRANCH   2   4
ATOM      4  C   UNL     1      13.981   4.737  17.516  1.00  0.00     0.048 C 
ATOM      5  C   UNL     1      12.825   5.387  17.719  1.00  0.00     0.012 C 
BRANCH   5   6
ATOM      6  C   UNL     1      12.709   6.866  17.722  1.00  0.00    -0.025 A 
ATOM      7  C   UNL     1      11.663   7.462  16.995  1.00  0.00     0.012 A 
ATOM      8  C   UNL     1      11.523   8.853  16.962  1.00  0.00     0.047 A 
ATOM      9  C   UNL     1      12.430   9.668  17.644  1.00  0.00     0.115 A 
ATOM     10  C   UNL     1      13.628   7.696  18.395  1.00  0.00     0.012 A 
ATOM     11  C   UNL     1      13.484   9.087  18.358  1.00  0.00     0.047 A 
BRANCH   9  12
ATOM     12  O   UNL     1      12.277  11.053  17.602  1.00  0.00    -0.508 OA
ATOM     13  H   UNL     1      11.545  11.487  17.051  1.00  0.00     0.293 HD
ENDBRANCH   9  12
ENDBRANCH   5   6
ENDBRANCH   2   4
ENDBRANCH   1   2
BRANCH   1  14
ATOM     14  C   UNL     1      16.274   3.234  16.261  1.00  0.00     0.163 C 
ATOM     15  O   UNL     1      17.230   3.196  17.084  1.00  0.00    -0.294 OA
BRANCH  14  16
ATOM     16  C   UNL     1      16.442   4.058  15.044  1.00  0.00     0.048 C 
ATOM     17  C   UNL     1      17.379   5.010  14.920  1.00  0.00     0.012 C 
BRANCH  17  18
ATOM     18  C   UNL     1      17.552   5.843  13.703  1.00  0.00    -0.025 A 
ATOM     19  C   UNL     1      18.484   6.899  13.632  1.00  0.00     0.012 A 
ATOM     20  C   UNL     1      16.729   5.590  12.593  1.00  0.00     0.012 A 
ATOM     21  C   UNL     1      18.600   7.662  12.465  1.00  0.00     0.047 A 
ATOM     22  C   UNL     1      16.848   6.354  11.429  1.00  0.00     0.047 A 
ATOM     23  C   UNL     1      17.787   7.391  11.362  1.00  0.00     0.115 A 
BRANCH  23  24
ATOM     24  O   UNL     1      17.916   8.159  10.206  1.00  0.00    -0.508 OA
ATOM     25  H   UNL     1      18.740   8.721  10.033  1.00  0.00     0.293 HD
ENDBRANCH  23  24
ENDBRANCH  17  18
ENDBRANCH  14  16
ENDBRANCH   1  14
TORSDOF 8
ENDMDL
MODEL 2
REMARK VINA RESULT:    20.013      0.080      6.632
REMARK INTER + INTRA:          27.454
REMARK INTER:                  28.207
REMARK INTRA:                  -0.753
REMARK UNBOUND:                -0.749
REMARK SMILES O=C(C=Cc1ccc(O)cc1)CC(=O)C=Cc1ccc(O)cc1
REMARK SMILES IDX 12 1 2 2 1 3 3 4 4 5 5 6 6 7 7 8 8 9 11 10 10 11 9 12 13 14
REMARK SMILES IDX 14 15 15 16 16 17 17 18 18 19 23 20 19 21 22 22 20 23 21 24
REMARK H PARENT 9 13 21 25
REMARK Flexibility Score: inf
ROOT
ATOM      1  C   UNL     1      14.970   2.480  16.519  1.00  0.00     0.160 C 
ENDROOT
BRANCH   1   2
ATOM      2  C   UNL     1      16.278   3.169  16.203  1.00  0.00     0.163 C 
ATOM      3  O   UNL     1      17.243   3.065  17.007  1.00  0.00    -0.294 OA
BRANCH   2   4
ATOM      4  C   UNL     1      16.459   4.022  15.009  1.00  0.00     0.048 C 
ATOM      5  C   UNL     1      17.336   5.036  14.956  1.00  0.00     0.012 C 
BRANCH   5   6
ATOM      6  C   UNL     1      17.535   5.883  13.754  1.00  0.00    -0.025 A 
ATOM      7  C   UNL     1      16.724   5.656  12.628  1.00  0.00     0.012 A 
ATOM      8  C   UNL     1      16.884   6.423  11.470  1.00  0.00     0.047 A 
ATOM      9  C   UNL     1      17.864   7.419  11.415  1.00  0.00     0.115 A 
ATOM     10  C   UNL     1      18.530   6.879  13.685  1.00  0.00     0.012 A 
ATOM     11  C   UNL     1      18.688   7.643  12.525  1.00  0.00     0.047 A 
BRANCH   9  12
ATOM     12  O   UNL     1      18.012   8.176  10.255  1.00  0.00    -0.508 OA
ATOM     13  H   UNL     1      17.450   9.003  10.088  1.00  0.00     0.293 HD
ENDBRANCH   9  12
ENDBRANCH   5   6
ENDBRANCH   2   4
ENDBRANCH   1   2
BRANCH   1  14
ATOM     14  C   UNL     1      14.116   3.248  17.502  1.00  0.00     0.163 C 
ATOM     15  O   UNL     1      13.463   2.622  18.381  1.00  0.00    -0.294 OA
BRANCH  14  16
ATOM     16  C   UNL     1      13.955   4.717  17.435  1.00  0.00     0.048 C 
ATOM     17  C   UNL     1      12.825   5.353  17.782  1.00  0.00     0.012 C 
BRANCH  17  18
ATOM     18  C   UNL     1      12.655   6.826  17.716  1.00  0.00    -0.025 A 
ATOM     19  C   UNL     1      11.606   7.438  16.999  1.00  0.00     0.012 A 
ATOM     20  C   UNL     1      13.599   7.641  18.364  1.00  0.00     0.012 A 
ATOM     21  C   UNL     1      11.497   8.832  16.958  1.00  0.00     0.047 A 
ATOM     22  C   UNL     1      13.486   9.033  18.322  1.00  0.00     0.047 A 
ATOM     23  C   UNL     1      12.432   9.632  17.620  1.00  0.00     0.115 A 
BRANCH  23  24
ATOM     24  O   UNL     1      12.309  11.019  17.571  1.00  0.00    -0.508 OA
ATOM     25  H   UNL     1      11.534  11.498  18.015  1.00  0.00     0.293 HD
ENDBRANCH  23  24
ENDBRANCH  17  18
ENDBRANCH  14  16
ENDBRANCH   1  14
TORSDOF 8
ENDMDL
MODEL 3
REMARK VINA RESULT:    21.369      5.397      9.938
REMARK INTER + INTRA:          29.365
REMARK INTER:                  30.120
REMARK INTRA:                  -0.755
REMARK UNBOUND:                -0.749
REMARK SMILES O=C(C=Cc1ccc(O)cc1)CC(=O)C=Cc1ccc(O)cc1
REMARK SMILES IDX 12 1 2 2 1 3 3 4 4 5 5 6 6 7 7 8 8 9 11 10 10 11 9 12 13 14
REMARK SMILES IDX 14 15 15 16 16 17 17 18 18 19 23 20 19 21 22 22 20 23 21 24
REMARK H PARENT 9 13 21 25
REMARK Flexibility Score: inf
ROOT
ATOM      1  C   UNL     1       7.987  13.613  19.882  1.00  0.00     0.160 C 
ENDROOT
BRANCH   1   2
ATOM      2  C   UNL     1       8.201  12.121  20.003  1.00  0.00     0.163 C 
ATOM      3  O   UNL     1       7.773  11.516  21.023  1.00  0.00    -0.294 OA
BRANCH   2   4
ATOM      4  C   UNL     1       8.951  11.342  18.996  1.00  0.00     0.048 C 
ATOM      5  C   UNL     1       9.836  10.385  19.317  1.00  0.00     0.012 C 
BRANCH   5   6
ATOM      6  C   UNL     1      10.578   9.586  18.311  1.00  0.00    -0.025 A 
ATOM      7  C   UNL     1      11.919   9.255  18.569  1.00  0.00     0.012 A 
ATOM      8  C   UNL     1      12.660   8.513  17.643  1.00  0.00     0.047 A 
ATOM      9  C   UNL     1      12.075   8.102  16.442  1.00  0.00     0.115 A 
ATOM     10  C   UNL     1      10.000   9.181  17.091  1.00  0.00     0.012 A 
ATOM     11  C   UNL     1      10.744   8.440  16.168  1.00  0.00     0.047 A 
BRANCH   9  12
ATOM     12  O   UNL     1      12.824   7.363  15.530  1.00  0.00    -0.508 OA
ATOM     13  H   UNL     1      13.799   7.576  15.350  1.00  0.00     0.293 HD
ENDBRANCH   9  12
ENDBRANCH   5   6
ENDBRANCH   2   4
ENDBRANCH   1   2
BRANCH   1  14
ATOM     14  C   UNL     1       7.798  14.073  18.454  1.00  0.00     0.163 C 
ATOM     15  O   UNL     1       6.671  13.945  17.903  1.00  0.00    -0.294 OA
BRANCH  14  16
ATOM     16  C   UNL     1       8.909  14.611  17.640  1.00  0.00     0.048 C 
ATOM     17  C   UNL     1       8.895  14.642  16.299  1.00  0.00     0.012 C 
BRANCH  17  18
ATOM     18  C   UNL     1      10.007  15.178  15.474  1.00  0.00    -0.025 A 
ATOM     19  C   UNL     1       9.971  15.188  14.065  1.00  0.00     0.012 A 
ATOM     20  C   UNL     1      11.154  15.661  16.126  1.00  0.00     0.012 A 
ATOM     21  C   UNL     1      11.051  15.694  13.333  1.00  0.00     0.047 A 
ATOM     22  C   UNL     1      12.230  16.166  15.392  1.00  0.00     0.047 A 
ATOM     23  C   UNL     1      12.180  16.186  13.993  1.00  0.00     0.115 A 
BRANCH  23  24
ATOM     24  O   UNL     1      13.247  16.688  13.250  1.00  0.00    -0.508 OA
ATOM     25  H   UNL     1      13.963  17.265  13.676  1.00  0.00     0.293 HD
ENDBRANCH  23  24
ENDBRANCH  17  18
ENDBRANCH  14  16
ENDBRANCH   1  14
TORSDOF 8
ENDMDL
MODEL 4
REMARK VINA RESULT:    21.391      5.382      9.865
REMARK INTER + INTRA:          29.396
REMARK INTER:                  30.131
REMARK INTRA:                  -0.736
REMARK UNBOUND:                -0.749
REMARK SMILES O=C(C=Cc1ccc(O)cc1)CC(=O)C=Cc1ccc(O)cc1
REMARK SMILES IDX 12 1 2 2 1 3 3 4 4 5 5 6 6 7 7 8 8 9 11 10 10 11 9 12 13 14
REMARK SMILES IDX 14 15 15 16 16 17 17 18 18 19 23 20 19 21 22 22 20 23 21 24
REMARK H PARENT 9 13 21 25
REMARK Flexibility Score: inf
ROOT
ATOM      1  C   UNL     1       7.975  13.532  19.846  1.00  0.00     0.160 C 
ENDROOT
BRANCH   1   2
ATOM      2  C   UNL     1       7.808  13.969  18.408  1.00  0.00     0.163 C 
ATOM      3  O   UNL     1       6.679  13.867  17.858  1.00  0.00    -0.294 OA
BRANCH   2   4
ATOM      4  C   UNL     1       8.938  14.460  17.590  1.00  0.00     0.048 C 
ATOM      5  C   UNL     1       8.868  14.617  16.259  1.00  0.00     0.012 C 
BRANCH   5   6
ATOM      6  C   UNL     1       9.992  15.127  15.436  1.00  0.00    -0.025 A 
ATOM      7  C   UNL     1      11.119  15.656  16.089  1.00  0.00     0.012 A 
ATOM      8  C   UNL     1      12.196  16.158  15.352  1.00  0.00     0.047 A 
ATOM      9  C   UNL     1      12.159  16.148  13.955  1.00  0.00     0.115 A 
ATOM     10  C   UNL     1       9.956  15.135  14.027  1.00  0.00     0.012 A 
ATOM     11  C   UNL     1      11.035  15.638  13.295  1.00  0.00     0.047 A 
BRANCH   9  12
ATOM     12  O   UNL     1      13.241  16.651  13.234  1.00  0.00    -0.508 OA
ATOM     13  H   UNL     1      14.168  16.253  13.326  1.00  0.00     0.293 HD
ENDBRANCH   9  12
ENDBRANCH   5   6
ENDBRANCH   2   4
ENDBRANCH   1   2
BRANCH   1  14
ATOM     14  C   UNL     1       8.199  12.043  19.991  1.00  0.00     0.163 C 
ATOM     15  O   UNL     1       7.767  11.446  21.015  1.00  0.00    -0.294 OA
BRANCH  14  16
ATOM     16  C   UNL     1       8.971  11.257  19.006  1.00  0.00     0.048 C 
ATOM     17  C   UNL     1       9.845  10.297  19.349  1.00  0.00     0.012 C 
BRANCH  17  18
ATOM     18  C   UNL     1      10.627   9.505  18.366  1.00  0.00    -0.025 A 
ATOM     19  C   UNL     1      11.941   9.062  18.621  1.00  0.00     0.012 A 
ATOM     20  C   UNL     1      10.044   9.217  17.120  1.00  0.00     0.012 A 
ATOM     21  C   UNL     1      12.639   8.327  17.657  1.00  0.00     0.047 A 
ATOM     22  C   UNL     1      10.744   8.482  16.160  1.00  0.00     0.047 A 
ATOM     23  C   UNL     1      12.043   8.033  16.427  1.00  0.00     0.115 A 
BRANCH  23  24
ATOM     24  O   UNL     1      12.751   7.299  15.477  1.00  0.00    -0.508 OA
ATOM     25  H   UNL     1      13.185   7.746  14.678  1.00  0.00     0.293 HD
ENDBRANCH  23  24
ENDBRANCH  17  18
ENDBRANCH  14  16
ENDBRANCH   1  14
TORSDOF 8
ENDMDL
