MODEL 1
REMARK VINA RESULT:    -4.756      0.000      0.000
REMARK INTER + INTRA:          -6.187
REMARK INTER:                  -5.868
REMARK INTRA:                  -0.319
REMARK UNBOUND:                -0.319
REMARK SMILES O=c1c(O)c(-c2cc(O)c(O)c(O)c2)oc2cc(O)cc(O)c12
REMARK SMILES IDX 5 1 3 2 2 3 1 4 23 5 21 6 20 7 18 8 17 9 16 10 15 11 6 12
REMARK SMILES IDX 7 13 8 14 14 15 10 16 12 17 9 18 11 20 13 22 4 24 22 26
REMARK SMILES IDX 19 28
REMARK H PARENT 9 19 11 21 13 23 4 25 22 27 19 29
REMARK Flexibility Score: inf
ROOT
ATOM      1  C   UNL     1      13.061   8.837  17.726  1.00  0.00     0.180 A 
ATOM      2  C   UNL     1      11.817   9.118  17.136  1.00  0.00     0.208 A 
ATOM      3  C   UNL     1      11.774   9.485  15.781  1.00  0.00     0.238 A 
ATOM      4  O   UNL     1      10.664   9.788  15.272  1.00  0.00    -0.285 OA
ATOM      5  C   UNL     1      12.973   9.552  15.030  1.00  0.00     0.111 A 
ATOM      6  C   UNL     1      13.042   9.874  13.641  1.00  0.00     0.134 A 
ATOM      7  C   UNL     1      14.292  10.039  13.033  1.00  0.00     0.093 A 
ATOM      8  C   UNL     1      15.475   9.829  13.747  1.00  0.00     0.123 A 
ATOM      9  C   UNL     1      15.416   9.456  15.087  1.00  0.00     0.094 A 
ATOM     10  C   UNL     1      14.185   9.319  15.732  1.00  0.00     0.146 A 
ATOM     11  O   UNL     1      14.174   8.973  17.013  1.00  0.00    -0.452 OA
ENDROOT
BRANCH   1  12
ATOM     12  C   UNL     1      13.185   8.419  19.142  1.00  0.00     0.029 A 
ATOM     13  C   UNL     1      12.854   7.117  19.552  1.00  0.00     0.062 A 
ATOM     14  C   UNL     1      13.000   6.732  20.891  1.00  0.00     0.162 A 
ATOM     15  C   UNL     1      13.697   9.323  20.085  1.00  0.00     0.062 A 
ATOM     16  C   UNL     1      13.492   7.651  21.835  1.00  0.00     0.200 A 
ATOM     17  C   UNL     1      13.845   8.948  21.425  1.00  0.00     0.162 A 
BRANCH  14  18
ATOM     18  O   UNL     1      12.662   5.440  21.287  1.00  0.00    -0.504 OA
ATOM     19  H   UNL     1      11.700   5.121  21.298  1.00  0.00     0.293 HD
ENDBRANCH  14  18
BRANCH  16  20
ATOM     20  O   UNL     1      13.640   7.286  23.173  1.00  0.00    -0.502 OA
ATOM     21  H   UNL     1      12.875   7.339  23.835  1.00  0.00     0.293 HD
ENDBRANCH  16  20
BRANCH  17  22
ATOM     22  O   UNL     1      14.344   9.880  22.335  1.00  0.00    -0.504 OA
ATOM     23  H   UNL     1      13.736  10.460  22.900  1.00  0.00     0.293 HD
ENDBRANCH  17  22
ENDBRANCH   1  12
BRANCH   2  24
ATOM     24  O   UNL     1      10.648   9.067  17.900  1.00  0.00    -0.502 OA
ATOM     25  H   UNL     1      10.492   9.675  18.696  1.00  0.00     0.293 HD
ENDBRANCH   2  24
BRANCH   6  26
ATOM     26  O   UNL     1      11.923  10.015  12.816  1.00  0.00    -0.507 OA
ATOM     27  H   UNL     1      11.274   9.275  12.597  1.00  0.00     0.293 HD
ENDBRANCH   6  26
BRANCH   8  28
ATOM     28  O   UNL     1      16.715   9.979  13.129  1.00  0.00    -0.508 OA
ATOM     29  H   UNL     1      17.274   9.177  12.864  1.00  0.00     0.293 HD
ENDBRANCH   8  28
TORSDOF 7
ENDMDL
MODEL 2
REMARK VINA RESULT:    -4.207     11.274     12.809
REMARK INTER + INTRA:          -5.510
REMARK INTER:                  -5.153
REMARK INTRA:                  -0.357
REMARK UNBOUND:                -0.319
REMARK SMILES O=c1c(O)c(-c2cc(O)c(O)c(O)c2)oc2cc(O)cc(O)c12
REMARK SMILES IDX 5 1 3 2 2 3 1 4 23 5 21 6 20 7 18 8 17 9 16 10 15 11 6 12
REMARK SMILES IDX 7 13 8 14 14 15 10 16 12 17 9 18 11 20 13 22 4 24 22 26
REMARK SMILES IDX 19 28
REMARK H PARENT 9 19 11 21 13 23 4 25 22 27 19 29
REMARK Flexibility Score: inf
ROOT
ATOM      1  C   UNL     1      10.559  -1.474  13.994  1.00  0.00     0.180 A 
ATOM      2  C   UNL     1      11.828  -1.352  14.586  1.00  0.00     0.208 A 
ATOM      3  C   UNL     1      12.812  -2.311  14.293  1.00  0.00     0.238 A 
ATOM      4  O   UNL     1      13.928  -2.227  14.867  1.00  0.00    -0.285 OA
ATOM      5  C   UNL     1      12.519  -3.371  13.401  1.00  0.00     0.111 A 
ATOM      6  C   UNL     1      13.451  -4.375  13.002  1.00  0.00     0.134 A 
ATOM      7  C   UNL     1      13.014  -5.450  12.218  1.00  0.00     0.093 A 
ATOM      8  C   UNL     1      11.695  -5.521  11.763  1.00  0.00     0.123 A 
ATOM      9  C   UNL     1      10.793  -4.515  12.098  1.00  0.00     0.094 A 
ATOM     10  C   UNL     1      11.189  -3.449  12.910  1.00  0.00     0.146 A 
ATOM     11  O   UNL     1      10.295  -2.516  13.213  1.00  0.00    -0.452 OA
ENDROOT
BRANCH   1  12
ATOM     12  C   UNL     1       9.480  -0.489  14.235  1.00  0.00     0.029 A 
ATOM     13  C   UNL     1       9.268   0.591  13.363  1.00  0.00     0.062 A 
ATOM     14  C   UNL     1       8.227   1.500  13.593  1.00  0.00     0.162 A 
ATOM     15  C   UNL     1       8.613  -0.669  15.323  1.00  0.00     0.062 A 
ATOM     16  C   UNL     1       7.376   1.326  14.699  1.00  0.00     0.200 A 
ATOM     17  C   UNL     1       7.571   0.235  15.562  1.00  0.00     0.162 A 
BRANCH  14  18
ATOM     18  O   UNL     1       8.031   2.572  12.724  1.00  0.00    -0.504 OA
ATOM     19  H   UNL     1       8.802   3.001  12.226  1.00  0.00     0.293 HD
ENDBRANCH  14  18
BRANCH  16  20
ATOM     20  O   UNL     1       6.337   2.224  14.946  1.00  0.00    -0.502 OA
ATOM     21  H   UNL     1       6.296   2.784  15.789  1.00  0.00     0.293 HD
ENDBRANCH  16  20
BRANCH  17  22
ATOM     22  O   UNL     1       6.740   0.030  16.663  1.00  0.00    -0.504 OA
ATOM     23  H   UNL     1       5.821   0.451  16.731  1.00  0.00     0.293 HD
ENDBRANCH  17  22
ENDBRANCH   1  12
BRANCH   2  24
ATOM     24  O   UNL     1      12.090  -0.311  15.481  1.00  0.00    -0.502 OA
ATOM     25  H   UNL     1      12.362  -0.475  16.442  1.00  0.00     0.293 HD
ENDBRANCH   2  24
BRANCH   6  26
ATOM     26  O   UNL     1      14.811  -4.350  13.324  1.00  0.00    -0.507 OA
ATOM     27  H   UNL     1      15.562  -4.379  12.651  1.00  0.00     0.293 HD
ENDBRANCH   6  26
BRANCH   8  28
ATOM     28  O   UNL     1      11.273  -6.585  10.969  1.00  0.00    -0.508 OA
ATOM     29  H   UNL     1      10.294  -6.722  10.743  1.00  0.00     0.293 HD
ENDBRANCH   8  28
TORSDOF 7
ENDMDL
MODEL 3
REMARK VINA RESULT:    -4.170      8.884      9.935
REMARK INTER + INTRA:          -5.465
REMARK INTER:                  -5.100
REMARK INTRA:                  -0.365
REMARK UNBOUND:                -0.319
REMARK SMILES O=c1c(O)c(-c2cc(O)c(O)c(O)c2)oc2cc(O)cc(O)c12
REMARK SMILES IDX 5 1 3 2 2 3 1 4 23 5 21 6 20 7 18 8 17 9 16 10 15 11 6 12
REMARK SMILES IDX 7 13 8 14 14 15 10 16 12 17 9 18 11 20 13 22 4 24 22 26
REMARK SMILES IDX 19 28
REMARK H PARENT 9 19 11 21 13 23 4 25 22 27 19 29
REMARK Flexibility Score: inf
ROOT
ATOM      1  C   UNL     1      10.687   0.410  14.108  1.00  0.00     0.180 A 
ATOM      2  C   UNL     1       9.332   0.280  14.462  1.00  0.00     0.208 A 
ATOM      3  C   UNL     1       8.408   1.216  13.971  1.00  0.00     0.238 A 
ATOM      4  O   UNL     1       7.206   1.127  14.334  1.00  0.00    -0.285 OA
ATOM      5  C   UNL     1       8.846   2.260  13.120  1.00  0.00     0.111 A 
ATOM      6  C   UNL     1       7.990   3.240  12.533  1.00  0.00     0.134 A 
ATOM      7  C   UNL     1       8.549   4.304  11.815  1.00  0.00     0.093 A 
ATOM      8  C   UNL     1       9.928   4.386  11.606  1.00  0.00     0.123 A 
ATOM      9  C   UNL     1      10.766   3.403  12.125  1.00  0.00     0.094 A 
ATOM     10  C   UNL     1      10.242   2.349  12.878  1.00  0.00     0.146 A 
ATOM     11  O   UNL     1      11.076   1.438  13.363  1.00  0.00    -0.452 OA
ENDROOT
BRANCH   1  12
ATOM     12  C   UNL     1      11.715  -0.551  14.566  1.00  0.00     0.029 A 
ATOM     13  C   UNL     1      11.973  -1.738  13.862  1.00  0.00     0.062 A 
ATOM     14  C   UNL     1      12.967  -2.625  14.296  1.00  0.00     0.162 A 
ATOM     15  C   UNL     1      12.492  -0.245  15.695  1.00  0.00     0.062 A 
ATOM     16  C   UNL     1      13.724  -2.322  15.441  1.00  0.00     0.200 A 
ATOM     17  C   UNL     1      13.486  -1.125  16.137  1.00  0.00     0.162 A 
BRANCH  14  18
ATOM     18  O   UNL     1      13.208  -3.803  13.593  1.00  0.00    -0.504 OA
ATOM     19  H   UNL     1      13.164  -3.837  12.581  1.00  0.00     0.293 HD
ENDBRANCH  14  18
BRANCH  16  20
ATOM     20  O   UNL     1      14.715  -3.195  15.891  1.00  0.00    -0.502 OA
ATOM     21  H   UNL     1      15.094  -3.146  16.829  1.00  0.00     0.293 HD
ENDBRANCH  16  20
BRANCH  17  22
ATOM     22  O   UNL     1      14.225  -0.791  17.272  1.00  0.00    -0.504 OA
ATOM     23  H   UNL     1      14.699  -1.491  17.831  1.00  0.00     0.293 HD
ENDBRANCH  17  22
ENDBRANCH   1  12
BRANCH   2  24
ATOM     24  O   UNL     1       8.925  -0.745  15.320  1.00  0.00    -0.502 OA
ATOM     25  H   UNL     1       8.070  -1.269  15.173  1.00  0.00     0.293 HD
ENDBRANCH   2  24
BRANCH   6  26
ATOM     26  O   UNL     1       6.594   3.199  12.602  1.00  0.00    -0.507 OA
ATOM     27  H   UNL     1       6.066   3.001  13.438  1.00  0.00     0.293 HD
ENDBRANCH   6  26
BRANCH   8  28
ATOM     28  O   UNL     1      10.475   5.439  10.876  1.00  0.00    -0.508 OA
ATOM     29  H   UNL     1      11.195   6.037  11.266  1.00  0.00     0.293 HD
ENDBRANCH   8  28
TORSDOF 7
ENDMDL
MODEL 4
REMARK VINA RESULT:    -4.151     11.270     12.752
REMARK INTER + INTRA:          -5.440
REMARK INTER:                  -5.086
REMARK INTRA:                  -0.354
REMARK UNBOUND:                -0.319
REMARK SMILES O=c1c(O)c(-c2cc(O)c(O)c(O)c2)oc2cc(O)cc(O)c12
REMARK SMILES IDX 5 1 3 2 2 3 1 4 23 5 21 6 20 7 18 8 17 9 16 10 15 11 6 12
REMARK SMILES IDX 7 13 8 14 14 15 10 16 12 17 9 18 11 20 13 22 4 24 22 26
REMARK SMILES IDX 19 28
REMARK H PARENT 9 19 11 21 13 23 4 25 22 27 19 29
REMARK Flexibility Score: inf
ROOT
ATOM      1  C   UNL     1      10.580  -1.522  14.004  1.00  0.00     0.180 A 
ATOM      2  C   UNL     1      11.834  -1.418  14.631  1.00  0.00     0.208 A 
ATOM      3  C   UNL     1      12.822  -2.372  14.340  1.00  0.00     0.238 A 
ATOM      4  O   UNL     1      13.924  -2.306  14.944  1.00  0.00    -0.285 OA
ATOM      5  C   UNL     1      12.549  -3.409  13.415  1.00  0.00     0.111 A 
ATOM      6  C   UNL     1      13.488  -4.407  13.015  1.00  0.00     0.134 A 
ATOM      7  C   UNL     1      13.069  -5.461  12.195  1.00  0.00     0.093 A 
ATOM      8  C   UNL     1      11.761  -5.517  11.705  1.00  0.00     0.123 A 
ATOM      9  C   UNL     1      10.854  -4.516  12.041  1.00  0.00     0.094 A 
ATOM     10  C   UNL     1      11.231  -3.471  12.889  1.00  0.00     0.146 A 
ATOM     11  O   UNL     1      10.333  -2.544  13.192  1.00  0.00    -0.452 OA
ENDROOT
BRANCH   1  12
ATOM     12  C   UNL     1       9.498  -0.539  14.242  1.00  0.00     0.029 A 
ATOM     13  C   UNL     1       8.606  -0.679  15.318  1.00  0.00     0.062 A 
ATOM     14  C   UNL     1       7.603   0.273  15.542  1.00  0.00     0.162 A 
ATOM     15  C   UNL     1       9.393   0.587  13.411  1.00  0.00     0.062 A 
ATOM     16  C   UNL     1       7.491   1.386  14.690  1.00  0.00     0.200 A 
ATOM     17  C   UNL     1       8.394   1.542  13.625  1.00  0.00     0.162 A 
BRANCH  14  18
ATOM     18  O   UNL     1       6.719   0.119  16.609  1.00  0.00    -0.504 OA
ATOM     19  H   UNL     1       7.011  -0.297  17.485  1.00  0.00     0.293 HD
ENDBRANCH  14  18
BRANCH  16  20
ATOM     20  O   UNL     1       6.495   2.342  14.896  1.00  0.00    -0.502 OA
ATOM     21  H   UNL     1       5.644   2.134  15.406  1.00  0.00     0.293 HD
ENDBRANCH  16  20
BRANCH  17  22
ATOM     22  O   UNL     1       8.315   2.639  12.768  1.00  0.00    -0.504 OA
ATOM     23  H   UNL     1       9.039   2.848  12.092  1.00  0.00     0.293 HD
ENDBRANCH  17  22
ENDBRANCH   1  12
BRANCH   2  24
ATOM     24  O   UNL     1      12.075  -0.399  15.557  1.00  0.00    -0.502 OA
ATOM     25  H   UNL     1      11.648  -0.386  16.475  1.00  0.00     0.293 HD
ENDBRANCH   2  24
BRANCH   6  26
ATOM     26  O   UNL     1      14.840  -4.393  13.372  1.00  0.00    -0.507 OA
ATOM     27  H   UNL     1      15.206  -3.991  14.222  1.00  0.00     0.293 HD
ENDBRANCH   6  26
BRANCH   8  28
ATOM     28  O   UNL     1      11.357  -6.560  10.875  1.00  0.00    -0.508 OA
ATOM     29  H   UNL     1      10.418  -6.940  10.922  1.00  0.00     0.293 HD
ENDBRANCH   8  28
TORSDOF 7
ENDMDL
MODEL 5
REMARK VINA RESULT:    -4.149      9.969     11.132
REMARK INTER + INTRA:          -5.439
REMARK INTER:                  -5.456
REMARK INTRA:                   0.017
REMARK UNBOUND:                -0.319
REMARK SMILES O=c1c(O)c(-c2cc(O)c(O)c(O)c2)oc2cc(O)cc(O)c12
REMARK SMILES IDX 5 1 3 2 2 3 1 4 23 5 21 6 20 7 18 8 17 9 16 10 15 11 6 12
REMARK SMILES IDX 7 13 8 14 14 15 10 16 12 17 9 18 11 20 13 22 4 24 22 26
REMARK SMILES IDX 19 28
REMARK H PARENT 9 19 11 21 13 23 4 25 22 27 19 29
REMARK Flexibility Score: inf
ROOT
ATOM      1  C   UNL     1      10.938  -0.562  14.358  1.00  0.00     0.180 A 
ATOM      2  C   UNL     1      10.792  -0.271  12.991  1.00  0.00     0.208 A 
ATOM      3  C   UNL     1       9.635   0.397  12.557  1.00  0.00     0.238 A 
ATOM      4  O   UNL     1       9.484   0.607  11.326  1.00  0.00    -0.285 OA
ATOM      5  C   UNL     1       8.647   0.777  13.497  1.00  0.00     0.111 A 
ATOM      6  C   UNL     1       7.454   1.493  13.175  1.00  0.00     0.134 A 
ATOM      7  C   UNL     1       6.486   1.701  14.164  1.00  0.00     0.093 A 
ATOM      8  C   UNL     1       6.696   1.279  15.479  1.00  0.00     0.123 A 
ATOM      9  C   UNL     1       7.882   0.633  15.817  1.00  0.00     0.094 A 
ATOM     10  C   UNL     1       8.852   0.377  14.844  1.00  0.00     0.146 A 
ATOM     11  O   UNL     1       9.964  -0.250  15.205  1.00  0.00    -0.452 OA
ENDROOT
BRANCH   1  12
ATOM     12  C   UNL     1      12.141  -1.241  14.894  1.00  0.00     0.029 A 
ATOM     13  C   UNL     1      12.657  -2.398  14.289  1.00  0.00     0.062 A 
ATOM     14  C   UNL     1      13.810  -3.014  14.795  1.00  0.00     0.162 A 
ATOM     15  C   UNL     1      12.814  -0.685  15.993  1.00  0.00     0.062 A 
ATOM     16  C   UNL     1      14.466  -2.464  15.911  1.00  0.00     0.200 A 
ATOM     17  C   UNL     1      13.965  -1.293  16.506  1.00  0.00     0.162 A 
BRANCH  14  18
ATOM     18  O   UNL     1      14.310  -4.166  14.192  1.00  0.00    -0.504 OA
ATOM     19  H   UNL     1      13.987  -5.088  14.459  1.00  0.00     0.293 HD
ENDBRANCH  14  18
BRANCH  16  20
ATOM     20  O   UNL     1      15.612  -3.065  16.431  1.00  0.00    -0.502 OA
ATOM     21  H   UNL     1      15.834  -4.040  16.264  1.00  0.00     0.293 HD
ENDBRANCH  16  20
BRANCH  17  22
ATOM     22  O   UNL     1      14.597  -0.718  17.608  1.00  0.00    -0.504 OA
ATOM     23  H   UNL     1      14.121  -0.585  18.493  1.00  0.00     0.293 HD
ENDBRANCH  17  22
ENDBRANCH   1  12
BRANCH   2  24
ATOM     24  O   UNL     1      11.769  -0.675  12.077  1.00  0.00    -0.502 OA
ATOM     25  H   UNL     1      11.670  -0.536  11.078  1.00  0.00     0.293 HD
ENDBRANCH   2  24
BRANCH   6  26
ATOM     26  O   UNL     1       7.188   2.038  11.916  1.00  0.00    -0.507 OA
ATOM     27  H   UNL     1       7.018   3.016  11.737  1.00  0.00     0.293 HD
ENDBRANCH   6  26
BRANCH   8  28
ATOM     28  O   UNL     1       5.734   1.505  16.461  1.00  0.00    -0.508 OA
ATOM     29  H   UNL     1       5.476   0.785  17.126  1.00  0.00     0.293 HD
ENDBRANCH   8  28
TORSDOF 7
ENDMDL
MODEL 6
REMARK VINA RESULT:    -4.041      9.477     10.847
REMARK INTER + INTRA:          -5.305
REMARK INTER:                  -4.964
REMARK INTRA:                  -0.341
REMARK UNBOUND:                -0.319
REMARK SMILES O=c1c(O)c(-c2cc(O)c(O)c(O)c2)oc2cc(O)cc(O)c12
REMARK SMILES IDX 5 1 3 2 2 3 1 4 23 5 21 6 20 7 18 8 17 9 16 10 15 11 6 12
REMARK SMILES IDX 7 13 8 14 14 15 10 16 12 17 9 18 11 20 13 22 4 24 22 26
REMARK SMILES IDX 19 28
REMARK H PARENT 9 19 11 21 13 23 4 25 22 27 19 29
REMARK Flexibility Score: inf
ROOT
ATOM      1  C   UNL     1       8.669   0.565  14.418  1.00  0.00     0.180 A 
ATOM      2  C   UNL     1       7.626   0.385  15.342  1.00  0.00     0.208 A 
ATOM      3  C   UNL     1       6.502   1.224  15.271  1.00  0.00     0.238 A 
ATOM      4  O   UNL     1       5.595   1.094  16.134  1.00  0.00    -0.285 OA
ATOM      5  C   UNL     1       6.428   2.221  14.268  1.00  0.00     0.111 A 
ATOM      6  C   UNL     1       5.319   3.100  14.078  1.00  0.00     0.134 A 
ATOM      7  C   UNL     1       5.411   4.134  13.139  1.00  0.00     0.093 A 
ATOM      8  C   UNL     1       6.545   4.279  12.336  1.00  0.00     0.123 A 
ATOM      9  C   UNL     1       7.608   3.390  12.472  1.00  0.00     0.094 A 
ATOM     10  C   UNL     1       7.562   2.371  13.427  1.00  0.00     0.146 A 
ATOM     11  O   UNL     1       8.600   1.552  13.531  1.00  0.00    -0.452 OA
ENDROOT
BRANCH   1  12
ATOM     12  C   UNL     1       9.874  -0.296  14.414  1.00  0.00     0.029 A 
ATOM     13  C   UNL     1       9.998  -1.378  13.526  1.00  0.00     0.062 A 
ATOM     14  C   UNL     1      11.155  -2.167  13.520  1.00  0.00     0.162 A 
ATOM     15  C   UNL     1      10.942   0.008  15.273  1.00  0.00     0.062 A 
ATOM     16  C   UNL     1      12.211  -1.870  14.401  1.00  0.00     0.200 A 
ATOM     17  C   UNL     1      12.101  -0.776  15.275  1.00  0.00     0.162 A 
BRANCH  14  18
ATOM     18  O   UNL     1      11.263  -3.242  12.640  1.00  0.00    -0.504 OA
ATOM     19  H   UNL     1      10.789  -4.120  12.813  1.00  0.00     0.293 HD
ENDBRANCH  14  18
BRANCH  16  20
ATOM     20  O   UNL     1      13.369  -2.648  14.411  1.00  0.00    -0.502 OA
ATOM     21  H   UNL     1      13.643  -3.219  13.620  1.00  0.00     0.293 HD
ENDBRANCH  16  20
BRANCH  17  22
ATOM     22  O   UNL     1      13.133  -0.450  16.154  1.00  0.00    -0.504 OA
ATOM     23  H   UNL     1      13.006  -0.454  17.160  1.00  0.00     0.293 HD
ENDBRANCH  17  22
ENDBRANCH   1  12
BRANCH   2  24
ATOM     24  O   UNL     1       7.728  -0.590  16.337  1.00  0.00    -0.502 OA
ATOM     25  H   UNL     1       7.954  -1.556  16.131  1.00  0.00     0.293 HD
ENDBRANCH   2  24
BRANCH   6  26
ATOM     26  O   UNL     1       4.106   2.984  14.763  1.00  0.00    -0.507 OA
ATOM     27  H   UNL     1       3.229   3.367  14.446  1.00  0.00     0.293 HD
ENDBRANCH   6  26
BRANCH   8  28
ATOM     28  O   UNL     1       6.621   5.301  11.391  1.00  0.00    -0.508 OA
ATOM     29  H   UNL     1       7.375   5.342  10.716  1.00  0.00     0.293 HD
ENDBRANCH   8  28
TORSDOF 7
ENDMDL
MODEL 7
REMARK VINA RESULT:    -3.972      9.295     11.363
REMARK INTER + INTRA:          -5.220
REMARK INTER:                  -4.861
REMARK INTRA:                  -0.359
REMARK UNBOUND:                -0.319
REMARK SMILES O=c1c(O)c(-c2cc(O)c(O)c(O)c2)oc2cc(O)cc(O)c12
REMARK SMILES IDX 5 1 3 2 2 3 1 4 23 5 21 6 20 7 18 8 17 9 16 10 15 11 6 12
REMARK SMILES IDX 7 13 8 14 14 15 10 16 12 17 9 18 11 20 13 22 4 24 22 26
REMARK SMILES IDX 19 28
REMARK H PARENT 9 19 11 21 13 23 4 25 22 27 19 29
REMARK Flexibility Score: inf
ROOT
ATOM      1  C   UNL     1      10.595   0.373  13.513  1.00  0.00     0.180 A 
ATOM      2  C   UNL     1      10.870  -0.641  12.580  1.00  0.00     0.208 A 
ATOM      3  C   UNL     1      11.813  -1.630  12.906  1.00  0.00     0.238 A 
ATOM      4  O   UNL     1      12.095  -2.504  12.047  1.00  0.00    -0.285 OA
ATOM      5  C   UNL     1      12.456  -1.600  14.168  1.00  0.00     0.111 A 
ATOM      6  C   UNL     1      13.397  -2.573  14.620  1.00  0.00     0.134 A 
ATOM      7  C   UNL     1      14.069  -2.373  15.832  1.00  0.00     0.093 A 
ATOM      8  C   UNL     1      13.784  -1.268  16.639  1.00  0.00     0.123 A 
ATOM      9  C   UNL     1      12.824  -0.345  16.235  1.00  0.00     0.094 A 
ATOM     10  C   UNL     1      12.164  -0.498  15.013  1.00  0.00     0.146 A 
ATOM     11  O   UNL     1      11.263   0.410  14.660  1.00  0.00    -0.452 OA
ENDROOT
BRANCH   1  12
ATOM     12  C   UNL     1       9.597   1.435  13.250  1.00  0.00     0.029 A 
ATOM     13  C   UNL     1       8.264   1.307  13.675  1.00  0.00     0.062 A 
ATOM     14  C   UNL     1       7.338   2.332  13.439  1.00  0.00     0.162 A 
ATOM     15  C   UNL     1      10.000   2.619  12.615  1.00  0.00     0.062 A 
ATOM     16  C   UNL     1       7.745   3.506  12.781  1.00  0.00     0.200 A 
ATOM     17  C   UNL     1       9.083   3.648  12.373  1.00  0.00     0.162 A 
BRANCH  14  18
ATOM     18  O   UNL     1       6.017   2.190  13.858  1.00  0.00    -0.504 OA
ATOM     19  H   UNL     1       5.243   2.542  13.307  1.00  0.00     0.293 HD
ENDBRANCH  14  18
BRANCH  16  20
ATOM     20  O   UNL     1       6.836   4.535  12.534  1.00  0.00    -0.502 OA
ATOM     21  H   UNL     1       6.227   4.535  11.724  1.00  0.00     0.293 HD
ENDBRANCH  16  20
BRANCH  17  22
ATOM     22  O   UNL     1       9.520   4.803  11.726  1.00  0.00    -0.504 OA
ATOM     23  H   UNL     1       9.178   5.723  11.977  1.00  0.00     0.293 HD
ENDBRANCH  17  22
ENDBRANCH   1  12
BRANCH   2  24
ATOM     24  O   UNL     1      10.240  -0.639  11.332  1.00  0.00    -0.502 OA
ATOM     25  H   UNL     1      10.728  -0.875  10.476  1.00  0.00     0.293 HD
ENDBRANCH   2  24
BRANCH   6  26
ATOM     26  O   UNL     1      13.686  -3.757  13.935  1.00  0.00    -0.507 OA
ATOM     27  H   UNL     1      14.577  -3.975  13.515  1.00  0.00     0.293 HD
ENDBRANCH   6  26
BRANCH   8  28
ATOM     28  O   UNL     1      14.445  -1.085  17.852  1.00  0.00    -0.508 OA
ATOM     29  H   UNL     1      15.302  -1.580  18.068  1.00  0.00     0.293 HD
ENDBRANCH   8  28
TORSDOF 7
ENDMDL
MODEL 8
REMARK VINA RESULT:    -3.920     12.249     15.509
REMARK INTER + INTRA:          -5.156
REMARK INTER:                  -4.814
REMARK INTRA:                  -0.341
REMARK UNBOUND:                -0.319
REMARK SMILES O=c1c(O)c(-c2cc(O)c(O)c(O)c2)oc2cc(O)cc(O)c12
REMARK SMILES IDX 5 1 3 2 2 3 1 4 23 5 21 6 20 7 18 8 17 9 16 10 15 11 6 12
REMARK SMILES IDX 7 13 8 14 14 15 10 16 12 17 9 18 11 20 13 22 4 24 22 26
REMARK SMILES IDX 19 28
REMARK H PARENT 9 19 11 21 13 23 4 25 22 27 19 29
REMARK Flexibility Score: inf
ROOT
ATOM      1  C   UNL     1      13.454  -5.302  20.375  1.00  0.00     0.180 A 
ATOM      2  C   UNL     1      13.108  -6.463  19.663  1.00  0.00     0.208 A 
ATOM      3  C   UNL     1      13.984  -7.560  19.682  1.00  0.00     0.238 A 
ATOM      4  O   UNL     1      13.695  -8.577  18.999  1.00  0.00    -0.285 OA
ATOM      5  C   UNL     1      15.188  -7.488  20.424  1.00  0.00     0.111 A 
ATOM      6  C   UNL     1      16.130  -8.554  20.547  1.00  0.00     0.134 A 
ATOM      7  C   UNL     1      17.348  -8.327  21.198  1.00  0.00     0.093 A 
ATOM      8  C   UNL     1      17.630  -7.093  21.790  1.00  0.00     0.123 A 
ATOM      9  C   UNL     1      16.692  -6.066  21.728  1.00  0.00     0.094 A 
ATOM     10  C   UNL     1      15.483  -6.249  21.052  1.00  0.00     0.146 A 
ATOM     11  O   UNL     1      14.621  -5.242  21.008  1.00  0.00    -0.452 OA
ENDROOT
BRANCH   1  12
ATOM     12  C   UNL     1      12.571  -4.115  20.423  1.00  0.00     0.029 A 
ATOM     13  C   UNL     1      11.456  -4.067  21.275  1.00  0.00     0.062 A 
ATOM     14  C   UNL     1      10.644  -2.925  21.325  1.00  0.00     0.162 A 
ATOM     15  C   UNL     1      12.885  -2.990  19.644  1.00  0.00     0.062 A 
ATOM     16  C   UNL     1      10.952  -1.811  20.524  1.00  0.00     0.200 A 
ATOM     17  C   UNL     1      12.079  -1.846  19.686  1.00  0.00     0.162 A 
BRANCH  14  18
ATOM     18  O   UNL     1       9.536  -2.892  22.169  1.00  0.00    -0.504 OA
ATOM     19  H   UNL     1       9.035  -2.032  22.355  1.00  0.00     0.293 HD
ENDBRANCH  14  18
BRANCH  16  20
ATOM     20  O   UNL     1      10.153  -0.668  20.558  1.00  0.00    -0.502 OA
ATOM     21  H   UNL     1      10.114  -0.060  21.367  1.00  0.00     0.293 HD
ENDBRANCH  16  20
BRANCH  17  22
ATOM     22  O   UNL     1      12.417  -0.755  18.886  1.00  0.00    -0.504 OA
ATOM     23  H   UNL     1      13.356  -0.377  18.859  1.00  0.00     0.293 HD
ENDBRANCH  17  22
ENDBRANCH   1  12
BRANCH   2  24
ATOM     24  O   UNL     1      11.926  -6.505  18.919  1.00  0.00    -0.502 OA
ATOM     25  H   UNL     1      11.239  -7.242  19.030  1.00  0.00     0.293 HD
ENDBRANCH   2  24
BRANCH   6  26
ATOM     26  O   UNL     1      15.907  -9.850  20.073  1.00  0.00    -0.507 OA
ATOM     27  H   UNL     1      15.299 -10.084  19.302  1.00  0.00     0.293 HD
ENDBRANCH   6  26
BRANCH   8  28
ATOM     28  O   UNL     1      18.838  -6.881  22.451  1.00  0.00    -0.508 OA
ATOM     29  H   UNL     1      18.867  -6.520  23.397  1.00  0.00     0.293 HD
ENDBRANCH   8  28
TORSDOF 7
ENDMDL
MODEL 9
REMARK VINA RESULT:    -3.861     13.862     16.468
REMARK INTER + INTRA:          -5.083
REMARK INTER:                  -4.735
REMARK INTRA:                  -0.348
REMARK UNBOUND:                -0.319
REMARK SMILES O=c1c(O)c(-c2cc(O)c(O)c(O)c2)oc2cc(O)cc(O)c12
REMARK SMILES IDX 5 1 3 2 2 3 1 4 23 5 21 6 20 7 18 8 17 9 16 10 15 11 6 12
REMARK SMILES IDX 7 13 8 14 14 15 10 16 12 17 9 18 11 20 13 22 4 24 22 26
REMARK SMILES IDX 19 28
REMARK H PARENT 9 19 11 21 13 23 4 25 22 27 19 29
REMARK Flexibility Score: inf
ROOT
ATOM      1  C   UNL     1      12.865  -6.123  18.934  1.00  0.00     0.180 A 
ATOM      2  C   UNL     1      12.295  -5.330  19.944  1.00  0.00     0.208 A 
ATOM      3  C   UNL     1      11.002  -5.632  20.400  1.00  0.00     0.238 A 
ATOM      4  O   UNL     1      10.475  -4.886  21.266  1.00  0.00    -0.285 OA
ATOM      5  C   UNL     1      10.300  -6.733  19.850  1.00  0.00     0.111 A 
ATOM      6  C   UNL     1       9.001  -7.155  20.264  1.00  0.00     0.134 A 
ATOM      7  C   UNL     1       8.350  -8.175  19.561  1.00  0.00     0.093 A 
ATOM      8  C   UNL     1       8.978  -8.834  18.501  1.00  0.00     0.123 A 
ATOM      9  C   UNL     1      10.269  -8.470  18.128  1.00  0.00     0.094 A 
ATOM     10  C   UNL     1      10.931  -7.430  18.786  1.00  0.00     0.146 A 
ATOM     11  O   UNL     1      12.156  -7.108  18.392  1.00  0.00    -0.452 OA
ENDROOT
BRANCH   1  12
ATOM     12  C   UNL     1      14.232  -5.881  18.420  1.00  0.00     0.029 A 
ATOM     13  C   UNL     1      14.478  -4.938  17.408  1.00  0.00     0.062 A 
ATOM     14  C   UNL     1      15.781  -4.705  16.951  1.00  0.00     0.162 A 
ATOM     15  C   UNL     1      15.316  -6.565  18.994  1.00  0.00     0.062 A 
ATOM     16  C   UNL     1      16.859  -5.411  17.516  1.00  0.00     0.200 A 
ATOM     17  C   UNL     1      16.621  -6.340  18.543  1.00  0.00     0.162 A 
BRANCH  14  18
ATOM     18  O   UNL     1      16.012  -3.772  15.942  1.00  0.00    -0.504 OA
ATOM     19  H   UNL     1      15.939  -4.020  14.963  1.00  0.00     0.293 HD
ENDBRANCH  14  18
BRANCH  16  20
ATOM     20  O   UNL     1      18.163  -5.194  17.070  1.00  0.00    -0.502 OA
ATOM     21  H   UNL     1      18.951  -5.717  17.432  1.00  0.00     0.293 HD
ENDBRANCH  16  20
BRANCH  17  22
ATOM     22  O   UNL     1      17.668  -7.050  19.129  1.00  0.00    -0.504 OA
ATOM     23  H   UNL     1      18.545  -7.212  18.647  1.00  0.00     0.293 HD
ENDBRANCH  17  22
ENDBRANCH   1  12
BRANCH   2  24
ATOM     24  O   UNL     1      12.995  -4.235  20.458  1.00  0.00    -0.502 OA
ATOM     25  H   UNL     1      12.529  -3.430  20.860  1.00  0.00     0.293 HD
ENDBRANCH   2  24
BRANCH   6  26
ATOM     26  O   UNL     1       8.324  -6.627  21.367  1.00  0.00    -0.507 OA
ATOM     27  H   UNL     1       7.336  -6.732  21.539  1.00  0.00     0.293 HD
ENDBRANCH   6  26
BRANCH   8  28
ATOM     28  O   UNL     1       8.330  -9.860  17.817  1.00  0.00    -0.508 OA
ATOM     29  H   UNL     1       8.118 -10.744  18.265  1.00  0.00     0.293 HD
ENDBRANCH   8  28
TORSDOF 7
ENDMDL
