MODEL 1
REMARK VINA RESULT:    -4.641      0.000      0.000
REMARK INTER + INTRA:          -7.606
REMARK INTER:                  -7.083
REMARK INTRA:                  -0.523
REMARK UNBOUND:                -0.523
REMARK SMILES CCCCCCCCCCC(=O)[O-]
REMARK SMILES IDX 7 1 8 2 9 3 10 4 11 5 12 6 13 7 6 8 5 9 4 10 3 11 2 12 1 13
REMARK H PARENT
REMARK Flexibility Score: inf
ROOT
ATOM      1  C   UNL     1      17.644 117.735 295.985  1.00  0.00     0.000 C 
ENDROOT
BRANCH   1   2
ATOM      2  C   UNL     1      18.404 116.506 296.498  1.00  0.00     0.000 C 
BRANCH   2   3
ATOM      3  C   UNL     1      19.833 116.874 296.913  1.00  0.00     0.006 C 
BRANCH   3   4
ATOM      4  C   UNL     1      20.336 118.093 296.132  1.00  0.00     0.053 C 
BRANCH   4   5
ATOM      5  C   UNL     1      21.830 118.132 296.127  1.00  0.00     0.041 C 
ATOM      6  O   UNL     1      22.437 119.234 296.064  1.00  0.00    -0.550 OA
ATOM      7  O   UNL     1      22.557 116.947 296.142  1.00  0.00    -0.550 OA
ENDBRANCH   4   5
ENDBRANCH   3   4
ENDBRANCH   2   3
ENDBRANCH   1   2
BRANCH   1   8
ATOM      8  C   UNL     1      16.768 117.374 294.777  1.00  0.00     0.000 C 
BRANCH   8   9
ATOM      9  C   UNL     1      17.517 117.503 293.441  1.00  0.00    -0.000 C 
BRANCH   9  10
ATOM     10  C   UNL     1      17.432 116.228 292.588  1.00  0.00    -0.000 C 
BRANCH  10  11
ATOM     11  C   UNL     1      18.442 116.276 291.432  1.00  0.00    -0.000 C 
BRANCH  11  12
ATOM     12  C   UNL     1      17.945 115.531 290.182  1.00  0.00    -0.003 C 
ATOM     13  C   UNL     1      16.983 114.391 290.516  1.00  0.00     0.004 C 
ENDBRANCH  11  12
ENDBRANCH  10  11
ENDBRANCH   9  10
ENDBRANCH   8   9
ENDBRANCH   1   8
TORSDOF 9
ENDMDL
MODEL 2
REMARK VINA RESULT:    -4.624      1.138      1.551
REMARK INTER + INTRA:          -7.580
REMARK INTER:                  -6.961
REMARK INTRA:                  -0.618
REMARK UNBOUND:                -0.523
REMARK SMILES CCCCCCCCCCC(=O)[O-]
REMARK SMILES IDX 7 1 8 2 9 3 10 4 11 5 12 6 13 7 6 8 5 9 4 10 3 11 2 12 1 13
REMARK H PARENT
REMARK Flexibility Score: inf
ROOT
ATOM      1  C   UNL     1      17.746 117.139 296.398  1.00  0.00     0.000 C 
ENDROOT
BRANCH   1   2
ATOM      2  C   UNL     1      17.932 118.651 296.578  1.00  0.00     0.000 C 
BRANCH   2   3
ATOM      3  C   UNL     1      19.409 119.002 296.790  1.00  0.00     0.006 C 
BRANCH   3   4
ATOM      4  C   UNL     1      20.322 117.977 296.111  1.00  0.00     0.053 C 
BRANCH   4   5
ATOM      5  C   UNL     1      21.291 117.405 297.096  1.00  0.00     0.041 C 
ATOM      6  O   UNL     1      22.277 116.730 296.698  1.00  0.00    -0.550 OA
ATOM      7  O   UNL     1      21.079 117.574 298.459  1.00  0.00    -0.550 OA
ENDBRANCH   4   5
ENDBRANCH   3   4
ENDBRANCH   2   3
ENDBRANCH   1   2
BRANCH   1   8
ATOM      8  C   UNL     1      16.913 116.834 295.144  1.00  0.00     0.000 C 
BRANCH   8   9
ATOM      9  C   UNL     1      17.229 117.783 293.977  1.00  0.00    -0.000 C 
BRANCH   9  10
ATOM     10  C   UNL     1      18.123 117.133 292.909  1.00  0.00    -0.000 C 
BRANCH  10  11
ATOM     11  C   UNL     1      17.328 116.115 292.078  1.00  0.00    -0.000 C 
BRANCH  11  12
ATOM     12  C   UNL     1      18.020 115.768 290.750  1.00  0.00    -0.003 C 
ATOM     13  C   UNL     1      17.408 114.548 290.064  1.00  0.00     0.004 C 
ENDBRANCH  11  12
ENDBRANCH  10  11
ENDBRANCH   9  10
ENDBRANCH   8   9
ENDBRANCH   1   8
TORSDOF 9
ENDMDL
MODEL 3
REMARK VINA RESULT:    -4.469      1.706      1.933
REMARK INTER + INTRA:          -7.343
REMARK INTER:                  -6.859
REMARK INTRA:                  -0.484
REMARK UNBOUND:                -0.523
REMARK SMILES CCCCCCCCCCC(=O)[O-]
REMARK SMILES IDX 7 1 8 2 9 3 10 4 11 5 12 6 13 7 6 8 5 9 4 10 3 11 2 12 1 13
REMARK H PARENT
REMARK Flexibility Score: inf
ROOT
ATOM      1  C   UNL     1      18.805 117.636 295.705  1.00  0.00     0.000 C 
ENDROOT
BRANCH   1   2
ATOM      2  C   UNL     1      19.749 117.050 296.762  1.00  0.00     0.000 C 
BRANCH   2   3
ATOM      3  C   UNL     1      21.215 117.311 296.396  1.00  0.00     0.006 C 
BRANCH   3   4
ATOM      4  C   UNL     1      22.075 117.472 297.653  1.00  0.00     0.053 C 
BRANCH   4   5
ATOM      5  C   UNL     1      21.564 118.596 298.497  1.00  0.00     0.041 C 
ATOM      6  O   UNL     1      21.640 119.784 298.086  1.00  0.00    -0.550 OA
ATOM      7  O   UNL     1      21.048 118.338 299.762  1.00  0.00    -0.550 OA
ENDBRANCH   4   5
ENDBRANCH   3   4
ENDBRANCH   2   3
ENDBRANCH   1   2
BRANCH   1   8
ATOM      8  C   UNL     1      17.476 116.867 295.669  1.00  0.00     0.000 C 
BRANCH   8   9
ATOM      9  C   UNL     1      17.124 116.358 294.263  1.00  0.00    -0.000 C 
BRANCH   9  10
ATOM     10  C   UNL     1      17.663 117.270 293.150  1.00  0.00    -0.000 C 
BRANCH  10  11
ATOM     11  C   UNL     1      18.110 116.444 291.934  1.00  0.00    -0.000 C 
BRANCH  11  12
ATOM     12  C   UNL     1      17.163 115.271 291.637  1.00  0.00    -0.003 C 
ATOM     13  C   UNL     1      17.386 114.667 290.251  1.00  0.00     0.004 C 
ENDBRANCH  11  12
ENDBRANCH  10  11
ENDBRANCH   9  10
ENDBRANCH   8   9
ENDBRANCH   1   8
TORSDOF 9
ENDMDL
MODEL 4
REMARK VINA RESULT:    -4.447      3.128      6.142
REMARK INTER + INTRA:          -7.310
REMARK INTER:                  -6.709
REMARK INTRA:                  -0.601
REMARK UNBOUND:                -0.523
REMARK SMILES CCCCCCCCCCC(=O)[O-]
REMARK SMILES IDX 7 1 8 2 9 3 10 4 11 5 12 6 13 7 6 8 5 9 4 10 3 11 2 12 1 13
REMARK H PARENT
REMARK Flexibility Score: inf
ROOT
ATOM      1  C   UNL     1      16.833 116.839 295.011  1.00  0.00     0.000 C 
ENDROOT
BRANCH   1   2
ATOM      2  C   UNL     1      17.171 117.738 293.815  1.00  0.00     0.000 C 
BRANCH   2   3
ATOM      3  C   UNL     1      18.083 117.010 292.820  1.00  0.00     0.006 C 
BRANCH   3   4
ATOM      4  C   UNL     1      17.300 115.970 292.014  1.00  0.00     0.053 C 
BRANCH   4   5
ATOM      5  C   UNL     1      18.114 115.480 290.860  1.00  0.00     0.041 C 
ATOM      6  O   UNL     1      19.340 115.757 290.784  1.00  0.00    -0.550 OA
ATOM      7  O   UNL     1      17.508 114.757 289.838  1.00  0.00    -0.550 OA
ENDBRANCH   4   5
ENDBRANCH   3   4
ENDBRANCH   2   3
ENDBRANCH   1   2
BRANCH   1   8
ATOM      8  C   UNL     1      18.043 116.686 295.943  1.00  0.00     0.000 C 
BRANCH   8   9
ATOM      9  C   UNL     1      18.649 118.037 296.354  1.00  0.00    -0.000 C 
BRANCH   9  10
ATOM     10  C   UNL     1      20.133 118.162 295.973  1.00  0.00    -0.000 C 
BRANCH  10  11
ATOM     11  C   UNL     1      20.996 117.212 296.817  1.00  0.00    -0.000 C 
BRANCH  11  12
ATOM     12  C   UNL     1      20.822 117.440 298.327  1.00  0.00    -0.003 C 
ATOM     13  C   UNL     1      21.572 118.672 298.830  1.00  0.00     0.004 C 
ENDBRANCH  11  12
ENDBRANCH  10  11
ENDBRANCH   9  10
ENDBRANCH   8   9
ENDBRANCH   1   8
TORSDOF 9
ENDMDL
MODEL 5
REMARK VINA RESULT:    -4.388      4.206      5.361
REMARK INTER + INTRA:          -7.219
REMARK INTER:                  -6.855
REMARK INTRA:                  -0.363
REMARK UNBOUND:                -0.523
REMARK SMILES CCCCCCCCCCC(=O)[O-]
REMARK SMILES IDX 7 1 8 2 9 3 10 4 11 5 12 6 13 7 6 8 5 9 4 10 3 11 2 12 1 13
REMARK H PARENT
REMARK Flexibility Score: inf
ROOT
ATOM      1  C   UNL     1      16.086 119.182 293.547  1.00  0.00     0.000 C 
ENDROOT
BRANCH   1   2
ATOM      2  C   UNL     1      16.300 120.699 293.635  1.00  0.00     0.000 C 
BRANCH   2   3
ATOM      3  C   UNL     1      15.301 121.449 292.747  1.00  0.00     0.006 C 
BRANCH   3   4
ATOM      4  C   UNL     1      15.353 122.956 293.012  1.00  0.00     0.053 C 
BRANCH   4   5
ATOM      5  C   UNL     1      16.715 123.494 292.708  1.00  0.00     0.041 C 
ATOM      6  O   UNL     1      17.158 123.473 291.530  1.00  0.00    -0.550 OA
ATOM      7  O   UNL     1      17.518 123.977 293.735  1.00  0.00    -0.550 OA
ENDBRANCH   4   5
ENDBRANCH   3   4
ENDBRANCH   2   3
ENDBRANCH   1   2
BRANCH   1   8
ATOM      8  C   UNL     1      17.076 118.434 294.452  1.00  0.00     0.000 C 
BRANCH   8   9
ATOM      9  C   UNL     1      18.060 117.560 293.659  1.00  0.00    -0.000 C 
BRANCH   9  10
ATOM     10  C   UNL     1      17.355 116.640 292.650  1.00  0.00    -0.000 C 
BRANCH  10  11
ATOM     11  C   UNL     1      18.332 116.170 291.563  1.00  0.00    -0.000 C 
BRANCH  11  12
ATOM     12  C   UNL     1      17.623 115.806 290.248  1.00  0.00    -0.003 C 
ATOM     13  C   UNL     1      17.225 114.332 290.179  1.00  0.00     0.004 C 
ENDBRANCH  11  12
ENDBRANCH  10  11
ENDBRANCH   9  10
ENDBRANCH   8   9
ENDBRANCH   1   8
TORSDOF 9
ENDMDL
MODEL 6
REMARK VINA RESULT:    -4.333      4.084      5.244
REMARK INTER + INTRA:          -7.135
REMARK INTER:                  -6.639
REMARK INTRA:                  -0.497
REMARK UNBOUND:                -0.523
REMARK SMILES CCCCCCCCCCC(=O)[O-]
REMARK SMILES IDX 7 1 8 2 9 3 10 4 11 5 12 6 13 7 6 8 5 9 4 10 3 11 2 12 1 13
REMARK H PARENT
REMARK Flexibility Score: inf
ROOT
ATOM      1  C   UNL     1      15.825 118.892 294.892  1.00  0.00     0.000 C 
ENDROOT
BRANCH   1   2
ATOM      2  C   UNL     1      16.358 119.887 293.854  1.00  0.00     0.000 C 
BRANCH   2   3
ATOM      3  C   UNL     1      15.220 120.454 292.999  1.00  0.00     0.006 C 
BRANCH   3   4
ATOM      4  C   UNL     1      15.490 121.913 292.620  1.00  0.00     0.053 C 
BRANCH   4   5
ATOM      5  C   UNL     1      15.479 122.781 293.838  1.00  0.00     0.041 C 
ATOM      6  O   UNL     1      14.395 123.036 294.426  1.00  0.00    -0.550 OA
ATOM      7  O   UNL     1      16.661 123.352 294.297  1.00  0.00    -0.550 OA
ENDBRANCH   4   5
ENDBRANCH   3   4
ENDBRANCH   2   3
ENDBRANCH   1   2
BRANCH   1   8
ATOM      8  C   UNL     1      16.582 117.558 294.815  1.00  0.00     0.000 C 
BRANCH   8   9
ATOM      9  C   UNL     1      17.644 117.544 293.704  1.00  0.00    -0.000 C 
BRANCH   9  10
ATOM     10  C   UNL     1      17.339 116.514 292.606  1.00  0.00    -0.000 C 
BRANCH  10  11
ATOM     11  C   UNL     1      18.471 116.468 291.569  1.00  0.00    -0.000 C 
BRANCH  11  12
ATOM     12  C   UNL     1      18.427 115.200 290.701  1.00  0.00    -0.003 C 
ATOM     13  C   UNL     1      17.006 114.683 290.480  1.00  0.00     0.004 C 
ENDBRANCH  11  12
ENDBRANCH  10  11
ENDBRANCH   9  10
ENDBRANCH   8   9
ENDBRANCH   1   8
TORSDOF 9
ENDMDL
MODEL 7
REMARK VINA RESULT:    -4.176      2.389      3.093
REMARK INTER + INTRA:          -6.895
REMARK INTER:                  -6.289
REMARK INTRA:                  -0.606
REMARK UNBOUND:                -0.523
REMARK SMILES CCCCCCCCCCC(=O)[O-]
REMARK SMILES IDX 7 1 8 2 9 3 10 4 11 5 12 6 13 7 6 8 5 9 4 10 3 11 2 12 1 13
REMARK H PARENT
REMARK Flexibility Score: inf
ROOT
ATOM      1  C   UNL     1      16.321 119.721 293.737  1.00  0.00     0.000 C 
ENDROOT
BRANCH   1   2
ATOM      2  C   UNL     1      16.389 120.507 295.052  1.00  0.00     0.000 C 
BRANCH   2   3
ATOM      3  C   UNL     1      17.515 121.546 295.015  1.00  0.00     0.006 C 
BRANCH   3   4
ATOM      4  C   UNL     1      18.885 120.870 294.901  1.00  0.00     0.053 C 
BRANCH   4   5
ATOM      5  C   UNL     1      19.211 120.132 296.160  1.00  0.00     0.041 C 
ATOM      6  O   UNL     1      19.469 118.900 296.125  1.00  0.00    -0.550 OA
ATOM      7  O   UNL     1      19.182 120.793 297.382  1.00  0.00    -0.550 OA
ENDBRANCH   4   5
ENDBRANCH   3   4
ENDBRANCH   2   3
ENDBRANCH   1   2
BRANCH   1   8
ATOM      8  C   UNL     1      16.465 118.213 293.991  1.00  0.00     0.000 C 
BRANCH   8   9
ATOM      9  C   UNL     1      17.706 117.613 293.311  1.00  0.00    -0.000 C 
BRANCH   9  10
ATOM     10  C   UNL     1      17.405 116.293 292.585  1.00  0.00    -0.000 C 
BRANCH  10  11
ATOM     11  C   UNL     1      18.404 116.056 291.443  1.00  0.00    -0.000 C 
BRANCH  11  12
ATOM     12  C   UNL     1      17.715 115.651 290.130  1.00  0.00    -0.003 C 
ATOM     13  C   UNL     1      17.202 114.211 290.151  1.00  0.00     0.004 C 
ENDBRANCH  11  12
ENDBRANCH  10  11
ENDBRANCH   9  10
ENDBRANCH   8   9
ENDBRANCH   1   8
TORSDOF 9
ENDMDL
MODEL 8
REMARK VINA RESULT:    -4.035      2.455      2.843
REMARK INTER + INTRA:          -6.681
REMARK INTER:                  -6.180
REMARK INTRA:                  -0.501
REMARK UNBOUND:                -0.523
REMARK SMILES CCCCCCCCCCC(=O)[O-]
REMARK SMILES IDX 7 1 8 2 9 3 10 4 11 5 12 6 13 7 6 8 5 9 4 10 3 11 2 12 1 13
REMARK H PARENT
REMARK Flexibility Score: inf
ROOT
ATOM      1  C   UNL     1      19.484 118.213 294.189  1.00  0.00     0.000 C 
ENDROOT
BRANCH   1   2
ATOM      2  C   UNL     1      20.389 118.289 295.425  1.00  0.00     0.000 C 
BRANCH   2   3
ATOM      3  C   UNL     1      19.585 118.663 296.675  1.00  0.00     0.006 C 
BRANCH   3   4
ATOM      4  C   UNL     1      20.256 119.810 297.438  1.00  0.00     0.053 C 
BRANCH   4   5
ATOM      5  C   UNL     1      19.277 120.472 298.354  1.00  0.00     0.041 C 
ATOM      6  O   UNL     1      19.644 121.422 299.095  1.00  0.00    -0.550 OA
ATOM      7  O   UNL     1      17.969 120.009 298.427  1.00  0.00    -0.550 OA
ENDBRANCH   4   5
ENDBRANCH   3   4
ENDBRANCH   2   3
ENDBRANCH   1   2
BRANCH   1   8
ATOM      8  C   UNL     1      18.091 118.783 294.493  1.00  0.00     0.000 C 
BRANCH   8   9
ATOM      9  C   UNL     1      16.975 118.069 293.714  1.00  0.00    -0.000 C 
BRANCH   9  10
ATOM     10  C   UNL     1      17.405 116.688 293.195  1.00  0.00    -0.000 C 
BRANCH  10  11
ATOM     11  C   UNL     1      17.329 116.632 291.662  1.00  0.00    -0.000 C 
BRANCH  11  12
ATOM     12  C   UNL     1      18.137 115.463 291.073  1.00  0.00    -0.003 C 
ATOM     13  C   UNL     1      17.297 114.559 290.172  1.00  0.00     0.004 C 
ENDBRANCH  11  12
ENDBRANCH  10  11
ENDBRANCH   9  10
ENDBRANCH   8   9
ENDBRANCH   1   8
TORSDOF 9
ENDMDL
MODEL 9
REMARK VINA RESULT:    -3.975      2.829      3.418
REMARK INTER + INTRA:          -6.588
REMARK INTER:                  -6.047
REMARK INTRA:                  -0.541
REMARK UNBOUND:                -0.523
REMARK SMILES CCCCCCCCCCC(=O)[O-]
REMARK SMILES IDX 7 1 8 2 9 3 10 4 11 5 12 6 13 7 6 8 5 9 4 10 3 11 2 12 1 13
REMARK H PARENT
REMARK Flexibility Score: inf
ROOT
ATOM      1  C   UNL     1      19.152 118.551 296.415  1.00  0.00     0.000 C 
ENDROOT
BRANCH   1   2
ATOM      2  C   UNL     1      20.329 118.937 295.510  1.00  0.00     0.000 C 
BRANCH   2   3
ATOM      3  C   UNL     1      20.609 120.442 295.580  1.00  0.00     0.006 C 
BRANCH   3   4
ATOM      4  C   UNL     1      19.999 121.172 294.379  1.00  0.00     0.053 C 
BRANCH   4   5
ATOM      5  C   UNL     1      18.955 122.143 294.831  1.00  0.00     0.041 C 
ATOM      6  O   UNL     1      18.992 123.340 294.443  1.00  0.00    -0.550 OA
ATOM      7  O   UNL     1      17.967 121.738 295.720  1.00  0.00    -0.550 OA
ENDBRANCH   4   5
ENDBRANCH   3   4
ENDBRANCH   2   3
ENDBRANCH   1   2
BRANCH   1   8
ATOM      8  C   UNL     1      18.056 117.833 295.614  1.00  0.00     0.000 C 
BRANCH   8   9
ATOM      9  C   UNL     1      18.433 117.638 294.137  1.00  0.00    -0.000 C 
BRANCH   9  10
ATOM     10  C   UNL     1      17.318 116.961 293.325  1.00  0.00    -0.000 C 
BRANCH  10  11
ATOM     11  C   UNL     1      17.844 116.485 291.963  1.00  0.00    -0.000 C 
BRANCH  11  12
ATOM     12  C   UNL     1      17.086 115.257 291.433  1.00  0.00    -0.003 C 
ATOM     13  C   UNL     1      17.714 114.675 290.167  1.00  0.00     0.004 C 
ENDBRANCH  11  12
ENDBRANCH  10  11
ENDBRANCH   9  10
ENDBRANCH   8   9
ENDBRANCH   1   8
TORSDOF 9
ENDMDL
