MODEL 1
REMARK VINA RESULT:    -5.211      0.000      0.000
REMARK INTER + INTRA:          -7.967
REMARK INTER:                  -6.430
REMARK INTRA:                  -1.537
REMARK UNBOUND:                -1.537
REMARK SMILES CC(C)=CCC[C@H](C)c1ccc(C)cc1
REMARK SMILES IDX 6 1 7 2 8 3 9 4 13 5 12 6 11 7 14 8 10 9 15 10 5 11 4 12
REMARK SMILES IDX 2 13 1 14 3 15
REMARK H PARENT
REMARK Flexibility Score: inf
ROOT
ATOM      1  C   UNL     1      15.988 -18.251  15.499  1.00  0.00     0.012 C 
ENDROOT
BRANCH   1   2
ATOM      2  C   UNL     1      15.076 -17.253  16.255  1.00  0.00     0.016 C 
ATOM      3  C   UNL     1      15.728 -15.872  16.421  1.00  0.00     0.013 C 
BRANCH   2   4
ATOM      4  C   UNL     1      14.685 -17.821  17.608  1.00  0.00    -0.045 A 
ATOM      5  C   UNL     1      13.587 -19.411  21.471  1.00  0.00     0.044 C 
ATOM      6  C   UNL     1      13.941 -18.842  20.129  1.00  0.00    -0.051 A 
ATOM      7  C   UNL     1      14.691 -17.662  20.037  1.00  0.00     0.004 A 
ATOM      8  C   UNL     1      13.584 -19.524  18.956  1.00  0.00     0.004 A 
ATOM      9  C   UNL     1      15.053 -17.150  18.787  1.00  0.00     0.004 A 
ATOM     10  C   UNL     1      13.945 -19.014  17.706  1.00  0.00     0.004 A 
ENDBRANCH   2   4
ENDBRANCH   1   2
BRANCH   1  11
ATOM     11  C   UNL     1      17.252 -18.664  16.274  1.00  0.00     0.028 C 
BRANCH  11  12
ATOM     12  C   UNL     1      17.217 -20.112  16.702  1.00  0.00    -0.028 C 
ATOM     13  C   UNL     1      17.395 -20.543  17.970  1.00  0.00    -0.080 C 
ATOM     14  C   UNL     1      17.293 -22.020  18.245  1.00  0.00     0.039 C 
ATOM     15  C   UNL     1      17.711 -19.595  19.103  1.00  0.00     0.039 C 
ENDBRANCH  11  12
ENDBRANCH   1  11
TORSDOF 4
ENDMDL
MODEL 2
REMARK VINA RESULT:    -5.148      1.450      4.894
REMARK INTER + INTRA:          -7.889
REMARK INTER:                  -6.331
REMARK INTRA:                  -1.558
REMARK UNBOUND:                -1.537
REMARK SMILES CC(C)=CCC[C@H](C)c1ccc(C)cc1
REMARK SMILES IDX 6 1 7 2 8 3 9 4 13 5 12 6 11 7 14 8 10 9 15 10 5 11 4 12
REMARK SMILES IDX 2 13 1 14 3 15
REMARK H PARENT
REMARK Flexibility Score: inf
ROOT
ATOM      1  C   UNL     1      13.520 -19.617  18.374  1.00  0.00     0.012 C 
ENDROOT
BRANCH   1   2
ATOM      2  C   UNL     1      14.282 -20.732  17.614  1.00  0.00     0.016 C 
ATOM      3  C   UNL     1      14.590 -21.944  18.507  1.00  0.00     0.013 C 
BRANCH   2   4
ATOM      4  C   UNL     1      15.561 -20.177  17.013  1.00  0.00    -0.045 A 
ATOM      5  C   UNL     1      19.181 -18.576  15.284  1.00  0.00     0.044 C 
ATOM      6  C   UNL     1      17.926 -19.110  15.908  1.00  0.00    -0.051 A 
ATOM      7  C   UNL     1      16.675 -18.609  15.520  1.00  0.00     0.004 A 
ATOM      8  C   UNL     1      17.989 -20.163  16.832  1.00  0.00     0.004 A 
ATOM      9  C   UNL     1      15.503 -19.133  16.074  1.00  0.00     0.004 A 
ATOM     10  C   UNL     1      16.818 -20.686  17.387  1.00  0.00     0.004 A 
ENDBRANCH   2   4
ENDBRANCH   1   2
BRANCH   1  11
ATOM     11  C   UNL     1      14.310 -18.990  19.536  1.00  0.00     0.028 C 
BRANCH  11  12
ATOM     12  C   UNL     1      14.656 -17.542  19.281  1.00  0.00    -0.028 C 
ATOM     13  C   UNL     1      15.906 -17.030  19.329  1.00  0.00    -0.080 C 
ATOM     14  C   UNL     1      16.094 -15.569  19.012  1.00  0.00     0.039 C 
ATOM     15  C   UNL     1      17.103 -17.869  19.709  1.00  0.00     0.039 C 
ENDBRANCH  11  12
ENDBRANCH   1  11
TORSDOF 4
ENDMDL
MODEL 3
REMARK VINA RESULT:    -5.121      1.311      3.841
REMARK INTER + INTRA:          -7.856
REMARK INTER:                  -6.245
REMARK INTRA:                  -1.611
REMARK UNBOUND:                -1.537
REMARK SMILES CC(C)=CCC[C@H](C)c1ccc(C)cc1
REMARK SMILES IDX 6 1 7 2 8 3 9 4 13 5 12 6 11 7 14 8 10 9 15 10 5 11 4 12
REMARK SMILES IDX 2 13 1 14 3 15
REMARK H PARENT
REMARK Flexibility Score: inf
ROOT
ATOM      1  C   UNL     1      15.720 -17.548  16.443  1.00  0.00     0.012 C 
ENDROOT
BRANCH   1   2
ATOM      2  C   UNL     1      15.179 -18.879  15.865  1.00  0.00     0.016 C 
ATOM      3  C   UNL     1      13.643 -18.916  15.815  1.00  0.00     0.013 C 
BRANCH   2   4
ATOM      4  C   UNL     1      15.712 -20.054  16.666  1.00  0.00    -0.045 A 
ATOM      5  C   UNL     1      17.259 -23.380  18.947  1.00  0.00     0.044 C 
ATOM      6  C   UNL     1      16.714 -22.210  18.182  1.00  0.00    -0.051 A 
ATOM      7  C   UNL     1      17.550 -21.139  17.838  1.00  0.00     0.004 A 
ATOM      8  C   UNL     1      15.381 -22.211  17.745  1.00  0.00     0.004 A 
ATOM      9  C   UNL     1      17.051 -20.065  17.093  1.00  0.00     0.004 A 
ATOM     10  C   UNL     1      14.881 -21.139  17.001  1.00  0.00     0.004 A 
ENDBRANCH   2   4
ENDBRANCH   1   2
BRANCH   1  11
ATOM     11  C   UNL     1      14.920 -17.007  17.641  1.00  0.00     0.028 C 
BRANCH  11  12
ATOM     12  C   UNL     1      15.569 -17.340  18.963  1.00  0.00    -0.028 C 
ATOM     13  C   UNL     1      15.070 -18.214  19.866  1.00  0.00    -0.080 C 
ATOM     14  C   UNL     1      15.856 -18.469  21.126  1.00  0.00     0.039 C 
ATOM     15  C   UNL     1      13.749 -18.916  19.658  1.00  0.00     0.039 C 
ENDBRANCH  11  12
ENDBRANCH   1  11
TORSDOF 4
ENDMDL
MODEL 4
REMARK VINA RESULT:    -5.119      1.659      2.723
REMARK INTER + INTRA:          -7.854
REMARK INTER:                  -6.337
REMARK INTRA:                  -1.517
REMARK UNBOUND:                -1.537
REMARK SMILES CC(C)=CCC[C@H](C)c1ccc(C)cc1
REMARK SMILES IDX 6 1 7 2 8 3 9 4 13 5 12 6 11 7 14 8 10 9 15 10 5 11 4 12
REMARK SMILES IDX 2 13 1 14 3 15
REMARK H PARENT
REMARK Flexibility Score: inf
ROOT
ATOM      1  C   UNL     1      15.734 -16.642  16.264  1.00  0.00     0.012 C 
ENDROOT
BRANCH   1   2
ATOM      2  C   UNL     1      14.843 -17.030  17.470  1.00  0.00     0.016 C 
ATOM      3  C   UNL     1      15.386 -16.483  18.800  1.00  0.00     0.013 C 
BRANCH   2   4
ATOM      4  C   UNL     1      14.686 -18.539  17.542  1.00  0.00    -0.045 A 
ATOM      5  C   UNL     1      14.233 -22.828  17.779  1.00  0.00     0.044 C 
ATOM      6  C   UNL     1      14.359 -21.336  17.692  1.00  0.00    -0.051 A 
ATOM      7  C   UNL     1      14.291 -20.553  18.853  1.00  0.00     0.004 A 
ATOM      8  C   UNL     1      14.615 -20.719  16.459  1.00  0.00     0.004 A 
ATOM      9  C   UNL     1      14.445 -19.165  18.778  1.00  0.00     0.004 A 
ATOM     10  C   UNL     1      14.769 -19.332  16.382  1.00  0.00     0.004 A 
ENDBRANCH   2   4
ENDBRANCH   1   2
BRANCH   1  11
ATOM     11  C   UNL     1      17.236 -16.562  16.586  1.00  0.00     0.028 C 
BRANCH  11  12
ATOM     12  C   UNL     1      18.034 -17.634  15.883  1.00  0.00    -0.028 C 
ATOM     13  C   UNL     1      18.456 -18.781  16.461  1.00  0.00    -0.080 C 
ATOM     14  C   UNL     1      19.211 -19.773  15.615  1.00  0.00     0.039 C 
ATOM     15  C   UNL     1      18.214 -19.081  17.921  1.00  0.00     0.039 C 
ENDBRANCH  11  12
ENDBRANCH   1  11
TORSDOF 4
ENDMDL
MODEL 5
REMARK VINA RESULT:    -5.119      1.470      3.339
REMARK INTER + INTRA:          -7.853
REMARK INTER:                  -6.303
REMARK INTRA:                  -1.550
REMARK UNBOUND:                -1.537
REMARK SMILES CC(C)=CCC[C@H](C)c1ccc(C)cc1
REMARK SMILES IDX 6 1 7 2 8 3 9 4 13 5 12 6 11 7 14 8 10 9 15 10 5 11 4 12
REMARK SMILES IDX 2 13 1 14 3 15
REMARK H PARENT
REMARK Flexibility Score: inf
ROOT
ATOM      1  C   UNL     1      14.532 -20.329  17.884  1.00  0.00     0.012 C 
ENDROOT
BRANCH   1   2
ATOM      2  C   UNL     1      13.863 -19.131  17.166  1.00  0.00     0.016 C 
ATOM      3  C   UNL     1      13.863 -19.289  15.638  1.00  0.00     0.013 C 
BRANCH   2   4
ATOM      4  C   UNL     1      14.543 -17.834  17.566  1.00  0.00    -0.045 A 
ATOM      5  C   UNL     1      16.473 -14.131  18.672  1.00  0.00     0.044 C 
ATOM      6  C   UNL     1      15.775 -15.404  18.297  1.00  0.00    -0.051 A 
ATOM      7  C   UNL     1      15.297 -15.591  16.992  1.00  0.00     0.004 A 
ATOM      8  C   UNL     1      15.656 -16.446  19.229  1.00  0.00     0.004 A 
ATOM      9  C   UNL     1      14.679 -16.792  16.631  1.00  0.00     0.004 A 
ATOM     10  C   UNL     1      15.038 -17.647  18.870  1.00  0.00     0.004 A 
ENDBRANCH   2   4
ENDBRANCH   1   2
BRANCH   1  11
ATOM     11  C   UNL     1      15.701 -20.960  17.107  1.00  0.00     0.028 C 
BRANCH  11  12
ATOM     12  C   UNL     1      17.046 -20.553  17.661  1.00  0.00    -0.028 C 
ATOM     13  C   UNL     1      17.864 -19.635  17.099  1.00  0.00    -0.080 C 
ATOM     14  C   UNL     1      19.160 -19.310  17.794  1.00  0.00     0.039 C 
ATOM     15  C   UNL     1      17.526 -18.952  15.795  1.00  0.00     0.039 C 
ENDBRANCH  11  12
ENDBRANCH   1  11
TORSDOF 4
ENDMDL
MODEL 6
REMARK VINA RESULT:    -5.061      1.770      4.343
REMARK INTER + INTRA:          -7.782
REMARK INTER:                  -6.535
REMARK INTRA:                  -1.247
REMARK UNBOUND:                -1.537
REMARK SMILES CC(C)=CCC[C@H](C)c1ccc(C)cc1
REMARK SMILES IDX 6 1 7 2 8 3 9 4 13 5 12 6 11 7 14 8 10 9 15 10 5 11 4 12
REMARK SMILES IDX 2 13 1 14 3 15
REMARK H PARENT
REMARK Flexibility Score: inf
ROOT
ATOM      1  C   UNL     1      14.051 -19.412  16.302  1.00  0.00     0.012 C 
ENDROOT
BRANCH   1   2
ATOM      2  C   UNL     1      13.978 -20.034  17.718  1.00  0.00     0.016 C 
ATOM      3  C   UNL     1      14.354 -19.031  18.820  1.00  0.00     0.013 C 
BRANCH   2   4
ATOM      4  C   UNL     1      14.863 -21.266  17.797  1.00  0.00    -0.045 A 
ATOM      5  C   UNL     1      17.355 -24.787  18.009  1.00  0.00     0.044 C 
ATOM      6  C   UNL     1      16.498 -23.560  17.905  1.00  0.00    -0.051 A 
ATOM      7  C   UNL     1      15.155 -23.667  17.520  1.00  0.00     0.004 A 
ATOM      8  C   UNL     1      17.015 -22.306  18.259  1.00  0.00     0.004 A 
ATOM      9  C   UNL     1      14.345 -22.528  17.458  1.00  0.00     0.004 A 
ATOM     10  C   UNL     1      16.208 -21.166  18.198  1.00  0.00     0.004 A 
ENDBRANCH   2   4
ENDBRANCH   1   2
BRANCH   1  11
ATOM     11  C   UNL     1      15.024 -18.226  16.181  1.00  0.00     0.028 C 
BRANCH  11  12
ATOM     12  C   UNL     1      16.308 -18.604  15.481  1.00  0.00    -0.028 C 
ATOM     13  C   UNL     1      17.540 -18.503  16.027  1.00  0.00    -0.080 C 
ATOM     14  C   UNL     1      18.724 -18.956  15.214  1.00  0.00     0.039 C 
ATOM     15  C   UNL     1      17.761 -17.931  17.408  1.00  0.00     0.039 C 
ENDBRANCH  11  12
ENDBRANCH   1  11
TORSDOF 4
ENDMDL
MODEL 7
REMARK VINA RESULT:    -5.034      1.606      3.884
REMARK INTER + INTRA:          -7.748
REMARK INTER:                  -6.397
REMARK INTRA:                  -1.351
REMARK UNBOUND:                -1.537
REMARK SMILES CC(C)=CCC[C@H](C)c1ccc(C)cc1
REMARK SMILES IDX 6 1 7 2 8 3 9 4 13 5 12 6 11 7 14 8 10 9 15 10 5 11 4 12
REMARK SMILES IDX 2 13 1 14 3 15
REMARK H PARENT
REMARK Flexibility Score: inf
ROOT
ATOM      1  C   UNL     1      14.490 -18.995  15.872  1.00  0.00     0.012 C 
ENDROOT
BRANCH   1   2
ATOM      2  C   UNL     1      15.914 -18.385  15.871  1.00  0.00     0.016 C 
ATOM      3  C   UNL     1      16.980 -19.384  16.348  1.00  0.00     0.013 C 
BRANCH   2   4
ATOM      4  C   UNL     1      15.946 -17.128  16.723  1.00  0.00    -0.045 A 
ATOM      5  C   UNL     1      16.019 -13.536  19.120  1.00  0.00     0.044 C 
ATOM      6  C   UNL     1      15.967 -14.792  18.302  1.00  0.00    -0.051 A 
ATOM      7  C   UNL     1      15.352 -14.788  17.042  1.00  0.00     0.004 A 
ATOM      8  C   UNL     1      16.591 -15.960  18.760  1.00  0.00     0.004 A 
ATOM      9  C   UNL     1      15.335 -15.949  16.262  1.00  0.00     0.004 A 
ATOM     10  C   UNL     1      16.575 -17.121  17.982  1.00  0.00     0.004 A 
ENDBRANCH   2   4
ENDBRANCH   1   2
BRANCH   1  11
ATOM     11  C   UNL     1      14.252 -20.045  16.971  1.00  0.00     0.028 C 
BRANCH  11  12
ATOM     12  C   UNL     1      13.636 -19.446  18.214  1.00  0.00    -0.028 C 
ATOM     13  C   UNL     1      14.182 -19.509  19.449  1.00  0.00    -0.080 C 
ATOM     14  C   UNL     1      13.464 -18.829  20.585  1.00  0.00     0.039 C 
ATOM     15  C   UNL     1      15.467 -20.256  19.722  1.00  0.00     0.039 C 
ENDBRANCH  11  12
ENDBRANCH   1  11
TORSDOF 4
ENDMDL
MODEL 8
REMARK VINA RESULT:    -4.975      1.276      4.410
REMARK INTER + INTRA:          -7.676
REMARK INTER:                  -6.214
REMARK INTRA:                  -1.462
REMARK UNBOUND:                -1.537
REMARK SMILES CC(C)=CCC[C@H](C)c1ccc(C)cc1
REMARK SMILES IDX 6 1 7 2 8 3 9 4 13 5 12 6 11 7 14 8 10 9 15 10 5 11 4 12
REMARK SMILES IDX 2 13 1 14 3 15
REMARK H PARENT
REMARK Flexibility Score: inf
ROOT
ATOM      1  C   UNL     1      14.492 -20.524  17.310  1.00  0.00     0.012 C 
ENDROOT
BRANCH   1   2
ATOM      2  C   UNL     1      15.796 -20.036  16.631  1.00  0.00     0.016 C 
ATOM      3  C   UNL     1      17.056 -20.552  17.343  1.00  0.00     0.013 C 
BRANCH   2   4
ATOM      4  C   UNL     1      15.812 -18.520  16.556  1.00  0.00    -0.045 A 
ATOM      5  C   UNL     1      15.823 -14.205  16.347  1.00  0.00     0.044 C 
ATOM      6  C   UNL     1      15.823 -15.702  16.451  1.00  0.00    -0.051 A 
ATOM      7  C   UNL     1      14.618 -16.399  16.616  1.00  0.00     0.004 A 
ATOM      8  C   UNL     1      17.020 -16.419  16.315  1.00  0.00     0.004 A 
ATOM      9  C   UNL     1      14.612 -17.796  16.676  1.00  0.00     0.004 A 
ATOM     10  C   UNL     1      17.017 -17.816  16.376  1.00  0.00     0.004 A 
ENDBRANCH   2   4
ENDBRANCH   1   2
BRANCH   1  11
ATOM     11  C   UNL     1      14.642 -20.852  18.806  1.00  0.00     0.028 C 
BRANCH  11  12
ATOM     12  C   UNL     1      13.875 -19.893  19.685  1.00  0.00    -0.028 C 
ATOM     13  C   UNL     1      14.416 -18.823  20.310  1.00  0.00    -0.080 C 
ATOM     14  C   UNL     1      13.510 -17.936  21.124  1.00  0.00     0.039 C 
ATOM     15  C   UNL     1      15.892 -18.511  20.235  1.00  0.00     0.039 C 
ENDBRANCH  11  12
ENDBRANCH   1  11
TORSDOF 4
ENDMDL
MODEL 9
REMARK VINA RESULT:    -4.922      2.183      3.761
REMARK INTER + INTRA:          -7.611
REMARK INTER:                  -7.017
REMARK INTRA:                  -0.593
REMARK UNBOUND:                -1.537
REMARK SMILES CC(C)=CCC[C@H](C)c1ccc(C)cc1
REMARK SMILES IDX 6 1 7 2 8 3 9 4 13 5 12 6 11 7 14 8 10 9 15 10 5 11 4 12
REMARK SMILES IDX 2 13 1 14 3 15
REMARK H PARENT
REMARK Flexibility Score: inf
ROOT
ATOM      1  C   UNL     1      14.119 -19.042  16.589  1.00  0.00     0.012 C 
ENDROOT
BRANCH   1   2
ATOM      2  C   UNL     1      15.084 -18.038  15.910  1.00  0.00     0.016 C 
ATOM      3  C   UNL     1      16.427 -18.682  15.530  1.00  0.00     0.013 C 
BRANCH   2   4
ATOM      4  C   UNL     1      15.307 -16.836  16.810  1.00  0.00    -0.045 A 
ATOM      5  C   UNL     1      15.946 -13.437  19.398  1.00  0.00     0.044 C 
ATOM      6  C   UNL     1      15.755 -14.619  18.495  1.00  0.00    -0.051 A 
ATOM      7  C   UNL     1      15.707 -15.915  19.029  1.00  0.00     0.004 A 
ATOM      8  C   UNL     1      15.556 -14.434  17.120  1.00  0.00     0.004 A 
ATOM      9  C   UNL     1      15.492 -17.015  18.193  1.00  0.00     0.004 A 
ATOM     10  C   UNL     1      15.342 -15.532  16.282  1.00  0.00     0.004 A 
ENDBRANCH   2   4
ENDBRANCH   1   2
BRANCH   1  11
ATOM     11  C   UNL     1      14.642 -20.488  16.638  1.00  0.00     0.028 C 
BRANCH  11  12
ATOM     12  C   UNL     1      14.630 -21.056  18.037  1.00  0.00    -0.028 C 
ATOM     13  C   UNL     1      14.545 -22.373  18.332  1.00  0.00    -0.080 C 
ATOM     14  C   UNL     1      14.584 -22.787  19.780  1.00  0.00     0.039 C 
ATOM     15  C   UNL     1      14.391 -23.427  17.261  1.00  0.00     0.039 C 
ENDBRANCH  11  12
ENDBRANCH   1  11
TORSDOF 4
ENDMDL
