MODEL 1
REMARK VINA RESULT:    -3.545      0.000      0.000
REMARK INTER + INTRA:          -9.699
REMARK INTER:                  -6.861
REMARK INTRA:                  -2.838
REMARK UNBOUND:                -2.838
REMARK SMILES CCCCCCCCCCCCCCCCCC(=O)[O-]
REMARK SMILES IDX 10 1 11 2 12 3 13 4 14 5 15 6 16 7 17 8 18 9 19 10 20 11
REMARK SMILES IDX 9 12 8 13 7 14 6 15 5 16 4 17 3 18 2 19 1 20
REMARK H PARENT
REMARK Flexibility Score: inf
ROOT
ATOM      1  C   UNL     1      41.560  12.000  14.751  1.00  0.00     0.000 C 
ENDROOT
BRANCH   1   2
ATOM      2  C   UNL     1      42.086  12.510  16.103  1.00  0.00     0.000 C 
BRANCH   2   3
ATOM      3  C   UNL     1      41.971  11.454  17.216  1.00  0.00     0.000 C 
BRANCH   3   4
ATOM      4  C   UNL     1      40.661  11.570  18.015  1.00  0.00     0.000 C 
BRANCH   4   5
ATOM      5  C   UNL     1      40.185  13.010  18.296  1.00  0.00     0.000 C 
BRANCH   5   6
ATOM      6  C   UNL     1      38.840  13.393  17.652  1.00  0.00     0.000 C 
BRANCH   6   7
ATOM      7  C   UNL     1      38.802  14.854  17.172  1.00  0.00     0.006 C 
BRANCH   7   8
ATOM      8  C   UNL     1      40.105  15.602  17.487  1.00  0.00     0.053 C 
BRANCH   8   9
ATOM      9  C   UNL     1      40.529  16.484  16.353  1.00  0.00     0.041 C 
ATOM     10  O   UNL     1      40.233  16.177  15.168  1.00  0.00    -0.550 OA
ATOM     11  O   UNL     1      41.274  17.630  16.602  1.00  0.00    -0.550 OA
ENDBRANCH   8   9
ENDBRANCH   7   8
ENDBRANCH   6   7
ENDBRANCH   5   6
ENDBRANCH   4   5
ENDBRANCH   3   4
ENDBRANCH   2   3
ENDBRANCH   1   2
BRANCH   1  12
ATOM     12  C   UNL     1      40.388  12.841  14.217  1.00  0.00     0.000 C 
BRANCH  12  13
ATOM     13  C   UNL     1      39.050  12.084  14.268  1.00  0.00    -0.000 C 
BRANCH  13  14
ATOM     14  C   UNL     1      39.205  10.641  14.779  1.00  0.00    -0.000 C 
BRANCH  14  15
ATOM     15  C   UNL     1      38.150   9.687  14.191  1.00  0.00    -0.000 C 
BRANCH  15  16
ATOM     16  C   UNL     1      38.722   8.418  13.528  1.00  0.00    -0.000 C 
BRANCH  16  17
ATOM     17  C   UNL     1      39.055   8.558  12.030  1.00  0.00    -0.000 C 
BRANCH  17  18
ATOM     18  C   UNL     1      40.559   8.639  11.699  1.00  0.00    -0.000 C 
BRANCH  18  19
ATOM     19  C   UNL     1      41.127  10.067  11.623  1.00  0.00    -0.003 C 
ATOM     20  C   UNL     1      40.177  11.050  10.940  1.00  0.00     0.004 C 
ENDBRANCH  18  19
ENDBRANCH  17  18
ENDBRANCH  16  17
ENDBRANCH  15  16
ENDBRANCH  14  15
ENDBRANCH  13  14
ENDBRANCH  12  13
ENDBRANCH   1  12
TORSDOF 16
ENDMDL
MODEL 2
REMARK VINA RESULT:    -3.445      0.933      2.231
REMARK INTER + INTRA:          -9.505
REMARK INTER:                  -7.353
REMARK INTRA:                  -2.152
REMARK UNBOUND:                -2.838
REMARK SMILES CCCCCCCCCCCCCCCCCC(=O)[O-]
REMARK SMILES IDX 10 1 11 2 12 3 13 4 14 5 15 6 16 7 17 8 18 9 19 10 20 11
REMARK SMILES IDX 9 12 8 13 7 14 6 15 5 16 4 17 3 18 2 19 1 20
REMARK H PARENT
REMARK Flexibility Score: inf
ROOT
ATOM      1  C   UNL     1      40.895  13.122  14.816  1.00  0.00     0.000 C 
ENDROOT
BRANCH   1   2
ATOM      2  C   UNL     1      41.774  12.010  15.414  1.00  0.00     0.000 C 
BRANCH   2   3
ATOM      3  C   UNL     1      41.200  11.448  16.726  1.00  0.00     0.000 C 
BRANCH   3   4
ATOM      4  C   UNL     1      42.159  11.619  17.918  1.00  0.00     0.000 C 
BRANCH   4   5
ATOM      5  C   UNL     1      41.736  12.678  18.957  1.00  0.00     0.000 C 
BRANCH   5   6
ATOM      6  C   UNL     1      40.532  13.548  18.554  1.00  0.00     0.000 C 
BRANCH   6   7
ATOM      7  C   UNL     1      40.922  15.004  18.253  1.00  0.00     0.006 C 
BRANCH   7   8
ATOM      8  C   UNL     1      39.857  15.730  17.420  1.00  0.00     0.053 C 
BRANCH   8   9
ATOM      9  C   UNL     1      40.470  16.628  16.390  1.00  0.00     0.041 C 
ATOM     10  O   UNL     1      41.211  17.584  16.744  1.00  0.00    -0.550 OA
ATOM     11  O   UNL     1      40.203  16.428  15.042  1.00  0.00    -0.550 OA
ENDBRANCH   8   9
ENDBRANCH   7   8
ENDBRANCH   6   7
ENDBRANCH   5   6
ENDBRANCH   4   5
ENDBRANCH   3   4
ENDBRANCH   2   3
ENDBRANCH   1   2
BRANCH   1  12
ATOM     12  C   UNL     1      39.395  12.782  14.866  1.00  0.00     0.000 C 
BRANCH  12  13
ATOM     13  C   UNL     1      38.788  12.593  13.466  1.00  0.00    -0.000 C 
BRANCH  13  14
ATOM     14  C   UNL     1      39.859  12.476  12.367  1.00  0.00    -0.000 C 
BRANCH  14  15
ATOM     15  C   UNL     1      39.737  11.175  11.555  1.00  0.00    -0.000 C 
BRANCH  15  16
ATOM     16  C   UNL     1      40.985  10.271  11.588  1.00  0.00    -0.000 C 
BRANCH  16  17
ATOM     17  C   UNL     1      40.697   8.768  11.776  1.00  0.00    -0.000 C 
BRANCH  17  18
ATOM     18  C   UNL     1      39.204   8.383  11.775  1.00  0.00    -0.000 C 
BRANCH  18  19
ATOM     19  C   UNL     1      38.663   7.894  13.130  1.00  0.00    -0.003 C 
ATOM     20  C   UNL     1      38.794   8.941  14.237  1.00  0.00     0.004 C 
ENDBRANCH  18  19
ENDBRANCH  17  18
ENDBRANCH  16  17
ENDBRANCH  15  16
ENDBRANCH  14  15
ENDBRANCH  13  14
ENDBRANCH  12  13
ENDBRANCH   1  12
TORSDOF 16
ENDMDL
MODEL 3
REMARK VINA RESULT:    -3.371      1.117      3.276
REMARK INTER + INTRA:          -9.362
REMARK INTER:                  -6.872
REMARK INTRA:                  -2.490
REMARK UNBOUND:                -2.838
REMARK SMILES CCCCCCCCCCCCCCCCCC(=O)[O-]
REMARK SMILES IDX 10 1 11 2 12 3 13 4 14 5 15 6 16 7 17 8 18 9 19 10 20 11
REMARK SMILES IDX 9 12 8 13 7 14 6 15 5 16 4 17 3 18 2 19 1 20
REMARK H PARENT
REMARK Flexibility Score: inf
ROOT
ATOM      1  C   UNL     1      41.514  11.235  12.763  1.00  0.00     0.000 C 
ENDROOT
BRANCH   1   2
ATOM      2  C   UNL     1      40.374  12.211  13.099  1.00  0.00     0.000 C 
BRANCH   2   3
ATOM      3  C   UNL     1      40.545  12.864  14.481  1.00  0.00     0.000 C 
BRANCH   3   4
ATOM      4  C   UNL     1      41.638  12.187  15.328  1.00  0.00     0.000 C 
BRANCH   4   5
ATOM      5  C   UNL     1      41.757  12.698  16.779  1.00  0.00     0.000 C 
BRANCH   5   6
ATOM      6  C   UNL     1      40.494  13.373  17.342  1.00  0.00     0.000 C 
BRANCH   6   7
ATOM      7  C   UNL     1      40.795  14.697  18.063  1.00  0.00     0.006 C 
BRANCH   7   8
ATOM      8  C   UNL     1      39.890  15.839  17.583  1.00  0.00     0.053 C 
BRANCH   8   9
ATOM      9  C   UNL     1      40.537  16.646  16.500  1.00  0.00     0.041 C 
ATOM     10  O   UNL     1      40.483  16.257  15.303  1.00  0.00    -0.550 OA
ATOM     11  O   UNL     1      41.224  17.812  16.814  1.00  0.00    -0.550 OA
ENDBRANCH   8   9
ENDBRANCH   7   8
ENDBRANCH   6   7
ENDBRANCH   5   6
ENDBRANCH   4   5
ENDBRANCH   3   4
ENDBRANCH   2   3
ENDBRANCH   1   2
BRANCH   1  12
ATOM     12  C   UNL     1      41.226  10.399  11.505  1.00  0.00     0.000 C 
BRANCH  12  13
ATOM     13  C   UNL     1      39.811   9.797  11.510  1.00  0.00    -0.000 C 
BRANCH  13  14
ATOM     14  C   UNL     1      39.777   8.369  12.081  1.00  0.00    -0.000 C 
BRANCH  14  15
ATOM     15  C   UNL     1      38.803   8.225  13.264  1.00  0.00    -0.000 C 
BRANCH  15  16
ATOM     16  C   UNL     1      37.938   9.469  13.546  1.00  0.00    -0.000 C 
BRANCH  16  17
ATOM     17  C   UNL     1      38.052  10.032  14.977  1.00  0.00    -0.000 C 
BRANCH  17  18
ATOM     18  C   UNL     1      39.099   9.338  15.870  1.00  0.00    -0.000 C 
BRANCH  18  19
ATOM     19  C   UNL     1      39.217   9.913  17.293  1.00  0.00    -0.003 C 
ATOM     20  C   UNL     1      40.523   9.524  17.986  1.00  0.00     0.004 C 
ENDBRANCH  18  19
ENDBRANCH  17  18
ENDBRANCH  16  17
ENDBRANCH  15  16
ENDBRANCH  14  15
ENDBRANCH  13  14
ENDBRANCH  12  13
ENDBRANCH   1  12
TORSDOF 16
ENDMDL
MODEL 4
REMARK VINA RESULT:    -3.293      1.338      1.932
REMARK INTER + INTRA:          -9.211
REMARK INTER:                  -6.175
REMARK INTRA:                  -3.036
REMARK UNBOUND:                -2.838
REMARK SMILES CCCCCCCCCCCCCCCCCC(=O)[O-]
REMARK SMILES IDX 10 1 11 2 12 3 13 4 14 5 15 6 16 7 17 8 18 9 19 10 20 11
REMARK SMILES IDX 9 12 8 13 7 14 6 15 5 16 4 17 3 18 2 19 1 20
REMARK H PARENT
REMARK Flexibility Score: inf
ROOT
ATOM      1  C   UNL     1      40.862  12.700  13.770  1.00  0.00     0.000 C 
ENDROOT
BRANCH   1   2
ATOM      2  C   UNL     1      41.881  11.930  14.628  1.00  0.00     0.000 C 
BRANCH   2   3
ATOM      3  C   UNL     1      42.027  12.521  16.040  1.00  0.00     0.000 C 
BRANCH   3   4
ATOM      4  C   UNL     1      41.891  11.460  17.148  1.00  0.00     0.000 C 
BRANCH   4   5
ATOM      5  C   UNL     1      40.590  10.632  17.110  1.00  0.00     0.000 C 
BRANCH   5   6
ATOM      6  C   UNL     1      39.328  11.371  17.592  1.00  0.00     0.000 C 
BRANCH   6   7
ATOM      7  C   UNL     1      39.619  12.377  18.718  1.00  0.00     0.006 C 
BRANCH   7   8
ATOM      8  C   UNL     1      39.202  13.805  18.342  1.00  0.00     0.053 C 
BRANCH   8   9
ATOM      9  C   UNL     1      40.374  14.738  18.308  1.00  0.00     0.041 C 
ATOM     10  O   UNL     1      40.378  15.720  17.519  1.00  0.00    -0.550 OA
ATOM     11  O   UNL     1      41.473  14.507  19.125  1.00  0.00    -0.550 OA
ENDBRANCH   8   9
ENDBRANCH   7   8
ENDBRANCH   6   7
ENDBRANCH   5   6
ENDBRANCH   4   5
ENDBRANCH   3   4
ENDBRANCH   2   3
ENDBRANCH   1   2
BRANCH   1  12
ATOM     12  C   UNL     1      39.883  13.530  14.619  1.00  0.00     0.000 C 
BRANCH  12  13
ATOM     13  C   UNL     1      38.426  13.065  14.456  1.00  0.00    -0.000 C 
BRANCH  13  14
ATOM     14  C   UNL     1      38.282  11.907  13.454  1.00  0.00    -0.000 C 
BRANCH  14  15
ATOM     15  C   UNL     1      37.934  10.572  14.136  1.00  0.00    -0.000 C 
BRANCH  15  16
ATOM     16  C   UNL     1      39.006   9.473  13.995  1.00  0.00    -0.000 C 
BRANCH  16  17
ATOM     17  C   UNL     1      38.728   8.428  12.895  1.00  0.00    -0.000 C 
BRANCH  17  18
ATOM     18  C   UNL     1      39.745   8.413  11.736  1.00  0.00    -0.000 C 
BRANCH  18  19
ATOM     19  C   UNL     1      40.816   9.517  11.803  1.00  0.00    -0.003 C 
ATOM     20  C   UNL     1      40.555  10.660  10.822  1.00  0.00     0.004 C 
ENDBRANCH  18  19
ENDBRANCH  17  18
ENDBRANCH  16  17
ENDBRANCH  15  16
ENDBRANCH  14  15
ENDBRANCH  13  14
ENDBRANCH  12  13
ENDBRANCH   1  12
TORSDOF 16
ENDMDL
MODEL 5
REMARK VINA RESULT:    -3.285      2.561      6.538
REMARK INTER + INTRA:          -9.196
REMARK INTER:                  -6.536
REMARK INTRA:                  -2.660
REMARK UNBOUND:                -2.838
REMARK SMILES CCCCCCCCCCCCCCCCCC(=O)[O-]
REMARK SMILES IDX 10 1 11 2 12 3 13 4 14 5 15 6 16 7 17 8 18 9 19 10 20 11
REMARK SMILES IDX 9 12 8 13 7 14 6 15 5 16 4 17 3 18 2 19 1 20
REMARK H PARENT
REMARK Flexibility Score: inf
ROOT
ATOM      1  C   UNL     1      40.853  13.157  14.423  1.00  0.00     0.000 C 
ENDROOT
BRANCH   1   2
ATOM      2  C   UNL     1      39.334  12.933  14.507  1.00  0.00     0.000 C 
BRANCH   2   3
ATOM      3  C   UNL     1      38.736  12.449  13.175  1.00  0.00     0.000 C 
BRANCH   3   4
ATOM      4  C   UNL     1      37.875  11.183  13.332  1.00  0.00     0.000 C 
BRANCH   4   5
ATOM      5  C   UNL     1      38.385  10.165  14.373  1.00  0.00     0.000 C 
BRANCH   5   6
ATOM      6  C   UNL     1      38.958   8.861  13.789  1.00  0.00     0.000 C 
BRANCH   6   7
ATOM      7  C   UNL     1      38.914   8.825  12.252  1.00  0.00     0.006 C 
BRANCH   7   8
ATOM      8  C   UNL     1      40.316   8.741  11.634  1.00  0.00     0.053 C 
BRANCH   8   9
ATOM      9  C   UNL     1      40.885  10.099  11.358  1.00  0.00     0.041 C 
ATOM     10  O   UNL     1      41.904  10.498  11.984  1.00  0.00    -0.550 OA
ATOM     11  O   UNL     1      40.276  10.936  10.431  1.00  0.00    -0.550 OA
ENDBRANCH   8   9
ENDBRANCH   7   8
ENDBRANCH   6   7
ENDBRANCH   5   6
ENDBRANCH   4   5
ENDBRANCH   3   4
ENDBRANCH   2   3
ENDBRANCH   1   2
BRANCH   1  12
ATOM     12  C   UNL     1      41.656  11.995  15.032  1.00  0.00     0.000 C 
BRANCH  12  13
ATOM     13  C   UNL     1      41.179  11.629  16.447  1.00  0.00    -0.000 C 
BRANCH  13  14
ATOM     14  C   UNL     1      42.095  12.194  17.547  1.00  0.00    -0.000 C 
BRANCH  14  15
ATOM     15  C   UNL     1      41.495  13.429  18.243  1.00  0.00    -0.000 C 
BRANCH  15  16
ATOM     16  C   UNL     1      39.960  13.539  18.157  1.00  0.00    -0.000 C 
BRANCH  16  17
ATOM     17  C   UNL     1      39.429  14.914  17.705  1.00  0.00    -0.000 C 
BRANCH  17  18
ATOM     18  C   UNL     1      40.485  15.851  17.086  1.00  0.00    -0.000 C 
BRANCH  18  19
ATOM     19  C   UNL     1      40.100  16.446  15.720  1.00  0.00    -0.003 C 
ATOM     20  C   UNL     1      38.592  16.427  15.467  1.00  0.00     0.004 C 
ENDBRANCH  18  19
ENDBRANCH  17  18
ENDBRANCH  16  17
ENDBRANCH  15  16
ENDBRANCH  14  15
ENDBRANCH  13  14
ENDBRANCH  12  13
ENDBRANCH   1  12
TORSDOF 16
ENDMDL
MODEL 6
REMARK VINA RESULT:    -3.248      2.264      5.878
REMARK INTER + INTRA:          -9.125
REMARK INTER:                  -6.764
REMARK INTRA:                  -2.361
REMARK UNBOUND:                -2.838
REMARK SMILES CCCCCCCCCCCCCCCCCC(=O)[O-]
REMARK SMILES IDX 10 1 11 2 12 3 13 4 14 5 15 6 16 7 17 8 18 9 19 10 20 11
REMARK SMILES IDX 9 12 8 13 7 14 6 15 5 16 4 17 3 18 2 19 1 20
REMARK H PARENT
REMARK Flexibility Score: inf
ROOT
ATOM      1  C   UNL     1      39.997   9.826  11.538  1.00  0.00     0.000 C 
ENDROOT
BRANCH   1   2
ATOM      2  C   UNL     1      39.839   8.345  11.921  1.00  0.00     0.000 C 
BRANCH   2   3
ATOM      3  C   UNL     1      39.082   8.157  13.247  1.00  0.00     0.000 C 
BRANCH   3   4
ATOM      4  C   UNL     1      38.049   9.269  13.506  1.00  0.00     0.000 C 
BRANCH   4   5
ATOM      5  C   UNL     1      38.057   9.856  14.932  1.00  0.00     0.000 C 
BRANCH   5   6
ATOM      6  C   UNL     1      39.333   9.581  15.747  1.00  0.00     0.000 C 
BRANCH   6   7
ATOM      7  C   UNL     1      39.650  10.698  16.755  1.00  0.00     0.006 C 
BRANCH   7   8
ATOM      8  C   UNL     1      41.124  11.121  16.708  1.00  0.00     0.053 C 
BRANCH   8   9
ATOM      9  C   UNL     1      41.637  11.506  18.063  1.00  0.00     0.041 C 
ATOM     10  O   UNL     1      41.882  12.713  18.327  1.00  0.00    -0.550 OA
ATOM     11  O   UNL     1      41.872  10.530  19.023  1.00  0.00    -0.550 OA
ENDBRANCH   8   9
ENDBRANCH   7   8
ENDBRANCH   6   7
ENDBRANCH   5   6
ENDBRANCH   4   5
ENDBRANCH   3   4
ENDBRANCH   2   3
ENDBRANCH   1   2
BRANCH   1  12
ATOM     12  C   UNL     1      41.331  10.423  12.019  1.00  0.00     0.000 C 
BRANCH  12  13
ATOM     13  C   UNL     1      41.132  11.580  13.012  1.00  0.00    -0.000 C 
BRANCH  13  14
ATOM     14  C   UNL     1      39.890  12.429  12.692  1.00  0.00    -0.000 C 
BRANCH  14  15
ATOM     15  C   UNL     1      39.277  13.081  13.944  1.00  0.00    -0.000 C 
BRANCH  15  16
ATOM     16  C   UNL     1      40.231  14.007  14.725  1.00  0.00    -0.000 C 
BRANCH  16  17
ATOM     17  C   UNL     1      39.545  14.942  15.741  1.00  0.00    -0.000 C 
BRANCH  17  18
ATOM     18  C   UNL     1      40.494  15.618  16.750  1.00  0.00    -0.000 C 
BRANCH  18  19
ATOM     19  C   UNL     1      40.591  17.149  16.620  1.00  0.00    -0.003 C 
ATOM     20  C   UNL     1      41.325  17.801  17.792  1.00  0.00     0.004 C 
ENDBRANCH  18  19
ENDBRANCH  17  18
ENDBRANCH  16  17
ENDBRANCH  15  16
ENDBRANCH  14  15
ENDBRANCH  13  14
ENDBRANCH  12  13
ENDBRANCH   1  12
TORSDOF 16
ENDMDL
MODEL 7
REMARK VINA RESULT:    -3.242      1.447      3.703
REMARK INTER + INTRA:          -9.113
REMARK INTER:                  -6.795
REMARK INTRA:                  -2.317
REMARK UNBOUND:                -2.838
REMARK SMILES CCCCCCCCCCCCCCCCCC(=O)[O-]
REMARK SMILES IDX 10 1 11 2 12 3 13 4 14 5 15 6 16 7 17 8 18 9 19 10 20 11
REMARK SMILES IDX 9 12 8 13 7 14 6 15 5 16 4 17 3 18 2 19 1 20
REMARK H PARENT
REMARK Flexibility Score: inf
ROOT
ATOM      1  C   UNL     1      41.243  11.169  12.747  1.00  0.00     0.000 C 
ENDROOT
BRANCH   1   2
ATOM      2  C   UNL     1      40.460  12.485  12.894  1.00  0.00     0.000 C 
BRANCH   2   3
ATOM      3  C   UNL     1      38.943  12.287  12.738  1.00  0.00     0.000 C 
BRANCH   3   4
ATOM      4  C   UNL     1      38.138  12.913  13.891  1.00  0.00     0.000 C 
BRANCH   4   5
ATOM      5  C   UNL     1      38.982  13.563  15.007  1.00  0.00     0.000 C 
BRANCH   5   6
ATOM      6  C   UNL     1      38.423  14.883  15.567  1.00  0.00     0.000 C 
BRANCH   6   7
ATOM      7  C   UNL     1      39.317  15.495  16.658  1.00  0.00     0.006 C 
BRANCH   7   8
ATOM      8  C   UNL     1      40.393  16.421  16.074  1.00  0.00     0.053 C 
BRANCH   8   9
ATOM      9  C   UNL     1      40.675  17.585  16.975  1.00  0.00     0.041 C 
ATOM     10  O   UNL     1      41.857  17.991  17.133  1.00  0.00    -0.550 OA
ATOM     11  O   UNL     1      39.637  18.203  17.662  1.00  0.00    -0.550 OA
ENDBRANCH   8   9
ENDBRANCH   7   8
ENDBRANCH   6   7
ENDBRANCH   5   6
ENDBRANCH   4   5
ENDBRANCH   3   4
ENDBRANCH   2   3
ENDBRANCH   1   2
BRANCH   1  12
ATOM     12  C   UNL     1      40.896  10.416  11.451  1.00  0.00     0.000 C 
BRANCH  12  13
ATOM     13  C   UNL     1      40.537   8.942  11.706  1.00  0.00    -0.000 C 
BRANCH  13  14
ATOM     14  C   UNL     1      39.023   8.720  11.866  1.00  0.00    -0.000 C 
BRANCH  14  15
ATOM     15  C   UNL     1      38.658   8.057  13.206  1.00  0.00    -0.000 C 
BRANCH  15  16
ATOM     16  C   UNL     1      38.185   9.031  14.304  1.00  0.00    -0.000 C 
BRANCH  16  17
ATOM     17  C   UNL     1      39.281   9.488  15.287  1.00  0.00    -0.000 C 
BRANCH  17  18
ATOM     18  C   UNL     1      38.773  10.270  16.514  1.00  0.00    -0.000 C 
BRANCH  18  19
ATOM     19  C   UNL     1      39.866  10.681  17.516  1.00  0.00    -0.003 C 
ATOM     20  C   UNL     1      41.071  11.340  16.845  1.00  0.00     0.004 C 
ENDBRANCH  18  19
ENDBRANCH  17  18
ENDBRANCH  16  17
ENDBRANCH  15  16
ENDBRANCH  14  15
ENDBRANCH  13  14
ENDBRANCH  12  13
ENDBRANCH   1  12
TORSDOF 16
ENDMDL
MODEL 8
REMARK VINA RESULT:    -3.210      2.719      6.658
REMARK INTER + INTRA:          -9.051
REMARK INTER:                  -6.372
REMARK INTRA:                  -2.680
REMARK UNBOUND:                -2.838
REMARK SMILES CCCCCCCCCCCCCCCCCC(=O)[O-]
REMARK SMILES IDX 10 1 11 2 12 3 13 4 14 5 15 6 16 7 17 8 18 9 19 10 20 11
REMARK SMILES IDX 9 12 8 13 7 14 6 15 5 16 4 17 3 18 2 19 1 20
REMARK H PARENT
REMARK Flexibility Score: inf
ROOT
ATOM      1  C   UNL     1      41.915  12.234  15.779  1.00  0.00     0.000 C 
ENDROOT
BRANCH   1   2
ATOM      2  C   UNL     1      41.433  11.994  14.338  1.00  0.00     0.000 C 
BRANCH   2   3
ATOM      3  C   UNL     1      40.492  13.104  13.840  1.00  0.00     0.000 C 
BRANCH   3   4
ATOM      4  C   UNL     1      39.057  12.604  13.593  1.00  0.00     0.000 C 
BRANCH   4   5
ATOM      5  C   UNL     1      38.712  11.247  14.240  1.00  0.00     0.000 C 
BRANCH   5   6
ATOM      6  C   UNL     1      38.258  10.150  13.260  1.00  0.00     0.000 C 
BRANCH   6   7
ATOM      7  C   UNL     1      39.271   8.999  13.140  1.00  0.00     0.006 C 
BRANCH   7   8
ATOM      8  C   UNL     1      39.825   8.860  11.716  1.00  0.00     0.053 C 
BRANCH   8   9
ATOM      9  C   UNL     1      40.641  10.051  11.316  1.00  0.00     0.041 C 
ATOM     10  O   UNL     1      40.119  10.979  10.642  1.00  0.00    -0.550 OA
ATOM     11  O   UNL     1      41.984  10.125  11.664  1.00  0.00    -0.550 OA
ENDBRANCH   8   9
ENDBRANCH   7   8
ENDBRANCH   6   7
ENDBRANCH   5   6
ENDBRANCH   4   5
ENDBRANCH   3   4
ENDBRANCH   2   3
ENDBRANCH   1   2
BRANCH   1  12
ATOM     12  C   UNL     1      41.397  13.560  16.363  1.00  0.00     0.000 C 
BRANCH  12  13
ATOM     13  C   UNL     1      40.626  13.362  17.678  1.00  0.00    -0.000 C 
BRANCH  13  14
ATOM     14  C   UNL     1      39.113  13.189  17.457  1.00  0.00    -0.000 C 
BRANCH  14  15
ATOM     15  C   UNL     1      38.359  14.531  17.434  1.00  0.00    -0.000 C 
BRANCH  15  16
ATOM     16  C   UNL     1      37.996  15.047  16.028  1.00  0.00    -0.000 C 
BRANCH  16  17
ATOM     17  C   UNL     1      38.853  16.224  15.523  1.00  0.00    -0.000 C 
BRANCH  17  18
ATOM     18  C   UNL     1      39.333  17.199  16.617  1.00  0.00    -0.000 C 
BRANCH  18  19
ATOM     19  C   UNL     1      40.861  17.285  16.780  1.00  0.00    -0.003 C 
ATOM     20  C   UNL     1      41.293  17.502  18.230  1.00  0.00     0.004 C 
ENDBRANCH  18  19
ENDBRANCH  17  18
ENDBRANCH  16  17
ENDBRANCH  15  16
ENDBRANCH  14  15
ENDBRANCH  13  14
ENDBRANCH  12  13
ENDBRANCH   1  12
TORSDOF 16
ENDMDL
MODEL 9
REMARK VINA RESULT:    -3.135      2.108      4.166
REMARK INTER + INTRA:          -8.906
REMARK INTER:                  -6.250
REMARK INTRA:                  -2.655
REMARK UNBOUND:                -2.838
REMARK SMILES CCCCCCCCCCCCCCCCCC(=O)[O-]
REMARK SMILES IDX 10 1 11 2 12 3 13 4 14 5 15 6 16 7 17 8 18 9 19 10 20 11
REMARK SMILES IDX 9 12 8 13 7 14 6 15 5 16 4 17 3 18 2 19 1 20
REMARK H PARENT
REMARK Flexibility Score: inf
ROOT
ATOM      1  C   UNL     1      41.247  10.725  12.007  1.00  0.00     0.000 C 
ENDROOT
BRANCH   1   2
ATOM      2  C   UNL     1      40.926  11.629  13.210  1.00  0.00     0.000 C 
BRANCH   2   3
ATOM      3  C   UNL     1      39.934  12.750  12.856  1.00  0.00     0.000 C 
BRANCH   3   4
ATOM      4  C   UNL     1      38.599  12.625  13.612  1.00  0.00     0.000 C 
BRANCH   4   5
ATOM      5  C   UNL     1      38.291  13.773  14.596  1.00  0.00     0.000 C 
BRANCH   5   6
ATOM      6  C   UNL     1      38.358  13.394  16.087  1.00  0.00     0.000 C 
BRANCH   6   7
ATOM      7  C   UNL     1      39.398  14.216  16.866  1.00  0.00     0.006 C 
BRANCH   7   8
ATOM      8  C   UNL     1      40.819  14.020  16.321  1.00  0.00     0.053 C 
BRANCH   8   9
ATOM      9  C   UNL     1      41.526  12.888  17.003  1.00  0.00     0.041 C 
ATOM     10  O   UNL     1      41.394  12.715  18.244  1.00  0.00    -0.550 OA
ATOM     11  O   UNL     1      42.353  12.042  16.274  1.00  0.00    -0.550 OA
ENDBRANCH   8   9
ENDBRANCH   7   8
ENDBRANCH   6   7
ENDBRANCH   5   6
ENDBRANCH   4   5
ENDBRANCH   3   4
ENDBRANCH   2   3
ENDBRANCH   1   2
BRANCH   1  12
ATOM     12  C   UNL     1      40.126  10.724  10.953  1.00  0.00     0.000 C 
BRANCH  12  13
ATOM     13  C   UNL     1      39.055   9.658  11.236  1.00  0.00    -0.000 C 
BRANCH  13  14
ATOM     14  C   UNL     1      39.648   8.359  11.809  1.00  0.00    -0.000 C 
BRANCH  14  15
ATOM     15  C   UNL     1      38.981   7.934  13.129  1.00  0.00    -0.000 C 
BRANCH  15  16
ATOM     16  C   UNL     1      38.205   9.052  13.853  1.00  0.00    -0.000 C 
BRANCH  16  17
ATOM     17  C   UNL     1      38.274   9.003  15.392  1.00  0.00    -0.000 C 
BRANCH  17  18
ATOM     18  C   UNL     1      39.333   9.924  16.029  1.00  0.00    -0.000 C 
BRANCH  18  19
ATOM     19  C   UNL     1      39.417   9.848  17.563  1.00  0.00    -0.003 C 
ATOM     20  C   UNL     1      38.677   8.641  18.141  1.00  0.00     0.004 C 
ENDBRANCH  18  19
ENDBRANCH  17  18
ENDBRANCH  16  17
ENDBRANCH  15  16
ENDBRANCH  14  15
ENDBRANCH  13  14
ENDBRANCH  12  13
ENDBRANCH   1  12
TORSDOF 16
ENDMDL
