MODEL 1
REMARK VINA RESULT:    -3.826      0.000      0.000
REMARK INTER + INTRA:          -8.458
REMARK INTER:                  -6.734
REMARK INTRA:                  -1.724
REMARK UNBOUND:                -1.724
REMARK SMILES CCCCCCCCCCCCCCC(=O)[O-]
REMARK SMILES IDX 9 1 10 2 11 3 12 4 13 5 14 6 15 7 16 8 17 9 8 10 7 11 6 12
REMARK SMILES IDX 5 13 4 14 3 15 2 16 1 17
REMARK H PARENT
REMARK Flexibility Score: inf
ROOT
ATOM      1  C   UNL     1     129.947 143.570 119.730  1.00  0.00     0.000 C 
ENDROOT
BRANCH   1   2
ATOM      2  C   UNL     1     128.871 144.180 118.825  1.00  0.00     0.000 C 
BRANCH   2   3
ATOM      3  C   UNL     1     127.526 144.277 119.560  1.00  0.00     0.000 C 
BRANCH   3   4
ATOM      4  C   UNL     1     127.045 145.727 119.742  1.00  0.00     0.000 C 
BRANCH   4   5
ATOM      5  C   UNL     1     127.123 146.270 121.182  1.00  0.00     0.006 C 
BRANCH   5   6
ATOM      6  C   UNL     1     127.544 145.220 122.227  1.00  0.00     0.053 C 
BRANCH   6   7
ATOM      7  C   UNL     1     128.887 145.511 122.829  1.00  0.00     0.041 C 
ATOM      8  O   UNL     1     129.644 144.567 123.181  1.00  0.00    -0.550 OA
ATOM      9  O   UNL     1     129.287 146.825 123.041  1.00  0.00    -0.550 OA
ENDBRANCH   6   7
ENDBRANCH   5   6
ENDBRANCH   4   5
ENDBRANCH   3   4
ENDBRANCH   2   3
ENDBRANCH   1   2
BRANCH   1  10
ATOM     10  C   UNL     1     131.170 144.491 119.830  1.00  0.00     0.000 C 
BRANCH  10  11
ATOM     11  C   UNL     1     130.753 145.966 119.779  1.00  0.00    -0.000 C 
BRANCH  11  12
ATOM     12  C   UNL     1     131.971 146.887 119.949  1.00  0.00    -0.000 C 
BRANCH  12  13
ATOM     13  C   UNL     1     133.293 146.109 120.054  1.00  0.00    -0.000 C 
BRANCH  13  14
ATOM     14  C   UNL     1     134.339 146.581 119.030  1.00  0.00    -0.000 C 
BRANCH  14  15
ATOM     15  C   UNL     1     134.985 145.414 118.265  1.00  0.00    -0.000 C 
BRANCH  15  16
ATOM     16  C   UNL     1     134.692 144.050 118.906  1.00  0.00    -0.003 C 
ATOM     17  C   UNL     1     134.105 143.079 117.886  1.00  0.00     0.004 C 
ENDBRANCH  15  16
ENDBRANCH  14  15
ENDBRANCH  13  14
ENDBRANCH  12  13
ENDBRANCH  11  12
ENDBRANCH  10  11
ENDBRANCH   1  10
TORSDOF 13
ENDMDL
MODEL 2
REMARK VINA RESULT:    -3.808      2.556      5.790
REMARK INTER + INTRA:          -8.426
REMARK INTER:                  -6.185
REMARK INTRA:                  -2.242
REMARK UNBOUND:                -1.724
REMARK SMILES CCCCCCCCCCCCCCC(=O)[O-]
REMARK SMILES IDX 9 1 10 2 11 3 12 4 13 5 14 6 15 7 16 8 17 9 8 10 7 11 6 12
REMARK SMILES IDX 5 13 4 14 3 15 2 16 1 17
REMARK H PARENT
REMARK Flexibility Score: inf
ROOT
ATOM      1  C   UNL     1     130.938 145.503 122.177  1.00  0.00     0.000 C 
ENDROOT
BRANCH   1   2
ATOM      2  C   UNL     1     130.892 146.579 121.086  1.00  0.00     0.000 C 
BRANCH   2   3
ATOM      3  C   UNL     1     131.387 146.019 119.743  1.00  0.00     0.000 C 
BRANCH   3   4
ATOM      4  C   UNL     1     132.129 144.680 119.889  1.00  0.00     0.000 C 
BRANCH   4   5
ATOM      5  C   UNL     1     133.620 144.708 119.498  1.00  0.00     0.006 C 
BRANCH   5   6
ATOM      6  C   UNL     1     134.146 146.108 119.127  1.00  0.00     0.053 C 
BRANCH   6   7
ATOM      7  C   UNL     1     135.100 146.654 120.148  1.00  0.00     0.041 C 
ATOM      8  O   UNL     1     136.261 147.006 119.808  1.00  0.00    -0.550 OA
ATOM      9  O   UNL     1     134.722 146.737 121.482  1.00  0.00    -0.550 OA
ENDBRANCH   6   7
ENDBRANCH   5   6
ENDBRANCH   4   5
ENDBRANCH   3   4
ENDBRANCH   2   3
ENDBRANCH   1   2
BRANCH   1  10
ATOM     10  C   UNL     1     129.564 145.327 122.835  1.00  0.00     0.000 C 
BRANCH  10  11
ATOM     11  C   UNL     1     128.583 146.406 122.358  1.00  0.00    -0.000 C 
BRANCH  11  12
ATOM     12  C   UNL     1     127.388 145.775 121.626  1.00  0.00    -0.000 C 
BRANCH  12  13
ATOM     13  C   UNL     1     127.177 146.361 120.220  1.00  0.00    -0.000 C 
BRANCH  13  14
ATOM     14  C   UNL     1     127.627 145.401 119.106  1.00  0.00    -0.000 C 
BRANCH  14  15
ATOM     15  C   UNL     1     127.577 143.928 119.541  1.00  0.00    -0.000 C 
BRANCH  15  16
ATOM     16  C   UNL     1     128.939 143.227 119.424  1.00  0.00    -0.003 C 
ATOM     17  C   UNL     1     129.213 142.351 120.642  1.00  0.00     0.004 C 
ENDBRANCH  15  16
ENDBRANCH  14  15
ENDBRANCH  13  14
ENDBRANCH  12  13
ENDBRANCH  11  12
ENDBRANCH  10  11
ENDBRANCH   1  10
TORSDOF 13
ENDMDL
MODEL 3
REMARK VINA RESULT:    -3.736      2.730      4.355
REMARK INTER + INTRA:          -8.300
REMARK INTER:                  -5.799
REMARK INTRA:                  -2.501
REMARK UNBOUND:                -1.724
REMARK SMILES CCCCCCCCCCCCCCC(=O)[O-]
REMARK SMILES IDX 9 1 10 2 11 3 12 4 13 5 14 6 15 7 16 8 17 9 8 10 7 11 6 12
REMARK SMILES IDX 5 13 4 14 3 15 2 16 1 17
REMARK H PARENT
REMARK Flexibility Score: inf
ROOT
ATOM      1  C   UNL     1     128.098 144.147 118.606  1.00  0.00     0.000 C 
ENDROOT
BRANCH   1   2
ATOM      2  C   UNL     1     129.390 144.081 119.430  1.00  0.00     0.000 C 
BRANCH   2   3
ATOM      3  C   UNL     1     129.495 142.743 120.177  1.00  0.00     0.000 C 
BRANCH   3   4
ATOM      4  C   UNL     1     128.125 142.162 120.564  1.00  0.00     0.000 C 
BRANCH   4   5
ATOM      5  C   UNL     1     127.709 142.381 122.033  1.00  0.00     0.006 C 
BRANCH   5   6
ATOM      6  C   UNL     1     128.738 141.871 123.059  1.00  0.00     0.053 C 
BRANCH   6   7
ATOM      7  C   UNL     1     128.517 142.440 124.430  1.00  0.00     0.041 C 
ATOM      8  O   UNL     1     127.383 142.875 124.762  1.00  0.00    -0.550 OA
ATOM      9  O   UNL     1     129.574 142.527 125.326  1.00  0.00    -0.550 OA
ENDBRANCH   6   7
ENDBRANCH   5   6
ENDBRANCH   4   5
ENDBRANCH   3   4
ENDBRANCH   2   3
ENDBRANCH   1   2
BRANCH   1  10
ATOM     10  C   UNL     1     127.243 145.351 119.020  1.00  0.00     0.000 C 
BRANCH  10  11
ATOM     11  C   UNL     1     127.901 146.125 120.169  1.00  0.00    -0.000 C 
BRANCH  11  12
ATOM     12  C   UNL     1     127.034 146.066 121.437  1.00  0.00    -0.000 C 
BRANCH  12  13
ATOM     13  C   UNL     1     127.868 145.929 122.720  1.00  0.00    -0.000 C 
BRANCH  13  14
ATOM     14  C   UNL     1     129.337 146.339 122.518  1.00  0.00    -0.000 C 
BRANCH  14  15
ATOM     15  C   UNL     1     130.322 145.259 122.992  1.00  0.00    -0.000 C 
BRANCH  15  16
ATOM     16  C   UNL     1     131.590 145.192 122.128  1.00  0.00    -0.003 C 
ATOM     17  C   UNL     1     131.711 146.421 121.232  1.00  0.00     0.004 C 
ENDBRANCH  15  16
ENDBRANCH  14  15
ENDBRANCH  13  14
ENDBRANCH  12  13
ENDBRANCH  11  12
ENDBRANCH  10  11
ENDBRANCH   1  10
TORSDOF 13
ENDMDL
MODEL 4
REMARK VINA RESULT:    -3.704      2.625      5.355
REMARK INTER + INTRA:          -8.243
REMARK INTER:                  -5.833
REMARK INTRA:                  -2.410
REMARK UNBOUND:                -1.724
REMARK SMILES CCCCCCCCCCCCCCC(=O)[O-]
REMARK SMILES IDX 9 1 10 2 11 3 12 4 13 5 14 6 15 7 16 8 17 9 8 10 7 11 6 12
REMARK SMILES IDX 5 13 4 14 3 15 2 16 1 17
REMARK H PARENT
REMARK Flexibility Score: inf
ROOT
ATOM      1  C   UNL     1     129.616 142.460 120.382  1.00  0.00     0.000 C 
ENDROOT
BRANCH   1   2
ATOM      2  C   UNL     1     130.205 143.422 119.343  1.00  0.00     0.000 C 
BRANCH   2   3
ATOM      3  C   UNL     1     131.097 144.476 120.016  1.00  0.00     0.000 C 
BRANCH   3   4
ATOM      4  C   UNL     1     130.635 145.917 119.739  1.00  0.00     0.000 C 
BRANCH   4   5
ATOM      5  C   UNL     1     131.637 147.018 120.140  1.00  0.00     0.006 C 
BRANCH   5   6
ATOM      6  C   UNL     1     132.655 146.580 121.210  1.00  0.00     0.053 C 
BRANCH   6   7
ATOM      7  C   UNL     1     134.057 146.511 120.678  1.00  0.00     0.041 C 
ATOM      8  O   UNL     1     134.278 146.051 119.527  1.00  0.00    -0.550 OA
ATOM      9  O   UNL     1     135.123 146.916 121.471  1.00  0.00    -0.550 OA
ENDBRANCH   6   7
ENDBRANCH   5   6
ENDBRANCH   4   5
ENDBRANCH   3   4
ENDBRANCH   2   3
ENDBRANCH   1   2
BRANCH   1  10
ATOM     10  C   UNL     1     128.214 142.905 120.812  1.00  0.00     0.000 C 
BRANCH  10  11
ATOM     11  C   UNL     1     127.553 143.766 119.727  1.00  0.00    -0.000 C 
BRANCH  11  12
ATOM     12  C   UNL     1     127.169 145.147 120.282  1.00  0.00    -0.000 C 
BRANCH  12  13
ATOM     13  C   UNL     1     127.279 145.223 121.813  1.00  0.00    -0.000 C 
BRANCH  13  14
ATOM     14  C   UNL     1     127.931 146.530 122.294  1.00  0.00    -0.000 C 
BRANCH  14  15
ATOM     15  C   UNL     1     129.240 146.288 123.065  1.00  0.00    -0.000 C 
BRANCH  15  16
ATOM     16  C   UNL     1     129.306 144.890 123.697  1.00  0.00    -0.003 C 
ATOM     17  C   UNL     1     130.712 144.307 123.592  1.00  0.00     0.004 C 
ENDBRANCH  15  16
ENDBRANCH  14  15
ENDBRANCH  13  14
ENDBRANCH  12  13
ENDBRANCH  11  12
ENDBRANCH  10  11
ENDBRANCH   1  10
TORSDOF 13
ENDMDL
MODEL 5
REMARK VINA RESULT:    -3.616      2.792      6.332
REMARK INTER + INTRA:          -8.089
REMARK INTER:                  -6.418
REMARK INTRA:                  -1.671
REMARK UNBOUND:                -1.724
REMARK SMILES CCCCCCCCCCCCCCC(=O)[O-]
REMARK SMILES IDX 9 1 10 2 11 3 12 4 13 5 14 6 15 7 16 8 17 9 8 10 7 11 6 12
REMARK SMILES IDX 5 13 4 14 3 15 2 16 1 17
REMARK H PARENT
REMARK Flexibility Score: inf
ROOT
ATOM      1  C   UNL     1     130.956 143.798 120.784  1.00  0.00     0.000 C 
ENDROOT
BRANCH   1   2
ATOM      2  C   UNL     1     131.419 145.213 121.147  1.00  0.00     0.000 C 
BRANCH   2   3
ATOM      3  C   UNL     1     131.180 146.185 119.982  1.00  0.00     0.000 C 
BRANCH   3   4
ATOM      4  C   UNL     1     132.486 146.708 119.359  1.00  0.00     0.000 C 
BRANCH   4   5
ATOM      5  C   UNL     1     133.759 145.929 119.749  1.00  0.00     0.006 C 
BRANCH   5   6
ATOM      6  C   UNL     1     135.061 146.539 119.199  1.00  0.00     0.053 C 
BRANCH   6   7
ATOM      7  C   UNL     1     136.085 146.777 120.270  1.00  0.00     0.041 C 
ATOM      8  O   UNL     1     137.310 146.626 120.023  1.00  0.00    -0.550 OA
ATOM      9  O   UNL     1     135.682 147.124 121.553  1.00  0.00    -0.550 OA
ENDBRANCH   6   7
ENDBRANCH   5   6
ENDBRANCH   4   5
ENDBRANCH   3   4
ENDBRANCH   2   3
ENDBRANCH   1   2
BRANCH   1  10
ATOM     10  C   UNL     1     130.309 143.770 119.394  1.00  0.00     0.000 C 
BRANCH  10  11
ATOM     11  C   UNL     1     128.806 143.479 119.492  1.00  0.00    -0.000 C 
BRANCH  11  12
ATOM     12  C   UNL     1     128.003 144.436 118.596  1.00  0.00    -0.000 C 
BRANCH  12  13
ATOM     13  C   UNL     1     127.118 145.400 119.402  1.00  0.00    -0.000 C 
BRANCH  13  14
ATOM     14  C   UNL     1     127.215 145.163 120.919  1.00  0.00    -0.000 C 
BRANCH  14  15
ATOM     15  C   UNL     1     127.513 146.454 121.699  1.00  0.00    -0.000 C 
BRANCH  15  16
ATOM     16  C   UNL     1     128.513 146.238 122.845  1.00  0.00    -0.003 C 
ATOM     17  C   UNL     1     128.199 144.958 123.614  1.00  0.00     0.004 C 
ENDBRANCH  15  16
ENDBRANCH  14  15
ENDBRANCH  13  14
ENDBRANCH  12  13
ENDBRANCH  11  12
ENDBRANCH  10  11
ENDBRANCH   1  10
TORSDOF 13
ENDMDL
MODEL 6
REMARK VINA RESULT:    -3.609      1.990      2.785
REMARK INTER + INTRA:          -8.075
REMARK INTER:                  -5.893
REMARK INTRA:                  -2.182
REMARK UNBOUND:                -1.724
REMARK SMILES CCCCCCCCCCCCCCC(=O)[O-]
REMARK SMILES IDX 9 1 10 2 11 3 12 4 13 5 14 6 15 7 16 8 17 9 8 10 7 11 6 12
REMARK SMILES IDX 5 13 4 14 3 15 2 16 1 17
REMARK H PARENT
REMARK Flexibility Score: inf
ROOT
ATOM      1  C   UNL     1     128.762 145.571 119.044  1.00  0.00     0.000 C 
ENDROOT
BRANCH   1   2
ATOM      2  C   UNL     1     127.950 144.301 118.764  1.00  0.00     0.000 C 
BRANCH   2   3
ATOM      3  C   UNL     1     127.326 143.752 120.056  1.00  0.00     0.000 C 
BRANCH   3   4
ATOM      4  C   UNL     1     127.612 142.256 120.271  1.00  0.00     0.000 C 
BRANCH   4   5
ATOM      5  C   UNL     1     127.733 141.815 121.744  1.00  0.00     0.006 C 
BRANCH   5   6
ATOM      6  C   UNL     1     128.691 142.681 122.582  1.00  0.00     0.053 C 
BRANCH   6   7
ATOM      7  C   UNL     1     128.005 143.351 123.736  1.00  0.00     0.041 C 
ATOM      8  O   UNL     1     127.700 142.691 124.764  1.00  0.00    -0.550 OA
ATOM      9  O   UNL     1     127.665 144.696 123.658  1.00  0.00    -0.550 OA
ENDBRANCH   6   7
ENDBRANCH   5   6
ENDBRANCH   4   5
ENDBRANCH   3   4
ENDBRANCH   2   3
ENDBRANCH   1   2
BRANCH   1  10
ATOM     10  C   UNL     1     128.808 145.874 120.546  1.00  0.00     0.000 C 
BRANCH  10  11
ATOM     11  C   UNL     1     130.246 146.141 121.010  1.00  0.00    -0.000 C 
BRANCH  11  12
ATOM     12  C   UNL     1     131.121 146.614 119.838  1.00  0.00    -0.000 C 
BRANCH  12  13
ATOM     13  C   UNL     1     132.561 146.083 119.920  1.00  0.00    -0.000 C 
BRANCH  13  14
ATOM     14  C   UNL     1     132.632 144.651 120.478  1.00  0.00    -0.000 C 
BRANCH  14  15
ATOM     15  C   UNL     1     132.520 143.583 119.377  1.00  0.00    -0.000 C 
BRANCH  15  16
ATOM     16  C   UNL     1     131.202 142.797 119.443  1.00  0.00    -0.003 C 
ATOM     17  C   UNL     1     131.387 141.478 120.187  1.00  0.00     0.004 C 
ENDBRANCH  15  16
ENDBRANCH  14  15
ENDBRANCH  13  14
ENDBRANCH  12  13
ENDBRANCH  11  12
ENDBRANCH  10  11
ENDBRANCH   1  10
TORSDOF 13
ENDMDL
MODEL 7
REMARK VINA RESULT:    -3.560      2.889      6.066
REMARK INTER + INTRA:          -7.989
REMARK INTER:                  -6.332
REMARK INTRA:                  -1.656
REMARK UNBOUND:                -1.724
REMARK SMILES CCCCCCCCCCCCCCC(=O)[O-]
REMARK SMILES IDX 9 1 10 2 11 3 12 4 13 5 14 6 15 7 16 8 17 9 8 10 7 11 6 12
REMARK SMILES IDX 5 13 4 14 3 15 2 16 1 17
REMARK H PARENT
REMARK Flexibility Score: inf
ROOT
ATOM      1  C   UNL     1     129.597 143.938 119.374  1.00  0.00     0.000 C 
ENDROOT
BRANCH   1   2
ATOM      2  C   UNL     1     130.600 144.798 120.152  1.00  0.00     0.000 C 
BRANCH   2   3
ATOM      3  C   UNL     1     130.489 146.274 119.742  1.00  0.00     0.000 C 
BRANCH   3   4
ATOM      4  C   UNL     1     131.750 147.087 120.081  1.00  0.00     0.000 C 
BRANCH   4   5
ATOM      5  C   UNL     1     133.086 146.353 119.853  1.00  0.00     0.006 C 
BRANCH   5   6
ATOM      6  C   UNL     1     134.027 146.368 121.072  1.00  0.00     0.053 C 
BRANCH   6   7
ATOM      7  C   UNL     1     135.448 146.676 120.701  1.00  0.00     0.041 C 
ATOM      8  O   UNL     1     136.301 146.915 121.596  1.00  0.00    -0.550 OA
ATOM      9  O   UNL     1     135.821 146.740 119.364  1.00  0.00    -0.550 OA
ENDBRANCH   6   7
ENDBRANCH   5   6
ENDBRANCH   4   5
ENDBRANCH   3   4
ENDBRANCH   2   3
ENDBRANCH   1   2
BRANCH   1  10
ATOM     10  C   UNL     1     128.413 144.779 118.884  1.00  0.00     0.000 C 
BRANCH  10  11
ATOM     11  C   UNL     1     127.241 144.709 119.871  1.00  0.00    -0.000 C 
BRANCH  11  12
ATOM     12  C   UNL     1     126.880 146.107 120.394  1.00  0.00    -0.000 C 
BRANCH  12  13
ATOM     13  C   UNL     1     127.126 146.258 121.904  1.00  0.00    -0.000 C 
BRANCH  13  14
ATOM     14  C   UNL     1     127.714 144.984 122.537  1.00  0.00    -0.000 C 
BRANCH  14  15
ATOM     15  C   UNL     1     128.617 145.288 123.743  1.00  0.00    -0.000 C 
BRANCH  15  16
ATOM     16  C   UNL     1     129.686 146.347 123.433  1.00  0.00    -0.003 C 
ATOM     17  C   UNL     1     130.471 146.717 124.688  1.00  0.00     0.004 C 
ENDBRANCH  15  16
ENDBRANCH  14  15
ENDBRANCH  13  14
ENDBRANCH  12  13
ENDBRANCH  11  12
ENDBRANCH  10  11
ENDBRANCH   1  10
TORSDOF 13
ENDMDL
MODEL 8
REMARK VINA RESULT:    -3.523      1.971      3.247
REMARK INTER + INTRA:          -7.924
REMARK INTER:                  -5.521
REMARK INTRA:                  -2.403
REMARK UNBOUND:                -1.724
REMARK SMILES CCCCCCCCCCCCCCC(=O)[O-]
REMARK SMILES IDX 9 1 10 2 11 3 12 4 13 5 14 6 15 7 16 8 17 9 8 10 7 11 6 12
REMARK SMILES IDX 5 13 4 14 3 15 2 16 1 17
REMARK H PARENT
REMARK Flexibility Score: inf
ROOT
ATOM      1  C   UNL     1     128.893 142.688 120.074  1.00  0.00     0.000 C 
ENDROOT
BRANCH   1   2
ATOM      2  C   UNL     1     127.635 142.495 120.929  1.00  0.00     0.000 C 
BRANCH   2   3
ATOM      3  C   UNL     1     127.968 142.590 122.425  1.00  0.00     0.000 C 
BRANCH   3   4
ATOM      4  C   UNL     1     129.430 142.989 122.690  1.00  0.00     0.000 C 
BRANCH   4   5
ATOM      5  C   UNL     1     129.626 144.373 123.340  1.00  0.00     0.006 C 
BRANCH   5   6
ATOM      6  C   UNL     1     128.313 145.067 123.747  1.00  0.00     0.053 C 
BRANCH   6   7
ATOM      7  C   UNL     1     127.996 144.894 125.203  1.00  0.00     0.041 C 
ATOM      8  O   UNL     1     128.602 145.575 126.072  1.00  0.00    -0.550 OA
ATOM      9  O   UNL     1     127.059 143.949 125.605  1.00  0.00    -0.550 OA
ENDBRANCH   6   7
ENDBRANCH   5   6
ENDBRANCH   4   5
ENDBRANCH   3   4
ENDBRANCH   2   3
ENDBRANCH   1   2
BRANCH   1  10
ATOM     10  C   UNL     1     128.668 143.756 118.997  1.00  0.00     0.000 C 
BRANCH  10  11
ATOM     11  C   UNL     1     127.718 144.851 119.497  1.00  0.00    -0.000 C 
BRANCH  11  12
ATOM     12  C   UNL     1     128.500 145.997 120.157  1.00  0.00    -0.000 C 
BRANCH  12  13
ATOM     13  C   UNL     1     129.889 146.204 119.532  1.00  0.00    -0.000 C 
BRANCH  13  14
ATOM     14  C   UNL     1     130.986 146.422 120.588  1.00  0.00    -0.000 C 
BRANCH  14  15
ATOM     15  C   UNL     1     132.304 145.718 120.225  1.00  0.00    -0.000 C 
BRANCH  15  16
ATOM     16  C   UNL     1     132.272 144.211 120.518  1.00  0.00    -0.003 C 
ATOM     17  C   UNL     1     132.436 143.399 119.237  1.00  0.00     0.004 C 
ENDBRANCH  15  16
ENDBRANCH  14  15
ENDBRANCH  13  14
ENDBRANCH  12  13
ENDBRANCH  11  12
ENDBRANCH  10  11
ENDBRANCH   1  10
TORSDOF 13
ENDMDL
MODEL 9
REMARK VINA RESULT:    -3.515      1.812      3.668
REMARK INTER + INTRA:          -7.910
REMARK INTER:                  -6.261
REMARK INTRA:                  -1.649
REMARK UNBOUND:                -1.724
REMARK SMILES CCCCCCCCCCCCCCC(=O)[O-]
REMARK SMILES IDX 9 1 10 2 11 3 12 4 13 5 14 6 15 7 16 8 17 9 8 10 7 11 6 12
REMARK SMILES IDX 5 13 4 14 3 15 2 16 1 17
REMARK H PARENT
REMARK Flexibility Score: inf
ROOT
ATOM      1  C   UNL     1     127.220 145.022 120.865  1.00  0.00     0.000 C 
ENDROOT
BRANCH   1   2
ATOM      2  C   UNL     1     126.886 146.428 121.378  1.00  0.00     0.000 C 
BRANCH   2   3
ATOM      3  C   UNL     1     127.617 146.719 122.697  1.00  0.00     0.000 C 
BRANCH   3   4
ATOM      4  C   UNL     1     128.435 145.520 123.206  1.00  0.00     0.000 C 
BRANCH   4   5
ATOM      5  C   UNL     1     129.920 145.815 123.501  1.00  0.00     0.006 C 
BRANCH   5   6
ATOM      6  C   UNL     1     130.147 146.753 124.701  1.00  0.00     0.053 C 
BRANCH   6   7
ATOM      7  C   UNL     1     130.618 146.023 125.924  1.00  0.00     0.041 C 
ATOM      8  O   UNL     1     131.694 146.355 126.487  1.00  0.00    -0.550 OA
ATOM      9  O   UNL     1     129.889 144.948 126.417  1.00  0.00    -0.550 OA
ENDBRANCH   6   7
ENDBRANCH   5   6
ENDBRANCH   4   5
ENDBRANCH   3   4
ENDBRANCH   2   3
ENDBRANCH   1   2
BRANCH   1  10
ATOM     10  C   UNL     1     127.241 144.986 119.332  1.00  0.00     0.000 C 
BRANCH  10  11
ATOM     11  C   UNL     1     128.471 144.227 118.817  1.00  0.00    -0.000 C 
BRANCH  11  12
ATOM     12  C   UNL     1     129.465 143.956 119.957  1.00  0.00    -0.000 C 
BRANCH  12  13
ATOM     13  C   UNL     1     130.793 144.711 119.779  1.00  0.00    -0.000 C 
BRANCH  13  14
ATOM     14  C   UNL     1     130.618 146.238 119.849  1.00  0.00    -0.000 C 
BRANCH  14  15
ATOM     15  C   UNL     1     131.961 146.983 119.912  1.00  0.00    -0.000 C 
BRANCH  15  16
ATOM     16  C   UNL     1     133.165 146.032 119.980  1.00  0.00    -0.003 C 
ATOM     17  C   UNL     1     134.275 146.483 119.035  1.00  0.00     0.004 C 
ENDBRANCH  15  16
ENDBRANCH  14  15
ENDBRANCH  13  14
ENDBRANCH  12  13
ENDBRANCH  11  12
ENDBRANCH  10  11
ENDBRANCH   1  10
TORSDOF 13
ENDMDL
