MODEL 1
REMARK VINA RESULT:    -4.051      0.000      0.000
REMARK INTER + INTRA:         -14.734
REMARK INTER:                 -10.208
REMARK INTRA:                  -4.526
REMARK UNBOUND:                -4.526
REMARK SMILES CCCCCCCCCCCCCCCCCCCCCCCCCCCC(=O)[O-]
REMARK SMILES IDX 15 1 16 2 17 3 18 4 19 5 20 6 21 7 22 8 23 9 24 10 25 11
REMARK SMILES IDX 26 12 27 13 28 14 29 15 30 16 14 17 13 18 12 19 11 20 10 21
REMARK SMILES IDX 9 22 8 23 7 24 6 25 5 26 4 27 3 28 2 29 1 30
REMARK H PARENT
REMARK Flexibility Score: inf
ROOT
ATOM      1  C   UNL     1      26.477  24.559 -18.553  1.00  0.00     0.000 C 
ENDROOT
BRANCH   1   2
ATOM      2  C   UNL     1      26.486  24.498 -20.086  1.00  0.00     0.000 C 
BRANCH   2   3
ATOM      3  C   UNL     1      27.645  23.657 -20.646  1.00  0.00     0.000 C 
BRANCH   3   4
ATOM      4  C   UNL     1      28.554  23.046 -19.558  1.00  0.00     0.000 C 
BRANCH   4   5
ATOM      5  C   UNL     1      30.041  23.371 -19.789  1.00  0.00     0.000 C 
BRANCH   5   6
ATOM      6  C   UNL     1      30.679  24.080 -18.574  1.00  0.00     0.000 C 
BRANCH   6   7
ATOM      7  C   UNL     1      31.622  23.177 -17.761  1.00  0.00     0.000 C 
BRANCH   7   8
ATOM      8  C   UNL     1      32.967  23.848 -17.449  1.00  0.00     0.000 C 
BRANCH   8   9
ATOM      9  C   UNL     1      33.201  25.062 -18.356  1.00  0.00     0.000 C 
BRANCH   9  10
ATOM     10  C   UNL     1      34.345  25.937 -17.821  1.00  0.00     0.000 C 
BRANCH  10  11
ATOM     11  C   UNL     1      34.191  26.279 -16.329  1.00  0.00     0.000 C 
BRANCH  11  12
ATOM     12  C   UNL     1      35.362  25.829 -15.432  1.00  0.00     0.006 C 
BRANCH  12  13
ATOM     13  C   UNL     1      36.548  25.214 -16.192  1.00  0.00     0.053 C 
BRANCH  13  14
ATOM     14  C   UNL     1      37.768  26.082 -16.124  1.00  0.00     0.041 C 
ATOM     15  O   UNL     1      38.188  26.668 -17.156  1.00  0.00    -0.550 OA
ATOM     16  O   UNL     1      38.431  26.256 -14.915  1.00  0.00    -0.550 OA
ENDBRANCH  13  14
ENDBRANCH  12  13
ENDBRANCH  11  12
ENDBRANCH  10  11
ENDBRANCH   9  10
ENDBRANCH   8   9
ENDBRANCH   7   8
ENDBRANCH   6   7
ENDBRANCH   5   6
ENDBRANCH   4   5
ENDBRANCH   3   4
ENDBRANCH   2   3
ENDBRANCH   1   2
BRANCH   1  17
ATOM     17  C   UNL     1      26.488  26.010 -18.057  1.00  0.00     0.000 C 
BRANCH  17  18
ATOM     18  C   UNL     1      27.680  26.264 -17.124  1.00  0.00     0.000 C 
BRANCH  18  19
ATOM     19  C   UNL     1      27.940  27.760 -16.873  1.00  0.00     0.000 C 
BRANCH  19  20
ATOM     20  C   UNL     1      29.425  28.151 -16.754  1.00  0.00     0.000 C 
BRANCH  20  21
ATOM     21  C   UNL     1      30.350  26.940 -16.568  1.00  0.00     0.000 C 
BRANCH  21  22
ATOM     22  C   UNL     1      31.119  27.035 -15.245  1.00  0.00    -0.000 C 
BRANCH  22  23
ATOM     23  C   UNL     1      30.634  25.971 -14.248  1.00  0.00    -0.000 C 
BRANCH  23  24
ATOM     24  C   UNL     1      30.196  26.570 -12.899  1.00  0.00    -0.000 C 
BRANCH  24  25
ATOM     25  C   UNL     1      28.774  26.183 -12.447  1.00  0.00    -0.000 C 
BRANCH  25  26
ATOM     26  C   UNL     1      27.725  26.122 -13.575  1.00  0.00    -0.000 C 
BRANCH  26  27
ATOM     27  C   UNL     1      26.634  25.049 -13.392  1.00  0.00    -0.000 C 
BRANCH  27  28
ATOM     28  C   UNL     1      26.530  24.026 -14.538  1.00  0.00    -0.000 C 
BRANCH  28  29
ATOM     29  C   UNL     1      27.643  22.970 -14.498  1.00  0.00    -0.003 C 
ATOM     30  C   UNL     1      28.441  22.962 -15.799  1.00  0.00     0.004 C 
ENDBRANCH  28  29
ENDBRANCH  27  28
ENDBRANCH  26  27
ENDBRANCH  25  26
ENDBRANCH  24  25
ENDBRANCH  23  24
ENDBRANCH  22  23
ENDBRANCH  21  22
ENDBRANCH  20  21
ENDBRANCH  19  20
ENDBRANCH  18  19
ENDBRANCH  17  18
ENDBRANCH   1  17
TORSDOF 26
ENDMDL
MODEL 2
REMARK VINA RESULT:    -3.956      1.684      3.533
REMARK INTER + INTRA:         -14.495
REMARK INTER:                  -9.735
REMARK INTRA:                  -4.760
REMARK UNBOUND:                -4.526
REMARK SMILES CCCCCCCCCCCCCCCCCCCCCCCCCCCC(=O)[O-]
REMARK SMILES IDX 15 1 16 2 17 3 18 4 19 5 20 6 21 7 22 8 23 9 24 10 25 11
REMARK SMILES IDX 26 12 27 13 28 14 29 15 30 16 14 17 13 18 12 19 11 20 10 21
REMARK SMILES IDX 9 22 8 23 7 24 6 25 5 26 4 27 3 28 2 29 1 30
REMARK H PARENT
REMARK Flexibility Score: inf
ROOT
ATOM      1  C   UNL     1      28.380  23.737 -19.886  1.00  0.00     0.000 C 
ENDROOT
BRANCH   1   2
ATOM      2  C   UNL     1      29.025  22.355 -20.051  1.00  0.00     0.000 C 
BRANCH   2   3
ATOM      3  C   UNL     1      29.257  21.638 -18.710  1.00  0.00     0.000 C 
BRANCH   3   4
ATOM      4  C   UNL     1      28.498  22.272 -17.525  1.00  0.00     0.000 C 
BRANCH   4   5
ATOM      5  C   UNL     1      29.323  22.250 -16.225  1.00  0.00     0.000 C 
BRANCH   5   6
ATOM      6  C   UNL     1      30.316  23.430 -16.145  1.00  0.00     0.000 C 
BRANCH   6   7
ATOM      7  C   UNL     1      31.791  22.996 -16.190  1.00  0.00     0.000 C 
BRANCH   7   8
ATOM      8  C   UNL     1      32.611  23.777 -17.228  1.00  0.00     0.000 C 
BRANCH   8   9
ATOM      9  C   UNL     1      31.708  24.339 -18.332  1.00  0.00     0.000 C 
BRANCH   9  10
ATOM     10  C   UNL     1      32.538  24.801 -19.539  1.00  0.00     0.000 C 
BRANCH  10  11
ATOM     11  C   UNL     1      34.042  24.905 -19.229  1.00  0.00     0.000 C 
BRANCH  11  12
ATOM     12  C   UNL     1      34.575  26.342 -19.055  1.00  0.00     0.006 C 
BRANCH  12  13
ATOM     13  C   UNL     1      35.689  26.732 -20.040  1.00  0.00     0.053 C 
BRANCH  13  14
ATOM     14  C   UNL     1      36.954  27.112 -19.332  1.00  0.00     0.041 C 
ATOM     15  O   UNL     1      37.694  28.019 -19.797  1.00  0.00    -0.550 OA
ATOM     16  O   UNL     1      37.307  26.475 -18.148  1.00  0.00    -0.550 OA
ENDBRANCH  13  14
ENDBRANCH  12  13
ENDBRANCH  11  12
ENDBRANCH  10  11
ENDBRANCH   9  10
ENDBRANCH   8   9
ENDBRANCH   7   8
ENDBRANCH   6   7
ENDBRANCH   5   6
ENDBRANCH   4   5
ENDBRANCH   3   4
ENDBRANCH   2   3
ENDBRANCH   1   2
BRANCH   1  17
ATOM     17  C   UNL     1      27.078  23.839 -20.689  1.00  0.00     0.000 C 
BRANCH  17  18
ATOM     18  C   UNL     1      26.131  24.878 -20.072  1.00  0.00     0.000 C 
BRANCH  18  19
ATOM     19  C   UNL     1      26.075  24.803 -18.536  1.00  0.00     0.000 C 
BRANCH  19  20
ATOM     20  C   UNL     1      26.804  25.945 -17.803  1.00  0.00     0.000 C 
BRANCH  20  21
ATOM     21  C   UNL     1      27.298  25.541 -16.406  1.00  0.00     0.000 C 
BRANCH  21  22
ATOM     22  C   UNL     1      26.206  24.792 -15.632  1.00  0.00    -0.000 C 
BRANCH  22  23
ATOM     23  C   UNL     1      26.743  24.264 -14.294  1.00  0.00    -0.000 C 
BRANCH  23  24
ATOM     24  C   UNL     1      27.596  25.300 -13.540  1.00  0.00    -0.000 C 
BRANCH  24  25
ATOM     25  C   UNL     1      28.893  24.746 -12.917  1.00  0.00    -0.000 C 
BRANCH  25  26
ATOM     26  C   UNL     1      30.180  25.492 -13.319  1.00  0.00    -0.000 C 
BRANCH  26  27
ATOM     27  C   UNL     1      29.960  26.768 -14.156  1.00  0.00    -0.000 C 
BRANCH  27  28
ATOM     28  C   UNL     1      30.989  26.995 -15.277  1.00  0.00    -0.000 C 
BRANCH  28  29
ATOM     29  C   UNL     1      30.343  27.113 -16.665  1.00  0.00    -0.003 C 
ATOM     30  C   UNL     1      29.468  28.360 -16.761  1.00  0.00     0.004 C 
ENDBRANCH  28  29
ENDBRANCH  27  28
ENDBRANCH  26  27
ENDBRANCH  25  26
ENDBRANCH  24  25
ENDBRANCH  23  24
ENDBRANCH  22  23
ENDBRANCH  21  22
ENDBRANCH  20  21
ENDBRANCH  19  20
ENDBRANCH  18  19
ENDBRANCH  17  18
ENDBRANCH   1  17
TORSDOF 26
ENDMDL
MODEL 3
REMARK VINA RESULT:    -3.856      2.118      5.532
REMARK INTER + INTRA:         -14.244
REMARK INTER:                 -10.291
REMARK INTRA:                  -3.953
REMARK UNBOUND:                -4.526
REMARK SMILES CCCCCCCCCCCCCCCCCCCCCCCCCCCC(=O)[O-]
REMARK SMILES IDX 15 1 16 2 17 3 18 4 19 5 20 6 21 7 22 8 23 9 24 10 25 11
REMARK SMILES IDX 26 12 27 13 28 14 29 15 30 16 14 17 13 18 12 19 11 20 10 21
REMARK SMILES IDX 9 22 8 23 7 24 6 25 5 26 4 27 3 28 2 29 1 30
REMARK H PARENT
REMARK Flexibility Score: inf
ROOT
ATOM      1  C   UNL     1      30.568  26.706 -14.601  1.00  0.00     0.000 C 
ENDROOT
BRANCH   1   2
ATOM      2  C   UNL     1      30.278  27.430 -15.922  1.00  0.00     0.000 C 
BRANCH   2   3
ATOM      3  C   UNL     1      30.979  26.782 -17.128  1.00  0.00     0.000 C 
BRANCH   3   4
ATOM      4  C   UNL     1      31.166  25.256 -16.993  1.00  0.00     0.000 C 
BRANCH   4   5
ATOM      5  C   UNL     1      32.651  24.851 -16.964  1.00  0.00     0.000 C 
BRANCH   5   6
ATOM      6  C   UNL     1      33.587  26.072 -16.827  1.00  0.00     0.000 C 
BRANCH   6   7
ATOM      7  C   UNL     1      34.843  25.985 -17.709  1.00  0.00     0.000 C 
BRANCH   7   8
ATOM      8  C   UNL     1      34.581  26.403 -19.164  1.00  0.00     0.000 C 
BRANCH   8   9
ATOM      9  C   UNL     1      35.889  26.473 -19.961  1.00  0.00     0.000 C 
BRANCH   9  10
ATOM     10  C   UNL     1      36.026  27.825 -20.676  1.00  0.00     0.000 C 
BRANCH  10  11
ATOM     11  C   UNL     1      36.958  28.803 -19.938  1.00  0.00     0.000 C 
BRANCH  11  12
ATOM     12  C   UNL     1      38.425  28.342 -19.818  1.00  0.00     0.006 C 
BRANCH  12  13
ATOM     13  C   UNL     1      39.123  28.768 -18.517  1.00  0.00     0.053 C 
BRANCH  13  14
ATOM     14  C   UNL     1      38.672  27.949 -17.346  1.00  0.00     0.041 C 
ATOM     15  O   UNL     1      38.385  26.732 -17.496  1.00  0.00    -0.550 OA
ATOM     16  O   UNL     1      38.583  28.527 -16.085  1.00  0.00    -0.550 OA
ENDBRANCH  13  14
ENDBRANCH  12  13
ENDBRANCH  11  12
ENDBRANCH  10  11
ENDBRANCH   9  10
ENDBRANCH   8   9
ENDBRANCH   7   8
ENDBRANCH   6   7
ENDBRANCH   5   6
ENDBRANCH   4   5
ENDBRANCH   3   4
ENDBRANCH   2   3
ENDBRANCH   1   2
BRANCH   1  17
ATOM     17  C   UNL     1      29.292  26.548 -13.766  1.00  0.00     0.000 C 
BRANCH  17  18
ATOM     18  C   UNL     1      28.064  26.364 -14.668  1.00  0.00     0.000 C 
BRANCH  18  19
ATOM     19  C   UNL     1      27.821  24.895 -15.061  1.00  0.00     0.000 C 
BRANCH  19  20
ATOM     20  C   UNL     1      27.471  24.668 -16.544  1.00  0.00     0.000 C 
BRANCH  20  21
ATOM     21  C   UNL     1      27.232  25.977 -17.310  1.00  0.00     0.000 C 
BRANCH  21  22
ATOM     22  C   UNL     1      26.343  25.741 -18.537  1.00  0.00    -0.000 C 
BRANCH  22  23
ATOM     23  C   UNL     1      26.396  24.271 -18.981  1.00  0.00    -0.000 C 
BRANCH  23  24
ATOM     24  C   UNL     1      26.932  24.097 -20.414  1.00  0.00    -0.000 C 
BRANCH  24  25
ATOM     25  C   UNL     1      28.146  23.157 -20.544  1.00  0.00    -0.000 C 
BRANCH  25  26
ATOM     26  C   UNL     1      29.272  23.399 -19.519  1.00  0.00    -0.000 C 
BRANCH  26  27
ATOM     27  C   UNL     1      30.647  22.825 -19.912  1.00  0.00    -0.000 C 
BRANCH  27  28
ATOM     28  C   UNL     1      31.667  23.863 -20.410  1.00  0.00    -0.000 C 
BRANCH  28  29
ATOM     29  C   UNL     1      33.063  23.266 -20.642  1.00  0.00    -0.003 C 
ATOM     30  C   UNL     1      33.650  23.741 -21.968  1.00  0.00     0.004 C 
ENDBRANCH  28  29
ENDBRANCH  27  28
ENDBRANCH  26  27
ENDBRANCH  25  26
ENDBRANCH  24  25
ENDBRANCH  23  24
ENDBRANCH  22  23
ENDBRANCH  21  22
ENDBRANCH  20  21
ENDBRANCH  19  20
ENDBRANCH  18  19
ENDBRANCH  17  18
ENDBRANCH   1  17
TORSDOF 26
ENDMDL
MODEL 4
REMARK VINA RESULT:    -3.850      1.375      3.693
REMARK INTER + INTRA:         -14.228
REMARK INTER:                  -8.507
REMARK INTRA:                  -5.721
REMARK UNBOUND:                -4.526
REMARK SMILES CCCCCCCCCCCCCCCCCCCCCCCCCCCC(=O)[O-]
REMARK SMILES IDX 15 1 16 2 17 3 18 4 19 5 20 6 21 7 22 8 23 9 24 10 25 11
REMARK SMILES IDX 26 12 27 13 28 14 29 15 30 16 14 17 13 18 12 19 11 20 10 21
REMARK SMILES IDX 9 22 8 23 7 24 6 25 5 26 4 27 3 28 2 29 1 30
REMARK H PARENT
REMARK Flexibility Score: inf
ROOT
ATOM      1  C   UNL     1      28.038  27.001 -16.746  1.00  0.00     0.000 C 
ENDROOT
BRANCH   1   2
ATOM      2  C   UNL     1      28.082  25.615 -17.403  1.00  0.00     0.000 C 
BRANCH   2   3
ATOM      3  C   UNL     1      26.718  25.172 -17.960  1.00  0.00     0.000 C 
BRANCH   3   4
ATOM      4  C   UNL     1      26.816  24.094 -19.060  1.00  0.00     0.000 C 
BRANCH   4   5
ATOM      5  C   UNL     1      28.227  24.012 -19.673  1.00  0.00     0.000 C 
BRANCH   5   6
ATOM      6  C   UNL     1      28.762  22.564 -19.715  1.00  0.00     0.000 C 
BRANCH   6   7
ATOM      7  C   UNL     1      30.276  22.461 -19.465  1.00  0.00     0.000 C 
BRANCH   7   8
ATOM      8  C   UNL     1      31.012  23.786 -19.711  1.00  0.00     0.000 C 
BRANCH   8   9
ATOM      9  C   UNL     1      32.086  24.025 -18.643  1.00  0.00     0.000 C 
BRANCH   9  10
ATOM     10  C   UNL     1      32.103  25.496 -18.200  1.00  0.00     0.000 C 
BRANCH  10  11
ATOM     11  C   UNL     1      33.208  26.317 -18.889  1.00  0.00     0.000 C 
BRANCH  11  12
ATOM     12  C   UNL     1      34.650  25.875 -18.563  1.00  0.00     0.006 C 
BRANCH  12  13
ATOM     13  C   UNL     1      34.965  25.784 -17.061  1.00  0.00     0.053 C 
BRANCH  13  14
ATOM     14  C   UNL     1      36.419  26.015 -16.780  1.00  0.00     0.041 C 
ATOM     15  O   UNL     1      37.268  25.913 -17.704  1.00  0.00    -0.550 OA
ATOM     16  O   UNL     1      36.834  26.357 -15.498  1.00  0.00    -0.550 OA
ENDBRANCH  13  14
ENDBRANCH  12  13
ENDBRANCH  11  12
ENDBRANCH  10  11
ENDBRANCH   9  10
ENDBRANCH   8   9
ENDBRANCH   7   8
ENDBRANCH   6   7
ENDBRANCH   5   6
ENDBRANCH   4   5
ENDBRANCH   3   4
ENDBRANCH   2   3
ENDBRANCH   1   2
BRANCH   1  17
ATOM     17  C   UNL     1      29.447  27.485 -16.384  1.00  0.00     0.000 C 
BRANCH  17  18
ATOM     18  C   UNL     1      29.984  26.742 -15.152  1.00  0.00     0.000 C 
BRANCH  18  19
ATOM     19  C   UNL     1      29.003  26.757 -13.966  1.00  0.00     0.000 C 
BRANCH  19  20
ATOM     20  C   UNL     1      29.316  25.743 -12.850  1.00  0.00     0.000 C 
BRANCH  20  21
ATOM     21  C   UNL     1      28.184  24.732 -12.624  1.00  0.00     0.000 C 
BRANCH  21  22
ATOM     22  C   UNL     1      27.013  24.995 -13.578  1.00  0.00    -0.000 C 
BRANCH  22  23
ATOM     23  C   UNL     1      26.762  23.784 -14.490  1.00  0.00    -0.000 C 
BRANCH  23  24
ATOM     24  C   UNL     1      27.866  22.716 -14.384  1.00  0.00    -0.000 C 
BRANCH  24  25
ATOM     25  C   UNL     1      28.566  22.370 -15.714  1.00  0.00    -0.000 C 
BRANCH  25  26
ATOM     26  C   UNL     1      29.932  23.052 -15.928  1.00  0.00    -0.000 C 
BRANCH  26  27
ATOM     27  C   UNL     1      30.861  23.053 -14.698  1.00  0.00    -0.000 C 
BRANCH  27  28
ATOM     28  C   UNL     1      32.184  23.815 -14.883  1.00  0.00    -0.000 C 
BRANCH  28  29
ATOM     29  C   UNL     1      32.682  24.472 -13.588  1.00  0.00    -0.003 C 
ATOM     30  C   UNL     1      33.254  25.860 -13.860  1.00  0.00     0.004 C 
ENDBRANCH  28  29
ENDBRANCH  27  28
ENDBRANCH  26  27
ENDBRANCH  25  26
ENDBRANCH  24  25
ENDBRANCH  23  24
ENDBRANCH  22  23
ENDBRANCH  21  22
ENDBRANCH  20  21
ENDBRANCH  19  20
ENDBRANCH  18  19
ENDBRANCH  17  18
ENDBRANCH   1  17
TORSDOF 26
ENDMDL
MODEL 5
REMARK VINA RESULT:    -3.815      1.143      2.309
REMARK INTER + INTRA:         -14.140
REMARK INTER:                  -8.761
REMARK INTRA:                  -5.379
REMARK UNBOUND:                -4.526
REMARK SMILES CCCCCCCCCCCCCCCCCCCCCCCCCCCC(=O)[O-]
REMARK SMILES IDX 15 1 16 2 17 3 18 4 19 5 20 6 21 7 22 8 23 9 24 10 25 11
REMARK SMILES IDX 26 12 27 13 28 14 29 15 30 16 14 17 13 18 12 19 11 20 10 21
REMARK SMILES IDX 9 22 8 23 7 24 6 25 5 26 4 27 3 28 2 29 1 30
REMARK H PARENT
REMARK Flexibility Score: inf
ROOT
ATOM      1  C   UNL     1      28.032  25.700 -17.134  1.00  0.00     0.000 C 
ENDROOT
BRANCH   1   2
ATOM      2  C   UNL     1      26.696  25.214 -17.713  1.00  0.00     0.000 C 
BRANCH   2   3
ATOM      3  C   UNL     1      26.872  24.233 -18.884  1.00  0.00     0.000 C 
BRANCH   3   4
ATOM      4  C   UNL     1      28.344  24.009 -19.293  1.00  0.00     0.000 C 
BRANCH   4   5
ATOM      5  C   UNL     1      28.829  22.583 -18.973  1.00  0.00     0.000 C 
BRANCH   5   6
ATOM      6  C   UNL     1      30.364  22.450 -19.084  1.00  0.00     0.000 C 
BRANCH   6   7
ATOM      7  C   UNL     1      31.124  23.702 -18.616  1.00  0.00     0.000 C 
BRANCH   7   8
ATOM      8  C   UNL     1      32.143  24.202 -19.651  1.00  0.00     0.000 C 
BRANCH   8   9
ATOM      9  C   UNL     1      33.576  24.062 -19.125  1.00  0.00     0.000 C 
BRANCH   9  10
ATOM     10  C   UNL     1      33.701  24.641 -17.707  1.00  0.00     0.000 C 
BRANCH  10  11
ATOM     11  C   UNL     1      34.800  25.712 -17.591  1.00  0.00     0.000 C 
BRANCH  11  12
ATOM     12  C   UNL     1      35.219  26.064 -16.149  1.00  0.00     0.006 C 
BRANCH  12  13
ATOM     13  C   UNL     1      36.644  25.626 -15.775  1.00  0.00     0.053 C 
BRANCH  13  14
ATOM     14  C   UNL     1      37.684  26.454 -16.466  1.00  0.00     0.041 C 
ATOM     15  O   UNL     1      37.964  27.606 -16.040  1.00  0.00    -0.550 OA
ATOM     16  O   UNL     1      38.355  25.948 -17.573  1.00  0.00    -0.550 OA
ENDBRANCH  13  14
ENDBRANCH  12  13
ENDBRANCH  11  12
ENDBRANCH  10  11
ENDBRANCH   9  10
ENDBRANCH   8   9
ENDBRANCH   7   8
ENDBRANCH   6   7
ENDBRANCH   5   6
ENDBRANCH   4   5
ENDBRANCH   3   4
ENDBRANCH   2   3
ENDBRANCH   1   2
BRANCH   1  17
ATOM     17  C   UNL     1      27.979  27.196 -16.805  1.00  0.00     0.000 C 
BRANCH  17  18
ATOM     18  C   UNL     1      29.372  27.729 -16.441  1.00  0.00     0.000 C 
BRANCH  18  19
ATOM     19  C   UNL     1      30.506  26.765 -16.836  1.00  0.00     0.000 C 
BRANCH  19  20
ATOM     20  C   UNL     1      31.309  26.187 -15.655  1.00  0.00     0.000 C 
BRANCH  20  21
ATOM     21  C   UNL     1      30.950  26.838 -14.312  1.00  0.00     0.000 C 
BRANCH  21  22
ATOM     22  C   UNL     1      30.165  25.867 -13.422  1.00  0.00    -0.000 C 
BRANCH  22  23
ATOM     23  C   UNL     1      28.837  26.490 -12.965  1.00  0.00    -0.000 C 
BRANCH  23  24
ATOM     24  C   UNL     1      27.608  25.681 -13.418  1.00  0.00    -0.000 C 
BRANCH  24  25
ATOM     25  C   UNL     1      27.762  24.151 -13.312  1.00  0.00    -0.000 C 
BRANCH  25  26
ATOM     26  C   UNL     1      27.201  23.355 -14.507  1.00  0.00    -0.000 C 
BRANCH  26  27
ATOM     27  C   UNL     1      28.181  22.343 -15.134  1.00  0.00    -0.000 C 
BRANCH  27  28
ATOM     28  C   UNL     1      29.594  22.889 -15.404  1.00  0.00    -0.000 C 
BRANCH  28  29
ATOM     29  C   UNL     1      30.681  22.153 -14.607  1.00  0.00    -0.003 C 
ATOM     30  C   UNL     1      32.075  22.612 -15.025  1.00  0.00     0.004 C 
ENDBRANCH  28  29
ENDBRANCH  27  28
ENDBRANCH  26  27
ENDBRANCH  25  26
ENDBRANCH  24  25
ENDBRANCH  23  24
ENDBRANCH  22  23
ENDBRANCH  21  22
ENDBRANCH  20  21
ENDBRANCH  19  20
ENDBRANCH  18  19
ENDBRANCH  17  18
ENDBRANCH   1  17
TORSDOF 26
ENDMDL
MODEL 6
REMARK VINA RESULT:    -3.801      4.021      9.524
REMARK INTER + INTRA:         -14.104
REMARK INTER:                 -10.277
REMARK INTRA:                  -3.827
REMARK UNBOUND:                -4.526
REMARK SMILES CCCCCCCCCCCCCCCCCCCCCCCCCCCC(=O)[O-]
REMARK SMILES IDX 15 1 16 2 17 3 18 4 19 5 20 6 21 7 22 8 23 9 24 10 25 11
REMARK SMILES IDX 26 12 27 13 28 14 29 15 30 16 14 17 13 18 12 19 11 20 10 21
REMARK SMILES IDX 9 22 8 23 7 24 6 25 5 26 4 27 3 28 2 29 1 30
REMARK H PARENT
REMARK Flexibility Score: inf
ROOT
ATOM      1  C   UNL     1      33.317  25.288 -17.571  1.00  0.00     0.000 C 
ENDROOT
BRANCH   1   2
ATOM      2  C   UNL     1      31.937  25.938 -17.417  1.00  0.00     0.000 C 
BRANCH   2   3
ATOM      3  C   UNL     1      31.430  25.934 -15.965  1.00  0.00     0.000 C 
BRANCH   3   4
ATOM      4  C   UNL     1      30.620  27.192 -15.585  1.00  0.00     0.000 C 
BRANCH   4   5
ATOM      5  C   UNL     1      29.715  27.673 -16.735  1.00  0.00     0.000 C 
BRANCH   5   6
ATOM      6  C   UNL     1      28.277  27.122 -16.615  1.00  0.00     0.000 C 
BRANCH   6   7
ATOM      7  C   UNL     1      27.862  26.797 -15.170  1.00  0.00     0.000 C 
BRANCH   7   8
ATOM      8  C   UNL     1      27.213  25.412 -15.034  1.00  0.00     0.000 C 
BRANCH   8   9
ATOM      9  C   UNL     1      28.271  24.331 -14.785  1.00  0.00     0.000 C 
BRANCH   9  10
ATOM     10  C   UNL     1      28.050  23.122 -15.707  1.00  0.00     0.000 C 
BRANCH  10  11
ATOM     11  C   UNL     1      29.144  22.980 -16.781  1.00  0.00     0.000 C 
BRANCH  11  12
ATOM     12  C   UNL     1      28.974  23.896 -18.010  1.00  0.00     0.006 C 
BRANCH  12  13
ATOM     13  C   UNL     1      27.543  23.958 -18.568  1.00  0.00     0.053 C 
BRANCH  13  14
ATOM     14  C   UNL     1      27.499  23.643 -20.032  1.00  0.00     0.041 C 
ATOM     15  O   UNL     1      26.789  24.335 -20.808  1.00  0.00    -0.550 OA
ATOM     16  O   UNL     1      28.255  22.594 -20.541  1.00  0.00    -0.550 OA
ENDBRANCH  13  14
ENDBRANCH  12  13
ENDBRANCH  11  12
ENDBRANCH  10  11
ENDBRANCH   9  10
ENDBRANCH   8   9
ENDBRANCH   7   8
ENDBRANCH   6   7
ENDBRANCH   5   6
ENDBRANCH   4   5
ENDBRANCH   3   4
ENDBRANCH   2   3
ENDBRANCH   1   2
BRANCH   1  17
ATOM     17  C   UNL     1      34.434  26.333 -17.474  1.00  0.00     0.000 C 
BRANCH  17  18
ATOM     18  C   UNL     1      35.416  25.986 -16.346  1.00  0.00     0.000 C 
BRANCH  18  19
ATOM     19  C   UNL     1      36.259  24.734 -16.647  1.00  0.00     0.000 C 
BRANCH  19  20
ATOM     20  C   UNL     1      37.781  24.927 -16.511  1.00  0.00     0.000 C 
BRANCH  20  21
ATOM     21  C   UNL     1      38.173  26.367 -16.152  1.00  0.00     0.000 C 
BRANCH  21  22
ATOM     22  C   UNL     1      38.871  27.057 -17.330  1.00  0.00    -0.000 C 
BRANCH  22  23
ATOM     23  C   UNL     1      38.846  28.584 -17.168  1.00  0.00    -0.000 C 
BRANCH  23  24
ATOM     24  C   UNL     1      39.715  29.312 -18.209  1.00  0.00    -0.000 C 
BRANCH  24  25
ATOM     25  C   UNL     1      40.711  28.412 -18.968  1.00  0.00    -0.000 C 
BRANCH  25  26
ATOM     26  C   UNL     1      40.792  28.665 -20.486  1.00  0.00    -0.000 C 
BRANCH  26  27
ATOM     27  C   UNL     1      39.522  28.295 -21.278  1.00  0.00    -0.000 C 
BRANCH  27  28
ATOM     28  C   UNL     1      38.919  26.922 -20.934  1.00  0.00    -0.000 C 
BRANCH  28  29
ATOM     29  C   UNL     1      37.385  26.908 -21.008  1.00  0.00    -0.003 C 
ATOM     30  C   UNL     1      36.788  28.102 -20.268  1.00  0.00     0.004 C 
ENDBRANCH  28  29
ENDBRANCH  27  28
ENDBRANCH  26  27
ENDBRANCH  25  26
ENDBRANCH  24  25
ENDBRANCH  23  24
ENDBRANCH  22  23
ENDBRANCH  21  22
ENDBRANCH  20  21
ENDBRANCH  19  20
ENDBRANCH  18  19
ENDBRANCH  17  18
ENDBRANCH   1  17
TORSDOF 26
ENDMDL
MODEL 7
REMARK VINA RESULT:    -3.795      3.609      7.629
REMARK INTER + INTRA:         -14.088
REMARK INTER:                  -8.820
REMARK INTRA:                  -5.268
REMARK UNBOUND:                -4.526
REMARK SMILES CCCCCCCCCCCCCCCCCCCCCCCCCCCC(=O)[O-]
REMARK SMILES IDX 15 1 16 2 17 3 18 4 19 5 20 6 21 7 22 8 23 9 24 10 25 11
REMARK SMILES IDX 26 12 27 13 28 14 29 15 30 16 14 17 13 18 12 19 11 20 10 21
REMARK SMILES IDX 9 22 8 23 7 24 6 25 5 26 4 27 3 28 2 29 1 30
REMARK H PARENT
REMARK Flexibility Score: inf
ROOT
ATOM      1  C   UNL     1      28.179  27.427 -16.419  1.00  0.00     0.000 C 
ENDROOT
BRANCH   1   2
ATOM      2  C   UNL     1      28.114  26.107 -15.640  1.00  0.00     0.000 C 
BRANCH   2   3
ATOM      3  C   UNL     1      27.759  26.302 -14.157  1.00  0.00     0.000 C 
BRANCH   3   4
ATOM      4  C   UNL     1      28.956  26.733 -13.282  1.00  0.00     0.000 C 
BRANCH   4   5
ATOM      5  C   UNL     1      29.503  25.572 -12.430  1.00  0.00     0.000 C 
BRANCH   5   6
ATOM      6  C   UNL     1      31.017  25.354 -12.647  1.00  0.00     0.000 C 
BRANCH   6   7
ATOM      7  C   UNL     1      31.370  23.939 -13.135  1.00  0.00     0.000 C 
BRANCH   7   8
ATOM      8  C   UNL     1      30.499  23.481 -14.315  1.00  0.00     0.000 C 
BRANCH   8   9
ATOM      9  C   UNL     1      31.286  22.558 -15.253  1.00  0.00     0.000 C 
BRANCH   9  10
ATOM     10  C   UNL     1      30.635  22.503 -16.643  1.00  0.00     0.000 C 
BRANCH  10  11
ATOM     11  C   UNL     1      29.182  23.010 -16.647  1.00  0.00     0.000 C 
BRANCH  11  12
ATOM     12  C   UNL     1      28.444  22.869 -17.994  1.00  0.00     0.006 C 
BRANCH  12  13
ATOM     13  C   UNL     1      28.301  24.180 -18.783  1.00  0.00     0.053 C 
BRANCH  13  14
ATOM     14  C   UNL     1      26.877  24.451 -19.165  1.00  0.00     0.041 C 
ATOM     15  O   UNL     1      26.054  24.854 -18.301  1.00  0.00    -0.550 OA
ATOM     16  O   UNL     1      26.463  24.272 -20.479  1.00  0.00    -0.550 OA
ENDBRANCH  13  14
ENDBRANCH  12  13
ENDBRANCH  11  12
ENDBRANCH  10  11
ENDBRANCH   9  10
ENDBRANCH   8   9
ENDBRANCH   7   8
ENDBRANCH   6   7
ENDBRANCH   5   6
ENDBRANCH   4   5
ENDBRANCH   3   4
ENDBRANCH   2   3
ENDBRANCH   1   2
BRANCH   1  17
ATOM     17  C   UNL     1      29.630  27.825 -16.711  1.00  0.00     0.000 C 
BRANCH  17  18
ATOM     18  C   UNL     1      30.539  26.589 -16.766  1.00  0.00     0.000 C 
BRANCH  18  19
ATOM     19  C   UNL     1      31.783  26.718 -15.868  1.00  0.00     0.000 C 
BRANCH  19  20
ATOM     20  C   UNL     1      32.911  25.714 -16.174  1.00  0.00     0.000 C 
BRANCH  20  21
ATOM     21  C   UNL     1      34.005  25.697 -15.097  1.00  0.00     0.000 C 
BRANCH  21  22
ATOM     22  C   UNL     1      34.631  24.303 -14.972  1.00  0.00    -0.000 C 
BRANCH  22  23
ATOM     23  C   UNL     1      35.835  24.323 -14.018  1.00  0.00    -0.000 C 
BRANCH  23  24
ATOM     24  C   UNL     1      36.428  25.732 -13.832  1.00  0.00    -0.000 C 
BRANCH  24  25
ATOM     25  C   UNL     1      37.860  25.912 -14.373  1.00  0.00    -0.000 C 
BRANCH  25  26
ATOM     26  C   UNL     1      37.999  26.923 -15.528  1.00  0.00    -0.000 C 
BRANCH  26  27
ATOM     27  C   UNL     1      37.401  26.463 -16.873  1.00  0.00    -0.000 C 
BRANCH  27  28
ATOM     28  C   UNL     1      37.717  25.008 -17.261  1.00  0.00    -0.000 C 
BRANCH  28  29
ATOM     29  C   UNL     1      36.630  24.375 -18.141  1.00  0.00    -0.003 C 
ATOM     30  C   UNL     1      35.604  25.415 -18.581  1.00  0.00     0.004 C 
ENDBRANCH  28  29
ENDBRANCH  27  28
ENDBRANCH  26  27
ENDBRANCH  25  26
ENDBRANCH  24  25
ENDBRANCH  23  24
ENDBRANCH  22  23
ENDBRANCH  21  22
ENDBRANCH  20  21
ENDBRANCH  19  20
ENDBRANCH  18  19
ENDBRANCH  17  18
ENDBRANCH   1  17
TORSDOF 26
ENDMDL
MODEL 8
REMARK VINA RESULT:    -3.791      3.318      5.964
REMARK INTER + INTRA:         -14.079
REMARK INTER:                  -8.479
REMARK INTRA:                  -5.600
REMARK UNBOUND:                -4.526
REMARK SMILES CCCCCCCCCCCCCCCCCCCCCCCCCCCC(=O)[O-]
REMARK SMILES IDX 15 1 16 2 17 3 18 4 19 5 20 6 21 7 22 8 23 9 24 10 25 11
REMARK SMILES IDX 26 12 27 13 28 14 29 15 30 16 14 17 13 18 12 19 11 20 10 21
REMARK SMILES IDX 9 22 8 23 7 24 6 25 5 26 4 27 3 28 2 29 1 30
REMARK H PARENT
REMARK Flexibility Score: inf
ROOT
ATOM      1  C   UNL     1      27.380  26.024 -17.121  1.00  0.00     0.000 C 
ENDROOT
BRANCH   1   2
ATOM      2  C   UNL     1      26.370  25.625 -18.205  1.00  0.00     0.000 C 
BRANCH   2   3
ATOM      3  C   UNL     1      26.838  24.427 -19.049  1.00  0.00     0.000 C 
BRANCH   3   4
ATOM      4  C   UNL     1      28.159  23.798 -18.557  1.00  0.00     0.000 C 
BRANCH   4   5
ATOM      5  C   UNL     1      28.822  22.918 -19.634  1.00  0.00     0.000 C 
BRANCH   5   6
ATOM      6  C   UNL     1      30.305  22.626 -19.316  1.00  0.00     0.000 C 
BRANCH   6   7
ATOM      7  C   UNL     1      31.001  23.757 -18.541  1.00  0.00     0.000 C 
BRANCH   7   8
ATOM      8  C   UNL     1      31.413  23.341 -17.122  1.00  0.00     0.000 C 
BRANCH   8   9
ATOM      9  C   UNL     1      31.026  21.884 -16.841  1.00  0.00     0.000 C 
BRANCH   9  10
ATOM     10  C   UNL     1      30.176  21.776 -15.566  1.00  0.00     0.000 C 
BRANCH  10  11
ATOM     11  C   UNL     1      29.373  23.055 -15.270  1.00  0.00     0.000 C 
BRANCH  11  12
ATOM     12  C   UNL     1      27.904  22.823 -14.861  1.00  0.00     0.006 C 
BRANCH  12  13
ATOM     13  C   UNL     1      27.219  24.043 -14.224  1.00  0.00     0.053 C 
BRANCH  13  14
ATOM     14  C   UNL     1      27.189  23.951 -12.729  1.00  0.00     0.041 C 
ATOM     15  O   UNL     1      27.256  22.829 -12.161  1.00  0.00    -0.550 OA
ATOM     16  O   UNL     1      27.103  25.107 -11.962  1.00  0.00    -0.550 OA
ENDBRANCH  13  14
ENDBRANCH  12  13
ENDBRANCH  11  12
ENDBRANCH  10  11
ENDBRANCH   9  10
ENDBRANCH   8   9
ENDBRANCH   7   8
ENDBRANCH   6   7
ENDBRANCH   5   6
ENDBRANCH   4   5
ENDBRANCH   3   4
ENDBRANCH   2   3
ENDBRANCH   1   2
BRANCH   1  17
ATOM     17  C   UNL     1      27.605  27.541 -17.106  1.00  0.00     0.000 C 
BRANCH  17  18
ATOM     18  C   UNL     1      29.058  27.878 -16.743  1.00  0.00     0.000 C 
BRANCH  18  19
ATOM     19  C   UNL     1      29.900  26.632 -16.414  1.00  0.00     0.000 C 
BRANCH  19  20
ATOM     20  C   UNL     1      30.677  26.704 -15.086  1.00  0.00     0.000 C 
BRANCH  20  21
ATOM     21  C   UNL     1      29.760  26.687 -13.855  1.00  0.00     0.000 C 
BRANCH  21  22
ATOM     22  C   UNL     1      30.551  26.344 -12.586  1.00  0.00    -0.000 C 
BRANCH  22  23
ATOM     23  C   UNL     1      30.836  24.836 -12.505  1.00  0.00    -0.000 C 
BRANCH  23  24
ATOM     24  C   UNL     1      32.339  24.507 -12.554  1.00  0.00    -0.000 C 
BRANCH  24  25
ATOM     25  C   UNL     1      32.799  23.754 -13.817  1.00  0.00    -0.000 C 
BRANCH  25  26
ATOM     26  C   UNL     1      34.110  24.271 -14.443  1.00  0.00    -0.000 C 
BRANCH  26  27
ATOM     27  C   UNL     1      34.103  25.762 -14.834  1.00  0.00    -0.000 C 
BRANCH  27  28
ATOM     28  C   UNL     1      35.216  26.183 -15.809  1.00  0.00    -0.000 C 
BRANCH  28  29
ATOM     29  C   UNL     1      34.985  25.668 -17.237  1.00  0.00    -0.003 C 
ATOM     30  C   UNL     1      33.644  26.149 -17.785  1.00  0.00     0.004 C 
ENDBRANCH  28  29
ENDBRANCH  27  28
ENDBRANCH  26  27
ENDBRANCH  25  26
ENDBRANCH  24  25
ENDBRANCH  23  24
ENDBRANCH  22  23
ENDBRANCH  21  22
ENDBRANCH  20  21
ENDBRANCH  19  20
ENDBRANCH  18  19
ENDBRANCH  17  18
ENDBRANCH   1  17
TORSDOF 26
ENDMDL
MODEL 9
REMARK VINA RESULT:    -3.736      1.810      4.274
REMARK INTER + INTRA:         -13.940
REMARK INTER:                  -9.220
REMARK INTRA:                  -4.720
REMARK UNBOUND:                -4.526
REMARK SMILES CCCCCCCCCCCCCCCCCCCCCCCCCCCC(=O)[O-]
REMARK SMILES IDX 15 1 16 2 17 3 18 4 19 5 20 6 21 7 22 8 23 9 24 10 25 11
REMARK SMILES IDX 26 12 27 13 28 14 29 15 30 16 14 17 13 18 12 19 11 20 10 21
REMARK SMILES IDX 9 22 8 23 7 24 6 25 5 26 4 27 3 28 2 29 1 30
REMARK H PARENT
REMARK Flexibility Score: inf
ROOT
ATOM      1  C   UNL     1      27.680  27.393 -16.692  1.00  0.00     0.000 C 
ENDROOT
BRANCH   1   2
ATOM      2  C   UNL     1      29.112  27.936 -16.788  1.00  0.00     0.000 C 
BRANCH   2   3
ATOM      3  C   UNL     1      30.145  27.029 -16.098  1.00  0.00     0.000 C 
BRANCH   3   4
ATOM      4  C   UNL     1      31.287  26.568 -17.028  1.00  0.00     0.000 C 
BRANCH   4   5
ATOM      5  C   UNL     1      32.621  26.403 -16.276  1.00  0.00     0.000 C 
BRANCH   5   6
ATOM      6  C   UNL     1      33.775  25.995 -17.218  1.00  0.00     0.000 C 
BRANCH   6   7
ATOM      7  C   UNL     1      35.023  25.488 -16.477  1.00  0.00     0.000 C 
BRANCH   7   8
ATOM      8  C   UNL     1      34.945  25.707 -14.959  1.00  0.00     0.000 C 
BRANCH   8   9
ATOM      9  C   UNL     1      36.339  25.650 -14.322  1.00  0.00     0.000 C 
BRANCH   9  10
ATOM     10  C   UNL     1      37.437  25.741 -15.392  1.00  0.00     0.000 C 
BRANCH  10  11
ATOM     11  C   UNL     1      38.455  26.861 -15.114  1.00  0.00     0.000 C 
BRANCH  11  12
ATOM     12  C   UNL     1      38.431  28.030 -16.121  1.00  0.00     0.006 C 
BRANCH  12  13
ATOM     13  C   UNL     1      38.551  27.605 -17.593  1.00  0.00     0.053 C 
BRANCH  13  14
ATOM     14  C   UNL     1      38.743  28.782 -18.501  1.00  0.00     0.041 C 
ATOM     15  O   UNL     1      39.704  29.575 -18.317  1.00  0.00    -0.550 OA
ATOM     16  O   UNL     1      37.869  28.993 -19.560  1.00  0.00    -0.550 OA
ENDBRANCH  13  14
ENDBRANCH  12  13
ENDBRANCH  11  12
ENDBRANCH  10  11
ENDBRANCH   9  10
ENDBRANCH   8   9
ENDBRANCH   7   8
ENDBRANCH   6   7
ENDBRANCH   5   6
ENDBRANCH   4   5
ENDBRANCH   3   4
ENDBRANCH   2   3
ENDBRANCH   1   2
BRANCH   1  17
ATOM     17  C   UNL     1      27.633  25.897 -17.024  1.00  0.00     0.000 C 
BRANCH  17  18
ATOM     18  C   UNL     1      26.748  25.140 -16.024  1.00  0.00     0.000 C 
BRANCH  18  19
ATOM     19  C   UNL     1      27.525  24.635 -14.795  1.00  0.00     0.000 C 
BRANCH  19  20
ATOM     20  C   UNL     1      27.242  25.400 -13.488  1.00  0.00     0.000 C 
BRANCH  20  21
ATOM     21  C   UNL     1      28.341  26.412 -13.137  1.00  0.00     0.000 C 
BRANCH  21  22
ATOM     22  C   UNL     1      29.404  25.777 -12.233  1.00  0.00    -0.000 C 
BRANCH  22  23
ATOM     23  C   UNL     1      30.809  25.948 -12.830  1.00  0.00    -0.000 C 
BRANCH  23  24
ATOM     24  C   UNL     1      31.509  24.606 -13.110  1.00  0.00    -0.000 C 
BRANCH  24  25
ATOM     25  C   UNL     1      30.929  23.802 -14.290  1.00  0.00    -0.000 C 
BRANCH  25  26
ATOM     26  C   UNL     1      31.970  23.047 -15.139  1.00  0.00    -0.000 C 
BRANCH  26  27
ATOM     27  C   UNL     1      31.568  22.816 -16.610  1.00  0.00    -0.000 C 
BRANCH  27  28
ATOM     28  C   UNL     1      30.085  23.074 -16.927  1.00  0.00    -0.000 C 
BRANCH  28  29
ATOM     29  C   UNL     1      29.799  23.138 -18.434  1.00  0.00    -0.003 C 
ATOM     30  C   UNL     1      30.994  23.703 -19.197  1.00  0.00     0.004 C 
ENDBRANCH  28  29
ENDBRANCH  27  28
ENDBRANCH  26  27
ENDBRANCH  25  26
ENDBRANCH  24  25
ENDBRANCH  23  24
ENDBRANCH  22  23
ENDBRANCH  21  22
ENDBRANCH  20  21
ENDBRANCH  19  20
ENDBRANCH  18  19
ENDBRANCH  17  18
ENDBRANCH   1  17
TORSDOF 26
ENDMDL
