MODEL 1
REMARK VINA RESULT:    -5.364      0.000      0.000
REMARK INTER + INTRA:          -5.521
REMARK INTER:                  -5.521
REMARK INTRA:                   0.000
REMARK UNBOUND:                 0.000
REMARK SMILES Cc1cccc(O)c1C
REMARK SMILES IDX 1 1 2 2 8 3 6 4 5 5 4 6 3 7 9 8 7 9
REMARK H PARENT 7 10
REMARK Flexibility Score: inf
ROOT
ATOM      1  C   UNL     1     -31.504  -9.203   3.601  1.00  0.00     0.045 C 
ATOM      2  C   UNL     1     -30.265  -9.908   3.114  1.00  0.00    -0.045 A 
ATOM      3  C   UNL     1     -29.246 -10.322   4.010  1.00  0.00    -0.006 A 
ATOM      4  C   UNL     1     -28.093 -10.959   3.499  1.00  0.00     0.118 A 
ATOM      5  C   UNL     1     -27.983 -11.215   2.127  1.00  0.00     0.046 A 
ATOM      6  C   UNL     1     -29.001 -10.835   1.254  1.00  0.00     0.004 A 
ATOM      7  C   UNL     1     -30.134 -10.187   1.742  1.00  0.00     0.004 A 
ATOM      8  C   UNL     1     -29.358 -10.036   5.489  1.00  0.00     0.048 C 
ENDROOT
BRANCH   4   9
ATOM      9  O   UNL     1     -27.058 -11.337   4.355  1.00  0.00    -0.508 OA
ATOM     10  H   UNL     1     -26.342 -10.682   4.646  1.00  0.00     0.293 HD
ENDBRANCH   4   9
TORSDOF 1
ENDMDL
MODEL 2
REMARK VINA RESULT:    -5.293      1.736      2.858
REMARK INTER + INTRA:          -5.448
REMARK INTER:                  -5.448
REMARK INTRA:                   0.000
REMARK UNBOUND:                 0.000
REMARK SMILES Cc1cccc(O)c1C
REMARK SMILES IDX 1 1 2 2 8 3 6 4 5 5 4 6 3 7 9 8 7 9
REMARK H PARENT 7 10
REMARK Flexibility Score: inf
ROOT
ATOM      1  C   UNL     1     -27.124 -11.503   4.337  1.00  0.00     0.045 C 
ATOM      2  C   UNL     1     -28.197 -11.001   3.407  1.00  0.00    -0.045 A 
ATOM      3  C   UNL     1     -29.317 -10.277   3.890  1.00  0.00    -0.006 A 
ATOM      4  C   UNL     1     -30.308  -9.848   2.978  1.00  0.00     0.118 A 
ATOM      5  C   UNL     1     -30.157 -10.100   1.609  1.00  0.00     0.046 A 
ATOM      6  C   UNL     1     -29.038 -10.783   1.136  1.00  0.00     0.004 A 
ATOM      7  C   UNL     1     -28.064 -11.231   2.027  1.00  0.00     0.004 A 
ATOM      8  C   UNL     1     -29.487 -10.016   5.368  1.00  0.00     0.048 C 
ENDROOT
BRANCH   4   9
ATOM      9  O   UNL     1     -31.440  -9.172   3.433  1.00  0.00    -0.508 OA
ATOM     10  H   UNL     1     -32.281  -9.667   3.708  1.00  0.00     0.293 HD
ENDBRANCH   4   9
TORSDOF 1
ENDMDL
MODEL 3
REMARK VINA RESULT:    -5.179      1.828      2.811
REMARK INTER + INTRA:          -5.331
REMARK INTER:                  -5.331
REMARK INTRA:                   0.000
REMARK UNBOUND:                 0.000
REMARK SMILES Cc1cccc(O)c1C
REMARK SMILES IDX 1 1 2 2 8 3 6 4 5 5 4 6 3 7 9 8 7 9
REMARK H PARENT 7 10
REMARK Flexibility Score: inf
ROOT
ATOM      1  C   UNL     1     -29.622  -9.886   5.696  1.00  0.00     0.045 C 
ATOM      2  C   UNL     1     -29.362 -10.189   4.242  1.00  0.00    -0.045 A 
ATOM      3  C   UNL     1     -30.253  -9.759   3.226  1.00  0.00    -0.006 A 
ATOM      4  C   UNL     1     -29.975 -10.089   1.879  1.00  0.00     0.118 A 
ATOM      5  C   UNL     1     -28.810 -10.795   1.557  1.00  0.00     0.046 A 
ATOM      6  C   UNL     1     -27.922 -11.186   2.556  1.00  0.00     0.004 A 
ATOM      7  C   UNL     1     -28.194 -10.886   3.890  1.00  0.00     0.004 A 
ATOM      8  C   UNL     1     -31.517  -9.009   3.574  1.00  0.00     0.048 C 
ENDROOT
BRANCH   4   9
ATOM      9  O   UNL     1     -30.857  -9.716   0.865  1.00  0.00    -0.508 OA
ATOM     10  H   UNL     1     -30.545  -9.584  -0.090  1.00  0.00     0.293 HD
ENDBRANCH   4   9
TORSDOF 1
ENDMDL
MODEL 4
REMARK VINA RESULT:    -4.983      1.937      3.776
REMARK INTER + INTRA:          -5.129
REMARK INTER:                  -5.129
REMARK INTRA:                   0.000
REMARK UNBOUND:                 0.000
REMARK SMILES Cc1cccc(O)c1C
REMARK SMILES IDX 1 1 2 2 8 3 6 4 5 5 4 6 3 7 9 8 7 9
REMARK H PARENT 7 10
REMARK Flexibility Score: inf
ROOT
ATOM      1  C   UNL     1     -27.188 -11.482   3.956  1.00  0.00     0.045 C 
ATOM      2  C   UNL     1     -28.478 -10.710   3.860  1.00  0.00    -0.045 A 
ATOM      3  C   UNL     1     -29.117 -10.486   2.613  1.00  0.00    -0.006 A 
ATOM      4  C   UNL     1     -30.315  -9.736   2.576  1.00  0.00     0.118 A 
ATOM      5  C   UNL     1     -30.881  -9.259   3.765  1.00  0.00     0.046 A 
ATOM      6  C   UNL     1     -30.266  -9.510   4.989  1.00  0.00     0.004 A 
ATOM      7  C   UNL     1     -29.074 -10.230   5.039  1.00  0.00     0.004 A 
ATOM      8  C   UNL     1     -28.500 -10.988   1.330  1.00  0.00     0.048 C 
ENDROOT
BRANCH   4   9
ATOM      9  O   UNL     1     -30.939  -9.465   1.359  1.00  0.00    -0.508 OA
ATOM     10  H   UNL     1     -30.752 -10.017   0.530  1.00  0.00     0.293 HD
ENDBRANCH   4   9
TORSDOF 1
ENDMDL
MODEL 5
REMARK VINA RESULT:    -4.941      1.170      2.134
REMARK INTER + INTRA:          -5.085
REMARK INTER:                  -5.085
REMARK INTRA:                   0.000
REMARK UNBOUND:                 0.000
REMARK SMILES Cc1cccc(O)c1C
REMARK SMILES IDX 1 1 2 2 8 3 6 4 5 5 4 6 3 7 9 8 7 9
REMARK H PARENT 7 10
REMARK Flexibility Score: inf
ROOT
ATOM      1  C   UNL     1     -30.954  -9.657   0.851  1.00  0.00     0.045 C 
ATOM      2  C   UNL     1     -30.002 -10.090   1.937  1.00  0.00    -0.045 A 
ATOM      3  C   UNL     1     -30.306  -9.895   3.309  1.00  0.00    -0.006 A 
ATOM      4  C   UNL     1     -29.369 -10.298   4.288  1.00  0.00     0.118 A 
ATOM      5  C   UNL     1     -28.175 -10.921   3.901  1.00  0.00     0.046 A 
ATOM      6  C   UNL     1     -27.897 -11.138   2.554  1.00  0.00     0.004 A 
ATOM      7  C   UNL     1     -28.802 -10.726   1.577  1.00  0.00     0.004 A 
ATOM      8  C   UNL     1     -31.587  -9.213   3.726  1.00  0.00     0.048 C 
ENDROOT
BRANCH   4   9
ATOM      9  O   UNL     1     -29.625 -10.080   5.641  1.00  0.00    -0.508 OA
ATOM     10  H   UNL     1     -28.906 -10.202   6.345  1.00  0.00     0.293 HD
ENDBRANCH   4   9
TORSDOF 1
ENDMDL
MODEL 6
REMARK VINA RESULT:    -4.938      1.423      2.536
REMARK INTER + INTRA:          -5.083
REMARK INTER:                  -5.083
REMARK INTRA:                   0.000
REMARK UNBOUND:                 0.000
REMARK SMILES Cc1cccc(O)c1C
REMARK SMILES IDX 1 1 2 2 8 3 6 4 5 5 4 6 3 7 9 8 7 9
REMARK H PARENT 7 10
REMARK Flexibility Score: inf
ROOT
ATOM      1  C   UNL     1     -29.391  -9.763   5.898  1.00  0.00     0.045 C 
ATOM      2  C   UNL     1     -29.713  -9.812   4.427  1.00  0.00    -0.045 A 
ATOM      3  C   UNL     1     -28.894 -10.523   3.512  1.00  0.00    -0.006 A 
ATOM      4  C   UNL     1     -29.228 -10.518   2.139  1.00  0.00     0.118 A 
ATOM      5  C   UNL     1     -30.380  -9.854   1.699  1.00  0.00     0.046 A 
ATOM      6  C   UNL     1     -31.198  -9.184   2.606  1.00  0.00     0.004 A 
ATOM      7  C   UNL     1     -30.869  -9.162   3.961  1.00  0.00     0.004 A 
ATOM      8  C   UNL     1     -27.646 -11.229   3.984  1.00  0.00     0.048 C 
ENDROOT
BRANCH   4   9
ATOM      9  O   UNL     1     -28.416 -11.173   1.213  1.00  0.00    -0.508 OA
ATOM     10  H   UNL     1     -28.805 -11.757   0.482  1.00  0.00     0.293 HD
ENDBRANCH   4   9
TORSDOF 1
ENDMDL
MODEL 7
REMARK VINA RESULT:    -4.926      1.330      2.775
REMARK INTER + INTRA:          -5.070
REMARK INTER:                  -5.070
REMARK INTRA:                   0.000
REMARK UNBOUND:                 0.000
REMARK SMILES Cc1cccc(O)c1C
REMARK SMILES IDX 1 1 2 2 8 3 6 4 5 5 4 6 3 7 9 8 7 9
REMARK H PARENT 7 10
REMARK Flexibility Score: inf
ROOT
ATOM      1  C   UNL     1     -28.585 -11.259   1.089  1.00  0.00     0.045 C 
ATOM      2  C   UNL     1     -29.340 -10.515   2.160  1.00  0.00    -0.045 A 
ATOM      3  C   UNL     1     -28.907 -10.520   3.511  1.00  0.00    -0.006 A 
ATOM      4  C   UNL     1     -29.664  -9.824   4.481  1.00  0.00     0.118 A 
ATOM      5  C   UNL     1     -30.803  -9.105   4.098  1.00  0.00     0.046 A 
ATOM      6  C   UNL     1     -31.205  -9.077   2.765  1.00  0.00     0.004 A 
ATOM      7  C   UNL     1     -30.480  -9.776   1.801  1.00  0.00     0.004 A 
ATOM      8  C   UNL     1     -27.687 -11.306   3.927  1.00  0.00     0.048 C 
ENDROOT
BRANCH   4   9
ATOM      9  O   UNL     1     -29.284  -9.849   5.823  1.00  0.00    -0.508 OA
ATOM     10  H   UNL     1     -29.073 -10.718   6.300  1.00  0.00     0.293 HD
ENDBRANCH   4   9
TORSDOF 1
ENDMDL
MODEL 8
REMARK VINA RESULT:    -4.860      0.867      2.596
REMARK INTER + INTRA:          -5.002
REMARK INTER:                  -5.002
REMARK INTRA:                   0.000
REMARK UNBOUND:                 0.000
REMARK SMILES Cc1cccc(O)c1C
REMARK SMILES IDX 1 1 2 2 8 3 6 4 5 5 4 6 3 7 9 8 7 9
REMARK H PARENT 7 10
REMARK Flexibility Score: inf
ROOT
ATOM      1  C   UNL     1     -30.890  -9.338   1.292  1.00  0.00     0.045 C 
ATOM      2  C   UNL     1     -30.193  -9.700   2.577  1.00  0.00    -0.045 A 
ATOM      3  C   UNL     1     -29.012 -10.487   2.584  1.00  0.00    -0.006 A 
ATOM      4  C   UNL     1     -28.410 -10.818   3.819  1.00  0.00     0.118 A 
ATOM      5  C   UNL     1     -28.954 -10.336   5.016  1.00  0.00     0.046 A 
ATOM      6  C   UNL     1     -30.095  -9.537   5.001  1.00  0.00     0.004 A 
ATOM      7  C   UNL     1     -30.712  -9.221   3.792  1.00  0.00     0.004 A 
ATOM      8  C   UNL     1     -28.432 -11.017   1.294  1.00  0.00     0.048 C 
ENDROOT
BRANCH   4   9
ATOM      9  O   UNL     1     -27.273 -11.625   3.855  1.00  0.00    -0.508 OA
ATOM     10  H   UNL     1     -27.148 -12.397   3.211  1.00  0.00     0.293 HD
ENDBRANCH   4   9
TORSDOF 1
ENDMDL
MODEL 9
REMARK VINA RESULT:    -4.674      2.034      3.654
REMARK INTER + INTRA:          -4.811
REMARK INTER:                  -4.811
REMARK INTRA:                   0.000
REMARK UNBOUND:                 0.000
REMARK SMILES Cc1cccc(O)c1C
REMARK SMILES IDX 1 1 2 2 8 3 6 4 5 5 4 6 3 7 9 8 7 9
REMARK H PARENT 7 10
REMARK Flexibility Score: inf
ROOT
ATOM      1  C   UNL     1     -28.641 -11.273   1.150  1.00  0.00     0.045 C 
ATOM      2  C   UNL     1     -29.118 -10.669   2.446  1.00  0.00    -0.045 A 
ATOM      3  C   UNL     1     -30.220  -9.776   2.485  1.00  0.00    -0.006 A 
ATOM      4  C   UNL     1     -30.613  -9.219   3.724  1.00  0.00     0.118 A 
ATOM      5  C   UNL     1     -29.945  -9.583   4.900  1.00  0.00     0.046 A 
ATOM      6  C   UNL     1     -28.884 -10.484   4.859  1.00  0.00     0.004 A 
ATOM      7  C   UNL     1     -28.472 -11.025   3.642  1.00  0.00     0.004 A 
ATOM      8  C   UNL     1     -30.932  -9.374   1.216  1.00  0.00     0.048 C 
ENDROOT
BRANCH   4   9
ATOM      9  O   UNL     1     -31.665  -8.306   3.784  1.00  0.00    -0.508 OA
ATOM     10  H   UNL     1     -32.103  -7.942   2.945  1.00  0.00     0.293 HD
ENDBRANCH   4   9
TORSDOF 1
ENDMDL
