MODEL 1
REMARK VINA RESULT:     1.486      0.000      0.000
REMARK INTER + INTRA:           2.323
REMARK INTER:                   1.833
REMARK INTRA:                   0.490
REMARK UNBOUND:                 0.490
REMARK SMILES O=c1c(O)c(-c2cc(O)c(O)c(O)c2)oc2cc(O)cc(O)c12
REMARK SMILES IDX 5 1 3 2 2 3 1 4 23 5 21 6 20 7 18 8 17 9 16 10 15 11 6 12
REMARK SMILES IDX 7 13 8 14 14 15 10 16 12 17 9 18 11 20 13 22 4 24 22 26
REMARK SMILES IDX 19 28
REMARK H PARENT 9 19 11 21 13 23 4 25 22 27 19 29
REMARK Flexibility Score: inf
ROOT
ATOM      1  C   UNL     1      -2.103  -5.562 -24.377  1.00  0.00     0.180 A 
ATOM      2  C   UNL     1      -0.826  -5.992 -23.978  1.00  0.00     0.208 A 
ATOM      3  C   UNL     1      -0.533  -6.075 -22.607  1.00  0.00     0.238 A 
ATOM      4  O   UNL     1       0.594  -6.511 -22.255  1.00  0.00    -0.285 OA
ATOM      5  C   UNL     1      -1.515  -5.712 -21.653  1.00  0.00     0.111 A 
ATOM      6  C   UNL     1      -1.314  -5.718 -20.240  1.00  0.00     0.134 A 
ATOM      7  C   UNL     1      -2.395  -5.466 -19.388  1.00  0.00     0.093 A 
ATOM      8  C   UNL     1      -3.655  -5.143 -19.899  1.00  0.00     0.123 A 
ATOM      9  C   UNL     1      -3.846  -5.075 -21.277  1.00  0.00     0.094 A 
ATOM     10  C   UNL     1      -2.795  -5.358 -22.152  1.00  0.00     0.146 A 
ATOM     11  O   UNL     1      -3.023  -5.293 -23.459  1.00  0.00    -0.452 OA
ENDROOT
BRANCH   1  12
ATOM     12  C   UNL     1      -2.478  -5.427 -25.803  1.00  0.00     0.029 A 
ATOM     13  C   UNL     1      -1.499  -5.584 -26.793  1.00  0.00     0.062 A 
ATOM     14  C   UNL     1      -1.829  -5.480 -28.147  1.00  0.00     0.162 A 
ATOM     15  C   UNL     1      -3.809  -5.203 -26.190  1.00  0.00     0.062 A 
ATOM     16  C   UNL     1      -3.159  -5.232 -28.535  1.00  0.00     0.200 A 
ATOM     17  C   UNL     1      -4.158  -5.100 -27.542  1.00  0.00     0.162 A 
BRANCH  14  18
ATOM     18  O   UNL     1      -0.817  -5.627 -29.095  1.00  0.00    -0.504 OA
ATOM     19  H   UNL     1      -1.010  -5.867 -30.061  1.00  0.00     0.293 HD
ENDBRANCH  14  18
BRANCH  16  20
ATOM     20  O   UNL     1      -3.444  -5.126 -29.899  1.00  0.00    -0.502 OA
ATOM     21  H   UNL     1      -4.197  -5.616 -30.361  1.00  0.00     0.293 HD
ENDBRANCH  16  20
BRANCH  17  22
ATOM     22  O   UNL     1      -5.502  -4.875 -27.848  1.00  0.00    -0.504 OA
ATOM     23  H   UNL     1      -5.977  -5.275 -28.644  1.00  0.00     0.293 HD
ENDBRANCH  17  22
ENDBRANCH   1  12
BRANCH   2  24
ATOM     24  O   UNL     1       0.122  -6.366 -24.935  1.00  0.00    -0.502 OA
ATOM     25  H   UNL     1       0.174  -7.305 -25.311  1.00  0.00     0.293 HD
ENDBRANCH   2  24
BRANCH   6  26
ATOM     26  O   UNL     1      -0.076  -5.939 -19.629  1.00  0.00    -0.507 OA
ATOM     27  H   UNL     1       0.817  -5.842 -20.089  1.00  0.00     0.293 HD
ENDBRANCH   6  26
BRANCH   8  28
ATOM     28  O   UNL     1      -4.723  -4.878 -19.043  1.00  0.00    -0.508 OA
ATOM     29  H   UNL     1      -4.620  -4.267 -18.241  1.00  0.00     0.293 HD
ENDBRANCH   8  28
TORSDOF 7
ENDMDL
MODEL 2
REMARK VINA RESULT:     1.562      0.097      1.768
REMARK INTER + INTRA:           2.417
REMARK INTER:                   2.005
REMARK INTRA:                   0.413
REMARK UNBOUND:                 0.490
REMARK SMILES O=c1c(O)c(-c2cc(O)c(O)c(O)c2)oc2cc(O)cc(O)c12
REMARK SMILES IDX 5 1 3 2 2 3 1 4 23 5 21 6 20 7 18 8 17 9 16 10 15 11 6 12
REMARK SMILES IDX 7 13 8 14 14 15 10 16 12 17 9 18 11 20 13 22 4 24 22 26
REMARK SMILES IDX 19 28
REMARK H PARENT 9 19 11 21 13 23 4 25 22 27 19 29
REMARK Flexibility Score: inf
ROOT
ATOM      1  C   UNL     1      -2.003  -5.616 -24.374  1.00  0.00     0.180 A 
ATOM      2  C   UNL     1      -0.721  -6.013 -23.957  1.00  0.00     0.208 A 
ATOM      3  C   UNL     1      -0.438  -6.063 -22.582  1.00  0.00     0.238 A 
ATOM      4  O   UNL     1       0.695  -6.471 -22.214  1.00  0.00    -0.285 OA
ATOM      5  C   UNL     1      -1.434  -5.700 -21.644  1.00  0.00     0.111 A 
ATOM      6  C   UNL     1      -1.244  -5.674 -20.230  1.00  0.00     0.134 A 
ATOM      7  C   UNL     1      -2.336  -5.426 -19.391  1.00  0.00     0.093 A 
ATOM      8  C   UNL     1      -3.598  -5.137 -19.917  1.00  0.00     0.123 A 
ATOM      9  C   UNL     1      -3.780  -5.100 -21.298  1.00  0.00     0.094 A 
ATOM     10  C   UNL     1      -2.717  -5.380 -22.159  1.00  0.00     0.146 A 
ATOM     11  O   UNL     1      -2.936  -5.346 -23.469  1.00  0.00    -0.452 OA
ENDROOT
BRANCH   1  12
ATOM     12  C   UNL     1      -2.370  -5.516 -25.806  1.00  0.00     0.029 A 
ATOM     13  C   UNL     1      -3.698  -5.247 -26.161  1.00  0.00     0.062 A 
ATOM     14  C   UNL     1      -4.068  -5.128 -27.504  1.00  0.00     0.162 A 
ATOM     15  C   UNL     1      -1.401  -5.625 -26.816  1.00  0.00     0.062 A 
ATOM     16  C   UNL     1      -3.102  -5.261 -28.519  1.00  0.00     0.200 A 
ATOM     17  C   UNL     1      -1.753  -5.505 -28.166  1.00  0.00     0.162 A 
BRANCH  14  18
ATOM     18  O   UNL     1      -5.405  -4.878 -27.809  1.00  0.00    -0.504 OA
ATOM     19  H   UNL     1      -5.697  -4.524 -28.713  1.00  0.00     0.293 HD
ENDBRANCH  14  18
BRANCH  16  20
ATOM     20  O   UNL     1      -3.516  -5.145 -29.849  1.00  0.00    -0.502 OA
ATOM     21  H   UNL     1      -3.802  -5.923 -30.424  1.00  0.00     0.293 HD
ENDBRANCH  16  20
BRANCH  17  22
ATOM     22  O   UNL     1      -0.735  -5.626 -29.115  1.00  0.00    -0.504 OA
ATOM     23  H   UNL     1      -0.448  -6.500 -29.530  1.00  0.00     0.293 HD
ENDBRANCH  17  22
ENDBRANCH   1  12
BRANCH   2  24
ATOM     24  O   UNL     1       0.240  -6.388 -24.900  1.00  0.00    -0.502 OA
ATOM     25  H   UNL     1       0.048  -7.055 -25.637  1.00  0.00     0.293 HD
ENDBRANCH   2  24
BRANCH   6  26
ATOM     26  O   UNL     1      -0.007  -5.859 -19.605  1.00  0.00    -0.507 OA
ATOM     27  H   UNL     1       0.653  -5.121 -19.407  1.00  0.00     0.293 HD
ENDBRANCH   6  26
BRANCH   8  28
ATOM     28  O   UNL     1      -4.677  -4.875 -19.075  1.00  0.00    -0.508 OA
ATOM     29  H   UNL     1      -5.634  -5.018 -19.379  1.00  0.00     0.293 HD
ENDBRANCH   8  28
TORSDOF 7
ENDMDL
