MODEL 1
REMARK VINA RESULT:    -3.866      0.000      0.000
REMARK INTER + INTRA:          -7.904
REMARK INTER:                  -6.691
REMARK INTRA:                  -1.213
REMARK UNBOUND:                -1.213
REMARK SMILES CCCCCCCCCCCCCCO
REMARK SMILES IDX 8 1 7 2 6 3 5 4 4 5 3 6 2 7 1 8 9 9 10 10 11 11 12 12 13 13
REMARK SMILES IDX 14 14 15 15
REMARK H PARENT 15 16
REMARK Flexibility Score: inf
ROOT
ATOM      1  C   UNL     1       5.356  -8.231   3.798  1.00  0.00     0.000 C 
ENDROOT
BRANCH   1   2
ATOM      2  C   UNL     1       6.076  -8.119   5.154  1.00  0.00    -0.000 C 
BRANCH   2   3
ATOM      3  C   UNL     1       5.421  -7.094   6.096  1.00  0.00    -0.000 C 
BRANCH   3   4
ATOM      4  C   UNL     1       4.906  -5.852   5.351  1.00  0.00    -0.000 C 
BRANCH   4   5
ATOM      5  C   UNL     1       5.841  -4.639   5.509  1.00  0.00    -0.000 C 
BRANCH   5   6
ATOM      6  C   UNL     1       6.547  -4.273   4.187  1.00  0.00    -0.000 C 
BRANCH   6   7
ATOM      7  C   UNL     1       7.830  -5.081   3.932  1.00  0.00    -0.003 C 
ATOM      8  C   UNL     1       7.845  -5.766   2.568  1.00  0.00     0.004 C 
ENDBRANCH   6   7
ENDBRANCH   5   6
ENDBRANCH   4   5
ENDBRANCH   3   4
ENDBRANCH   2   3
ENDBRANCH   1   2
BRANCH   1   9
ATOM      9  C   UNL     1       4.936  -9.658   3.401  1.00  0.00     0.000 C 
BRANCH   9  10
ATOM     10  C   UNL     1       3.426  -9.907   3.566  1.00  0.00     0.000 C 
BRANCH  10  11
ATOM     11  C   UNL     1       2.671  -8.653   4.037  1.00  0.00     0.000 C 
BRANCH  11  12
ATOM     12  C   UNL     1       1.143  -8.824   3.965  1.00  0.00     0.002 C 
BRANCH  12  13
ATOM     13  C   UNL     1       0.387  -7.675   4.652  1.00  0.00     0.028 C 
BRANCH  13  14
ATOM     14  C   UNL     1      -1.131  -7.895   4.736  1.00  0.00     0.156 C 
BRANCH  14  15
ATOM     15  O   UNL     1      -1.753  -7.591   3.516  1.00  0.00    -0.396 OA
ATOM     16  H   UNL     1      -2.723  -7.760   3.642  1.00  0.00     0.210 HD
ENDBRANCH  14  15
ENDBRANCH  13  14
ENDBRANCH  12  13
ENDBRANCH  11  12
ENDBRANCH  10  11
ENDBRANCH   9  10
ENDBRANCH   1   9
TORSDOF 13
ENDMDL
MODEL 2
REMARK VINA RESULT:    -3.783      1.438      2.415
REMARK INTER + INTRA:          -7.761
REMARK INTER:                  -6.801
REMARK INTRA:                  -0.960
REMARK UNBOUND:                -1.213
REMARK SMILES CCCCCCCCCCCCCCO
REMARK SMILES IDX 8 1 7 2 6 3 5 4 4 5 3 6 2 7 1 8 9 9 10 10 11 11 12 12 13 13
REMARK SMILES IDX 14 14 15 15
REMARK H PARENT 15 16
REMARK Flexibility Score: inf
ROOT
ATOM      1  C   UNL     1       5.556  -8.489   3.566  1.00  0.00     0.000 C 
ENDROOT
BRANCH   1   2
ATOM      2  C   UNL     1       6.342  -7.404   4.324  1.00  0.00    -0.000 C 
BRANCH   2   3
ATOM      3  C   UNL     1       7.004  -6.380   3.386  1.00  0.00    -0.000 C 
BRANCH   3   4
ATOM      4  C   UNL     1       7.042  -4.967   3.987  1.00  0.00    -0.000 C 
BRANCH   4   5
ATOM      5  C   UNL     1       6.306  -4.879   5.336  1.00  0.00    -0.000 C 
BRANCH   5   6
ATOM      6  C   UNL     1       5.018  -4.035   5.241  1.00  0.00    -0.000 C 
BRANCH   6   7
ATOM      7  C   UNL     1       5.245  -2.629   4.660  1.00  0.00    -0.003 C 
ATOM      8  C   UNL     1       4.256  -1.595   5.189  1.00  0.00     0.004 C 
ENDBRANCH   6   7
ENDBRANCH   5   6
ENDBRANCH   4   5
ENDBRANCH   3   4
ENDBRANCH   2   3
ENDBRANCH   1   2
BRANCH   1   9
ATOM      9  C   UNL     1       4.083  -8.640   3.986  1.00  0.00     0.000 C 
BRANCH   9  10
ATOM     10  C   UNL     1       3.573  -7.451   4.821  1.00  0.00     0.000 C 
BRANCH  10  11
ATOM     11  C   UNL     1       2.045  -7.300   4.758  1.00  0.00     0.000 C 
BRANCH  11  12
ATOM     12  C   UNL     1       1.353  -8.544   4.172  1.00  0.00     0.002 C 
BRANCH  12  13
ATOM     13  C   UNL     1       0.010  -8.851   4.855  1.00  0.00     0.028 C 
BRANCH  13  14
ATOM     14  C   UNL     1      -1.037  -7.740   4.689  1.00  0.00     0.156 C 
BRANCH  14  15
ATOM     15  O   UNL     1      -1.662  -7.819   3.435  1.00  0.00    -0.396 OA
ATOM     16  H   UNL     1      -2.442  -7.206   3.468  1.00  0.00     0.210 HD
ENDBRANCH  14  15
ENDBRANCH  13  14
ENDBRANCH  12  13
ENDBRANCH  11  12
ENDBRANCH  10  11
ENDBRANCH   9  10
ENDBRANCH   1   9
TORSDOF 13
ENDMDL
MODEL 3
REMARK VINA RESULT:    -3.679      1.986      3.005
REMARK INTER + INTRA:          -7.580
REMARK INTER:                  -6.215
REMARK INTRA:                  -1.365
REMARK UNBOUND:                -1.213
REMARK SMILES CCCCCCCCCCCCCCO
REMARK SMILES IDX 8 1 7 2 6 3 5 4 4 5 3 6 2 7 1 8 9 9 10 10 11 11 12 12 13 13
REMARK SMILES IDX 14 14 15 15
REMARK H PARENT 15 16
REMARK Flexibility Score: inf
ROOT
ATOM      1  C   UNL     1       3.343  -5.598   6.739  1.00  0.00     0.000 C 
ENDROOT
BRANCH   1   2
ATOM      2  C   UNL     1       2.030  -5.024   6.175  1.00  0.00    -0.000 C 
BRANCH   2   3
ATOM      3  C   UNL     1       2.137  -3.532   5.813  1.00  0.00    -0.000 C 
BRANCH   3   4
ATOM      4  C   UNL     1       3.494  -2.925   6.203  1.00  0.00    -0.000 C 
BRANCH   4   5
ATOM      5  C   UNL     1       4.030  -1.947   5.142  1.00  0.00    -0.000 C 
BRANCH   5   6
ATOM      6  C   UNL     1       5.256  -2.514   4.396  1.00  0.00    -0.000 C 
BRANCH   6   7
ATOM      7  C   UNL     1       6.032  -3.569   5.201  1.00  0.00    -0.003 C 
ATOM      8  C   UNL     1       6.626  -4.671   4.328  1.00  0.00     0.004 C 
ENDBRANCH   6   7
ENDBRANCH   5   6
ENDBRANCH   4   5
ENDBRANCH   3   4
ENDBRANCH   2   3
ENDBRANCH   1   2
BRANCH   1   9
ATOM      9  C   UNL     1       3.915  -6.797   5.961  1.00  0.00     0.000 C 
BRANCH   9  10
ATOM     10  C   UNL     1       3.114  -7.125   4.689  1.00  0.00     0.000 C 
BRANCH  10  11
ATOM     11  C   UNL     1       2.661  -8.593   4.641  1.00  0.00     0.000 C 
BRANCH  11  12
ATOM     12  C   UNL     1       1.245  -8.753   4.057  1.00  0.00     0.002 C 
BRANCH  12  13
ATOM     13  C   UNL     1       0.222  -7.816   4.720  1.00  0.00     0.028 C 
BRANCH  13  14
ATOM     14  C   UNL     1      -1.234  -8.271   4.551  1.00  0.00     0.156 C 
BRANCH  14  15
ATOM     15  O   UNL     1      -1.747  -7.870   3.308  1.00  0.00    -0.396 OA
ATOM     16  H   UNL     1      -2.322  -8.612   2.985  1.00  0.00     0.210 HD
ENDBRANCH  14  15
ENDBRANCH  13  14
ENDBRANCH  12  13
ENDBRANCH  11  12
ENDBRANCH  10  11
ENDBRANCH   9  10
ENDBRANCH   1   9
TORSDOF 13
ENDMDL
MODEL 4
REMARK VINA RESULT:    -3.619      1.238      2.567
REMARK INTER + INTRA:          -7.476
REMARK INTER:                  -6.290
REMARK INTRA:                  -1.187
REMARK UNBOUND:                -1.213
REMARK SMILES CCCCCCCCCCCCCCO
REMARK SMILES IDX 8 1 7 2 6 3 5 4 4 5 3 6 2 7 1 8 9 9 10 10 11 11 12 12 13 13
REMARK SMILES IDX 14 14 15 15
REMARK H PARENT 15 16
REMARK Flexibility Score: inf
ROOT
ATOM      1  C   UNL     1       5.608  -7.369   4.327  1.00  0.00     0.000 C 
ENDROOT
BRANCH   1   2
ATOM      2  C   UNL     1       6.983  -6.721   4.086  1.00  0.00    -0.000 C 
BRANCH   2   3
ATOM      3  C   UNL     1       6.907  -5.189   3.958  1.00  0.00    -0.000 C 
BRANCH   3   4
ATOM      4  C   UNL     1       6.469  -4.508   5.263  1.00  0.00    -0.000 C 
BRANCH   4   5
ATOM      5  C   UNL     1       5.321  -3.506   5.050  1.00  0.00    -0.000 C 
BRANCH   5   6
ATOM      6  C   UNL     1       4.237  -3.621   6.142  1.00  0.00    -0.000 C 
BRANCH   6   7
ATOM      7  C   UNL     1       3.248  -4.775   5.908  1.00  0.00    -0.003 C 
ATOM      8  C   UNL     1       3.321  -5.854   6.985  1.00  0.00     0.004 C 
ENDBRANCH   6   7
ENDBRANCH   5   6
ENDBRANCH   4   5
ENDBRANCH   3   4
ENDBRANCH   2   3
ENDBRANCH   1   2
BRANCH   1   9
ATOM      9  C   UNL     1       5.403  -8.733   3.642  1.00  0.00     0.000 C 
BRANCH   9  10
ATOM     10  C   UNL     1       3.921  -9.134   3.536  1.00  0.00     0.000 C 
BRANCH  10  11
ATOM     11  C   UNL     1       2.988  -8.129   4.231  1.00  0.00     0.000 C 
BRANCH  11  12
ATOM     12  C   UNL     1       1.520  -8.591   4.230  1.00  0.00     0.002 C 
BRANCH  12  13
ATOM     13  C   UNL     1       0.554  -7.490   4.699  1.00  0.00     0.028 C 
BRANCH  13  14
ATOM     14  C   UNL     1      -0.917  -7.931   4.734  1.00  0.00     0.156 C 
BRANCH  14  15
ATOM     15  O   UNL     1      -1.620  -7.430   3.629  1.00  0.00    -0.396 OA
ATOM     16  H   UNL     1      -1.114  -7.705   2.820  1.00  0.00     0.210 HD
ENDBRANCH  14  15
ENDBRANCH  13  14
ENDBRANCH  12  13
ENDBRANCH  11  12
ENDBRANCH  10  11
ENDBRANCH   9  10
ENDBRANCH   1   9
TORSDOF 13
ENDMDL
MODEL 5
REMARK VINA RESULT:    -3.550     11.625     14.091
REMARK INTER + INTRA:          -7.358
REMARK INTER:                  -6.408
REMARK INTRA:                  -0.949
REMARK UNBOUND:                -1.213
REMARK SMILES CCCCCCCCCCCCCCO
REMARK SMILES IDX 8 1 7 2 6 3 5 4 4 5 3 6 2 7 1 8 9 9 10 10 11 11 12 12 13 13
REMARK SMILES IDX 14 14 15 15
REMARK H PARENT 15 16
REMARK Flexibility Score: inf
ROOT
ATOM      1  C   UNL     1       4.727   6.973   6.343  1.00  0.00     0.000 C 
ENDROOT
BRANCH   1   2
ATOM      2  C   UNL     1       4.964   5.682   5.541  1.00  0.00    -0.000 C 
BRANCH   2   3
ATOM      3  C   UNL     1       3.752   5.281   4.681  1.00  0.00    -0.000 C 
BRANCH   3   4
ATOM      4  C   UNL     1       3.403   3.791   4.810  1.00  0.00    -0.000 C 
BRANCH   4   5
ATOM      5  C   UNL     1       3.564   3.269   6.249  1.00  0.00    -0.000 C 
BRANCH   5   6
ATOM      6  C   UNL     1       4.326   1.928   6.300  1.00  0.00    -0.000 C 
BRANCH   6   7
ATOM      7  C   UNL     1       5.816   2.081   6.650  1.00  0.00    -0.003 C 
ATOM      8  C   UNL     1       6.699   2.305   5.425  1.00  0.00     0.004 C 
ENDBRANCH   6   7
ENDBRANCH   5   6
ENDBRANCH   4   5
ENDBRANCH   3   4
ENDBRANCH   2   3
ENDBRANCH   1   2
BRANCH   1   9
ATOM      9  C   UNL     1       3.421   7.717   6.008  1.00  0.00     0.000 C 
BRANCH   9  10
ATOM     10  C   UNL     1       2.418   7.723   7.175  1.00  0.00     0.000 C 
BRANCH  10  11
ATOM     11  C   UNL     1       1.885   9.131   7.486  1.00  0.00     0.000 C 
BRANCH  11  12
ATOM     12  C   UNL     1       0.359   9.152   7.687  1.00  0.00     0.002 C 
BRANCH  12  13
ATOM     13  C   UNL     1      -0.329   7.900   7.117  1.00  0.00     0.028 C 
BRANCH  13  14
ATOM     14  C   UNL     1      -1.859   7.919   7.254  1.00  0.00     0.156 C 
BRANCH  14  15
ATOM     15  O   UNL     1      -2.475   7.436   6.090  1.00  0.00    -0.396 OA
ATOM     16  H   UNL     1      -3.415   7.756   6.112  1.00  0.00     0.210 HD
ENDBRANCH  14  15
ENDBRANCH  13  14
ENDBRANCH  12  13
ENDBRANCH  11  12
ENDBRANCH  10  11
ENDBRANCH   9  10
ENDBRANCH   1   9
TORSDOF 13
ENDMDL
MODEL 6
REMARK VINA RESULT:    -3.479      2.939      5.814
REMARK INTER + INTRA:          -7.235
REMARK INTER:                  -5.764
REMARK INTRA:                  -1.471
REMARK UNBOUND:                -1.213
REMARK SMILES CCCCCCCCCCCCCCO
REMARK SMILES IDX 8 1 7 2 6 3 5 4 4 5 3 6 2 7 1 8 9 9 10 10 11 11 12 12 13 13
REMARK SMILES IDX 14 14 15 15
REMARK H PARENT 15 16
REMARK Flexibility Score: inf
ROOT
ATOM      1  C   UNL     1       5.689  -9.359   4.614  1.00  0.00     0.000 C 
ENDROOT
BRANCH   1   2
ATOM      2  C   UNL     1       5.018  -9.138   3.246  1.00  0.00    -0.000 C 
BRANCH   2   3
ATOM      3  C   UNL     1       3.621  -9.776   3.155  1.00  0.00    -0.000 C 
BRANCH   3   4
ATOM      4  C   UNL     1       2.767  -9.508   4.403  1.00  0.00    -0.000 C 
BRANCH   4   5
ATOM      5  C   UNL     1       1.568  -8.588   4.112  1.00  0.00    -0.000 C 
BRANCH   5   6
ATOM      6  C   UNL     1       1.591  -7.310   4.977  1.00  0.00    -0.000 C 
BRANCH   6   7
ATOM      7  C   UNL     1       2.977  -6.649   5.058  1.00  0.00    -0.003 C 
ATOM      8  C   UNL     1       3.424  -6.369   6.491  1.00  0.00     0.004 C 
ENDBRANCH   6   7
ENDBRANCH   5   6
ENDBRANCH   4   5
ENDBRANCH   3   4
ENDBRANCH   2   3
ENDBRANCH   1   2
BRANCH   1   9
ATOM      9  C   UNL     1       6.395  -8.123   5.200  1.00  0.00     0.000 C 
BRANCH   9  10
ATOM     10  C   UNL     1       6.524  -6.970   4.188  1.00  0.00     0.000 C 
BRANCH  10  11
ATOM     11  C   UNL     1       7.177  -5.720   4.800  1.00  0.00     0.000 C 
BRANCH  11  12
ATOM     12  C   UNL     1       6.667  -4.416   4.160  1.00  0.00     0.002 C 
BRANCH  12  13
ATOM     13  C   UNL     1       6.006  -3.476   5.182  1.00  0.00     0.028 C 
BRANCH  13  14
ATOM     14  C   UNL     1       5.209  -2.329   4.543  1.00  0.00     0.156 C 
BRANCH  14  15
ATOM     15  O   UNL     1       5.925  -1.124   4.601  1.00  0.00    -0.396 OA
ATOM     16  H   UNL     1       6.739  -1.250   4.048  1.00  0.00     0.210 HD
ENDBRANCH  14  15
ENDBRANCH  13  14
ENDBRANCH  12  13
ENDBRANCH  11  12
ENDBRANCH  10  11
ENDBRANCH   9  10
ENDBRANCH   1   9
TORSDOF 13
ENDMDL
MODEL 7
REMARK VINA RESULT:    -3.478      3.406      5.228
REMARK INTER + INTRA:          -7.234
REMARK INTER:                  -6.039
REMARK INTRA:                  -1.195
REMARK UNBOUND:                -1.213
REMARK SMILES CCCCCCCCCCCCCCO
REMARK SMILES IDX 8 1 7 2 6 3 5 4 4 5 3 6 2 7 1 8 9 9 10 10 11 11 12 12 13 13
REMARK SMILES IDX 14 14 15 15
REMARK H PARENT 15 16
REMARK Flexibility Score: inf
ROOT
ATOM      1  C   UNL     1       2.358  -6.422   5.858  1.00  0.00     0.000 C 
ENDROOT
BRANCH   1   2
ATOM      2  C   UNL     1       2.970  -7.258   4.720  1.00  0.00    -0.000 C 
BRANCH   2   3
ATOM      3  C   UNL     1       4.508  -7.290   4.762  1.00  0.00    -0.000 C 
BRANCH   3   4
ATOM      4  C   UNL     1       5.106  -6.047   5.439  1.00  0.00    -0.000 C 
BRANCH   4   5
ATOM      5  C   UNL     1       6.303  -5.470   4.662  1.00  0.00    -0.000 C 
BRANCH   5   6
ATOM      6  C   UNL     1       6.852  -6.464   3.617  1.00  0.00    -0.000 C 
BRANCH   6   7
ATOM      7  C   UNL     1       7.879  -5.841   2.657  1.00  0.00    -0.003 C 
ATOM      8  C   UNL     1       8.613  -4.645   3.259  1.00  0.00     0.004 C 
ENDBRANCH   6   7
ENDBRANCH   5   6
ENDBRANCH   4   5
ENDBRANCH   3   4
ENDBRANCH   2   3
ENDBRANCH   1   2
BRANCH   1   9
ATOM      9  C   UNL     1       1.115  -5.602   5.467  1.00  0.00     0.000 C 
BRANCH   9  10
ATOM     10  C   UNL     1       1.117  -4.186   6.068  1.00  0.00     0.000 C 
BRANCH  10  11
ATOM     11  C   UNL     1       2.377  -3.902   6.902  1.00  0.00     0.000 C 
BRANCH  11  12
ATOM     12  C   UNL     1       2.998  -2.530   6.582  1.00  0.00     0.002 C 
BRANCH  12  13
ATOM     13  C   UNL     1       3.819  -2.541   5.281  1.00  0.00     0.028 C 
BRANCH  13  14
ATOM     14  C   UNL     1       5.092  -1.685   5.346  1.00  0.00     0.156 C 
BRANCH  14  15
ATOM     15  O   UNL     1       5.604  -1.443   4.062  1.00  0.00    -0.396 OA
ATOM     16  H   UNL     1       5.368  -0.507   3.834  1.00  0.00     0.210 HD
ENDBRANCH  14  15
ENDBRANCH  13  14
ENDBRANCH  12  13
ENDBRANCH  11  12
ENDBRANCH  10  11
ENDBRANCH   9  10
ENDBRANCH   1   9
TORSDOF 13
ENDMDL
MODEL 8
REMARK VINA RESULT:    -3.462      2.063      3.441
REMARK INTER + INTRA:          -7.205
REMARK INTER:                  -6.410
REMARK INTRA:                  -0.794
REMARK UNBOUND:                -1.213
REMARK SMILES CCCCCCCCCCCCCCO
REMARK SMILES IDX 8 1 7 2 6 3 5 4 4 5 3 6 2 7 1 8 9 9 10 10 11 11 12 12 13 13
REMARK SMILES IDX 14 14 15 15
REMARK H PARENT 15 16
REMARK Flexibility Score: inf
ROOT
ATOM      1  C   UNL     1       2.447  -3.455   6.206  1.00  0.00     0.000 C 
ENDROOT
BRANCH   1   2
ATOM      2  C   UNL     1       3.916  -3.010   6.323  1.00  0.00    -0.000 C 
BRANCH   2   3
ATOM      3  C   UNL     1       4.360  -2.104   5.160  1.00  0.00    -0.000 C 
BRANCH   3   4
ATOM      4  C   UNL     1       5.486  -2.728   4.323  1.00  0.00    -0.000 C 
BRANCH   4   5
ATOM      5  C   UNL     1       6.154  -3.923   5.027  1.00  0.00    -0.000 C 
BRANCH   5   6
ATOM      6  C   UNL     1       7.562  -4.214   4.468  1.00  0.00    -0.000 C 
BRANCH   6   7
ATOM      7  C   UNL     1       7.736  -5.656   3.961  1.00  0.00    -0.003 C 
ATOM      8  C   UNL     1       7.725  -5.761   2.438  1.00  0.00     0.004 C 
ENDBRANCH   6   7
ENDBRANCH   5   6
ENDBRANCH   4   5
ENDBRANCH   3   4
ENDBRANCH   2   3
ENDBRANCH   1   2
BRANCH   1   9
ATOM      9  C   UNL     1       2.205  -4.962   6.407  1.00  0.00     0.000 C 
BRANCH   9  10
ATOM     10  C   UNL     1       3.220  -5.838   5.652  1.00  0.00     0.000 C 
BRANCH  10  11
ATOM     11  C   UNL     1       2.563  -7.052   4.977  1.00  0.00     0.000 C 
BRANCH  11  12
ATOM     12  C   UNL     1       1.067  -7.177   5.317  1.00  0.00     0.002 C 
BRANCH  12  13
ATOM     13  C   UNL     1       0.292  -8.007   4.279  1.00  0.00     0.028 C 
BRANCH  13  14
ATOM     14  C   UNL     1      -1.231  -7.976   4.475  1.00  0.00     0.156 C 
BRANCH  14  15
ATOM     15  O   UNL     1      -1.896  -7.871   3.244  1.00  0.00    -0.396 OA
ATOM     16  H   UNL     1      -2.053  -8.797   2.926  1.00  0.00     0.210 HD
ENDBRANCH  14  15
ENDBRANCH  13  14
ENDBRANCH  12  13
ENDBRANCH  11  12
ENDBRANCH  10  11
ENDBRANCH   9  10
ENDBRANCH   1   9
TORSDOF 13
ENDMDL
MODEL 9
REMARK VINA RESULT:    -3.408      2.721      4.665
REMARK INTER + INTRA:          -7.111
REMARK INTER:                  -5.775
REMARK INTRA:                  -1.336
REMARK UNBOUND:                -1.213
REMARK SMILES CCCCCCCCCCCCCCO
REMARK SMILES IDX 8 1 7 2 6 3 5 4 4 5 3 6 2 7 1 8 9 9 10 10 11 11 12 12 13 13
REMARK SMILES IDX 14 14 15 15
REMARK H PARENT 15 16
REMARK Flexibility Score: inf
ROOT
ATOM      1  C   UNL     1       3.073  -8.464   4.965  1.00  0.00     0.000 C 
ENDROOT
BRANCH   1   2
ATOM      2  C   UNL     1       3.548  -9.133   3.663  1.00  0.00    -0.000 C 
BRANCH   2   3
ATOM      3  C   UNL     1       5.080  -9.244   3.573  1.00  0.00    -0.000 C 
BRANCH   3   4
ATOM      4  C   UNL     1       5.778  -7.879   3.668  1.00  0.00    -0.000 C 
BRANCH   4   5
ATOM      5  C   UNL     1       6.685  -7.764   4.906  1.00  0.00    -0.000 C 
BRANCH   5   6
ATOM      6  C   UNL     1       7.712  -6.621   4.770  1.00  0.00    -0.000 C 
BRANCH   6   7
ATOM      7  C   UNL     1       7.781  -6.021   3.356  1.00  0.00    -0.003 C 
ATOM      8  C   UNL     1       8.432  -4.641   3.322  1.00  0.00     0.004 C 
ENDBRANCH   6   7
ENDBRANCH   5   6
ENDBRANCH   4   5
ENDBRANCH   3   4
ENDBRANCH   2   3
ENDBRANCH   1   2
BRANCH   1   9
ATOM      9  C   UNL     1       1.899  -7.481   4.801  1.00  0.00     0.000 C 
BRANCH   9  10
ATOM     10  C   UNL     1       2.213  -6.077   5.348  1.00  0.00     0.000 C 
BRANCH  10  11
ATOM     11  C   UNL     1       3.674  -5.935   5.803  1.00  0.00     0.000 C 
BRANCH  11  12
ATOM     12  C   UNL     1       4.057  -4.476   6.109  1.00  0.00     0.002 C 
BRANCH  12  13
ATOM     13  C   UNL     1       5.110  -3.924   5.133  1.00  0.00     0.028 C 
BRANCH  13  14
ATOM     14  C   UNL     1       5.325  -2.408   5.248  1.00  0.00     0.156 C 
BRANCH  14  15
ATOM     15  O   UNL     1       5.212  -1.786   3.995  1.00  0.00    -0.396 OA
ATOM     16  H   UNL     1       4.247  -1.793   3.760  1.00  0.00     0.210 HD
ENDBRANCH  14  15
ENDBRANCH  13  14
ENDBRANCH  12  13
ENDBRANCH  11  12
ENDBRANCH  10  11
ENDBRANCH   9  10
ENDBRANCH   1   9
TORSDOF 13
ENDMDL
