MODEL 1
REMARK VINA RESULT:    -4.434      0.000      0.000
REMARK INTER + INTRA:          -8.910
REMARK INTER:                  -8.063
REMARK INTRA:                  -0.846
REMARK UNBOUND:                -0.846
REMARK SMILES CCCCCCCCCCCCCCCC(=O)[O-]
REMARK SMILES IDX 9 1 10 2 11 3 12 4 13 5 14 6 15 7 16 8 17 9 18 10 8 11 7 12
REMARK SMILES IDX 6 13 5 14 4 15 3 16 2 17 1 18
REMARK H PARENT
REMARK Flexibility Score: inf
ROOT
ATOM      1  C   UNL     1      45.146  28.016   2.453  1.00  0.00     0.000 C 
ENDROOT
BRANCH   1   2
ATOM      2  C   UNL     1      45.382  27.903   0.936  1.00  0.00     0.000 C 
BRANCH   2   3
ATOM      3  C   UNL     1      45.624  29.239   0.210  1.00  0.00     0.000 C 
BRANCH   3   4
ATOM      4  C   UNL     1      45.435  29.134  -1.312  1.00  0.00     0.000 C 
BRANCH   4   5
ATOM      5  C   UNL     1      45.239  27.687  -1.797  1.00  0.00     0.000 C 
BRANCH   5   6
ATOM      6  C   UNL     1      45.051  27.517  -3.318  1.00  0.00     0.006 C 
BRANCH   6   7
ATOM      7  C   UNL     1      43.655  27.015  -3.728  1.00  0.00     0.053 C 
BRANCH   7   8
ATOM      8  C   UNL     1      42.863  28.058  -4.457  1.00  0.00     0.041 C 
ATOM      9  O   UNL     1      42.834  28.068  -5.715  1.00  0.00    -0.550 OA
ATOM     10  O   UNL     1      42.190  29.046  -3.748  1.00  0.00    -0.550 OA
ENDBRANCH   7   8
ENDBRANCH   6   7
ENDBRANCH   5   6
ENDBRANCH   4   5
ENDBRANCH   3   4
ENDBRANCH   2   3
ENDBRANCH   1   2
BRANCH   1  11
ATOM     11  C   UNL     1      44.200  26.934   2.995  1.00  0.00     0.000 C 
BRANCH  11  12
ATOM     12  C   UNL     1      44.892  26.093   4.078  1.00  0.00    -0.000 C 
BRANCH  12  13
ATOM     13  C   UNL     1      46.408  26.347   4.157  1.00  0.00    -0.000 C 
BRANCH  13  14
ATOM     14  C   UNL     1      46.967  26.529   5.583  1.00  0.00    -0.000 C 
BRANCH  14  15
ATOM     15  C   UNL     1      45.918  26.843   6.665  1.00  0.00    -0.000 C 
BRANCH  15  16
ATOM     16  C   UNL     1      45.968  28.306   7.138  1.00  0.00    -0.000 C 
BRANCH  16  17
ATOM     17  C   UNL     1      45.162  28.536   8.426  1.00  0.00    -0.003 C 
ATOM     18  C   UNL     1      45.242  27.355   9.394  1.00  0.00     0.004 C 
ENDBRANCH  16  17
ENDBRANCH  15  16
ENDBRANCH  14  15
ENDBRANCH  13  14
ENDBRANCH  12  13
ENDBRANCH  11  12
ENDBRANCH   1  11
TORSDOF 14
ENDMDL
MODEL 2
REMARK VINA RESULT:    -4.400      1.217      2.001
REMARK INTER + INTRA:          -8.847
REMARK INTER:                  -7.732
REMARK INTRA:                  -1.114
REMARK UNBOUND:                -0.846
REMARK SMILES CCCCCCCCCCCCCCCC(=O)[O-]
REMARK SMILES IDX 9 1 10 2 11 3 12 4 13 5 14 6 15 7 16 8 17 9 18 10 8 11 7 12
REMARK SMILES IDX 6 13 5 14 4 15 3 16 2 17 1 18
REMARK H PARENT
REMARK Flexibility Score: inf
ROOT
ATOM      1  C   UNL     1      44.476  26.877   2.806  1.00  0.00     0.000 C 
ENDROOT
BRANCH   1   2
ATOM      2  C   UNL     1      44.418  28.398   3.041  1.00  0.00     0.000 C 
BRANCH   2   3
ATOM      3  C   UNL     1      45.260  29.243   2.069  1.00  0.00     0.000 C 
BRANCH   3   4
ATOM      4  C   UNL     1      45.822  28.423   0.897  1.00  0.00     0.000 C 
BRANCH   4   5
ATOM      5  C   UNL     1      45.343  28.927  -0.475  1.00  0.00     0.000 C 
BRANCH   5   6
ATOM      6  C   UNL     1      45.402  27.894  -1.619  1.00  0.00     0.006 C 
BRANCH   6   7
ATOM      7  C   UNL     1      44.849  28.407  -2.961  1.00  0.00     0.053 C 
BRANCH   7   8
ATOM      8  C   UNL     1      44.622  27.300  -3.947  1.00  0.00     0.041 C 
ATOM      9  O   UNL     1      43.532  26.671  -3.952  1.00  0.00    -0.550 OA
ATOM     10  O   UNL     1      45.629  26.935  -4.831  1.00  0.00    -0.550 OA
ENDBRANCH   7   8
ENDBRANCH   6   7
ENDBRANCH   5   6
ENDBRANCH   4   5
ENDBRANCH   3   4
ENDBRANCH   2   3
ENDBRANCH   1   2
BRANCH   1  11
ATOM     11  C   UNL     1      44.850  26.089   4.069  1.00  0.00     0.000 C 
BRANCH  11  12
ATOM     12  C   UNL     1      46.369  25.868   4.148  1.00  0.00    -0.000 C 
BRANCH  12  13
ATOM     13  C   UNL     1      46.975  26.349   5.478  1.00  0.00    -0.000 C 
BRANCH  13  14
ATOM     14  C   UNL     1      46.647  27.809   5.856  1.00  0.00    -0.000 C 
BRANCH  14  15
ATOM     15  C   UNL     1      45.869  27.988   7.172  1.00  0.00    -0.000 C 
BRANCH  15  16
ATOM     16  C   UNL     1      45.887  26.726   8.051  1.00  0.00    -0.000 C 
BRANCH  16  17
ATOM     17  C   UNL     1      45.210  26.949   9.413  1.00  0.00    -0.003 C 
ATOM     18  C   UNL     1      44.898  28.420   9.686  1.00  0.00     0.004 C 
ENDBRANCH  16  17
ENDBRANCH  15  16
ENDBRANCH  14  15
ENDBRANCH  13  14
ENDBRANCH  12  13
ENDBRANCH  11  12
ENDBRANCH   1  11
TORSDOF 14
ENDMDL
MODEL 3
REMARK VINA RESULT:    -4.372      5.066      9.803
REMARK INTER + INTRA:          -8.797
REMARK INTER:                  -7.882
REMARK INTRA:                  -0.915
REMARK UNBOUND:                -0.846
REMARK SMILES CCCCCCCCCCCCCCCC(=O)[O-]
REMARK SMILES IDX 9 1 10 2 11 3 12 4 13 5 14 6 15 7 16 8 17 9 18 10 8 11 7 12
REMARK SMILES IDX 6 13 5 14 4 15 3 16 2 17 1 18
REMARK H PARENT
REMARK Flexibility Score: inf
ROOT
ATOM      1  C   UNL     1      44.164  27.058   2.810  1.00  0.00     0.000 C 
ENDROOT
BRANCH   1   2
ATOM      2  C   UNL     1      44.825  26.106   3.824  1.00  0.00     0.000 C 
BRANCH   2   3
ATOM      3  C   UNL     1      46.363  26.139   3.846  1.00  0.00     0.000 C 
BRANCH   3   4
ATOM      4  C   UNL     1      46.936  26.364   5.255  1.00  0.00     0.000 C 
BRANCH   4   5
ATOM      5  C   UNL     1      45.886  26.876   6.257  1.00  0.00     0.000 C 
BRANCH   5   6
ATOM      6  C   UNL     1      46.433  27.761   7.394  1.00  0.00     0.006 C 
BRANCH   6   7
ATOM      7  C   UNL     1      45.360  28.243   8.389  1.00  0.00     0.053 C 
BRANCH   7   8
ATOM      8  C   UNL     1      45.497  27.597   9.735  1.00  0.00     0.041 C 
ATOM      9  O   UNL     1      45.692  28.302  10.760  1.00  0.00    -0.550 OA
ATOM     10  O   UNL     1      45.452  26.214   9.854  1.00  0.00    -0.550 OA
ENDBRANCH   7   8
ENDBRANCH   6   7
ENDBRANCH   5   6
ENDBRANCH   4   5
ENDBRANCH   3   4
ENDBRANCH   2   3
ENDBRANCH   1   2
BRANCH   1  11
ATOM     11  C   UNL     1      44.576  28.523   3.007  1.00  0.00     0.000 C 
BRANCH  11  12
ATOM     12  C   UNL     1      45.319  29.056   1.771  1.00  0.00    -0.000 C 
BRANCH  12  13
ATOM     13  C   UNL     1      45.498  27.990   0.676  1.00  0.00    -0.000 C 
BRANCH  13  14
ATOM     14  C   UNL     1      45.523  28.534  -0.768  1.00  0.00    -0.000 C 
BRANCH  14  15
ATOM     15  C   UNL     1      45.187  27.506  -1.863  1.00  0.00    -0.000 C 
BRANCH  15  16
ATOM     16  C   UNL     1      44.696  28.161  -3.166  1.00  0.00    -0.000 C 
BRANCH  16  17
ATOM     17  C   UNL     1      43.694  27.279  -3.926  1.00  0.00    -0.003 C 
ATOM     18  C   UNL     1      42.428  28.034  -4.332  1.00  0.00     0.004 C 
ENDBRANCH  16  17
ENDBRANCH  15  16
ENDBRANCH  14  15
ENDBRANCH  13  14
ENDBRANCH  12  13
ENDBRANCH  11  12
ENDBRANCH   1  11
TORSDOF 14
ENDMDL
MODEL 4
REMARK VINA RESULT:    -4.351      1.715      3.082
REMARK INTER + INTRA:          -8.759
REMARK INTER:                  -7.444
REMARK INTRA:                  -1.315
REMARK UNBOUND:                -0.846
REMARK SMILES CCCCCCCCCCCCCCCC(=O)[O-]
REMARK SMILES IDX 9 1 10 2 11 3 12 4 13 5 14 6 15 7 16 8 17 9 18 10 8 11 7 12
REMARK SMILES IDX 6 13 5 14 4 15 3 16 2 17 1 18
REMARK H PARENT
REMARK Flexibility Score: inf
ROOT
ATOM      1  C   UNL     1      44.958  25.807   4.113  1.00  0.00     0.000 C 
ENDROOT
BRANCH   1   2
ATOM      2  C   UNL     1      44.293  26.825   3.168  1.00  0.00     0.000 C 
BRANCH   2   3
ATOM      3  C   UNL     1      45.256  27.570   2.227  1.00  0.00     0.000 C 
BRANCH   3   4
ATOM      4  C   UNL     1      45.038  29.092   2.231  1.00  0.00     0.000 C 
BRANCH   4   5
ATOM      5  C   UNL     1      45.824  29.816   1.124  1.00  0.00     0.000 C 
BRANCH   5   6
ATOM      6  C   UNL     1      46.748  28.920   0.274  1.00  0.00     0.006 C 
BRANCH   6   7
ATOM      7  C   UNL     1      46.519  29.041  -1.244  1.00  0.00     0.053 C 
BRANCH   7   8
ATOM      8  C   UNL     1      45.317  28.271  -1.704  1.00  0.00     0.041 C 
ATOM      9  O   UNL     1      45.179  27.061  -1.385  1.00  0.00    -0.550 OA
ATOM     10  O   UNL     1      44.370  28.878  -2.519  1.00  0.00    -0.550 OA
ENDBRANCH   7   8
ENDBRANCH   6   7
ENDBRANCH   5   6
ENDBRANCH   4   5
ENDBRANCH   3   4
ENDBRANCH   2   3
ENDBRANCH   1   2
BRANCH   1  11
ATOM     11  C   UNL     1      46.490  25.903   4.116  1.00  0.00     0.000 C 
BRANCH  11  12
ATOM     12  C   UNL     1      47.008  26.361   5.488  1.00  0.00    -0.000 C 
BRANCH  12  13
ATOM     13  C   UNL     1      46.796  27.865   5.736  1.00  0.00    -0.000 C 
BRANCH  13  14
ATOM     14  C   UNL     1      45.862  28.207   6.917  1.00  0.00    -0.000 C 
BRANCH  14  15
ATOM     15  C   UNL     1      45.723  27.107   7.984  1.00  0.00    -0.000 C 
BRANCH  15  16
ATOM     16  C   UNL     1      45.160  27.635   9.315  1.00  0.00    -0.000 C 
BRANCH  16  17
ATOM     17  C   UNL     1      44.838  29.137   9.262  1.00  0.00    -0.003 C 
ATOM     18  C   UNL     1      44.384  29.694  10.611  1.00  0.00     0.004 C 
ENDBRANCH  16  17
ENDBRANCH  15  16
ENDBRANCH  14  15
ENDBRANCH  13  14
ENDBRANCH  12  13
ENDBRANCH  11  12
ENDBRANCH   1  11
TORSDOF 14
ENDMDL
MODEL 5
REMARK VINA RESULT:    -4.306      1.023      1.550
REMARK INTER + INTRA:          -8.677
REMARK INTER:                  -7.846
REMARK INTRA:                  -0.831
REMARK UNBOUND:                -0.846
REMARK SMILES CCCCCCCCCCCCCCCC(=O)[O-]
REMARK SMILES IDX 9 1 10 2 11 3 12 4 13 5 14 6 15 7 16 8 17 9 18 10 8 11 7 12
REMARK SMILES IDX 6 13 5 14 4 15 3 16 2 17 1 18
REMARK H PARENT
REMARK Flexibility Score: inf
ROOT
ATOM      1  C   UNL     1      44.119  27.127   2.691  1.00  0.00     0.000 C 
ENDROOT
BRANCH   1   2
ATOM      2  C   UNL     1      45.210  28.001   2.047  1.00  0.00     0.000 C 
BRANCH   2   3
ATOM      3  C   UNL     1      45.329  27.878   0.517  1.00  0.00     0.000 C 
BRANCH   3   4
ATOM      4  C   UNL     1      45.889  29.148  -0.143  1.00  0.00     0.000 C 
BRANCH   4   5
ATOM      5  C   UNL     1      45.944  29.055  -1.678  1.00  0.00     0.000 C 
BRANCH   5   6
ATOM      6  C   UNL     1      44.928  28.089  -2.320  1.00  0.00     0.006 C 
BRANCH   6   7
ATOM      7  C   UNL     1      44.001  28.748  -3.357  1.00  0.00     0.053 C 
BRANCH   7   8
ATOM      8  C   UNL     1      42.970  27.797  -3.888  1.00  0.00     0.041 C 
ATOM      9  O   UNL     1      41.925  28.237  -4.435  1.00  0.00    -0.550 OA
ATOM     10  O   UNL     1      43.141  26.427  -3.740  1.00  0.00    -0.550 OA
ENDBRANCH   7   8
ENDBRANCH   6   7
ENDBRANCH   5   6
ENDBRANCH   4   5
ENDBRANCH   3   4
ENDBRANCH   2   3
ENDBRANCH   1   2
BRANCH   1  11
ATOM     11  C   UNL     1      44.679  26.112   3.698  1.00  0.00     0.000 C 
BRANCH  11  12
ATOM     12  C   UNL     1      46.182  26.337   3.924  1.00  0.00    -0.000 C 
BRANCH  12  13
ATOM     13  C   UNL     1      46.535  26.584   5.401  1.00  0.00    -0.000 C 
BRANCH  13  14
ATOM     14  C   UNL     1      46.046  27.931   5.973  1.00  0.00    -0.000 C 
BRANCH  14  15
ATOM     15  C   UNL     1      46.295  28.135   7.479  1.00  0.00    -0.000 C 
BRANCH  15  16
ATOM     16  C   UNL     1      46.288  26.814   8.268  1.00  0.00    -0.000 C 
BRANCH  16  17
ATOM     17  C   UNL     1      45.187  26.776   9.339  1.00  0.00    -0.003 C 
ATOM     18  C   UNL     1      44.827  28.164   9.869  1.00  0.00     0.004 C 
ENDBRANCH  16  17
ENDBRANCH  15  16
ENDBRANCH  14  15
ENDBRANCH  13  14
ENDBRANCH  12  13
ENDBRANCH  11  12
ENDBRANCH   1  11
TORSDOF 14
ENDMDL
MODEL 6
REMARK VINA RESULT:    -4.289      2.063      3.561
REMARK INTER + INTRA:          -8.646
REMARK INTER:                  -6.978
REMARK INTRA:                  -1.667
REMARK UNBOUND:                -0.846
REMARK SMILES CCCCCCCCCCCCCCCC(=O)[O-]
REMARK SMILES IDX 9 1 10 2 11 3 12 4 13 5 14 6 15 7 16 8 17 9 18 10 8 11 7 12
REMARK SMILES IDX 6 13 5 14 4 15 3 16 2 17 1 18
REMARK H PARENT
REMARK Flexibility Score: inf
ROOT
ATOM      1  C   UNL     1      45.488  25.839   4.176  1.00  0.00     0.000 C 
ENDROOT
BRANCH   1   2
ATOM      2  C   UNL     1      45.284  26.806   2.995  1.00  0.00     0.000 C 
BRANCH   2   3
ATOM      3  C   UNL     1      43.955  27.582   3.006  1.00  0.00     0.000 C 
BRANCH   3   4
ATOM      4  C   UNL     1      44.150  29.102   2.881  1.00  0.00     0.000 C 
BRANCH   4   5
ATOM      5  C   UNL     1      45.533  29.488   2.329  1.00  0.00     0.000 C 
BRANCH   5   6
ATOM      6  C   UNL     1      45.568  29.870   0.836  1.00  0.00     0.006 C 
BRANCH   6   7
ATOM      7  C   UNL     1      46.243  28.821  -0.067  1.00  0.00     0.053 C 
BRANCH   7   8
ATOM      8  C   UNL     1      45.386  28.436  -1.236  1.00  0.00     0.041 C 
ATOM      9  O   UNL     1      44.791  29.322  -1.904  1.00  0.00    -0.550 OA
ATOM     10  O   UNL     1      45.210  27.098  -1.563  1.00  0.00    -0.550 OA
ENDBRANCH   7   8
ENDBRANCH   6   7
ENDBRANCH   5   6
ENDBRANCH   4   5
ENDBRANCH   3   4
ENDBRANCH   2   3
ENDBRANCH   1   2
BRANCH   1  11
ATOM     11  C   UNL     1      45.589  26.557   5.528  1.00  0.00     0.000 C 
BRANCH  11  12
ATOM     12  C   UNL     1      46.698  27.620   5.504  1.00  0.00    -0.000 C 
BRANCH  12  13
ATOM     13  C   UNL     1      46.237  28.979   6.060  1.00  0.00    -0.000 C 
BRANCH  13  14
ATOM     14  C   UNL     1      46.426  29.161   7.581  1.00  0.00    -0.000 C 
BRANCH  14  15
ATOM     15  C   UNL     1      45.131  29.120   8.412  1.00  0.00    -0.000 C 
BRANCH  15  16
ATOM     16  C   UNL     1      45.238  28.196   9.637  1.00  0.00    -0.000 C 
BRANCH  16  17
ATOM     17  C   UNL     1      45.202  26.708   9.255  1.00  0.00    -0.003 C 
ATOM     18  C   UNL     1      46.552  26.015   9.442  1.00  0.00     0.004 C 
ENDBRANCH  16  17
ENDBRANCH  15  16
ENDBRANCH  14  15
ENDBRANCH  13  14
ENDBRANCH  12  13
ENDBRANCH  11  12
ENDBRANCH   1  11
TORSDOF 14
ENDMDL
MODEL 7
REMARK VINA RESULT:    -4.052      3.963      9.022
REMARK INTER + INTRA:          -8.214
REMARK INTER:                  -6.396
REMARK INTRA:                  -1.818
REMARK UNBOUND:                -0.846
REMARK SMILES CCCCCCCCCCCCCCCC(=O)[O-]
REMARK SMILES IDX 9 1 10 2 11 3 12 4 13 5 14 6 15 7 16 8 17 9 18 10 8 11 7 12
REMARK SMILES IDX 6 13 5 14 4 15 3 16 2 17 1 18
REMARK H PARENT
REMARK Flexibility Score: inf
ROOT
ATOM      1  C   UNL     1      46.019  27.492  -2.667  1.00  0.00     0.000 C 
ENDROOT
BRANCH   1   2
ATOM      2  C   UNL     1      45.270  27.885  -1.380  1.00  0.00     0.000 C 
BRANCH   2   3
ATOM      3  C   UNL     1      45.437  29.353  -0.949  1.00  0.00     0.000 C 
BRANCH   3   4
ATOM      4  C   UNL     1      46.102  29.499   0.430  1.00  0.00     0.000 C 
BRANCH   4   5
ATOM      5  C   UNL     1      45.843  28.297   1.354  1.00  0.00     0.000 C 
BRANCH   5   6
ATOM      6  C   UNL     1      44.658  28.453   2.327  1.00  0.00     0.006 C 
BRANCH   6   7
ATOM      7  C   UNL     1      44.123  27.122   2.887  1.00  0.00     0.053 C 
BRANCH   7   8
ATOM      8  C   UNL     1      45.062  26.499   3.875  1.00  0.00     0.041 C 
ATOM      9  O   UNL     1      45.681  27.219   4.703  1.00  0.00    -0.550 OA
ATOM     10  O   UNL     1      45.289  25.128   3.855  1.00  0.00    -0.550 OA
ENDBRANCH   7   8
ENDBRANCH   6   7
ENDBRANCH   5   6
ENDBRANCH   4   5
ENDBRANCH   3   4
ENDBRANCH   2   3
ENDBRANCH   1   2
BRANCH   1  11
ATOM     11  C   UNL     1      46.989  28.578  -3.152  1.00  0.00     0.000 C 
BRANCH  11  12
ATOM     12  C   UNL     1      46.934  28.720  -4.681  1.00  0.00    -0.000 C 
BRANCH  12  13
ATOM     13  C   UNL     1      46.112  27.608  -5.356  1.00  0.00    -0.000 C 
BRANCH  13  14
ATOM     14  C   UNL     1      45.276  28.059  -6.573  1.00  0.00    -0.000 C 
BRANCH  14  15
ATOM     15  C   UNL     1      43.759  28.146  -6.331  1.00  0.00    -0.000 C 
BRANCH  15  16
ATOM     16  C   UNL     1      43.323  27.468  -5.021  1.00  0.00    -0.000 C 
BRANCH  16  17
ATOM     17  C   UNL     1      42.466  28.388  -4.139  1.00  0.00    -0.003 C 
ATOM     18  C   UNL     1      43.131  29.738  -3.868  1.00  0.00     0.004 C 
ENDBRANCH  16  17
ENDBRANCH  15  16
ENDBRANCH  14  15
ENDBRANCH  13  14
ENDBRANCH  12  13
ENDBRANCH  11  12
ENDBRANCH   1  11
TORSDOF 14
ENDMDL
MODEL 8
REMARK VINA RESULT:    -3.923      1.184      2.267
REMARK INTER + INTRA:          -7.980
REMARK INTER:                  -6.794
REMARK INTRA:                  -1.187
REMARK UNBOUND:                -0.846
REMARK SMILES CCCCCCCCCCCCCCCC(=O)[O-]
REMARK SMILES IDX 9 1 10 2 11 3 12 4 13 5 14 6 15 7 16 8 17 9 18 10 8 11 7 12
REMARK SMILES IDX 6 13 5 14 4 15 3 16 2 17 1 18
REMARK H PARENT
REMARK Flexibility Score: inf
ROOT
ATOM      1  C   UNL     1      45.388  29.817   1.099  1.00  0.00     0.000 C 
ENDROOT
BRANCH   1   2
ATOM      2  C   UNL     1      45.897  29.491  -0.318  1.00  0.00     0.000 C 
BRANCH   2   3
ATOM      3  C   UNL     1      45.637  28.049  -0.790  1.00  0.00     0.000 C 
BRANCH   3   4
ATOM      4  C   UNL     1      46.075  27.809  -2.245  1.00  0.00     0.000 C 
BRANCH   4   5
ATOM      5  C   UNL     1      46.127  29.101  -3.079  1.00  0.00     0.000 C 
BRANCH   5   6
ATOM      6  C   UNL     1      45.052  29.224  -4.177  1.00  0.00     0.006 C 
BRANCH   6   7
ATOM      7  C   UNL     1      43.605  29.160  -3.653  1.00  0.00     0.053 C 
BRANCH   7   8
ATOM      8  C   UNL     1      42.793  28.106  -4.344  1.00  0.00     0.041 C 
ATOM      9  O   UNL     1      41.579  27.948  -4.050  1.00  0.00    -0.550 OA
ATOM     10  O   UNL     1      43.385  27.270  -5.281  1.00  0.00    -0.550 OA
ENDBRANCH   7   8
ENDBRANCH   6   7
ENDBRANCH   5   6
ENDBRANCH   4   5
ENDBRANCH   3   4
ENDBRANCH   2   3
ENDBRANCH   1   2
BRANCH   1  11
ATOM     11  C   UNL     1      45.800  28.767   2.140  1.00  0.00     0.000 C 
BRANCH  11  12
ATOM     12  C   UNL     1      44.595  28.336   2.990  1.00  0.00    -0.000 C 
BRANCH  12  13
ATOM     13  C   UNL     1      44.334  26.820   2.934  1.00  0.00    -0.000 C 
BRANCH  13  14
ATOM     14  C   UNL     1      44.846  26.023   4.152  1.00  0.00    -0.000 C 
BRANCH  14  15
ATOM     15  C   UNL     1      46.356  25.722   4.153  1.00  0.00    -0.000 C 
BRANCH  15  16
ATOM     16  C   UNL     1      47.086  26.336   5.359  1.00  0.00    -0.000 C 
BRANCH  16  17
ATOM     17  C   UNL     1      46.151  27.167   6.251  1.00  0.00    -0.003 C 
ATOM     18  C   UNL     1      46.077  26.641   7.685  1.00  0.00     0.004 C 
ENDBRANCH  16  17
ENDBRANCH  15  16
ENDBRANCH  14  15
ENDBRANCH  13  14
ENDBRANCH  12  13
ENDBRANCH  11  12
ENDBRANCH   1  11
TORSDOF 14
ENDMDL
MODEL 9
REMARK VINA RESULT:    -3.744      1.920      4.242
REMARK INTER + INTRA:          -7.654
REMARK INTER:                  -6.528
REMARK INTRA:                  -1.127
REMARK UNBOUND:                -0.846
REMARK SMILES CCCCCCCCCCCCCCCC(=O)[O-]
REMARK SMILES IDX 9 1 10 2 11 3 12 4 13 5 14 6 15 7 16 8 17 9 18 10 8 11 7 12
REMARK SMILES IDX 6 13 5 14 4 15 3 16 2 17 1 18
REMARK H PARENT
REMARK Flexibility Score: inf
ROOT
ATOM      1  C   UNL     1      45.223  27.905  -1.920  1.00  0.00     0.000 C 
ENDROOT
BRANCH   1   2
ATOM      2  C   UNL     1      46.497  27.614  -2.735  1.00  0.00     0.000 C 
BRANCH   2   3
ATOM      3  C   UNL     1      46.737  28.551  -3.932  1.00  0.00     0.000 C 
BRANCH   3   4
ATOM      4  C   UNL     1      46.760  27.807  -5.278  1.00  0.00     0.000 C 
BRANCH   4   5
ATOM      5  C   UNL     1      45.431  27.910  -6.046  1.00  0.00     0.000 C 
BRANCH   5   6
ATOM      6  C   UNL     1      44.457  28.992  -5.540  1.00  0.00     0.006 C 
BRANCH   6   7
ATOM      7  C   UNL     1      43.246  29.230  -6.461  1.00  0.00     0.053 C 
BRANCH   7   8
ATOM      8  C   UNL     1      41.942  29.153  -5.723  1.00  0.00     0.041 C 
ATOM      9  O   UNL     1      40.950  29.819  -6.120  1.00  0.00    -0.550 OA
ATOM     10  O   UNL     1      41.835  28.382  -4.573  1.00  0.00    -0.550 OA
ENDBRANCH   7   8
ENDBRANCH   6   7
ENDBRANCH   5   6
ENDBRANCH   4   5
ENDBRANCH   3   4
ENDBRANCH   2   3
ENDBRANCH   1   2
BRANCH   1  11
ATOM     11  C   UNL     1      45.022  29.401  -1.637  1.00  0.00     0.000 C 
BRANCH  11  12
ATOM     12  C   UNL     1      45.972  29.883  -0.530  1.00  0.00    -0.000 C 
BRANCH  12  13
ATOM     13  C   UNL     1      45.335  29.830   0.870  1.00  0.00    -0.000 C 
BRANCH  13  14
ATOM     14  C   UNL     1      45.800  28.656   1.756  1.00  0.00    -0.000 C 
BRANCH  14  15
ATOM     15  C   UNL     1      44.898  27.409   1.721  1.00  0.00    -0.000 C 
BRANCH  15  16
ATOM     16  C   UNL     1      44.231  27.117   3.076  1.00  0.00    -0.000 C 
BRANCH  16  17
ATOM     17  C   UNL     1      45.043  26.130   3.930  1.00  0.00    -0.003 C 
ATOM     18  C   UNL     1      45.850  26.822   5.028  1.00  0.00     0.004 C 
ENDBRANCH  16  17
ENDBRANCH  15  16
ENDBRANCH  14  15
ENDBRANCH  13  14
ENDBRANCH  12  13
ENDBRANCH  11  12
ENDBRANCH   1  11
TORSDOF 14
ENDMDL
