MODEL 1
REMARK VINA RESULT:    -8.442      0.000      0.000
REMARK INTER + INTRA:         -16.992
REMARK INTER:                 -14.859
REMARK INTRA:                  -2.134
REMARK UNBOUND:                -2.134
REMARK SMILES COc1cc(-c2[o+]c3cc(O)cc(O[C@@H]4O[C@@H](CO)[C@H](O)[C@H](O)[C@H]4O)c3cc2O[C@@H]2O[C@@H](CO)[C@H](O)[C@H](O)[C@H]2O)ccc1O
REMARK SMILES IDX 6 1 28 2 27 3 26 4 13 5 12 6 10 7 9 8 8 9 7 10 5 11 3 12
REMARK SMILES IDX 43 13 4 14 42 15 41 16 2 17 1 18 44 19 29 21 30 22 39 23
REMARK SMILES IDX 31 24 37 25 32 26 35 27 40 28 38 30 33 32 34 33 36 35 14 37
REMARK SMILES IDX 15 38 24 39 16 40 22 41 17 42 20 43 25 44 23 46 18 48 19 49
REMARK SMILES IDX 21 51 11 53
REMARK H PARENT 44 20 40 29 38 31 34 34 36 36 25 45 23 47 19 50 21 52 11 54
REMARK Flexibility Score: inf
ROOT
ATOM      1  C   UNL     1      -1.277 -14.317  25.995  1.00  0.00     0.402 A 
ATOM      2  C   UNL     1      -1.769 -14.834  27.266  1.00  0.00     0.229 A 
ATOM      3  C   UNL     1      -1.587 -16.214  27.383  1.00  0.00     0.079 A 
ATOM      4  C   UNL     1      -1.358 -17.066  26.309  1.00  0.00     0.126 A 
ATOM      5  C   UNL     1      -1.354 -18.519  26.348  1.00  0.00     0.143 A 
ATOM      6  C   UNL     1      -0.962 -19.252  25.224  1.00  0.00     0.094 A 
ATOM      7  C   UNL     1      -0.922 -18.593  24.025  1.00  0.00     0.128 A 
ATOM      8  C   UNL     1      -1.066 -17.235  23.908  1.00  0.00     0.162 A 
ATOM      9  C   UNL     1      -1.233 -16.487  25.054  1.00  0.00     0.368 A 
ATOM     10  O   UNL     1      -1.163 -15.153  24.964  1.00  0.00    -0.202 OA
ENDROOT
BRANCH   1  11
ATOM     11  C   UNL     1      -0.679 -13.079  25.884  1.00  0.00     0.087 A 
ATOM     12  C   UNL     1      -1.073 -10.702  25.869  1.00  0.00     0.161 A 
ATOM     13  C   UNL     1       0.029 -10.509  25.011  1.00  0.00     0.157 A 
ATOM     14  C   UNL     1      -1.468 -11.991  26.262  1.00  0.00     0.068 A 
ATOM     15  C   UNL     1       0.907 -11.578  24.791  1.00  0.00     0.051 A 
ATOM     16  C   UNL     1       0.556 -12.873  25.326  1.00  0.00     0.022 A 
BRANCH  12  17
ATOM     17  O   UNL     1      -1.822  -9.601  26.366  1.00  0.00    -0.493 OA
ATOM     18  C   UNL     1      -2.071  -9.540  27.782  1.00  0.00     0.278 C 
ENDBRANCH  12  17
BRANCH  13  19
ATOM     19  O   UNL     1       0.158  -9.346  24.287  1.00  0.00    -0.504 OA
ATOM     20  H   UNL     1       0.876  -8.657  24.502  1.00  0.00     0.293 HD
ENDBRANCH  13  19
ENDBRANCH   1  11
BRANCH   2  21
ATOM     21  O   UNL     1      -2.541 -14.084  28.157  1.00  0.00    -0.452 OA
BRANCH  21  22
ATOM     22  C   UNL     1      -3.909 -14.291  28.689  1.00  0.00     0.339 C 
ATOM     23  C   UNL     1      -3.982 -14.259  30.284  1.00  0.00     0.214 C 
ATOM     24  O   UNL     1      -4.755 -13.379  28.103  1.00  0.00    -0.332 OA
ATOM     25  C   UNL     1      -5.514 -14.557  30.639  1.00  0.00     0.180 C 
ATOM     26  C   UNL     1      -6.126 -13.643  28.327  1.00  0.00     0.179 C 
ATOM     27  C   UNL     1      -6.522 -14.693  29.355  1.00  0.00     0.177 C 
BRANCH  23  28
ATOM     28  O   UNL     1      -3.177 -15.389  30.711  1.00  0.00    -0.384 OA
ATOM     29  H   UNL     1      -3.731 -16.277  30.605  1.00  0.00     0.211 HD
ENDBRANCH  23  28
BRANCH  25  30
ATOM     30  O   UNL     1      -6.052 -13.596  31.557  1.00  0.00    -0.387 OA
ATOM     31  H   UNL     1      -7.041 -13.527  31.432  1.00  0.00     0.211 HD
ENDBRANCH  25  30
BRANCH  26  32
ATOM     32  C   UNL     1      -6.860 -14.072  27.000  1.00  0.00     0.191 C 
BRANCH  32  33
ATOM     33  O   UNL     1      -8.179 -13.611  27.045  1.00  0.00    -0.394 OA
ATOM     34  H   UNL     1      -8.382 -13.420  26.045  1.00  0.00     0.210 HD
ENDBRANCH  32  33
ENDBRANCH  26  32
BRANCH  27  35
ATOM     35  O   UNL     1      -7.856 -14.302  29.702  1.00  0.00    -0.387 OA
ATOM     36  H   UNL     1      -8.356 -14.798  30.456  1.00  0.00     0.211 HD
ENDBRANCH  27  35
ENDBRANCH  21  22
ENDBRANCH   2  21
BRANCH   5  37
ATOM     37  O   UNL     1      -1.753 -19.360  27.422  1.00  0.00    -0.461 OA
BRANCH  37  38
ATOM     38  C   UNL     1      -1.076 -19.966  28.519  1.00  0.00     0.339 C 
ATOM     39  C   UNL     1      -1.773 -19.483  29.834  1.00  0.00     0.214 C 
ATOM     40  O   UNL     1      -0.557 -21.287  28.287  1.00  0.00    -0.332 OA
ATOM     41  C   UNL     1      -2.004 -20.556  30.921  1.00  0.00     0.180 C 
ATOM     42  C   UNL     1      -1.178 -22.323  29.057  1.00  0.00     0.179 C 
ATOM     43  C   UNL     1      -1.338 -21.965  30.600  1.00  0.00     0.177 C 
BRANCH  39  44
ATOM     44  O   UNL     1      -1.110 -18.327  30.332  1.00  0.00    -0.384 OA
ATOM     45  H   UNL     1      -1.551 -18.107  31.211  1.00  0.00     0.211 HD
ENDBRANCH  39  44
BRANCH  41  46
ATOM     46  O   UNL     1      -3.325 -20.527  31.402  1.00  0.00    -0.387 OA
ATOM     47  H   UNL     1      -4.118 -20.385  30.747  1.00  0.00     0.211 HD
ENDBRANCH  41  46
BRANCH  42  48
ATOM     48  C   UNL     1      -0.235 -23.493  28.826  1.00  0.00     0.191 C 
BRANCH  48  49
ATOM     49  O   UNL     1      -0.639 -24.609  29.601  1.00  0.00    -0.394 OA
ATOM     50  H   UNL     1      -1.221 -25.202  29.078  1.00  0.00     0.210 HD
ENDBRANCH  48  49
ENDBRANCH  42  48
BRANCH  43  51
ATOM     51  O   UNL     1      -2.073 -22.970  31.250  1.00  0.00    -0.387 OA
ATOM     52  H   UNL     1      -2.832 -23.273  30.680  1.00  0.00     0.211 HD
ENDBRANCH  43  51
ENDBRANCH  37  38
ENDBRANCH   5  37
BRANCH   7  53
ATOM     53  O   UNL     1      -0.946 -19.342  22.876  1.00  0.00    -0.507 OA
ATOM     54  H   UNL     1      -0.404 -20.266  22.880  1.00  0.00     0.293 HD
ENDBRANCH   7  53
TORSDOF 18
ENDMDL
MODEL 2
REMARK VINA RESULT:    -8.376      2.206      8.784
REMARK INTER + INTRA:         -16.875
REMARK INTER:                 -14.537
REMARK INTRA:                  -2.338
REMARK UNBOUND:                -2.134
REMARK SMILES COc1cc(-c2[o+]c3cc(O)cc(O[C@@H]4O[C@@H](CO)[C@H](O)[C@H](O)[C@H]4O)c3cc2O[C@@H]2O[C@@H](CO)[C@H](O)[C@H](O)[C@H]2O)ccc1O
REMARK SMILES IDX 6 1 28 2 27 3 26 4 13 5 12 6 10 7 9 8 8 9 7 10 5 11 3 12
REMARK SMILES IDX 43 13 4 14 42 15 41 16 2 17 1 18 44 19 29 21 30 22 39 23
REMARK SMILES IDX 31 24 37 25 32 26 35 27 40 28 38 30 33 32 34 33 36 35 14 37
REMARK SMILES IDX 15 38 24 39 16 40 22 41 17 42 20 43 25 44 23 46 18 48 19 49
REMARK SMILES IDX 21 51 11 53
REMARK H PARENT 44 20 40 29 38 31 34 34 36 36 25 45 23 47 19 50 21 52 11 54
REMARK Flexibility Score: inf
ROOT
ATOM      1  C   UNL     1      -0.399 -19.114  26.183  1.00  0.00     0.402 A 
ATOM      2  C   UNL     1      -1.534 -19.380  27.058  1.00  0.00     0.229 A 
ATOM      3  C   UNL     1      -2.317 -18.244  27.272  1.00  0.00     0.079 A 
ATOM      4  C   UNL     1      -1.885 -16.943  27.042  1.00  0.00     0.126 A 
ATOM      5  C   UNL     1      -2.580 -15.724  27.424  1.00  0.00     0.143 A 
ATOM      6  C   UNL     1      -2.103 -14.480  27.001  1.00  0.00     0.094 A 
ATOM      7  C   UNL     1      -0.820 -14.424  26.529  1.00  0.00     0.128 A 
ATOM      8  C   UNL     1      -0.060 -15.538  26.286  1.00  0.00     0.162 A 
ATOM      9  C   UNL     1      -0.618 -16.780  26.500  1.00  0.00     0.368 A 
ATOM     10  O   UNL     1       0.041 -17.862  26.067  1.00  0.00    -0.202 OA
ENDROOT
BRANCH   1  11
ATOM     11  C   UNL     1       0.065 -20.042  25.274  1.00  0.00     0.087 A 
ATOM     12  C   UNL     1       1.569 -21.898  24.957  1.00  0.00     0.161 A 
ATOM     13  C   UNL     1       1.726 -21.558  23.597  1.00  0.00     0.157 A 
ATOM     14  C   UNL     1       0.786 -21.109  25.815  1.00  0.00     0.068 A 
ATOM     15  C   UNL     1       0.865 -20.606  23.037  1.00  0.00     0.051 A 
ATOM     16  C   UNL     1      -0.039 -19.901  23.915  1.00  0.00     0.022 A 
BRANCH  12  17
ATOM     17  O   UNL     1       2.196 -23.049  25.507  1.00  0.00    -0.493 OA
ATOM     18  C   UNL     1       1.526 -24.314  25.363  1.00  0.00     0.278 C 
ENDBRANCH  12  17
BRANCH  13  19
ATOM     19  O   UNL     1       2.795 -22.037  22.875  1.00  0.00    -0.504 OA
ATOM     20  H   UNL     1       2.804 -22.980  22.492  1.00  0.00     0.293 HD
ENDBRANCH  13  19
ENDBRANCH   1  11
BRANCH   2  21
ATOM     21  O   UNL     1      -1.687 -20.565  27.784  1.00  0.00    -0.452 OA
BRANCH  21  22
ATOM     22  C   UNL     1      -1.191 -20.971  29.120  1.00  0.00     0.339 C 
ATOM     23  C   UNL     1      -2.342 -21.078  30.221  1.00  0.00     0.214 C 
ATOM     24  O   UNL     1      -0.473 -22.137  28.990  1.00  0.00    -0.332 OA
ATOM     25  C   UNL     1      -1.589 -21.466  31.579  1.00  0.00     0.180 C 
ATOM     26  C   UNL     1       0.270 -22.484  30.142  1.00  0.00     0.179 C 
ATOM     27  C   UNL     1       0.022 -21.730  31.441  1.00  0.00     0.177 C 
BRANCH  23  28
ATOM     28  O   UNL     1      -2.857 -19.726  30.344  1.00  0.00    -0.384 OA
ATOM     29  H   UNL     1      -2.122 -19.039  30.037  1.00  0.00     0.211 HD
ENDBRANCH  23  28
BRANCH  25  30
ATOM     30  O   UNL     1      -2.194 -22.590  32.230  1.00  0.00    -0.387 OA
ATOM     31  H   UNL     1      -2.578 -22.306  33.107  1.00  0.00     0.211 HD
ENDBRANCH  25  30
BRANCH  26  32
ATOM     32  C   UNL     1       1.821 -22.367  29.890  1.00  0.00     0.191 C 
BRANCH  32  33
ATOM     33  O   UNL     1       2.110 -22.866  28.616  1.00  0.00    -0.394 OA
ATOM     34  H   UNL     1       2.838 -23.577  28.816  1.00  0.00     0.210 HD
ENDBRANCH  32  33
ENDBRANCH  26  32
BRANCH  27  35
ATOM     35  O   UNL     1       0.480 -22.659  32.432  1.00  0.00    -0.387 OA
ATOM     36  H   UNL     1       0.645 -23.644  32.174  1.00  0.00     0.211 HD
ENDBRANCH  27  35
ENDBRANCH  21  22
ENDBRANCH   2  21
BRANCH   5  37
ATOM     37  O   UNL     1      -3.728 -15.603  28.254  1.00  0.00    -0.461 OA
BRANCH  37  38
ATOM     38  C   UNL     1      -4.504 -14.507  28.729  1.00  0.00     0.339 C 
ATOM     39  C   UNL     1      -5.846 -14.490  27.923  1.00  0.00     0.214 C 
ATOM     40  O   UNL     1      -4.367 -14.197  30.127  1.00  0.00    -0.332 OA
ATOM     41  C   UNL     1      -7.130 -14.213  28.736  1.00  0.00     0.180 C 
ATOM     42  C   UNL     1      -5.546 -14.412  30.911  1.00  0.00     0.179 C 
ATOM     43  C   UNL     1      -6.869 -13.817  30.254  1.00  0.00     0.177 C 
BRANCH  39  44
ATOM     44  O   UNL     1      -5.714 -13.638  26.792  1.00  0.00    -0.384 OA
ATOM     45  H   UNL     1      -6.488 -12.993  26.834  1.00  0.00     0.211 HD
ENDBRANCH  39  44
BRANCH  41  46
ATOM     46  O   UNL     1      -8.136 -15.152  28.445  1.00  0.00    -0.387 OA
ATOM     47  H   UNL     1      -8.615 -15.138  27.524  1.00  0.00     0.211 HD
ENDBRANCH  41  46
BRANCH  42  48
ATOM     48  C   UNL     1      -5.183 -13.723  32.217  1.00  0.00     0.191 C 
BRANCH  48  49
ATOM     49  O   UNL     1      -6.039 -14.163  33.258  1.00  0.00    -0.394 OA
ATOM     50  H   UNL     1      -6.406 -15.051  33.053  1.00  0.00     0.210 HD
ENDBRANCH  48  49
ENDBRANCH  42  48
BRANCH  43  51
ATOM     51  O   UNL     1      -7.989 -14.189  31.016  1.00  0.00    -0.387 OA
ATOM     52  H   UNL     1      -8.761 -14.403  30.423  1.00  0.00     0.211 HD
ENDBRANCH  43  51
ENDBRANCH  37  38
ENDBRANCH   5  37
BRANCH   7  53
ATOM     53  O   UNL     1      -0.198 -13.202  26.495  1.00  0.00    -0.507 OA
ATOM     54  H   UNL     1       0.257 -12.908  25.572  1.00  0.00     0.293 HD
ENDBRANCH   7  53
TORSDOF 18
ENDMDL
MODEL 3
REMARK VINA RESULT:    -8.361      1.007      1.711
REMARK INTER + INTRA:         -16.848
REMARK INTER:                 -14.381
REMARK INTRA:                  -2.468
REMARK UNBOUND:                -2.134
REMARK SMILES COc1cc(-c2[o+]c3cc(O)cc(O[C@@H]4O[C@@H](CO)[C@H](O)[C@H](O)[C@H]4O)c3cc2O[C@@H]2O[C@@H](CO)[C@H](O)[C@H](O)[C@H]2O)ccc1O
REMARK SMILES IDX 6 1 28 2 27 3 26 4 13 5 12 6 10 7 9 8 8 9 7 10 5 11 3 12
REMARK SMILES IDX 43 13 4 14 42 15 41 16 2 17 1 18 44 19 29 21 30 22 39 23
REMARK SMILES IDX 31 24 37 25 32 26 35 27 40 28 38 30 33 32 34 33 36 35 14 37
REMARK SMILES IDX 15 38 24 39 16 40 22 41 17 42 20 43 25 44 23 46 18 48 19 49
REMARK SMILES IDX 21 51 11 53
REMARK H PARENT 44 20 40 29 38 31 34 34 36 36 25 45 23 47 19 50 21 52 11 54
REMARK Flexibility Score: inf
ROOT
ATOM      1  C   UNL     1      -1.140 -14.653  25.698  1.00  0.00     0.402 A 
ATOM      2  C   UNL     1      -1.649 -15.084  26.994  1.00  0.00     0.229 A 
ATOM      3  C   UNL     1      -1.502 -16.459  27.192  1.00  0.00     0.079 A 
ATOM      4  C   UNL     1      -1.288 -17.377  26.170  1.00  0.00     0.126 A 
ATOM      5  C   UNL     1      -1.319 -18.825  26.292  1.00  0.00     0.143 A 
ATOM      6  C   UNL     1      -0.941 -19.630  25.214  1.00  0.00     0.094 A 
ATOM      7  C   UNL     1      -0.880 -19.043  23.980  1.00  0.00     0.128 A 
ATOM      8  C   UNL     1      -0.990 -17.691  23.784  1.00  0.00     0.162 A 
ATOM      9  C   UNL     1      -1.145 -16.875  24.884  1.00  0.00     0.368 A 
ATOM     10  O   UNL     1      -1.042 -15.550  24.718  1.00  0.00    -0.202 OA
ENDROOT
BRANCH   1  11
ATOM     11  C   UNL     1      -0.511 -13.439  25.520  1.00  0.00     0.087 A 
ATOM     12  C   UNL     1       1.618 -12.309  25.527  1.00  0.00     0.161 A 
ATOM     13  C   UNL     1       0.997 -11.110  25.935  1.00  0.00     0.157 A 
ATOM     14  C   UNL     1       0.877 -13.492  25.375  1.00  0.00     0.068 A 
ATOM     15  C   UNL     1      -0.401 -11.029  25.900  1.00  0.00     0.051 A 
ATOM     16  C   UNL     1      -1.148 -12.228  25.599  1.00  0.00     0.022 A 
BRANCH  12  17
ATOM     17  O   UNL     1       3.012 -12.363  25.257  1.00  0.00    -0.493 OA
ATOM     18  C   UNL     1       3.479 -13.357  24.328  1.00  0.00     0.278 C 
ENDBRANCH  12  17
BRANCH  13  19
ATOM     19  O   UNL     1       1.737 -10.095  26.498  1.00  0.00    -0.504 OA
ATOM     20  H   UNL     1       2.709 -10.227  26.769  1.00  0.00     0.293 HD
ENDBRANCH  13  19
ENDBRANCH   1  11
BRANCH   2  21
ATOM     21  O   UNL     1      -2.407 -14.265  27.836  1.00  0.00    -0.452 OA
BRANCH  21  22
ATOM     22  C   UNL     1      -3.743 -14.453  28.450  1.00  0.00     0.339 C 
ATOM     23  C   UNL     1      -3.710 -14.491  30.047  1.00  0.00     0.214 C 
ATOM     24  O   UNL     1      -4.594 -13.490  27.962  1.00  0.00    -0.332 OA
ATOM     25  C   UNL     1      -5.224 -14.757  30.491  1.00  0.00     0.180 C 
ATOM     26  C   UNL     1      -5.956 -13.721  28.266  1.00  0.00     0.179 C 
ATOM     27  C   UNL     1      -6.318 -14.804  29.272  1.00  0.00     0.177 C 
BRANCH  23  28
ATOM     28  O   UNL     1      -2.917 -15.664  30.369  1.00  0.00    -0.384 OA
ATOM     29  H   UNL     1      -2.090 -15.720  29.720  1.00  0.00     0.211 HD
ENDBRANCH  23  28
BRANCH  25  30
ATOM     30  O   UNL     1      -5.667 -13.822  31.483  1.00  0.00    -0.387 OA
ATOM     31  H   UNL     1      -5.465 -14.176  32.394  1.00  0.00     0.211 HD
ENDBRANCH  25  30
BRANCH  26  32
ATOM     32  C   UNL     1      -6.790 -14.067  26.975  1.00  0.00     0.191 C 
BRANCH  32  33
ATOM     33  O   UNL     1      -8.110 -13.649  27.165  1.00  0.00    -0.394 OA
ATOM     34  H   UNL     1      -8.616 -14.549  27.265  1.00  0.00     0.210 HD
ENDBRANCH  32  33
ENDBRANCH  26  32
BRANCH  27  35
ATOM     35  O   UNL     1      -7.613 -14.387  29.725  1.00  0.00    -0.387 OA
ATOM     36  H   UNL     1      -8.028 -14.824  30.563  1.00  0.00     0.211 HD
ENDBRANCH  27  35
ENDBRANCH  21  22
ENDBRANCH   2  21
BRANCH   5  37
ATOM     37  O   UNL     1      -1.744 -19.593  27.411  1.00  0.00    -0.461 OA
BRANCH  37  38
ATOM     38  C   UNL     1      -1.090 -20.128  28.557  1.00  0.00     0.339 C 
ATOM     39  C   UNL     1      -1.813 -19.560  29.825  1.00  0.00     0.214 C 
ATOM     40  O   UNL     1      -0.572 -21.463  28.422  1.00  0.00    -0.332 OA
ATOM     41  C   UNL     1      -2.069 -20.562  30.974  1.00  0.00     0.180 C 
ATOM     42  C   UNL     1      -1.211 -22.446  29.244  1.00  0.00     0.179 C 
ATOM     43  C   UNL     1      -1.401 -21.989  30.757  1.00  0.00     0.177 C 
BRANCH  39  44
ATOM     44  O   UNL     1      -1.156 -18.377  30.260  1.00  0.00    -0.384 OA
ATOM     45  H   UNL     1      -0.240 -18.391  29.838  1.00  0.00     0.211 HD
ENDBRANCH  39  44
BRANCH  41  46
ATOM     46  O   UNL     1      -3.399 -20.499  31.424  1.00  0.00    -0.387 OA
ATOM     47  H   UNL     1      -3.927 -19.606  31.376  1.00  0.00     0.211 HD
ENDBRANCH  41  46
BRANCH  42  48
ATOM     48  C   UNL     1      -0.268 -23.630  29.107  1.00  0.00     0.191 C 
BRANCH  48  49
ATOM     49  O   UNL     1      -0.881 -24.806  29.609  1.00  0.00    -0.394 OA
ATOM     50  H   UNL     1      -0.784 -25.547  28.971  1.00  0.00     0.210 HD
ENDBRANCH  48  49
ENDBRANCH  42  48
BRANCH  43  51
ATOM     51  O   UNL     1      -2.153 -22.949  31.455  1.00  0.00    -0.387 OA
ATOM     52  H   UNL     1      -2.599 -22.537  32.246  1.00  0.00     0.211 HD
ENDBRANCH  43  51
ENDBRANCH  37  38
ENDBRANCH   5  37
BRANCH   7  53
ATOM     53  O   UNL     1      -0.918 -19.856  22.876  1.00  0.00    -0.507 OA
ATOM     54  H   UNL     1       0.017 -20.099  22.412  1.00  0.00     0.293 HD
ENDBRANCH   7  53
TORSDOF 18
ENDMDL
MODEL 4
REMARK VINA RESULT:    -8.232      3.118      7.812
REMARK INTER + INTRA:         -16.622
REMARK INTER:                 -13.672
REMARK INTRA:                  -2.950
REMARK UNBOUND:                -2.134
REMARK SMILES COc1cc(-c2[o+]c3cc(O)cc(O[C@@H]4O[C@@H](CO)[C@H](O)[C@H](O)[C@H]4O)c3cc2O[C@@H]2O[C@@H](CO)[C@H](O)[C@H](O)[C@H]2O)ccc1O
REMARK SMILES IDX 6 1 28 2 27 3 26 4 13 5 12 6 10 7 9 8 8 9 7 10 5 11 3 12
REMARK SMILES IDX 43 13 4 14 42 15 41 16 2 17 1 18 44 19 29 21 30 22 39 23
REMARK SMILES IDX 31 24 37 25 32 26 35 27 40 28 38 30 33 32 34 33 36 35 14 37
REMARK SMILES IDX 15 38 24 39 16 40 22 41 17 42 20 43 25 44 23 46 18 48 19 49
REMARK SMILES IDX 21 51 11 53
REMARK H PARENT 44 20 40 29 38 31 34 34 36 36 25 45 23 47 19 50 21 52 11 54
REMARK Flexibility Score: inf
ROOT
ATOM      1  C   UNL     1      -1.322 -15.888  29.295  1.00  0.00     0.402 A 
ATOM      2  C   UNL     1      -2.177 -14.711  29.363  1.00  0.00     0.229 A 
ATOM      3  C   UNL     1      -1.776 -13.821  30.361  1.00  0.00     0.079 A 
ATOM      4  C   UNL     1      -0.947 -14.161  31.424  1.00  0.00     0.126 A 
ATOM      5  C   UNL     1      -0.655 -13.338  32.587  1.00  0.00     0.143 A 
ATOM      6  C   UNL     1       0.313 -13.743  33.510  1.00  0.00     0.094 A 
ATOM      7  C   UNL     1       0.709 -15.052  33.474  1.00  0.00     0.128 A 
ATOM      8  C   UNL     1       0.346 -15.920  32.478  1.00  0.00     0.162 A 
ATOM      9  C   UNL     1      -0.436 -15.451  31.444  1.00  0.00     0.368 A 
ATOM     10  O   UNL     1      -0.616 -16.231  30.371  1.00  0.00    -0.202 OA
ENDROOT
BRANCH   1  11
ATOM     11  C   UNL     1      -1.006 -16.503  28.101  1.00  0.00     0.087 A 
ATOM     12  C   UNL     1      -0.560 -16.136  25.761  1.00  0.00     0.161 A 
ATOM     13  C   UNL     1      -1.078 -17.409  25.447  1.00  0.00     0.157 A 
ATOM     14  C   UNL     1      -0.576 -15.653  27.079  1.00  0.00     0.068 A 
ATOM     15  C   UNL     1      -1.335 -18.308  26.489  1.00  0.00     0.051 A 
ATOM     16  C   UNL     1      -1.207 -17.834  27.848  1.00  0.00     0.022 A 
BRANCH  12  17
ATOM     17  O   UNL     1      -0.005 -15.297  24.756  1.00  0.00    -0.493 OA
ATOM     18  C   UNL     1       0.247 -13.921  25.093  1.00  0.00     0.278 C 
ENDBRANCH  12  17
BRANCH  13  19
ATOM     19  O   UNL     1      -1.466 -17.710  24.161  1.00  0.00    -0.504 OA
ATOM     20  H   UNL     1      -0.789 -17.940  23.437  1.00  0.00     0.293 HD
ENDBRANCH  13  19
ENDBRANCH   1  11
BRANCH   2  21
ATOM     21  O   UNL     1      -3.389 -14.596  28.675  1.00  0.00    -0.452 OA
BRANCH  21  22
ATOM     22  C   UNL     1      -4.765 -14.312  29.147  1.00  0.00     0.339 C 
ATOM     23  C   UNL     1      -5.890 -14.640  28.062  1.00  0.00     0.214 C 
ATOM     24  O   UNL     1      -4.970 -14.972  30.336  1.00  0.00    -0.332 OA
ATOM     25  C   UNL     1      -7.271 -14.211  28.748  1.00  0.00     0.180 C 
ATOM     26  C   UNL     1      -6.143 -14.574  31.018  1.00  0.00     0.179 C 
ATOM     27  C   UNL     1      -7.158 -13.696  30.299  1.00  0.00     0.177 C 
BRANCH  23  28
ATOM     28  O   UNL     1      -5.614 -13.731  26.963  1.00  0.00    -0.384 OA
ATOM     29  H   UNL     1      -5.937 -14.162  26.059  1.00  0.00     0.211 HD
ENDBRANCH  23  28
BRANCH  25  30
ATOM     30  O   UNL     1      -8.257 -15.248  28.669  1.00  0.00    -0.387 OA
ATOM     31  H   UNL     1      -9.160 -14.845  28.527  1.00  0.00     0.211 HD
ENDBRANCH  25  30
BRANCH  26  32
ATOM     32  C   UNL     1      -5.807 -13.803  32.351  1.00  0.00     0.191 C 
BRANCH  32  33
ATOM     33  O   UNL     1      -6.324 -14.524  33.431  1.00  0.00    -0.394 OA
ATOM     34  H   UNL     1      -7.280 -14.130  33.524  1.00  0.00     0.210 HD
ENDBRANCH  32  33
ENDBRANCH  26  32
BRANCH  27  35
ATOM     35  O   UNL     1      -8.367 -13.963  31.021  1.00  0.00    -0.387 OA
ATOM     36  H   UNL     1      -9.231 -14.193  30.506  1.00  0.00     0.211 HD
ENDBRANCH  27  35
ENDBRANCH  21  22
ENDBRANCH   2  21
BRANCH   5  37
ATOM     37  O   UNL     1      -1.279 -12.118  32.966  1.00  0.00    -0.461 OA
BRANCH  37  38
ATOM     38  C   UNL     1      -1.750 -10.977  32.256  1.00  0.00     0.339 C 
ATOM     39  C   UNL     1      -0.627 -10.543  31.254  1.00  0.00     0.214 C 
ATOM     40  O   UNL     1      -3.163 -10.937  31.992  1.00  0.00    -0.332 OA
ATOM     41  C   UNL     1      -1.092 -10.139  29.837  1.00  0.00     0.180 C 
ATOM     42  C   UNL     1      -3.522 -11.024  30.608  1.00  0.00     0.179 C 
ATOM     43  C   UNL     1      -2.671 -10.063  29.665  1.00  0.00     0.177 C 
BRANCH  39  44
ATOM     44  O   UNL     1       0.206  -9.564  31.862  1.00  0.00    -0.384 OA
ATOM     45  H   UNL     1       0.937 -10.072  32.336  1.00  0.00     0.211 HD
ENDBRANCH  39  44
BRANCH  41  46
ATOM     46  O   UNL     1      -0.334 -10.783  28.843  1.00  0.00    -0.387 OA
ATOM     47  H   UNL     1       0.578 -10.388  28.542  1.00  0.00     0.211 HD
ENDBRANCH  41  46
BRANCH  42  48
ATOM     48  C   UNL     1      -4.995 -10.651  30.643  1.00  0.00     0.191 C 
BRANCH  48  49
ATOM     49  O   UNL     1      -5.563 -10.778  29.350  1.00  0.00    -0.394 OA
ATOM     50  H   UNL     1      -5.514  -9.925  28.865  1.00  0.00     0.210 HD
ENDBRANCH  48  49
ENDBRANCH  42  48
BRANCH  43  51
ATOM     51  O   UNL     1      -2.991 -10.309  28.319  1.00  0.00    -0.387 OA
ATOM     52  H   UNL     1      -3.462 -11.183  28.225  1.00  0.00     0.211 HD
ENDBRANCH  43  51
ENDBRANCH  37  38
ENDBRANCH   5  37
BRANCH   7  53
ATOM     53  O   UNL     1       1.323 -15.571  34.586  1.00  0.00    -0.507 OA
ATOM     54  H   UNL     1       1.971 -16.412  34.442  1.00  0.00     0.293 HD
ENDBRANCH   7  53
TORSDOF 18
ENDMDL
MODEL 5
REMARK VINA RESULT:    -8.117      1.910      8.219
REMARK INTER + INTRA:         -16.420
REMARK INTER:                 -14.232
REMARK INTRA:                  -2.188
REMARK UNBOUND:                -2.134
REMARK SMILES COc1cc(-c2[o+]c3cc(O)cc(O[C@@H]4O[C@@H](CO)[C@H](O)[C@H](O)[C@H]4O)c3cc2O[C@@H]2O[C@@H](CO)[C@H](O)[C@H](O)[C@H]2O)ccc1O
REMARK SMILES IDX 6 1 28 2 27 3 26 4 13 5 12 6 10 7 9 8 8 9 7 10 5 11 3 12
REMARK SMILES IDX 43 13 4 14 42 15 41 16 2 17 1 18 44 19 29 21 30 22 39 23
REMARK SMILES IDX 31 24 37 25 32 26 35 27 40 28 38 30 33 32 34 33 36 35 14 37
REMARK SMILES IDX 15 38 24 39 16 40 22 41 17 42 20 43 25 44 23 46 18 48 19 49
REMARK SMILES IDX 21 51 11 53
REMARK H PARENT 44 20 40 29 38 31 34 34 36 36 25 45 23 47 19 50 21 52 11 54
REMARK Flexibility Score: inf
ROOT
ATOM      1  C   UNL     1      -0.513 -18.137  25.945  1.00  0.00     0.402 A 
ATOM      2  C   UNL     1      -1.618 -18.161  26.895  1.00  0.00     0.229 A 
ATOM      3  C   UNL     1      -2.285 -16.936  26.964  1.00  0.00     0.079 A 
ATOM      4  C   UNL     1      -1.752 -15.730  26.522  1.00  0.00     0.126 A 
ATOM      5  C   UNL     1      -2.313 -14.407  26.742  1.00  0.00     0.143 A 
ATOM      6  C   UNL     1      -1.751 -13.291  26.116  1.00  0.00     0.094 A 
ATOM      7  C   UNL     1      -0.495 -13.429  25.591  1.00  0.00     0.128 A 
ATOM      8  C   UNL     1       0.149 -14.635  25.490  1.00  0.00     0.162 A 
ATOM      9  C   UNL     1      -0.506 -15.772  25.912  1.00  0.00     0.368 A 
ATOM     10  O   UNL     1       0.030 -16.965  25.623  1.00  0.00    -0.202 OA
ENDROOT
BRANCH   1  11
ATOM     11  C   UNL     1      -0.183 -19.230  25.170  1.00  0.00     0.087 A 
ATOM     12  C   UNL     1       1.223 -21.182  25.026  1.00  0.00     0.161 A 
ATOM     13  C   UNL     1       1.231 -21.091  23.619  1.00  0.00     0.157 A 
ATOM     14  C   UNL     1       0.567 -20.219  25.810  1.00  0.00     0.068 A 
ATOM     15  C   UNL     1       0.338 -20.211  22.995  1.00  0.00     0.051 A 
ATOM     16  C   UNL     1      -0.440 -19.322  23.828  1.00  0.00     0.022 A 
BRANCH  12  17
ATOM     17  O   UNL     1       1.879 -22.248  25.700  1.00  0.00    -0.493 OA
ATOM     18  C   UNL     1       1.121 -23.003  26.662  1.00  0.00     0.278 C 
ENDBRANCH  12  17
BRANCH  13  19
ATOM     19  O   UNL     1       2.196 -21.738  22.880  1.00  0.00    -0.504 OA
ATOM     20  H   UNL     1       2.652 -21.292  22.087  1.00  0.00     0.293 HD
ENDBRANCH  13  19
ENDBRANCH   1  11
BRANCH   2  21
ATOM     21  O   UNL     1      -1.837 -19.205  27.798  1.00  0.00    -0.452 OA
BRANCH  21  22
ATOM     22  C   UNL     1      -1.151 -19.576  29.059  1.00  0.00     0.339 C 
ATOM     23  C   UNL     1      -0.944 -21.150  29.231  1.00  0.00     0.214 C 
ATOM     24  O   UNL     1       0.029 -18.875  29.143  1.00  0.00    -0.332 OA
ATOM     25  C   UNL     1      -0.250 -21.327  30.662  1.00  0.00     0.180 C 
ATOM     26  C   UNL     1       0.645 -18.940  30.414  1.00  0.00     0.179 C 
ATOM     27  C   UNL     1       0.123 -19.934  31.442  1.00  0.00     0.177 C 
BRANCH  23  28
ATOM     28  O   UNL     1      -2.290 -21.691  29.296  1.00  0.00    -0.384 OA
ATOM     29  H   UNL     1      -2.983 -20.946  29.029  1.00  0.00     0.211 HD
ENDBRANCH  23  28
BRANCH  25  30
ATOM     30  O   UNL     1       0.919 -22.154  30.597  1.00  0.00    -0.387 OA
ATOM     31  H   UNL     1       0.705 -23.068  30.938  1.00  0.00     0.211 HD
ENDBRANCH  25  30
BRANCH  26  32
ATOM     32  C   UNL     1       0.617 -17.544  31.146  1.00  0.00     0.191 C 
BRANCH  32  33
ATOM     33  O   UNL     1      -0.369 -17.574  32.137  1.00  0.00    -0.394 OA
ATOM     34  H   UNL     1      -1.177 -17.987  31.634  1.00  0.00     0.210 HD
ENDBRANCH  32  33
ENDBRANCH  26  32
BRANCH  27  35
ATOM     35  O   UNL     1       1.254 -20.113  32.304  1.00  0.00    -0.387 OA
ATOM     36  H   UNL     1       1.815 -19.296  32.590  1.00  0.00     0.211 HD
ENDBRANCH  27  35
ENDBRANCH  21  22
ENDBRANCH   2  21
BRANCH   5  37
ATOM     37  O   UNL     1      -3.400 -14.056  27.588  1.00  0.00    -0.461 OA
BRANCH  37  38
ATOM     38  C   UNL     1      -4.390 -14.794  28.298  1.00  0.00     0.339 C 
ATOM     39  C   UNL     1      -4.154 -14.557  29.827  1.00  0.00     0.214 C 
ATOM     40  O   UNL     1      -5.674 -14.901  27.660  1.00  0.00    -0.332 OA
ATOM     41  C   UNL     1      -5.417 -14.322  30.687  1.00  0.00     0.180 C 
ATOM     42  C   UNL     1      -6.745 -14.236  28.339  1.00  0.00     0.179 C 
ATOM     43  C   UNL     1      -6.786 -14.526  29.905  1.00  0.00     0.177 C 
BRANCH  39  44
ATOM     44  O   UNL     1      -3.316 -15.581  30.347  1.00  0.00    -0.384 OA
ATOM     45  H   UNL     1      -3.296 -15.448  31.346  1.00  0.00     0.211 HD
ENDBRANCH  39  44
BRANCH  41  46
ATOM     46  O   UNL     1      -5.273 -13.195  31.515  1.00  0.00    -0.387 OA
ATOM     47  H   UNL     1      -6.111 -12.704  31.883  1.00  0.00     0.211 HD
ENDBRANCH  41  46
BRANCH  42  48
ATOM     48  C   UNL     1      -7.964 -14.781  27.613  1.00  0.00     0.191 C 
BRANCH  48  49
ATOM     49  O   UNL     1      -8.626 -13.740  26.916  1.00  0.00    -0.394 OA
ATOM     50  H   UNL     1      -8.811 -14.006  25.989  1.00  0.00     0.210 HD
ENDBRANCH  48  49
ENDBRANCH  42  48
BRANCH  43  51
ATOM     51  O   UNL     1      -7.775 -13.734  30.511  1.00  0.00    -0.387 OA
ATOM     52  H   UNL     1      -8.671 -14.161  30.421  1.00  0.00     0.211 HD
ENDBRANCH  43  51
ENDBRANCH  37  38
ENDBRANCH   5  37
BRANCH   7  53
ATOM     53  O   UNL     1       0.231 -12.291  25.347  1.00  0.00    -0.507 OA
ATOM     54  H   UNL     1      -0.310 -11.420  25.037  1.00  0.00     0.293 HD
ENDBRANCH   7  53
TORSDOF 18
ENDMDL
MODEL 6
REMARK VINA RESULT:    -8.081      2.456      4.865
REMARK INTER + INTRA:         -16.356
REMARK INTER:                 -13.401
REMARK INTRA:                  -2.955
REMARK UNBOUND:                -2.134
REMARK SMILES COc1cc(-c2[o+]c3cc(O)cc(O[C@@H]4O[C@@H](CO)[C@H](O)[C@H](O)[C@H]4O)c3cc2O[C@@H]2O[C@@H](CO)[C@H](O)[C@H](O)[C@H]2O)ccc1O
REMARK SMILES IDX 6 1 28 2 27 3 26 4 13 5 12 6 10 7 9 8 8 9 7 10 5 11 3 12
REMARK SMILES IDX 43 13 4 14 42 15 41 16 2 17 1 18 44 19 29 21 30 22 39 23
REMARK SMILES IDX 31 24 37 25 32 26 35 27 40 28 38 30 33 32 34 33 36 35 14 37
REMARK SMILES IDX 15 38 24 39 16 40 22 41 17 42 20 43 25 44 23 46 18 48 19 49
REMARK SMILES IDX 21 51 11 53
REMARK H PARENT 44 20 40 29 38 31 34 34 36 36 25 45 23 47 19 50 21 52 11 54
REMARK Flexibility Score: inf
ROOT
ATOM      1  C   UNL     1      -2.024 -12.004  28.149  1.00  0.00     0.402 A 
ATOM      2  C   UNL     1      -2.974 -13.109  28.115  1.00  0.00     0.229 A 
ATOM      3  C   UNL     1      -2.458 -14.233  27.468  1.00  0.00     0.079 A 
ATOM      4  C   UNL     1      -1.366 -14.207  26.607  1.00  0.00     0.126 A 
ATOM      5  C   UNL     1      -0.908 -15.298  25.763  1.00  0.00     0.143 A 
ATOM      6  C   UNL     1       0.293 -15.184  25.056  1.00  0.00     0.094 A 
ATOM      7  C   UNL     1       0.823 -13.931  24.913  1.00  0.00     0.128 A 
ATOM      8  C   UNL     1       0.341 -12.831  25.572  1.00  0.00     0.162 A 
ATOM      9  C   UNL     1      -0.714 -12.993  26.445  1.00  0.00     0.368 A 
ATOM     10  O   UNL     1      -1.048 -11.971  27.243  1.00  0.00    -0.202 OA
ENDROOT
BRANCH   1  11
ATOM     11  C   UNL     1      -1.928 -11.146  29.224  1.00  0.00     0.087 A 
ATOM     12  C   UNL     1      -1.034 -10.872  31.445  1.00  0.00     0.161 A 
ATOM     13  C   UNL     1      -2.110 -10.028  31.791  1.00  0.00     0.157 A 
ATOM     14  C   UNL     1      -0.969 -11.482  30.182  1.00  0.00     0.068 A 
ATOM     15  C   UNL     1      -2.954  -9.563  30.775  1.00  0.00     0.051 A 
ATOM     16  C   UNL     1      -2.781 -10.096  29.444  1.00  0.00     0.022 A 
BRANCH  12  17
ATOM     17  O   UNL     1       0.020 -11.137  32.362  1.00  0.00    -0.493 OA
ATOM     18  C   UNL     1      -0.004 -12.388  33.071  1.00  0.00     0.278 C 
ENDBRANCH  12  17
BRANCH  13  19
ATOM     19  O   UNL     1      -2.415  -9.787  33.111  1.00  0.00    -0.504 OA
ATOM     20  H   UNL     1      -3.313  -9.399  33.391  1.00  0.00     0.293 HD
ENDBRANCH  13  19
ENDBRANCH   1  11
BRANCH   2  21
ATOM     21  O   UNL     1      -4.318 -12.982  28.475  1.00  0.00    -0.452 OA
BRANCH  21  22
ATOM     22  C   UNL     1      -5.037 -13.312  29.729  1.00  0.00     0.339 C 
ATOM     23  C   UNL     1      -6.240 -14.340  29.521  1.00  0.00     0.214 C 
ATOM     24  O   UNL     1      -4.124 -13.749  30.661  1.00  0.00    -0.332 OA
ATOM     25  C   UNL     1      -6.903 -14.509  30.968  1.00  0.00     0.180 C 
ATOM     26  C   UNL     1      -4.643 -13.843  31.972  1.00  0.00     0.179 C 
ATOM     27  C   UNL     1      -6.145 -13.718  32.187  1.00  0.00     0.177 C 
BRANCH  23  28
ATOM     28  O   UNL     1      -7.176 -13.639  28.659  1.00  0.00    -0.384 OA
ATOM     29  H   UNL     1      -8.159 -13.820  28.986  1.00  0.00     0.211 HD
ENDBRANCH  23  28
BRANCH  25  30
ATOM     30  O   UNL     1      -7.064 -15.886  31.331  1.00  0.00    -0.387 OA
ATOM     31  H   UNL     1      -8.027 -16.077  31.512  1.00  0.00     0.211 HD
ENDBRANCH  25  30
BRANCH  26  32
ATOM     32  C   UNL     1      -4.003 -12.768  32.930  1.00  0.00     0.191 C 
BRANCH  32  33
ATOM     33  O   UNL     1      -4.893 -11.698  33.066  1.00  0.00    -0.394 OA
ATOM     34  H   UNL     1      -5.759 -12.073  32.635  1.00  0.00     0.210 HD
ENDBRANCH  32  33
ENDBRANCH  26  32
BRANCH  27  35
ATOM     35  O   UNL     1      -6.338 -14.392  33.437  1.00  0.00    -0.387 OA
ATOM     36  H   UNL     1      -6.243 -13.869  34.321  1.00  0.00     0.211 HD
ENDBRANCH  27  35
ENDBRANCH  21  22
ENDBRANCH   2  21
BRANCH   5  37
ATOM     37  O   UNL     1      -1.566 -16.532  25.505  1.00  0.00    -0.461 OA
BRANCH  37  38
ATOM     38  C   UNL     1      -1.592 -17.802  26.149  1.00  0.00     0.339 C 
ATOM     39  C   UNL     1      -0.647 -18.760  25.349  1.00  0.00     0.214 C 
ATOM     40  O   UNL     1      -1.739 -17.780  27.580  1.00  0.00    -0.332 OA
ATOM     41  C   UNL     1       0.267 -19.680  26.190  1.00  0.00     0.180 C 
ATOM     42  C   UNL     1      -0.606 -18.260  28.312  1.00  0.00     0.179 C 
ATOM     43  C   UNL     1      -0.018 -19.631  27.753  1.00  0.00     0.177 C 
BRANCH  39  44
ATOM     44  O   UNL     1      -1.400 -19.471  24.374  1.00  0.00    -0.384 OA
ATOM     45  H   UNL     1      -2.370 -19.322  24.604  1.00  0.00     0.211 HD
ENDBRANCH  39  44
BRANCH  41  46
ATOM     46  O   UNL     1       1.599 -19.629  25.743  1.00  0.00    -0.387 OA
ATOM     47  H   UNL     1       1.838 -19.132  24.863  1.00  0.00     0.211 HD
ENDBRANCH  41  46
BRANCH  42  48
ATOM     48  C   UNL     1      -1.174 -18.399  29.715  1.00  0.00     0.191 C 
BRANCH  48  49
ATOM     49  O   UNL     1      -2.481 -18.945  29.662  1.00  0.00    -0.394 OA
ATOM     50  H   UNL     1      -3.149 -18.236  29.536  1.00  0.00     0.210 HD
ENDBRANCH  48  49
ENDBRANCH  42  48
BRANCH  43  51
ATOM     51  O   UNL     1       1.165 -19.957  28.438  1.00  0.00    -0.387 OA
ATOM     52  H   UNL     1       1.456 -19.198  29.015  1.00  0.00     0.211 HD
ENDBRANCH  43  51
ENDBRANCH  37  38
ENDBRANCH   5  37
BRANCH   7  53
ATOM     53  O   UNL     1       1.740 -13.729  23.913  1.00  0.00    -0.507 OA
ATOM     54  H   UNL     1       1.364 -13.448  22.950  1.00  0.00     0.293 HD
ENDBRANCH   7  53
TORSDOF 18
ENDMDL
MODEL 7
REMARK VINA RESULT:    -8.081      1.125      2.086
REMARK INTER + INTRA:         -16.356
REMARK INTER:                 -14.125
REMARK INTRA:                  -2.230
REMARK UNBOUND:                -2.134
REMARK SMILES COc1cc(-c2[o+]c3cc(O)cc(O[C@@H]4O[C@@H](CO)[C@H](O)[C@H](O)[C@H]4O)c3cc2O[C@@H]2O[C@@H](CO)[C@H](O)[C@H](O)[C@H]2O)ccc1O
REMARK SMILES IDX 6 1 28 2 27 3 26 4 13 5 12 6 10 7 9 8 8 9 7 10 5 11 3 12
REMARK SMILES IDX 43 13 4 14 42 15 41 16 2 17 1 18 44 19 29 21 30 22 39 23
REMARK SMILES IDX 31 24 37 25 32 26 35 27 40 28 38 30 33 32 34 33 36 35 14 37
REMARK SMILES IDX 15 38 24 39 16 40 22 41 17 42 20 43 25 44 23 46 18 48 19 49
REMARK SMILES IDX 21 51 11 53
REMARK H PARENT 44 20 40 29 38 31 34 34 36 36 25 45 23 47 19 50 21 52 11 54
REMARK Flexibility Score: inf
ROOT
ATOM      1  C   UNL     1      -0.566 -14.736  26.599  1.00  0.00     0.402 A 
ATOM      2  C   UNL     1      -1.051 -15.326  27.840  1.00  0.00     0.229 A 
ATOM      3  C   UNL     1      -1.041 -16.722  27.803  1.00  0.00     0.079 A 
ATOM      4  C   UNL     1      -0.981 -17.472  26.634  1.00  0.00     0.126 A 
ATOM      5  C   UNL     1      -1.160 -18.911  26.522  1.00  0.00     0.143 A 
ATOM      6  C   UNL     1      -0.927 -19.557  25.305  1.00  0.00     0.094 A 
ATOM      7  C   UNL     1      -0.867 -18.780  24.180  1.00  0.00     0.128 A 
ATOM      8  C   UNL     1      -0.842 -17.410  24.214  1.00  0.00     0.162 A 
ATOM      9  C   UNL     1      -0.851 -16.778  25.439  1.00  0.00     0.368 A 
ATOM     10  O   UNL     1      -0.616 -15.461  25.482  1.00  0.00    -0.202 OA
ENDROOT
BRANCH   1  11
ATOM     11  C   UNL     1       0.178 -13.575  26.575  1.00  0.00     0.087 A 
ATOM     12  C   UNL     1       0.483 -11.459  25.463  1.00  0.00     0.161 A 
ATOM     13  C   UNL     1       1.860 -11.481  25.765  1.00  0.00     0.157 A 
ATOM     14  C   UNL     1      -0.353 -12.532  25.813  1.00  0.00     0.068 A 
ATOM     15  C   UNL     1       2.335 -12.434  26.674  1.00  0.00     0.051 A 
ATOM     16  C   UNL     1       1.421 -13.451  27.139  1.00  0.00     0.022 A 
BRANCH  12  17
ATOM     17  O   UNL     1      -0.108 -10.353  24.793  1.00  0.00    -0.493 OA
ATOM     18  C   UNL     1      -1.161  -9.642  25.468  1.00  0.00     0.278 C 
ENDBRANCH  12  17
BRANCH  13  19
ATOM     19  O   UNL     1       2.742 -10.685  25.070  1.00  0.00    -0.504 OA
ATOM     20  H   UNL     1       2.556 -10.387  24.115  1.00  0.00     0.293 HD
ENDBRANCH  13  19
ENDBRANCH   1  11
BRANCH   2  21
ATOM     21  O   UNL     1      -1.671 -14.591  28.853  1.00  0.00    -0.452 OA
BRANCH  21  22
ATOM     22  C   UNL     1      -3.096 -14.266  29.103  1.00  0.00     0.339 C 
ATOM     23  C   UNL     1      -4.052 -14.613  27.871  1.00  0.00     0.214 C 
ATOM     24  O   UNL     1      -3.492 -14.879  30.268  1.00  0.00    -0.332 OA
ATOM     25  C   UNL     1      -5.511 -14.136  28.327  1.00  0.00     0.180 C 
ATOM     26  C   UNL     1      -4.745 -14.436  30.752  1.00  0.00     0.179 C 
ATOM     27  C   UNL     1      -5.620 -13.567  29.859  1.00  0.00     0.177 C 
BRANCH  23  28
ATOM     28  O   UNL     1      -3.594 -13.749  26.798  1.00  0.00    -0.384 OA
ATOM     29  H   UNL     1      -3.069 -14.320  26.086  1.00  0.00     0.211 HD
ENDBRANCH  23  28
BRANCH  25  30
ATOM     30  O   UNL     1      -6.497 -15.158  28.134  1.00  0.00    -0.387 OA
ATOM     31  H   UNL     1      -6.293 -15.672  27.303  1.00  0.00     0.211 HD
ENDBRANCH  25  30
BRANCH  26  32
ATOM     32  C   UNL     1      -4.596 -13.623  32.094  1.00  0.00     0.191 C 
BRANCH  32  33
ATOM     33  O   UNL     1      -5.571 -14.061  32.996  1.00  0.00    -0.394 OA
ATOM     34  H   UNL     1      -6.102 -14.751  32.432  1.00  0.00     0.210 HD
ENDBRANCH  32  33
ENDBRANCH  26  32
BRANCH  27  35
ATOM     35  O   UNL     1      -6.930 -13.787  30.399  1.00  0.00    -0.387 OA
ATOM     36  H   UNL     1      -7.521 -14.541  30.017  1.00  0.00     0.211 HD
ENDBRANCH  27  35
ENDBRANCH  21  22
ENDBRANCH   2  21
BRANCH   5  37
ATOM     37  O   UNL     1      -1.605 -19.810  27.529  1.00  0.00    -0.461 OA
BRANCH  37  38
ATOM     38  C   UNL     1      -1.003 -20.395  28.680  1.00  0.00     0.339 C 
ATOM     39  C   UNL     1      -1.706 -19.793  29.942  1.00  0.00     0.214 C 
ATOM     40  O   UNL     1      -0.569 -21.759  28.539  1.00  0.00    -0.332 OA
ATOM     41  C   UNL     1      -2.041 -20.785  31.079  1.00  0.00     0.180 C 
ATOM     42  C   UNL     1      -1.280 -22.706  29.344  1.00  0.00     0.179 C 
ATOM     43  C   UNL     1      -1.462 -22.250  30.859  1.00  0.00     0.177 C 
BRANCH  39  44
ATOM     44  O   UNL     1      -0.982 -18.657  30.397  1.00  0.00    -0.384 OA
ATOM     45  H   UNL     1      -0.445 -18.966  31.192  1.00  0.00     0.211 HD
ENDBRANCH  39  44
BRANCH  41  46
ATOM     46  O   UNL     1      -3.371 -20.642  31.512  1.00  0.00    -0.387 OA
ATOM     47  H   UNL     1      -3.829 -19.710  31.500  1.00  0.00     0.211 HD
ENDBRANCH  41  46
BRANCH  42  48
ATOM     48  C   UNL     1      -0.412 -23.946  29.210  1.00  0.00     0.191 C 
BRANCH  48  49
ATOM     49  O   UNL     1      -1.146 -25.102  29.576  1.00  0.00    -0.394 OA
ATOM     50  H   UNL     1      -0.546 -25.868  29.707  1.00  0.00     0.210 HD
ENDBRANCH  48  49
ENDBRANCH  42  48
BRANCH  43  51
ATOM     51  O   UNL     1      -2.283 -23.166  31.538  1.00  0.00    -0.387 OA
ATOM     52  H   UNL     1      -2.382 -24.006  31.010  1.00  0.00     0.211 HD
ENDBRANCH  43  51
ENDBRANCH  37  38
ENDBRANCH   5  37
BRANCH   7  53
ATOM     53  O   UNL     1      -1.049 -19.389  22.965  1.00  0.00    -0.507 OA
ATOM     54  H   UNL     1      -1.351 -18.770  22.145  1.00  0.00     0.293 HD
ENDBRANCH   7  53
TORSDOF 18
ENDMDL
MODEL 8
REMARK VINA RESULT:    -8.019      1.752      3.008
REMARK INTER + INTRA:         -16.248
REMARK INTER:                 -13.862
REMARK INTRA:                  -2.386
REMARK UNBOUND:                -2.134
REMARK SMILES COc1cc(-c2[o+]c3cc(O)cc(O[C@@H]4O[C@@H](CO)[C@H](O)[C@H](O)[C@H]4O)c3cc2O[C@@H]2O[C@@H](CO)[C@H](O)[C@H](O)[C@H]2O)ccc1O
REMARK SMILES IDX 6 1 28 2 27 3 26 4 13 5 12 6 10 7 9 8 8 9 7 10 5 11 3 12
REMARK SMILES IDX 43 13 4 14 42 15 41 16 2 17 1 18 44 19 29 21 30 22 39 23
REMARK SMILES IDX 31 24 37 25 32 26 35 27 40 28 38 30 33 32 34 33 36 35 14 37
REMARK SMILES IDX 15 38 24 39 16 40 22 41 17 42 20 43 25 44 23 46 18 48 19 49
REMARK SMILES IDX 21 51 11 53
REMARK H PARENT 44 20 40 29 38 31 34 34 36 36 25 45 23 47 19 50 21 52 11 54
REMARK Flexibility Score: inf
ROOT
ATOM      1  C   UNL     1      -1.359 -15.042  26.807  1.00  0.00     0.402 A 
ATOM      2  C   UNL     1      -1.730 -15.157  28.211  1.00  0.00     0.229 A 
ATOM      3  C   UNL     1      -1.602 -16.464  28.689  1.00  0.00     0.079 A 
ATOM      4  C   UNL     1      -1.533 -17.589  27.876  1.00  0.00     0.126 A 
ATOM      5  C   UNL     1      -1.593 -18.974  28.314  1.00  0.00     0.143 A 
ATOM      6  C   UNL     1      -1.365 -20.011  27.405  1.00  0.00     0.094 A 
ATOM      7  C   UNL     1      -1.427 -19.706  26.073  1.00  0.00     0.128 A 
ATOM      8  C   UNL     1      -1.519 -18.423  25.599  1.00  0.00     0.162 A 
ATOM      9  C   UNL     1      -1.522 -17.383  26.503  1.00  0.00     0.368 A 
ATOM     10  O   UNL     1      -1.400 -16.132  26.042  1.00  0.00    -0.202 OA
ENDROOT
BRANCH   1  11
ATOM     11  C   UNL     1      -0.719 -13.929  26.302  1.00  0.00     0.087 A 
ATOM     12  C   UNL     1       1.399 -12.793  26.124  1.00  0.00     0.161 A 
ATOM     13  C   UNL     1       0.743 -11.546  26.075  1.00  0.00     0.157 A 
ATOM     14  C   UNL     1       0.677 -13.985  26.298  1.00  0.00     0.068 A 
ATOM     15  C   UNL     1      -0.646 -11.522  25.900  1.00  0.00     0.051 A 
ATOM     16  C   UNL     1      -1.362 -12.776  25.938  1.00  0.00     0.022 A 
BRANCH  12  17
ATOM     17  O   UNL     1       2.812 -12.889  26.002  1.00  0.00    -0.493 OA
ATOM     18  C   UNL     1       3.349 -13.346  24.747  1.00  0.00     0.278 C 
ENDBRANCH  12  17
BRANCH  13  19
ATOM     19  O   UNL     1       1.429 -10.383  26.343  1.00  0.00    -0.504 OA
ATOM     20  H   UNL     1       2.323 -10.388  26.830  1.00  0.00     0.293 HD
ENDBRANCH  13  19
ENDBRANCH   1  11
BRANCH   2  21
ATOM     21  O   UNL     1      -2.362 -14.138  28.929  1.00  0.00    -0.452 OA
BRANCH  21  22
ATOM     22  C   UNL     1      -3.775 -13.951  29.336  1.00  0.00     0.339 C 
ATOM     23  C   UNL     1      -4.823 -14.516  28.273  1.00  0.00     0.214 C 
ATOM     24  O   UNL     1      -3.950 -14.492  30.589  1.00  0.00    -0.332 OA
ATOM     25  C   UNL     1      -6.263 -14.163  28.876  1.00  0.00     0.180 C 
ATOM     26  C   UNL     1      -5.179 -14.147  31.196  1.00  0.00     0.179 C 
ATOM     27  C   UNL     1      -6.255 -13.468  30.360  1.00  0.00     0.177 C 
BRANCH  23  28
ATOM     28  O   UNL     1      -4.607 -13.712  27.083  1.00  0.00    -0.384 OA
ATOM     29  H   UNL     1      -5.524 -13.556  26.591  1.00  0.00     0.211 HD
ENDBRANCH  23  28
BRANCH  25  30
ATOM     30  O   UNL     1      -7.134 -15.301  28.896  1.00  0.00    -0.387 OA
ATOM     31  H   UNL     1      -7.125 -15.716  29.805  1.00  0.00     0.211 HD
ENDBRANCH  25  30
BRANCH  26  32
ATOM     32  C   UNL     1      -4.969 -13.200  32.438  1.00  0.00     0.191 C 
BRANCH  32  33
ATOM     33  O   UNL     1      -5.941 -13.496  33.399  1.00  0.00    -0.394 OA
ATOM     34  H   UNL     1      -5.832 -12.715  34.073  1.00  0.00     0.210 HD
ENDBRANCH  32  33
ENDBRANCH  26  32
BRANCH  27  35
ATOM     35  O   UNL     1      -7.454 -13.780  31.082  1.00  0.00    -0.387 OA
ATOM     36  H   UNL     1      -7.441 -13.796  32.113  1.00  0.00     0.211 HD
ENDBRANCH  27  35
ENDBRANCH  21  22
ENDBRANCH   2  21
BRANCH   5  37
ATOM     37  O   UNL     1      -1.910 -19.460  29.612  1.00  0.00    -0.461 OA
BRANCH  37  38
ATOM     38  C   UNL     1      -1.202 -20.206  30.597  1.00  0.00     0.339 C 
ATOM     39  C   UNL     1      -2.146 -21.351  31.096  1.00  0.00     0.214 C 
ATOM     40  O   UNL     1       0.218 -20.324  30.399  1.00  0.00    -0.332 OA
ATOM     41  C   UNL     1      -1.496 -22.740  31.290  1.00  0.00     0.180 C 
ATOM     42  C   UNL     1       0.683 -21.651  30.128  1.00  0.00     0.179 C 
ATOM     43  C   UNL     1       0.085 -22.752  31.111  1.00  0.00     0.177 C 
BRANCH  39  44
ATOM     44  O   UNL     1      -2.865 -20.914  32.243  1.00  0.00    -0.384 OA
ATOM     45  H   UNL     1      -3.742 -21.410  32.230  1.00  0.00     0.211 HD
ENDBRANCH  39  44
BRANCH  41  46
ATOM     46  O   UNL     1      -2.253 -23.753  30.675  1.00  0.00    -0.387 OA
ATOM     47  H   UNL     1      -2.805 -23.548  29.820  1.00  0.00     0.211 HD
ENDBRANCH  41  46
BRANCH  42  48
ATOM     48  C   UNL     1       2.187 -21.493  30.277  1.00  0.00     0.191 C 
BRANCH  48  49
ATOM     49  O   UNL     1       2.852 -22.646  29.790  1.00  0.00    -0.394 OA
ATOM     50  H   UNL     1       3.558 -22.396  29.154  1.00  0.00     0.210 HD
ENDBRANCH  48  49
ENDBRANCH  42  48
BRANCH  43  51
ATOM     51  O   UNL     1       0.482 -24.032  30.693  1.00  0.00    -0.387 OA
ATOM     52  H   UNL     1      -0.024 -24.735  31.187  1.00  0.00     0.211 HD
ENDBRANCH  43  51
ENDBRANCH  37  38
ENDBRANCH   5  37
BRANCH   7  53
ATOM     53  O   UNL     1      -1.614 -20.733  25.183  1.00  0.00    -0.507 OA
ATOM     54  H   UNL     1      -0.796 -21.407  25.032  1.00  0.00     0.293 HD
ENDBRANCH   7  53
TORSDOF 18
ENDMDL
MODEL 9
REMARK VINA RESULT:    -8.018      2.429      8.910
REMARK INTER + INTRA:         -16.245
REMARK INTER:                 -13.798
REMARK INTRA:                  -2.447
REMARK UNBOUND:                -2.134
REMARK SMILES COc1cc(-c2[o+]c3cc(O)cc(O[C@@H]4O[C@@H](CO)[C@H](O)[C@H](O)[C@H]4O)c3cc2O[C@@H]2O[C@@H](CO)[C@H](O)[C@H](O)[C@H]2O)ccc1O
REMARK SMILES IDX 6 1 28 2 27 3 26 4 13 5 12 6 10 7 9 8 8 9 7 10 5 11 3 12
REMARK SMILES IDX 43 13 4 14 42 15 41 16 2 17 1 18 44 19 29 21 30 22 39 23
REMARK SMILES IDX 31 24 37 25 32 26 35 27 40 28 38 30 33 32 34 33 36 35 14 37
REMARK SMILES IDX 15 38 24 39 16 40 22 41 17 42 20 43 25 44 23 46 18 48 19 49
REMARK SMILES IDX 21 51 11 53
REMARK H PARENT 44 20 40 29 38 31 34 34 36 36 25 45 23 47 19 50 21 52 11 54
REMARK Flexibility Score: inf
ROOT
ATOM      1  C   UNL     1      -0.330 -18.786  26.995  1.00  0.00     0.402 A 
ATOM      2  C   UNL     1      -0.752 -18.807  28.389  1.00  0.00     0.229 A 
ATOM      3  C   UNL     1      -1.700 -17.821  28.671  1.00  0.00     0.079 A 
ATOM      4  C   UNL     1      -1.925 -16.703  27.875  1.00  0.00     0.126 A 
ATOM      5  C   UNL     1      -2.753 -15.557  28.214  1.00  0.00     0.143 A 
ATOM      6  C   UNL     1      -3.010 -14.568  27.259  1.00  0.00     0.094 A 
ATOM      7  C   UNL     1      -2.205 -14.535  26.153  1.00  0.00     0.128 A 
ATOM      8  C   UNL     1      -1.298 -15.518  25.855  1.00  0.00     0.162 A 
ATOM      9  C   UNL     1      -1.205 -16.609  26.693  1.00  0.00     0.368 A 
ATOM     10  O   UNL     1      -0.477 -17.661  26.297  1.00  0.00    -0.202 OA
ENDROOT
BRANCH   1  11
ATOM     11  C   UNL     1      -0.035 -19.938  26.296  1.00  0.00     0.087 A 
ATOM     12  C   UNL     1       1.382 -20.898  24.598  1.00  0.00     0.161 A 
ATOM     13  C   UNL     1       0.361 -21.801  24.236  1.00  0.00     0.157 A 
ATOM     14  C   UNL     1       1.169 -19.924  25.588  1.00  0.00     0.068 A 
ATOM     15  C   UNL     1      -0.760 -21.920  25.067  1.00  0.00     0.051 A 
ATOM     16  C   UNL     1      -0.893 -20.999  26.172  1.00  0.00     0.022 A 
BRANCH  12  17
ATOM     17  O   UNL     1       2.659 -20.939  23.976  1.00  0.00    -0.493 OA
ATOM     18  C   UNL     1       3.806 -20.587  24.770  1.00  0.00     0.278 C 
ENDBRANCH  12  17
BRANCH  13  19
ATOM     19  O   UNL     1       0.392 -22.440  23.017  1.00  0.00    -0.504 OA
ATOM     20  H   UNL     1      -0.437 -22.518  22.432  1.00  0.00     0.293 HD
ENDBRANCH  13  19
ENDBRANCH   1  11
BRANCH   2  21
ATOM     21  O   UNL     1      -0.116 -19.563  29.377  1.00  0.00    -0.452 OA
BRANCH  21  22
ATOM     22  C   UNL     1      -0.361 -20.937  29.875  1.00  0.00     0.339 C 
ATOM     23  C   UNL     1      -1.886 -21.395  29.754  1.00  0.00     0.214 C 
ATOM     24  O   UNL     1       0.502 -21.799  29.240  1.00  0.00    -0.332 OA
ATOM     25  C   UNL     1      -1.935 -22.862  30.392  1.00  0.00     0.180 C 
ATOM     26  C   UNL     1       0.550 -23.090  29.814  1.00  0.00     0.179 C 
ATOM     27  C   UNL     1      -0.489 -23.477  30.857  1.00  0.00     0.177 C 
BRANCH  23  28
ATOM     28  O   UNL     1      -2.612 -20.485  30.622  1.00  0.00    -0.384 OA
ATOM     29  H   UNL     1      -3.239 -21.035  31.263  1.00  0.00     0.211 HD
ENDBRANCH  23  28
BRANCH  25  30
ATOM     30  O   UNL     1      -2.589 -23.803  29.532  1.00  0.00    -0.387 OA
ATOM     31  H   UNL     1      -2.399 -24.733  29.843  1.00  0.00     0.211 HD
ENDBRANCH  25  30
BRANCH  26  32
ATOM     32  C   UNL     1       1.941 -23.371  30.499  1.00  0.00     0.191 C 
BRANCH  32  33
ATOM     33  O   UNL     1       1.799 -23.231  31.883  1.00  0.00    -0.394 OA
ATOM     34  H   UNL     1       0.835 -22.856  31.970  1.00  0.00     0.210 HD
ENDBRANCH  32  33
ENDBRANCH  26  32
BRANCH  27  35
ATOM     35  O   UNL     1      -0.489 -24.909  30.781  1.00  0.00    -0.387 OA
ATOM     36  H   UNL     1      -1.378 -25.425  30.851  1.00  0.00     0.211 HD
ENDBRANCH  27  35
ENDBRANCH  21  22
ENDBRANCH   2  21
BRANCH   5  37
ATOM     37  O   UNL     1      -3.348 -15.256  29.469  1.00  0.00    -0.461 OA
BRANCH  37  38
ATOM     38  C   UNL     1      -4.244 -14.251  29.933  1.00  0.00     0.339 C 
ATOM     39  C   UNL     1      -5.666 -14.896  30.042  1.00  0.00     0.214 C 
ATOM     40  O   UNL     1      -3.693 -13.288  30.848  1.00  0.00    -0.332 OA
ATOM     41  C   UNL     1      -6.489 -14.531  31.298  1.00  0.00     0.180 C 
ATOM     42  C   UNL     1      -4.234 -13.336  32.173  1.00  0.00     0.179 C 
ATOM     43  C   UNL     1      -5.824 -13.412  32.212  1.00  0.00     0.177 C 
BRANCH  39  44
ATOM     44  O   UNL     1      -6.383 -14.684  28.832  1.00  0.00    -0.384 OA
ATOM     45  H   UNL     1      -5.798 -14.096  28.259  1.00  0.00     0.211 HD
ENDBRANCH  39  44
BRANCH  41  46
ATOM     46  O   UNL     1      -7.025 -15.676  31.913  1.00  0.00    -0.387 OA
ATOM     47  H   UNL     1      -6.434 -16.517  32.060  1.00  0.00     0.211 HD
ENDBRANCH  41  46
BRANCH  42  48
ATOM     48  C   UNL     1      -3.698 -12.048  32.777  1.00  0.00     0.191 C 
BRANCH  48  49
ATOM     49  O   UNL     1      -4.769 -11.214  33.185  1.00  0.00    -0.394 OA
ATOM     50  H   UNL     1      -5.461 -11.172  32.489  1.00  0.00     0.210 HD
ENDBRANCH  48  49
ENDBRANCH  42  48
BRANCH  43  51
ATOM     51  O   UNL     1      -6.261 -13.592  33.535  1.00  0.00    -0.387 OA
ATOM     52  H   UNL     1      -7.163 -13.187  33.664  1.00  0.00     0.211 HD
ENDBRANCH  43  51
ENDBRANCH  37  38
ENDBRANCH   5  37
BRANCH   7  53
ATOM     53  O   UNL     1      -2.157 -13.374  25.425  1.00  0.00    -0.507 OA
ATOM     54  H   UNL     1      -2.704 -13.349  24.504  1.00  0.00     0.293 HD
ENDBRANCH   7  53
TORSDOF 18
ENDMDL
