MODEL 1
REMARK VINA RESULT:    -3.405      0.000      0.000
REMARK INTER + INTRA:          -5.251
REMARK INTER:                  -5.196
REMARK INTRA:                  -0.055
REMARK UNBOUND:                -0.055
REMARK SMILES CC1=CCC[C@@H](C)C(=O)C[C@@H](C(C)C)C(=O)C1
REMARK SMILES IDX 8 1 9 2 6 3 7 4 5 5 4 6 3 7 2 8 1 9 10 11 11 12 15 13 16 14
REMARK SMILES IDX 17 15 12 17 13 18 14 19
REMARK H PARENT
REMARK Flexibility Score: 70.00
ROOT
ATOM      1  C   UNL     1      10.870 -22.855 -37.035  1.00  0.00     0.136 C 
ATOM      2  O   UNL     1      11.233 -24.023 -37.004  1.00  0.00    -0.299 OA
ENDROOT
BRANCH   1   3
ATOM      3  C   UNL     1       9.942 -22.351 -35.946  1.00  0.00     0.053 C 
ATOM      4  C   UNL     1       9.625 -23.460 -34.934  1.00  0.00     0.016 C 
BRANCH   3   5
ATOM      5  C   UNL     1       8.652 -21.752 -36.537  1.00  0.00     0.015 C 
BRANCH   5   6
ATOM      6  C   UNL     1       8.520 -20.250 -36.220  1.00  0.00     0.028 C 
BRANCH   6   7
ATOM      7  C   UNL     1       8.597 -19.421 -37.476  1.00  0.00    -0.028 C 
ATOM      8  C   UNL     1       9.727 -18.847 -37.950  1.00  0.00    -0.070 CG0
ATOM      9  C   UNL     1       9.643 -18.083 -39.247  1.00  0.00     0.039 C 
ATOM     10  G   UNL     1      11.066 -18.937 -37.232  1.00  0.00     0.000 G0
ENDBRANCH   6   7
ENDBRANCH   5   6
ENDBRANCH   3   5
ENDBRANCH   1   3
BRANCH   1  11
ATOM     11  C   UNL     1      11.340 -21.981 -38.178  1.00  0.00     0.087 C 
BRANCH  11  12
ATOM     12  C   UNL     1      12.508 -21.044 -37.761  1.00  0.00     0.066 C 
BRANCH  12  13
ATOM     13  C   UNL     1      12.112 -19.600 -38.032  1.00  0.00     0.140 C 
ATOM     14  O   UNL     1      12.736 -18.953 -38.862  1.00  0.00    -0.299 OA
BRANCH  13  15
ATOM     15  C   UNL     1      11.042 -18.922 -37.214  1.00  0.00     0.106 CG0
ATOM     16  G   UNL     1       9.710 -18.860 -37.946  1.00  0.00     0.000 G0
ENDBRANCH  13  15
ENDBRANCH  12  13
BRANCH  12  17
ATOM     17  C   UNL     1      13.847 -21.392 -38.492  1.00  0.00    -0.006 C 
ATOM     18  C   UNL     1      14.953 -21.778 -37.489  1.00  0.00     0.008 C 
ATOM     19  C   UNL     1      13.678 -22.546 -39.500  1.00  0.00     0.008 C 
ENDBRANCH  12  17
ENDBRANCH  11  12
ENDBRANCH   1  11
TORSDOF 1
ENDMDL
MODEL 2
REMARK VINA RESULT:    -3.280      1.652      3.996
REMARK INTER + INTRA:          -5.061
REMARK INTER:                  -4.603
REMARK INTRA:                  -0.457
REMARK UNBOUND:                -0.055
REMARK SMILES CC1=CCC[C@@H](C)C(=O)C[C@@H](C(C)C)C(=O)C1
REMARK SMILES IDX 8 1 9 2 6 3 7 4 5 5 4 6 3 7 2 8 1 9 10 11 11 12 15 13 16 14
REMARK SMILES IDX 17 15 12 17 13 18 14 19
REMARK H PARENT
REMARK Flexibility Score: 70.00
ROOT
ATOM      1  C   UNL     1      13.164 -20.425 -37.566  1.00  0.00     0.136 C 
ATOM      2  O   UNL     1      13.881 -19.773 -36.819  1.00  0.00    -0.299 OA
ENDROOT
BRANCH   1   3
ATOM      3  C   UNL     1      12.206 -19.688 -38.483  1.00  0.00     0.053 C 
ATOM      4  C   UNL     1      12.966 -18.805 -39.481  1.00  0.00     0.016 C 
BRANCH   3   5
ATOM      5  C   UNL     1      11.179 -18.865 -37.682  1.00  0.00     0.015 C 
BRANCH   5   6
ATOM      6  C   UNL     1       9.791 -19.532 -37.674  1.00  0.00     0.028 C 
BRANCH   6   7
ATOM      7  C   UNL     1       9.573 -20.318 -36.407  1.00  0.00    -0.028 C 
ATOM      8  C   UNL     1       9.570 -21.669 -36.331  1.00  0.00    -0.070 CG0
ATOM      9  C   UNL     1       9.381 -22.303 -34.976  1.00  0.00     0.039 C 
ATOM     10  G   UNL     1       9.743 -22.568 -37.547  1.00  0.00     0.000 G0
ENDBRANCH   6   7
ENDBRANCH   5   6
ENDBRANCH   3   5
ENDBRANCH   1   3
BRANCH   1  11
ATOM     11  C   UNL     1      13.247 -21.935 -37.515  1.00  0.00     0.087 C 
BRANCH  11  12
ATOM     12  C   UNL     1      12.205 -22.614 -38.447  1.00  0.00     0.066 C 
BRANCH  12  13
ATOM     13  C   UNL     1      11.100 -23.227 -37.600  1.00  0.00     0.140 C 
ATOM     14  O   UNL     1      11.297 -24.296 -37.037  1.00  0.00    -0.299 OA
BRANCH  13  15
ATOM     15  C   UNL     1       9.731 -22.597 -37.537  1.00  0.00     0.106 CG0
ATOM     16  G   UNL     1       9.577 -21.672 -36.338  1.00  0.00     0.000 G0
ENDBRANCH  13  15
ENDBRANCH  12  13
BRANCH  12  17
ATOM     17  C   UNL     1      12.847 -23.697 -39.377  1.00  0.00    -0.006 C 
ATOM     18  C   UNL     1      12.666 -23.340 -40.866  1.00  0.00     0.008 C 
ATOM     19  C   UNL     1      14.351 -23.885 -39.100  1.00  0.00     0.008 C 
ENDBRANCH  12  17
ENDBRANCH  11  12
ENDBRANCH   1  11
TORSDOF 1
ENDMDL
MODEL 3
REMARK VINA RESULT:    -3.174      2.235      4.336
REMARK INTER + INTRA:          -4.898
REMARK INTER:                  -4.598
REMARK INTRA:                  -0.300
REMARK UNBOUND:                -0.055
REMARK SMILES CC1=CCC[C@@H](C)C(=O)C[C@@H](C(C)C)C(=O)C1
REMARK SMILES IDX 8 1 9 2 6 3 7 4 5 5 4 6 3 7 2 8 1 9 10 11 11 12 15 13 16 14
REMARK SMILES IDX 17 15 12 17 13 18 14 19
REMARK H PARENT
REMARK Flexibility Score: 70.00
ROOT
ATOM      1  C   UNL     1      11.108 -20.398 -37.176  1.00  0.00     0.136 C 
ATOM      2  O   UNL     1      12.286 -20.312 -36.861  1.00  0.00    -0.299 OA
ENDROOT
BRANCH   1   3
ATOM      3  C   UNL     1      10.699 -20.008 -38.585  1.00  0.00     0.053 C 
ATOM      4  C   UNL     1      11.656 -20.610 -39.622  1.00  0.00     0.016 C 
BRANCH   3   5
ATOM      5  C   UNL     1      10.601 -18.479 -38.741  1.00  0.00     0.015 C 
BRANCH   5   6
ATOM      6  C   UNL     1       9.252 -17.936 -38.233  1.00  0.00     0.028 C 
BRANCH   6   7
ATOM      7  C   UNL     1       8.098 -18.652 -38.886  1.00  0.00    -0.028 C 
ATOM      8  C   UNL     1       7.248 -19.486 -38.244  1.00  0.00    -0.070 CG0
ATOM      9  C   UNL     1       6.115 -20.090 -39.035  1.00  0.00     0.039 C 
ATOM     10  G   UNL     1       7.389 -19.839 -36.770  1.00  0.00     0.000 G0
ENDBRANCH   6   7
ENDBRANCH   5   6
ENDBRANCH   3   5
ENDBRANCH   1   3
BRANCH   1  11
ATOM     11  C   UNL     1      10.110 -20.858 -36.135  1.00  0.00     0.087 C 
BRANCH  11  12
ATOM     12  C   UNL     1       9.072 -21.857 -36.715  1.00  0.00     0.066 C 
BRANCH  12  13
ATOM     13  C   UNL     1       7.671 -21.297 -36.515  1.00  0.00     0.140 C 
ATOM     14  O   UNL     1       6.752 -22.059 -36.249  1.00  0.00    -0.299 OA
BRANCH  13  15
ATOM     15  C   UNL     1       7.379 -19.836 -36.753  1.00  0.00     0.106 CG0
ATOM     16  G   UNL     1       7.253 -19.508 -38.234  1.00  0.00     0.000 G0
ENDBRANCH  13  15
ENDBRANCH  12  13
BRANCH  12  17
ATOM     17  C   UNL     1       9.188 -23.282 -36.078  1.00  0.00    -0.006 C 
ATOM     18  C   UNL     1      10.033 -24.225 -36.957  1.00  0.00     0.008 C 
ATOM     19  C   UNL     1       9.810 -23.241 -34.668  1.00  0.00     0.008 C 
ENDBRANCH  12  17
ENDBRANCH  11  12
ENDBRANCH   1  11
TORSDOF 1
ENDMDL
MODEL 4
REMARK VINA RESULT:    -3.163     10.284     11.638
REMARK INTER + INTRA:          -4.881
REMARK INTER:                  -4.478
REMARK INTRA:                  -0.403
REMARK UNBOUND:                -0.055
REMARK SMILES CC1=CCC[C@@H](C)C(=O)C[C@@H](C(C)C)C(=O)C1
REMARK SMILES IDX 8 1 9 2 6 3 7 4 5 5 4 6 3 7 2 8 1 9 10 11 11 12 15 13 16 14
REMARK SMILES IDX 17 15 12 17 13 18 14 19
REMARK H PARENT
REMARK Flexibility Score: 70.00
ROOT
ATOM      1  C   UNL     1      10.955 -12.491 -43.767  1.00  0.00     0.136 C 
ATOM      2  O   UNL     1      10.437 -12.439 -42.659  1.00  0.00    -0.299 OA
ENDROOT
BRANCH   1   3
ATOM      3  C   UNL     1      11.035 -11.222 -44.594  1.00  0.00     0.053 C 
ATOM      4  C   UNL     1      11.881 -10.155 -43.888  1.00  0.00     0.016 C 
BRANCH   3   5
ATOM      5  C   UNL     1       9.633 -10.683 -44.937  1.00  0.00     0.015 C 
BRANCH   5   6
ATOM      6  C   UNL     1       9.091 -11.285 -46.246  1.00  0.00     0.028 C 
BRANCH   6   7
ATOM      7  C   UNL     1       8.048 -12.337 -45.968  1.00  0.00    -0.028 C 
ATOM      8  C   UNL     1       8.130 -13.627 -46.370  1.00  0.00    -0.070 CG0
ATOM      9  C   UNL     1       7.019 -14.565 -45.973  1.00  0.00     0.039 C 
ATOM     10  G   UNL     1       9.285 -14.163 -47.203  1.00  0.00     0.000 G0
ENDBRANCH   6   7
ENDBRANCH   5   6
ENDBRANCH   3   5
ENDBRANCH   1   3
BRANCH   1  11
ATOM     11  C   UNL     1      11.462 -13.826 -44.268  1.00  0.00     0.087 C 
BRANCH  11  12
ATOM     12  C   UNL     1      11.520 -13.889 -45.819  1.00  0.00     0.066 C 
BRANCH  12  13
ATOM     13  C   UNL     1      10.376 -14.753 -46.329  1.00  0.00     0.140 C 
ATOM     14  O   UNL     1      10.387 -15.956 -46.104  1.00  0.00    -0.299 OA
BRANCH  13  15
ATOM     15  C   UNL     1       9.294 -14.171 -47.202  1.00  0.00     0.106 CG0
ATOM     16  G   UNL     1       8.137 -13.609 -46.389  1.00  0.00     0.000 G0
ENDBRANCH  13  15
ENDBRANCH  12  13
BRANCH  12  17
ATOM     17  C   UNL     1      12.892 -14.428 -46.348  1.00  0.00    -0.006 C 
ATOM     18  C   UNL     1      13.072 -14.133 -47.850  1.00  0.00     0.008 C 
ATOM     19  C   UNL     1      14.088 -13.824 -45.585  1.00  0.00     0.008 C 
ENDBRANCH  12  17
ENDBRANCH  11  12
ENDBRANCH   1  11
TORSDOF 1
ENDMDL
MODEL 5
REMARK VINA RESULT:    -3.159      2.268      4.520
REMARK INTER + INTRA:          -4.875
REMARK INTER:                  -4.616
REMARK INTRA:                  -0.259
REMARK UNBOUND:                -0.055
REMARK SMILES CC1=CCC[C@@H](C)C(=O)C[C@@H](C(C)C)C(=O)C1
REMARK SMILES IDX 8 1 9 2 6 3 7 4 5 5 4 6 3 7 2 8 1 9 10 11 11 12 15 13 16 14
REMARK SMILES IDX 17 15 12 17 13 18 14 19
REMARK H PARENT
REMARK Flexibility Score: 70.00
ROOT
ATOM      1  C   UNL     1       7.423 -19.617 -36.692  1.00  0.00     0.136 C 
ATOM      2  O   UNL     1       6.609 -19.030 -35.992  1.00  0.00    -0.299 OA
ENDROOT
BRANCH   1   3
ATOM      3  C   UNL     1       7.417 -21.134 -36.700  1.00  0.00     0.053 C 
ATOM      4  C   UNL     1       6.015 -21.679 -37.001  1.00  0.00     0.016 C 
BRANCH   3   5
ATOM      5  C   UNL     1       7.965 -21.707 -35.380  1.00  0.00     0.015 C 
BRANCH   5   6
ATOM      6  C   UNL     1       9.480 -21.475 -35.238  1.00  0.00     0.028 C 
BRANCH   6   7
ATOM      7  C   UNL     1      10.247 -22.250 -36.280  1.00  0.00    -0.028 C 
ATOM      8  C   UNL     1      10.944 -21.690 -37.296  1.00  0.00    -0.070 CG0
ATOM      9  C   UNL     1      11.694 -22.605 -38.230  1.00  0.00     0.039 C 
ATOM     10  G   UNL     1      10.997 -20.188 -37.536  1.00  0.00     0.000 G0
ENDBRANCH   6   7
ENDBRANCH   5   6
ENDBRANCH   3   5
ENDBRANCH   1   3
BRANCH   1  11
ATOM     11  C   UNL     1       8.415 -18.799 -37.491  1.00  0.00     0.087 C 
BRANCH  11  12
ATOM     12  C   UNL     1       8.798 -19.484 -38.832  1.00  0.00     0.066 C 
BRANCH  12  13
ATOM     13  C   UNL     1      10.286 -19.802 -38.825  1.00  0.00     0.140 C 
ATOM     14  O   UNL     1      10.896 -19.844 -39.884  1.00  0.00    -0.299 OA
BRANCH  13  15
ATOM     15  C   UNL     1      10.993 -20.178 -37.547  1.00  0.00     0.106 CG0
ATOM     16  G   UNL     1      10.946 -21.676 -37.282  1.00  0.00     0.000 G0
ENDBRANCH  13  15
ENDBRANCH  12  13
BRANCH  12  17
ATOM     17  C   UNL     1       8.430 -18.613 -40.079  1.00  0.00    -0.006 C 
ATOM     18  C   UNL     1       7.243 -19.216 -40.857  1.00  0.00     0.008 C 
ATOM     19  C   UNL     1       8.074 -17.164 -39.692  1.00  0.00     0.008 C 
ENDBRANCH  12  17
ENDBRANCH  11  12
ENDBRANCH   1  11
TORSDOF 1
ENDMDL
MODEL 6
REMARK VINA RESULT:    -3.121      2.378      4.220
REMARK INTER + INTRA:          -4.817
REMARK INTER:                  -4.439
REMARK INTRA:                  -0.378
REMARK UNBOUND:                -0.055
REMARK SMILES CC1=CCC[C@@H](C)C(=O)C[C@@H](C(C)C)C(=O)C1
REMARK SMILES IDX 8 1 9 2 6 3 7 4 5 5 4 6 3 7 2 8 1 9 10 11 11 12 15 13 16 14
REMARK SMILES IDX 17 15 12 17 13 18 14 19
REMARK H PARENT
REMARK Flexibility Score: 70.00
ROOT
ATOM      1  C   UNL     1       9.465 -21.074 -36.214  1.00  0.00     0.136 C 
ATOM      2  O   UNL     1       9.034 -20.529 -35.207  1.00  0.00    -0.299 OA
ENDROOT
BRANCH   1   3
ATOM      3  C   UNL     1       8.753 -22.308 -36.736  1.00  0.00     0.053 C 
ATOM      4  C   UNL     1       7.248 -22.052 -36.891  1.00  0.00     0.016 C 
BRANCH   3   5
ATOM      5  C   UNL     1       9.018 -23.534 -35.842  1.00  0.00     0.015 C 
BRANCH   5   6
ATOM      6  C   UNL     1      10.444 -24.084 -36.032  1.00  0.00     0.028 C 
BRANCH   6   7
ATOM      7  C   UNL     1      10.665 -24.542 -37.451  1.00  0.00    -0.028 C 
ATOM      8  C   UNL     1      11.570 -24.002 -38.300  1.00  0.00    -0.070 CG0
ATOM      9  C   UNL     1      11.696 -24.605 -39.677  1.00  0.00     0.039 C 
ATOM     10  G   UNL     1      12.454 -22.821 -37.929  1.00  0.00     0.000 G0
ENDBRANCH   6   7
ENDBRANCH   5   6
ENDBRANCH   3   5
ENDBRANCH   1   3
BRANCH   1  11
ATOM     11  C   UNL     1      10.707 -20.509 -36.869  1.00  0.00     0.087 C 
BRANCH  11  12
ATOM     12  C   UNL     1      10.775 -20.842 -38.385  1.00  0.00     0.066 C 
BRANCH  12  13
ATOM     13  C   UNL     1      12.083 -21.560 -38.682  1.00  0.00     0.140 C 
ATOM     14  O   UNL     1      12.793 -21.162 -39.595  1.00  0.00    -0.299 OA
BRANCH  13  15
ATOM     15  C   UNL     1      12.461 -22.821 -37.945  1.00  0.00     0.106 CG0
ATOM     16  G   UNL     1      11.565 -23.994 -38.314  1.00  0.00     0.000 G0
ENDBRANCH  13  15
ENDBRANCH  12  13
BRANCH  12  17
ATOM     17  C   UNL     1      10.632 -19.570 -39.287  1.00  0.00    -0.006 C 
ATOM     18  C   UNL     1       9.476 -19.722 -40.295  1.00  0.00     0.008 C 
ATOM     19  C   UNL     1      10.392 -18.293 -38.457  1.00  0.00     0.008 C 
ENDBRANCH  12  17
ENDBRANCH  11  12
ENDBRANCH   1  11
TORSDOF 1
ENDMDL
MODEL 7
REMARK VINA RESULT:    -3.107      1.672      4.162
REMARK INTER + INTRA:          -4.796
REMARK INTER:                  -5.103
REMARK INTRA:                   0.307
REMARK UNBOUND:                -0.055
REMARK SMILES CC1=CCC[C@@H](C)C(=O)C[C@@H](C(C)C)C(=O)C1
REMARK SMILES IDX 8 1 9 2 6 3 7 4 5 5 4 6 3 7 2 8 1 9 10 11 11 12 15 13 16 14
REMARK SMILES IDX 17 15 12 17 13 18 14 19
REMARK H PARENT
REMARK Flexibility Score: 70.00
ROOT
ATOM      1  C   UNL     1      11.489 -21.775 -37.386  1.00  0.00     0.136 C 
ATOM      2  O   UNL     1      11.415 -22.995 -37.328  1.00  0.00    -0.299 OA
ENDROOT
BRANCH   1   3
ATOM      3  C   UNL     1      12.530 -21.150 -38.296  1.00  0.00     0.053 C 
ATOM      4  C   UNL     1      13.696 -22.116 -38.546  1.00  0.00     0.016 C 
BRANCH   3   5
ATOM      5  C   UNL     1      13.033 -19.805 -37.738  1.00  0.00     0.015 C 
BRANCH   5   6
ATOM      6  C   UNL     1      12.929 -18.677 -38.780  1.00  0.00     0.028 C 
BRANCH   6   7
ATOM      7  C   UNL     1      11.764 -18.903 -39.710  1.00  0.00    -0.028 C 
ATOM      8  C   UNL     1      10.463 -18.794 -39.353  1.00  0.00    -0.070 CG0
ATOM      9  C   UNL     1       9.417 -19.011 -40.417  1.00  0.00     0.039 C 
ATOM     10  G   UNL     1      10.017 -18.471 -37.935  1.00  0.00     0.000 G0
ENDBRANCH   6   7
ENDBRANCH   5   6
ENDBRANCH   3   5
ENDBRANCH   1   3
BRANCH   1  11
ATOM     11  C   UNL     1      10.559 -20.951 -36.522  1.00  0.00     0.087 C 
BRANCH  11  12
ATOM     12  C   UNL     1       9.142 -20.817 -37.144  1.00  0.00     0.066 C 
BRANCH  12  13
ATOM     13  C   UNL     1       8.880 -19.357 -37.482  1.00  0.00     0.140 C 
ATOM     14  O   UNL     1       7.731 -18.935 -37.471  1.00  0.00    -0.299 OA
BRANCH  13  15
ATOM     15  C   UNL     1       9.997 -18.454 -37.943  1.00  0.00     0.106 CG0
ATOM     16  G   UNL     1      10.466 -18.790 -39.350  1.00  0.00     0.000 G0
ENDBRANCH  13  15
ENDBRANCH  12  13
BRANCH  12  17
ATOM     17  C   UNL     1       8.018 -21.372 -36.206  1.00  0.00    -0.006 C 
ATOM     18  C   UNL     1       7.127 -22.394 -36.939  1.00  0.00     0.008 C 
ATOM     19  C   UNL     1       8.594 -22.044 -34.943  1.00  0.00     0.008 C 
ENDBRANCH  12  17
ENDBRANCH  11  12
ENDBRANCH   1  11
TORSDOF 1
ENDMDL
MODEL 8
REMARK VINA RESULT:    -3.105      7.863     11.043
REMARK INTER + INTRA:          -4.793
REMARK INTER:                  -4.412
REMARK INTRA:                  -0.381
REMARK UNBOUND:                -0.055
REMARK SMILES CC1=CCC[C@@H](C)C(=O)C[C@@H](C(C)C)C(=O)C1
REMARK SMILES IDX 8 1 9 2 6 3 7 4 5 5 4 6 3 7 2 8 1 9 10 11 11 12 15 13 16 14
REMARK SMILES IDX 17 15 12 17 13 18 14 19
REMARK H PARENT
REMARK Flexibility Score: 70.00
ROOT
ATOM      1  C   UNL     1       9.910 -13.175 -46.350  1.00  0.00     0.136 C 
ATOM      2  O   UNL     1      10.642 -12.934 -47.301  1.00  0.00    -0.299 OA
ENDROOT
BRANCH   1   3
ATOM      3  C   UNL     1       9.102 -12.041 -45.747  1.00  0.00     0.053 C 
ATOM      4  C   UNL     1       7.862 -11.735 -46.597  1.00  0.00     0.016 C 
BRANCH   3   5
ATOM      5  C   UNL     1       9.962 -10.780 -45.544  1.00  0.00     0.015 C 
BRANCH   5   6
ATOM      6  C   UNL     1      10.635 -10.762 -44.159  1.00  0.00     0.028 C 
BRANCH   6   7
ATOM      7  C   UNL     1      12.075 -11.197 -44.248  1.00  0.00    -0.028 C 
ATOM      8  C   UNL     1      12.566 -12.344 -43.723  1.00  0.00    -0.070 CG0
ATOM      9  C   UNL     1      14.026 -12.654 -43.939  1.00  0.00     0.039 C 
ATOM     10  G   UNL     1      11.714 -13.322 -42.929  1.00  0.00     0.000 G0
ENDBRANCH   6   7
ENDBRANCH   5   6
ENDBRANCH   3   5
ENDBRANCH   1   3
BRANCH   1  11
ATOM     11  C   UNL     1       9.873 -14.586 -45.803  1.00  0.00     0.087 C 
BRANCH  11  12
ATOM     12  C   UNL     1       9.850 -14.615 -44.250  1.00  0.00     0.066 C 
BRANCH  12  13
ATOM     13  C   UNL     1      11.275 -14.519 -43.726  1.00  0.00     0.140 C 
ATOM     14  O   UNL     1      12.037 -15.464 -43.881  1.00  0.00    -0.299 OA
BRANCH  13  15
ATOM     15  C   UNL     1      11.726 -13.328 -42.918  1.00  0.00     0.106 CG0
ATOM     16  G   UNL     1      12.554 -12.353 -43.743  1.00  0.00     0.000 G0
ENDBRANCH  13  15
ENDBRANCH  12  13
BRANCH  12  17
ATOM     17  C   UNL     1       9.142 -15.891 -43.684  1.00  0.00    -0.006 C 
ATOM     18  C   UNL     1       9.065 -15.856 -42.144  1.00  0.00     0.008 C 
ATOM     19  C   UNL     1       7.714 -16.061 -44.239  1.00  0.00     0.008 C 
ENDBRANCH  12  17
ENDBRANCH  11  12
ENDBRANCH   1  11
TORSDOF 1
ENDMDL
MODEL 9
REMARK VINA RESULT:    -3.019      2.475      5.490
REMARK INTER + INTRA:          -4.663
REMARK INTER:                  -4.348
REMARK INTRA:                  -0.314
REMARK UNBOUND:                -0.055
REMARK SMILES CC1=CCC[C@@H](C)C(=O)C[C@@H](C(C)C)C(=O)C1
REMARK SMILES IDX 8 1 9 2 6 3 7 4 5 5 4 6 3 7 2 8 1 9 10 11 11 12 15 13 16 14
REMARK SMILES IDX 17 15 12 17 13 18 14 19
REMARK H PARENT
REMARK Flexibility Score: 70.00
ROOT
ATOM      1  C   UNL     1       9.648 -20.548 -39.142  1.00  0.00     0.136 C 
ATOM      2  O   UNL     1       9.441 -20.022 -40.227  1.00  0.00    -0.299 OA
ENDROOT
BRANCH   1   3
ATOM      3  C   UNL     1      10.738 -19.979 -38.253  1.00  0.00     0.053 C 
ATOM      4  C   UNL     1      10.696 -18.445 -38.241  1.00  0.00     0.016 C 
BRANCH   3   5
ATOM      5  C   UNL     1      12.129 -20.494 -38.666  1.00  0.00     0.015 C 
BRANCH   5   6
ATOM      6  C   UNL     1      12.582 -21.682 -37.796  1.00  0.00     0.028 C 
BRANCH   6   7
ATOM      7  C   UNL     1      12.500 -22.978 -38.562  1.00  0.00    -0.028 C 
ATOM      8  C   UNL     1      11.731 -24.033 -38.206  1.00  0.00    -0.070 CG0
ATOM      9  C   UNL     1      11.729 -25.243 -39.106  1.00  0.00     0.039 C 
ATOM     10  G   UNL     1      10.880 -24.051 -36.946  1.00  0.00     0.000 G0
ENDBRANCH   6   7
ENDBRANCH   5   6
ENDBRANCH   3   5
ENDBRANCH   1   3
BRANCH   1  11
ATOM     11  C   UNL     1       8.827 -21.759 -38.755  1.00  0.00     0.087 C 
BRANCH  11  12
ATOM     12  C   UNL     1       9.051 -22.173 -37.274  1.00  0.00     0.066 C 
BRANCH  12  13
ATOM     13  C   UNL     1       9.450 -23.640 -37.220  1.00  0.00     0.140 C 
ATOM     14  O   UNL     1       8.585 -24.502 -37.305  1.00  0.00    -0.299 OA
BRANCH  13  15
ATOM     15  C   UNL     1      10.877 -24.047 -36.946  1.00  0.00     0.106 CG0
ATOM     16  G   UNL     1      11.729 -24.041 -38.207  1.00  0.00     0.000 G0
ENDBRANCH  13  15
ENDBRANCH  12  13
BRANCH  12  17
ATOM     17  C   UNL     1       7.792 -21.915 -36.381  1.00  0.00    -0.006 C 
ATOM     18  C   UNL     1       8.082 -22.217 -34.897  1.00  0.00     0.008 C 
ATOM     19  C   UNL     1       7.286 -20.463 -36.493  1.00  0.00     0.008 C 
ENDBRANCH  12  17
ENDBRANCH  11  12
ENDBRANCH   1  11
TORSDOF 1
ENDMDL
