MODEL 1
REMARK VINA RESULT:    -4.876      0.000      0.000
REMARK INTER + INTRA:          -6.028
REMARK INTER:                  -5.731
REMARK INTRA:                  -0.296
REMARK UNBOUND:                -0.296
REMARK SMILES O=c1cc(-c2ccc(O)c(O)c2)oc2cc(O)cc(O)c12
REMARK SMILES IDX 4 1 3 2 2 3 1 4 21 5 19 6 18 7 16 8 15 9 14 10 13 11 5 12
REMARK SMILES IDX 6 13 7 14 8 15 12 16 10 17 9 18 11 20 20 22 17 24
REMARK H PARENT 9 19 11 21 20 23 17 25
REMARK Flexibility Score: inf
ROOT
ATOM      1  C   UNL     1      -8.329  15.827  31.204  1.00  0.00     0.138 A 
ATOM      2  C   UNL     1      -7.118  16.442  31.550  1.00  0.00     0.100 A 
ATOM      3  C   UNL     1      -6.739  16.513  32.891  1.00  0.00     0.197 A 
ATOM      4  O   UNL     1      -5.677  17.125  33.177  1.00  0.00    -0.289 OA
ATOM      5  C   UNL     1      -7.563  15.936  33.886  1.00  0.00     0.107 A 
ATOM      6  C   UNL     1      -7.257  15.912  35.280  1.00  0.00     0.134 A 
ATOM      7  C   UNL     1      -8.203  15.416  36.186  1.00  0.00     0.093 A 
ATOM      8  C   UNL     1      -9.417  14.890  35.744  1.00  0.00     0.123 A 
ATOM      9  C   UNL     1      -9.704  14.858  34.379  1.00  0.00     0.094 A 
ATOM     10  C   UNL     1      -8.794  15.377  33.453  1.00  0.00     0.146 A 
ATOM     11  O   UNL     1      -9.111  15.342  32.163  1.00  0.00    -0.456 OA
ENDROOT
BRANCH   1  12
ATOM     12  C   UNL     1      -8.780  15.723  29.793  1.00  0.00     0.021 A 
ATOM     13  C   UNL     1      -9.945  14.996  29.491  1.00  0.00     0.016 A 
ATOM     14  C   UNL     1     -10.387  14.877  28.171  1.00  0.00     0.051 A 
ATOM     15  C   UNL     1      -9.667  15.474  27.130  1.00  0.00     0.157 A 
ATOM     16  C   UNL     1      -8.053  16.310  28.738  1.00  0.00     0.062 A 
ATOM     17  C   UNL     1      -8.497  16.189  27.413  1.00  0.00     0.158 A 
BRANCH  15  18
ATOM     18  O   UNL     1     -10.105  15.359  25.812  1.00  0.00    -0.504 OA
ATOM     19  H   UNL     1     -11.091  15.321  25.582  1.00  0.00     0.293 HD
ENDBRANCH  15  18
BRANCH  17  20
ATOM     20  O   UNL     1      -7.777  16.774  26.372  1.00  0.00    -0.504 OA
ATOM     21  H   UNL     1      -6.835  17.121  26.508  1.00  0.00     0.293 HD
ENDBRANCH  17  20
ENDBRANCH   1  12
BRANCH   6  22
ATOM     22  O   UNL     1      -6.040  16.336  35.821  1.00  0.00    -0.507 OA
ATOM     23  H   UNL     1      -5.845  17.274  36.137  1.00  0.00     0.293 HD
ENDBRANCH   6  22
BRANCH   8  24
ATOM     24  O   UNL     1     -10.328  14.391  36.672  1.00  0.00    -0.508 OA
ATOM     25  H   UNL     1     -10.421  13.396  36.842  1.00  0.00     0.293 HD
ENDBRANCH   8  24
TORSDOF 5
ENDMDL
MODEL 2
REMARK VINA RESULT:    -4.781      1.683      7.105
REMARK INTER + INTRA:          -5.916
REMARK INTER:                  -5.600
REMARK INTRA:                  -0.316
REMARK UNBOUND:                -0.296
REMARK SMILES O=c1cc(-c2ccc(O)c(O)c2)oc2cc(O)cc(O)c12
REMARK SMILES IDX 4 1 3 2 2 3 1 4 21 5 19 6 18 7 16 8 15 9 14 10 13 11 5 12
REMARK SMILES IDX 6 13 7 14 8 15 12 16 10 17 9 18 11 20 20 22 17 24
REMARK H PARENT 9 19 11 21 20 23 17 25
REMARK Flexibility Score: inf
ROOT
ATOM      1  C   UNL     1      -8.621  15.645  31.755  1.00  0.00     0.138 A 
ATOM      2  C   UNL     1      -9.670  15.657  30.826  1.00  0.00     0.100 A 
ATOM      3  C   UNL     1      -9.401  15.937  29.486  1.00  0.00     0.197 A 
ATOM      4  O   UNL     1     -10.370  16.001  28.686  1.00  0.00    -0.289 OA
ATOM      5  C   UNL     1      -8.069  16.175  29.070  1.00  0.00     0.107 A 
ATOM      6  C   UNL     1      -7.672  16.430  27.723  1.00  0.00     0.134 A 
ATOM      7  C   UNL     1      -6.341  16.766  27.448  1.00  0.00     0.093 A 
ATOM      8  C   UNL     1      -5.382  16.799  28.460  1.00  0.00     0.123 A 
ATOM      9  C   UNL     1      -5.748  16.498  29.773  1.00  0.00     0.094 A 
ATOM     10  C   UNL     1      -7.076  16.192  30.085  1.00  0.00     0.146 A 
ATOM     11  O   UNL     1      -7.387  15.926  31.349  1.00  0.00    -0.456 OA
ENDROOT
BRANCH   1  12
ATOM     12  C   UNL     1      -8.850  15.352  33.193  1.00  0.00     0.021 A 
ATOM     13  C   UNL     1     -10.104  14.873  33.610  1.00  0.00     0.016 A 
ATOM     14  C   UNL     1     -10.347  14.598  34.958  1.00  0.00     0.051 A 
ATOM     15  C   UNL     1      -9.345  14.807  35.913  1.00  0.00     0.157 A 
ATOM     16  C   UNL     1      -7.850  15.573  34.161  1.00  0.00     0.062 A 
ATOM     17  C   UNL     1      -8.095  15.298  35.515  1.00  0.00     0.158 A 
BRANCH  15  18
ATOM     18  O   UNL     1      -9.583  14.532  37.259  1.00  0.00    -0.504 OA
ATOM     19  H   UNL     1      -9.121  13.765  37.733  1.00  0.00     0.293 HD
ENDBRANCH  15  18
BRANCH  17  20
ATOM     20  O   UNL     1      -7.103  15.515  36.469  1.00  0.00    -0.504 OA
ATOM     21  H   UNL     1      -6.795  16.449  36.712  1.00  0.00     0.293 HD
ENDBRANCH  17  20
ENDBRANCH   1  12
BRANCH   6  22
ATOM     22  O   UNL     1      -8.532  16.342  26.624  1.00  0.00    -0.507 OA
ATOM     23  H   UNL     1      -8.579  15.558  25.990  1.00  0.00     0.293 HD
ENDBRANCH   6  22
BRANCH   8  24
ATOM     24  O   UNL     1      -4.064  17.123  28.148  1.00  0.00    -0.508 OA
ATOM     25  H   UNL     1      -3.533  17.780  28.708  1.00  0.00     0.293 HD
ENDBRANCH   8  24
TORSDOF 5
ENDMDL
MODEL 3
REMARK VINA RESULT:    -4.755      1.203      2.744
REMARK INTER + INTRA:          -5.885
REMARK INTER:                  -5.568
REMARK INTRA:                  -0.317
REMARK UNBOUND:                -0.296
REMARK SMILES O=c1cc(-c2ccc(O)c(O)c2)oc2cc(O)cc(O)c12
REMARK SMILES IDX 4 1 3 2 2 3 1 4 21 5 19 6 18 7 16 8 15 9 14 10 13 11 5 12
REMARK SMILES IDX 6 13 7 14 8 15 12 16 10 17 9 18 11 20 20 22 17 24
REMARK H PARENT 9 19 11 21 20 23 17 25
REMARK Flexibility Score: inf
ROOT
ATOM      1  C   UNL     1      -9.535  15.200  30.941  1.00  0.00     0.138 A 
ATOM      2  C   UNL     1     -10.468  14.639  31.824  1.00  0.00     0.100 A 
ATOM      3  C   UNL     1     -10.224  14.674  33.198  1.00  0.00     0.197 A 
ATOM      4  O   UNL     1     -11.048  14.110  33.962  1.00  0.00    -0.289 OA
ATOM      5  C   UNL     1      -9.055  15.302  33.689  1.00  0.00     0.107 A 
ATOM      6  C   UNL     1      -8.723  15.434  35.071  1.00  0.00     0.134 A 
ATOM      7  C   UNL     1      -7.482  15.971  35.435  1.00  0.00     0.093 A 
ATOM      8  C   UNL     1      -6.588  16.436  34.471  1.00  0.00     0.123 A 
ATOM      9  C   UNL     1      -6.925  16.362  33.119  1.00  0.00     0.094 A 
ATOM     10  C   UNL     1      -8.141  15.799  32.722  1.00  0.00     0.146 A 
ATOM     11  O   UNL     1      -8.418  15.734  31.424  1.00  0.00    -0.456 OA
ENDROOT
BRANCH   1  12
ATOM     12  C   UNL     1      -9.744  15.191  29.471  1.00  0.00     0.021 A 
ATOM     13  C   UNL     1     -10.819  14.465  28.929  1.00  0.00     0.016 A 
ATOM     14  C   UNL     1     -11.033  14.435  27.549  1.00  0.00     0.051 A 
ATOM     15  C   UNL     1     -10.169  15.120  26.686  1.00  0.00     0.157 A 
ATOM     16  C   UNL     1      -8.871  15.867  28.595  1.00  0.00     0.062 A 
ATOM     17  C   UNL     1      -9.085  15.835  27.209  1.00  0.00     0.158 A 
BRANCH  15  18
ATOM     18  O   UNL     1     -10.380  15.093  25.308  1.00  0.00    -0.504 OA
ATOM     19  H   UNL     1     -10.757  15.892  24.814  1.00  0.00     0.293 HD
ENDBRANCH  15  18
BRANCH  17  20
ATOM     20  O   UNL     1      -8.221  16.507  26.346  1.00  0.00    -0.504 OA
ATOM     21  H   UNL     1      -8.174  17.518  26.324  1.00  0.00     0.293 HD
ENDBRANCH  17  20
ENDBRANCH   1  12
BRANCH   6  22
ATOM     22  O   UNL     1      -9.578  15.079  36.118  1.00  0.00    -0.507 OA
ATOM     23  H   UNL     1      -9.279  14.841  37.052  1.00  0.00     0.293 HD
ENDBRANCH   6  22
BRANCH   8  24
ATOM     24  O   UNL     1      -5.368  16.979  34.869  1.00  0.00    -0.508 OA
ATOM     25  H   UNL     1      -4.492  16.502  34.689  1.00  0.00     0.293 HD
ENDBRANCH   8  24
TORSDOF 5
ENDMDL
MODEL 4
REMARK VINA RESULT:    -4.616      1.104      6.823
REMARK INTER + INTRA:          -5.722
REMARK INTER:                  -5.425
REMARK INTRA:                  -0.297
REMARK UNBOUND:                -0.296
REMARK SMILES O=c1cc(-c2ccc(O)c(O)c2)oc2cc(O)cc(O)c12
REMARK SMILES IDX 4 1 3 2 2 3 1 4 21 5 19 6 18 7 16 8 15 9 14 10 13 11 5 12
REMARK SMILES IDX 6 13 7 14 8 15 12 16 10 17 9 18 11 20 20 22 17 24
REMARK H PARENT 9 19 11 21 20 23 17 25
REMARK Flexibility Score: inf
ROOT
ATOM      1  C   UNL     1      -8.238  15.687  32.110  1.00  0.00     0.138 A 
ATOM      2  C   UNL     1      -7.004  16.241  31.742  1.00  0.00     0.100 A 
ATOM      3  C   UNL     1      -6.733  16.485  30.395  1.00  0.00     0.197 A 
ATOM      4  O   UNL     1      -5.595  16.925  30.088  1.00  0.00    -0.289 OA
ATOM      5  C   UNL     1      -7.715  16.201  29.416  1.00  0.00     0.107 A 
ATOM      6  C   UNL     1      -7.564  16.446  28.018  1.00  0.00     0.134 A 
ATOM      7  C   UNL     1      -8.558  16.016  27.131  1.00  0.00     0.093 A 
ATOM      8  C   UNL     1      -9.722  15.405  27.594  1.00  0.00     0.123 A 
ATOM      9  C   UNL     1      -9.905  15.208  28.964  1.00  0.00     0.094 A 
ATOM     10  C   UNL     1      -8.916  15.595  29.872  1.00  0.00     0.146 A 
ATOM     11  O   UNL     1      -9.122  15.377  31.167  1.00  0.00    -0.456 OA
ENDROOT
BRANCH   1  12
ATOM     12  C   UNL     1      -8.580  15.407  33.528  1.00  0.00     0.021 A 
ATOM     13  C   UNL     1      -9.846  14.885  33.844  1.00  0.00     0.016 A 
ATOM     14  C   UNL     1     -10.194  14.620  35.171  1.00  0.00     0.051 A 
ATOM     15  C   UNL     1      -9.288  14.883  36.205  1.00  0.00     0.157 A 
ATOM     16  C   UNL     1      -7.677  15.683  34.575  1.00  0.00     0.062 A 
ATOM     17  C   UNL     1      -8.028  15.418  35.907  1.00  0.00     0.158 A 
BRANCH  15  18
ATOM     18  O   UNL     1      -9.632  14.620  37.529  1.00  0.00    -0.504 OA
ATOM     19  H   UNL     1     -10.448  15.039  37.959  1.00  0.00     0.293 HD
ENDBRANCH  15  18
BRANCH  17  20
ATOM     20  O   UNL     1      -7.132  15.689  36.939  1.00  0.00    -0.504 OA
ATOM     21  H   UNL     1      -6.133  15.572  36.820  1.00  0.00     0.293 HD
ENDBRANCH  17  20
ENDBRANCH   1  12
BRANCH   6  22
ATOM     22  O   UNL     1      -6.479  17.125  27.457  1.00  0.00    -0.507 OA
ATOM     23  H   UNL     1      -6.442  18.120  27.294  1.00  0.00     0.293 HD
ENDBRANCH   6  22
BRANCH   8  24
ATOM     24  O   UNL     1     -10.697  15.003  26.684  1.00  0.00    -0.508 OA
ATOM     25  H   UNL     1     -11.127  15.661  26.042  1.00  0.00     0.293 HD
ENDBRANCH   8  24
TORSDOF 5
ENDMDL
MODEL 5
REMARK VINA RESULT:    -4.278     13.145     16.319
REMARK INTER + INTRA:          -5.325
REMARK INTER:                  -5.028
REMARK INTRA:                  -0.297
REMARK UNBOUND:                -0.296
REMARK SMILES O=c1cc(-c2ccc(O)c(O)c2)oc2cc(O)cc(O)c12
REMARK SMILES IDX 4 1 3 2 2 3 1 4 21 5 19 6 18 7 16 8 15 9 14 10 13 11 5 12
REMARK SMILES IDX 6 13 7 14 8 15 12 16 10 17 9 18 11 20 20 22 17 24
REMARK H PARENT 9 19 11 21 20 23 17 25
REMARK Flexibility Score: inf
ROOT
ATOM      1  C   UNL     1       3.787  17.017  24.547  1.00  0.00     0.138 A 
ATOM      2  C   UNL     1       2.877  16.997  23.481  1.00  0.00     0.100 A 
ATOM      3  C   UNL     1       3.351  16.962  22.170  1.00  0.00     0.197 A 
ATOM      4  O   UNL     1       2.513  17.007  21.233  1.00  0.00    -0.289 OA
ATOM      5  C   UNL     1       4.745  16.916  21.926  1.00  0.00     0.107 A 
ATOM      6  C   UNL     1       5.342  16.837  20.632  1.00  0.00     0.134 A 
ATOM      7  C   UNL     1       6.734  16.914  20.509  1.00  0.00     0.093 A 
ATOM      8  C   UNL     1       7.554  17.007  21.633  1.00  0.00     0.123 A 
ATOM      9  C   UNL     1       6.984  17.031  22.907  1.00  0.00     0.094 A 
ATOM     10  C   UNL     1       5.595  16.990  23.061  1.00  0.00     0.146 A 
ATOM     11  O   UNL     1       5.091  17.029  24.291  1.00  0.00    -0.456 OA
ENDROOT
BRANCH   1  12
ATOM     12  C   UNL     1       3.337  17.054  25.961  1.00  0.00     0.021 A 
ATOM     13  C   UNL     1       4.294  17.069  26.992  1.00  0.00     0.016 A 
ATOM     14  C   UNL     1       3.896  17.096  28.331  1.00  0.00     0.051 A 
ATOM     15  C   UNL     1       2.537  17.097  28.663  1.00  0.00     0.157 A 
ATOM     16  C   UNL     1       1.970  17.042  26.304  1.00  0.00     0.062 A 
ATOM     17  C   UNL     1       1.572  17.067  27.649  1.00  0.00     0.158 A 
BRANCH  15  18
ATOM     18  O   UNL     1       2.136  17.125  29.998  1.00  0.00    -0.504 OA
ATOM     19  H   UNL     1       2.513  16.476  30.678  1.00  0.00     0.293 HD
ENDBRANCH  15  18
BRANCH  17  20
ATOM     20  O   UNL     1       0.219  17.058  27.984  1.00  0.00    -0.504 OA
ATOM     21  H   UNL     1      -0.095  17.232  28.931  1.00  0.00     0.293 HD
ENDBRANCH  17  20
ENDBRANCH   1  12
BRANCH   6  22
ATOM     22  O   UNL     1       4.620  16.658  19.448  1.00  0.00    -0.507 OA
ATOM     23  H   UNL     1       3.814  17.200  19.177  1.00  0.00     0.293 HD
ENDBRANCH   6  22
BRANCH   8  24
ATOM     24  O   UNL     1       8.936  17.067  21.474  1.00  0.00    -0.508 OA
ATOM     25  H   UNL     1       9.554  17.227  22.261  1.00  0.00     0.293 HD
ENDBRANCH   8  24
TORSDOF 5
ENDMDL
MODEL 6
REMARK VINA RESULT:    -4.266     12.304     14.016
REMARK INTER + INTRA:          -5.310
REMARK INTER:                  -4.992
REMARK INTRA:                  -0.318
REMARK UNBOUND:                -0.296
REMARK SMILES O=c1cc(-c2ccc(O)c(O)c2)oc2cc(O)cc(O)c12
REMARK SMILES IDX 4 1 3 2 2 3 1 4 21 5 19 6 18 7 16 8 15 9 14 10 13 11 5 12
REMARK SMILES IDX 6 13 7 14 8 15 12 16 10 17 9 18 11 20 20 22 17 24
REMARK H PARENT 9 19 11 21 20 23 17 25
REMARK Flexibility Score: inf
ROOT
ATOM      1  C   UNL     1       3.626  17.036  25.446  1.00  0.00     0.138 A 
ATOM      2  C   UNL     1       2.263  16.932  25.757  1.00  0.00     0.100 A 
ATOM      3  C   UNL     1       1.860  16.914  27.092  1.00  0.00     0.197 A 
ATOM      4  O   UNL     1       0.637  16.758  27.342  1.00  0.00    -0.289 OA
ATOM      5  C   UNL     1       2.826  17.032  28.120  1.00  0.00     0.107 A 
ATOM      6  C   UNL     1       2.527  17.067  29.516  1.00  0.00     0.134 A 
ATOM      7  C   UNL     1       3.574  17.069  30.446  1.00  0.00     0.093 A 
ATOM      8  C   UNL     1       4.905  17.098  30.032  1.00  0.00     0.123 A 
ATOM      9  C   UNL     1       5.208  17.119  28.670  1.00  0.00     0.094 A 
ATOM     10  C   UNL     1       4.186  17.083  27.717  1.00  0.00     0.146 A 
ATOM     11  O   UNL     1       4.517  17.090  26.430  1.00  0.00    -0.456 OA
ENDROOT
BRANCH   1  12
ATOM     12  C   UNL     1       4.110  17.061  24.042  1.00  0.00     0.021 A 
ATOM     13  C   UNL     1       3.179  17.089  22.989  1.00  0.00     0.016 A 
ATOM     14  C   UNL     1       3.609  17.105  21.660  1.00  0.00     0.051 A 
ATOM     15  C   UNL     1       4.976  17.082  21.360  1.00  0.00     0.157 A 
ATOM     16  C   UNL     1       5.484  17.024  23.733  1.00  0.00     0.062 A 
ATOM     17  C   UNL     1       5.915  17.038  22.398  1.00  0.00     0.158 A 
BRANCH  15  18
ATOM     18  O   UNL     1       5.409  17.099  20.036  1.00  0.00    -0.504 OA
ATOM     19  H   UNL     1       5.445  16.253  19.479  1.00  0.00     0.293 HD
ENDBRANCH  15  18
BRANCH  17  20
ATOM     20  O   UNL     1       7.276  17.005  22.096  1.00  0.00    -0.504 OA
ATOM     21  H   UNL     1       7.607  17.007  21.139  1.00  0.00     0.293 HD
ENDBRANCH  17  20
ENDBRANCH   1  12
BRANCH   6  22
ATOM     22  O   UNL     1       1.231  17.125  30.036  1.00  0.00    -0.507 OA
ATOM     23  H   UNL     1       0.407  17.367  29.507  1.00  0.00     0.293 HD
ENDBRANCH   6  22
BRANCH   8  24
ATOM     24  O   UNL     1       5.921  17.115  30.985  1.00  0.00    -0.508 OA
ATOM     25  H   UNL     1       5.716  17.116  31.978  1.00  0.00     0.293 HD
ENDBRANCH   8  24
TORSDOF 5
ENDMDL
MODEL 7
REMARK VINA RESULT:    -4.209      2.544      7.184
REMARK INTER + INTRA:          -5.244
REMARK INTER:                  -4.952
REMARK INTRA:                  -0.292
REMARK UNBOUND:                -0.296
REMARK SMILES O=c1cc(-c2ccc(O)c(O)c2)oc2cc(O)cc(O)c12
REMARK SMILES IDX 4 1 3 2 2 3 1 4 21 5 19 6 18 7 16 8 15 9 14 10 13 11 5 12
REMARK SMILES IDX 6 13 7 14 8 15 12 16 10 17 9 18 11 20 20 22 17 24
REMARK H PARENT 9 19 11 21 20 23 17 25
REMARK Flexibility Score: inf
ROOT
ATOM      1  C   UNL     1      -9.099  14.743  33.072  1.00  0.00     0.138 A 
ATOM      2  C   UNL     1      -9.221  15.624  31.989  1.00  0.00     0.100 A 
ATOM      3  C   UNL     1      -9.745  15.163  30.780  1.00  0.00     0.197 A 
ATOM      4  O   UNL     1      -9.785  15.960  29.808  1.00  0.00    -0.289 OA
ATOM      5  C   UNL     1     -10.177  13.820  30.667  1.00  0.00     0.107 A 
ATOM      6  C   UNL     1     -10.764  13.250  29.498  1.00  0.00     0.134 A 
ATOM      7  C   UNL     1     -11.046  11.879  29.464  1.00  0.00     0.093 A 
ATOM      8  C   UNL     1     -10.818  11.070  30.576  1.00  0.00     0.123 A 
ATOM      9  C   UNL     1     -10.294  11.626  31.744  1.00  0.00     0.094 A 
ATOM     10  C   UNL     1      -9.971  12.984  31.797  1.00  0.00     0.146 A 
ATOM     11  O   UNL     1      -9.460  13.472  32.923  1.00  0.00    -0.456 OA
ENDROOT
BRANCH   1  12
ATOM     12  C   UNL     1      -8.549  15.180  34.380  1.00  0.00     0.021 A 
ATOM     13  C   UNL     1      -7.377  15.955  34.414  1.00  0.00     0.016 A 
ATOM     14  C   UNL     1      -6.836  16.373  35.633  1.00  0.00     0.051 A 
ATOM     15  C   UNL     1      -7.451  16.014  36.838  1.00  0.00     0.157 A 
ATOM     16  C   UNL     1      -9.156  14.812  35.598  1.00  0.00     0.062 A 
ATOM     17  C   UNL     1      -8.611  15.230  36.821  1.00  0.00     0.158 A 
BRANCH  15  18
ATOM     18  O   UNL     1      -6.915  16.430  38.055  1.00  0.00    -0.504 OA
ATOM     19  H   UNL     1      -6.230  17.175  38.106  1.00  0.00     0.293 HD
ENDBRANCH  15  18
BRANCH  17  20
ATOM     20  O   UNL     1      -9.215  14.866  38.023  1.00  0.00    -0.504 OA
ATOM     21  H   UNL     1      -8.965  15.311  38.899  1.00  0.00     0.293 HD
ENDBRANCH  17  20
ENDBRANCH   1  12
BRANCH   6  22
ATOM     22  O   UNL     1     -11.111  13.986  28.360  1.00  0.00    -0.507 OA
ATOM     23  H   UNL     1     -11.726  14.786  28.356  1.00  0.00     0.293 HD
ENDBRANCH   6  22
BRANCH   8  24
ATOM     24  O   UNL     1     -11.124   9.712  30.512  1.00  0.00    -0.508 OA
ATOM     25  H   UNL     1     -12.050   9.389  30.253  1.00  0.00     0.293 HD
ENDBRANCH   8  24
TORSDOF 5
ENDMDL
MODEL 8
REMARK VINA RESULT:    -3.952     12.592     15.911
REMARK INTER + INTRA:          -4.941
REMARK INTER:                  -4.624
REMARK INTRA:                  -0.317
REMARK UNBOUND:                -0.296
REMARK SMILES O=c1cc(-c2ccc(O)c(O)c2)oc2cc(O)cc(O)c12
REMARK SMILES IDX 4 1 3 2 2 3 1 4 21 5 19 6 18 7 16 8 15 9 14 10 13 11 5 12
REMARK SMILES IDX 6 13 7 14 8 15 12 16 10 17 9 18 11 20 20 22 17 24
REMARK H PARENT 9 19 11 21 20 23 17 25
REMARK Flexibility Score: inf
ROOT
ATOM      1  C   UNL     1       3.874  16.914  24.334  1.00  0.00     0.138 A 
ATOM      2  C   UNL     1       5.201  17.089  23.919  1.00  0.00     0.100 A 
ATOM      3  C   UNL     1       5.515  17.021  22.561  1.00  0.00     0.197 A 
ATOM      4  O   UNL     1       6.723  17.122  22.224  1.00  0.00    -0.289 OA
ATOM      5  C   UNL     1       4.487  16.808  21.612  1.00  0.00     0.107 A 
ATOM      6  C   UNL     1       4.683  16.761  20.199  1.00  0.00     0.134 A 
ATOM      7  C   UNL     1       3.610  16.427  19.364  1.00  0.00     0.093 A 
ATOM      8  C   UNL     1       2.337  16.198  19.884  1.00  0.00     0.123 A 
ATOM      9  C   UNL     1       2.121  16.293  21.259  1.00  0.00     0.094 A 
ATOM     10  C   UNL     1       3.180  16.591  22.122  1.00  0.00     0.146 A 
ATOM     11  O   UNL     1       2.936  16.659  23.427  1.00  0.00    -0.456 OA
ENDROOT
BRANCH   1  12
ATOM     12  C   UNL     1       3.485  16.976  25.765  1.00  0.00     0.021 A 
ATOM     13  C   UNL     1       4.484  17.060  26.751  1.00  0.00     0.016 A 
ATOM     14  C   UNL     1       4.144  17.112  28.105  1.00  0.00     0.051 A 
ATOM     15  C   UNL     1       2.801  17.072  28.497  1.00  0.00     0.157 A 
ATOM     16  C   UNL     1       2.135  16.922  26.168  1.00  0.00     0.062 A 
ATOM     17  C   UNL     1       1.795  16.973  27.528  1.00  0.00     0.158 A 
BRANCH  15  18
ATOM     18  O   UNL     1       2.457  17.125  29.847  1.00  0.00    -0.504 OA
ATOM     19  H   UNL     1       2.705  16.380  30.487  1.00  0.00     0.293 HD
ENDBRANCH  15  18
BRANCH  17  20
ATOM     20  O   UNL     1       0.459  16.922  27.923  1.00  0.00    -0.504 OA
ATOM     21  H   UNL     1      -0.296  17.037  27.257  1.00  0.00     0.293 HD
ENDBRANCH  17  20
ENDBRANCH   1  12
BRANCH   6  22
ATOM     22  O   UNL     1       5.895  17.057  19.568  1.00  0.00    -0.507 OA
ATOM     23  H   UNL     1       6.646  17.588  19.982  1.00  0.00     0.293 HD
ENDBRANCH   6  22
BRANCH   8  24
ATOM     24  O   UNL     1       1.288  15.882  19.022  1.00  0.00    -0.508 OA
ATOM     25  H   UNL     1       0.618  16.582  18.724  1.00  0.00     0.293 HD
ENDBRANCH   8  24
TORSDOF 5
ENDMDL
