MODEL 1
REMARK VINA RESULT:    -3.705      0.000      0.000
REMARK INTER + INTRA:          -4.063
REMARK INTER:                  -4.030
REMARK INTRA:                  -0.033
REMARK UNBOUND:                -0.033
REMARK SMILES O=C([O-])c1ccc(O)cc1
REMARK SMILES IDX 4 1 5 2 10 3 6 4 9 5 7 6 2 7 1 8 3 9 8 10
REMARK H PARENT 8 11
REMARK Flexibility Score: inf
ROOT
ATOM      1  C   UNL     1     -94.773 146.901 242.272  1.00  0.00    -0.003 A 
ATOM      2  C   UNL     1     -94.422 145.626 242.752  1.00  0.00     0.014 A 
ATOM      3  C   UNL     1     -93.984 147.492 241.269  1.00  0.00     0.014 A 
ATOM      4  C   UNL     1     -93.305 144.959 242.239  1.00  0.00     0.047 A 
ATOM      5  C   UNL     1     -92.869 146.822 240.758  1.00  0.00     0.047 A 
ATOM      6  C   UNL     1     -92.527 145.553 241.242  1.00  0.00     0.115 A 
ENDROOT
BRANCH   1   7
ATOM      7  C   UNL     1     -95.952 147.612 242.812  1.00  0.00     0.071 C 
ATOM      8  O   UNL     1     -96.971 146.973 243.187  1.00  0.00    -0.545 OA
ATOM      9  O   UNL     1     -95.953 148.999 242.913  1.00  0.00    -0.545 OA
ENDBRANCH   1   7
BRANCH   6  10
ATOM     10  O   UNL     1     -91.418 144.876 240.740  1.00  0.00    -0.508 OA
ATOM     11  H   UNL     1     -90.520 144.908 241.209  1.00  0.00     0.293 HD
ENDBRANCH   6  10
TORSDOF 2
ENDMDL
MODEL 2
REMARK VINA RESULT:    -3.670      0.139      1.537
REMARK INTER + INTRA:          -4.025
REMARK INTER:                  -3.994
REMARK INTRA:                  -0.031
REMARK UNBOUND:                -0.033
REMARK SMILES O=C([O-])c1ccc(O)cc1
REMARK SMILES IDX 4 1 5 2 10 3 6 4 9 5 7 6 2 7 1 8 3 9 8 10
REMARK H PARENT 8 11
REMARK Flexibility Score: inf
ROOT
ATOM      1  C   UNL     1     -94.791 146.937 242.236  1.00  0.00    -0.003 A 
ATOM      2  C   UNL     1     -93.987 147.498 241.226  1.00  0.00     0.014 A 
ATOM      3  C   UNL     1     -94.454 145.673 242.751  1.00  0.00     0.014 A 
ATOM      4  C   UNL     1     -92.871 146.807 240.743  1.00  0.00     0.047 A 
ATOM      5  C   UNL     1     -93.338 144.985 242.266  1.00  0.00     0.047 A 
ATOM      6  C   UNL     1     -92.543 145.551 241.260  1.00  0.00     0.115 A 
ENDROOT
BRANCH   1   7
ATOM      7  C   UNL     1     -95.973 147.663 242.749  1.00  0.00     0.071 C 
ATOM      8  O   UNL     1     -97.084 147.080 242.865  1.00  0.00    -0.545 OA
ATOM      9  O   UNL     1     -95.875 149.002 243.110  1.00  0.00    -0.545 OA
ENDBRANCH   1   7
BRANCH   6  10
ATOM     10  O   UNL     1     -91.428 144.875 240.770  1.00  0.00    -0.508 OA
ATOM     11  H   UNL     1     -90.489 145.123 241.060  1.00  0.00     0.293 HD
ENDBRANCH   6  10
TORSDOF 2
ENDMDL
MODEL 3
REMARK VINA RESULT:    -3.411      2.467      3.109
REMARK INTER + INTRA:          -3.743
REMARK INTER:                  -3.715
REMARK INTRA:                  -0.028
REMARK UNBOUND:                -0.033
REMARK SMILES O=C([O-])c1ccc(O)cc1
REMARK SMILES IDX 4 1 5 2 10 3 6 4 9 5 7 6 2 7 1 8 3 9 8 10
REMARK H PARENT 8 11
REMARK Flexibility Score: inf
ROOT
ATOM      1  C   UNL     1     -94.411 147.377 239.443  1.00  0.00    -0.003 A 
ATOM      2  C   UNL     1     -93.931 147.511 240.758  1.00  0.00     0.014 A 
ATOM      3  C   UNL     1     -93.852 146.393 238.610  1.00  0.00     0.014 A 
ATOM      4  C   UNL     1     -92.912 146.676 241.228  1.00  0.00     0.047 A 
ATOM      5  C   UNL     1     -92.833 145.560 239.083  1.00  0.00     0.047 A 
ATOM      6  C   UNL     1     -92.361 145.700 240.394  1.00  0.00     0.115 A 
ENDROOT
BRANCH   1   7
ATOM      7  C   UNL     1     -95.488 148.258 238.940  1.00  0.00     0.071 C 
ATOM      8  O   UNL     1     -95.256 149.103 238.035  1.00  0.00    -0.545 OA
ATOM      9  O   UNL     1     -96.773 148.167 239.462  1.00  0.00    -0.545 OA
ENDBRANCH   1   7
BRANCH   6  10
ATOM     10  O   UNL     1     -91.347 144.875 240.876  1.00  0.00    -0.508 OA
ATOM     11  H   UNL     1     -90.991 144.970 241.821  1.00  0.00     0.293 HD
ENDBRANCH   6  10
TORSDOF 2
ENDMDL
MODEL 4
REMARK VINA RESULT:    -3.379      2.733      4.524
REMARK INTER + INTRA:          -3.709
REMARK INTER:                  -3.679
REMARK INTRA:                  -0.029
REMARK UNBOUND:                -0.033
REMARK SMILES O=C([O-])c1ccc(O)cc1
REMARK SMILES IDX 4 1 5 2 10 3 6 4 9 5 7 6 2 7 1 8 3 9 8 10
REMARK H PARENT 8 11
REMARK Flexibility Score: inf
ROOT
ATOM      1  C   UNL     1     -93.167 146.226 240.086  1.00  0.00    -0.003 A 
ATOM      2  C   UNL     1     -93.791 147.396 240.557  1.00  0.00     0.014 A 
ATOM      3  C   UNL     1     -93.335 145.860 238.739  1.00  0.00     0.014 A 
ATOM      4  C   UNL     1     -94.566 148.181 239.697  1.00  0.00     0.047 A 
ATOM      5  C   UNL     1     -94.109 146.647 237.882  1.00  0.00     0.047 A 
ATOM      6  C   UNL     1     -94.727 147.810 238.360  1.00  0.00     0.115 A 
ENDROOT
BRANCH   1   7
ATOM      7  C   UNL     1     -92.348 145.391 240.992  1.00  0.00     0.071 C 
ATOM      8  O   UNL     1     -91.148 145.129 240.712  1.00  0.00    -0.545 OA
ATOM      9  O   UNL     1     -92.893 144.881 242.165  1.00  0.00    -0.545 OA
ENDBRANCH   1   7
BRANCH   6  10
ATOM     10  O   UNL     1     -95.501 148.603 237.515  1.00  0.00    -0.508 OA
ATOM     11  H   UNL     1     -95.154 149.483 237.149  1.00  0.00     0.293 HD
ENDBRANCH   6  10
TORSDOF 2
ENDMDL
MODEL 5
REMARK VINA RESULT:    -3.378      2.790      4.508
REMARK INTER + INTRA:          -3.708
REMARK INTER:                  -3.678
REMARK INTRA:                  -0.030
REMARK UNBOUND:                -0.033
REMARK SMILES O=C([O-])c1ccc(O)cc1
REMARK SMILES IDX 4 1 5 2 10 3 6 4 9 5 7 6 2 7 1 8 3 9 8 10
REMARK H PARENT 8 11
REMARK Flexibility Score: inf
ROOT
ATOM      1  C   UNL     1     -93.094 146.153 240.051  1.00  0.00    -0.003 A 
ATOM      2  C   UNL     1     -93.231 145.790 238.699  1.00  0.00     0.014 A 
ATOM      3  C   UNL     1     -93.720 147.325 240.510  1.00  0.00     0.014 A 
ATOM      4  C   UNL     1     -93.980 146.586 237.825  1.00  0.00     0.047 A 
ATOM      5  C   UNL     1     -94.467 148.118 239.634  1.00  0.00     0.047 A 
ATOM      6  C   UNL     1     -94.599 147.750 238.288  1.00  0.00     0.115 A 
ENDROOT
BRANCH   1   7
ATOM      7  C   UNL     1     -92.303 145.316 240.980  1.00  0.00     0.071 C 
ATOM      8  O   UNL     1     -92.816 144.876 242.043  1.00  0.00    -0.545 OA
ATOM      9  O   UNL     1     -90.979 145.004 240.692  1.00  0.00    -0.545 OA
ENDBRANCH   1   7
BRANCH   6  10
ATOM     10  O   UNL     1     -95.341 148.532 237.407  1.00  0.00    -0.508 OA
ATOM     11  H   UNL     1     -94.893 149.109 236.704  1.00  0.00     0.293 HD
ENDBRANCH   6  10
TORSDOF 2
ENDMDL
MODEL 6
REMARK VINA RESULT:    -3.377      1.004      4.224
REMARK INTER + INTRA:          -3.706
REMARK INTER:                  -3.678
REMARK INTRA:                  -0.029
REMARK UNBOUND:                -0.033
REMARK SMILES O=C([O-])c1ccc(O)cc1
REMARK SMILES IDX 4 1 5 2 10 3 6 4 9 5 7 6 2 7 1 8 3 9 8 10
REMARK H PARENT 8 11
REMARK Flexibility Score: inf
ROOT
ATOM      1  C   UNL     1     -93.314 146.082 241.080  1.00  0.00    -0.003 A 
ATOM      2  C   UNL     1     -93.921 145.351 242.118  1.00  0.00     0.014 A 
ATOM      3  C   UNL     1     -93.765 147.386 240.812  1.00  0.00     0.014 A 
ATOM      4  C   UNL     1     -94.957 145.915 242.870  1.00  0.00     0.047 A 
ATOM      5  C   UNL     1     -94.800 147.947 241.565  1.00  0.00     0.047 A 
ATOM      6  C   UNL     1     -95.399 147.212 242.597  1.00  0.00     0.115 A 
ENDROOT
BRANCH   1   7
ATOM      7  C   UNL     1     -92.219 145.490 240.281  1.00  0.00     0.071 C 
ATOM      8  O   UNL     1     -91.128 145.171 240.825  1.00  0.00    -0.545 OA
ATOM      9  O   UNL     1     -92.378 145.278 238.916  1.00  0.00    -0.545 OA
ENDBRANCH   1   7
BRANCH   6  10
ATOM     10  O   UNL     1     -96.431 147.761 243.354  1.00  0.00    -0.508 OA
ATOM     11  H   UNL     1     -96.605 147.463 244.308  1.00  0.00     0.293 HD
ENDBRANCH   6  10
TORSDOF 2
ENDMDL
MODEL 7
REMARK VINA RESULT:    -3.284      3.147      3.746
REMARK INTER + INTRA:          -3.605
REMARK INTER:                  -3.578
REMARK INTRA:                  -0.027
REMARK UNBOUND:                -0.033
REMARK SMILES O=C([O-])c1ccc(O)cc1
REMARK SMILES IDX 4 1 5 2 10 3 6 4 9 5 7 6 2 7 1 8 3 9 8 10
REMARK H PARENT 8 11
REMARK Flexibility Score: inf
ROOT
ATOM      1  C   UNL     1     -94.300 147.327 238.683  1.00  0.00    -0.003 A 
ATOM      2  C   UNL     1     -93.700 146.177 238.138  1.00  0.00     0.014 A 
ATOM      3  C   UNL     1     -94.051 147.653 240.027  1.00  0.00     0.014 A 
ATOM      4  C   UNL     1     -92.869 145.372 238.924  1.00  0.00     0.047 A 
ATOM      5  C   UNL     1     -93.220 146.847 240.810  1.00  0.00     0.047 A 
ATOM      6  C   UNL     1     -92.627 145.703 240.259  1.00  0.00     0.115 A 
ENDROOT
BRANCH   1   7
ATOM      7  C   UNL     1     -95.181 148.182 237.857  1.00  0.00     0.071 C 
ATOM      8  O   UNL     1     -96.397 147.889 237.701  1.00  0.00    -0.545 OA
ATOM      9  O   UNL     1     -94.678 149.320 237.238  1.00  0.00    -0.545 OA
ENDBRANCH   1   7
BRANCH   6  10
ATOM     10  O   UNL     1     -91.796 144.892 241.029  1.00  0.00    -0.508 OA
ATOM     11  H   UNL     1     -91.834 144.905 242.042  1.00  0.00     0.293 HD
ENDBRANCH   6  10
TORSDOF 2
ENDMDL
MODEL 8
REMARK VINA RESULT:    -3.260      1.626      4.435
REMARK INTER + INTRA:          -3.579
REMARK INTER:                  -3.544
REMARK INTRA:                  -0.035
REMARK UNBOUND:                -0.033
REMARK SMILES O=C([O-])c1ccc(O)cc1
REMARK SMILES IDX 4 1 5 2 10 3 6 4 9 5 7 6 2 7 1 8 3 9 8 10
REMARK H PARENT 8 11
REMARK Flexibility Score: inf
ROOT
ATOM      1  C   UNL     1     -94.709 146.937 242.318  1.00  0.00    -0.003 A 
ATOM      2  C   UNL     1     -95.559 146.102 243.068  1.00  0.00     0.014 A 
ATOM      3  C   UNL     1     -94.998 148.311 242.242  1.00  0.00     0.014 A 
ATOM      4  C   UNL     1     -96.673 146.633 243.725  1.00  0.00     0.047 A 
ATOM      5  C   UNL     1     -96.112 148.838 242.901  1.00  0.00     0.047 A 
ATOM      6  C   UNL     1     -96.953 147.999 243.645  1.00  0.00     0.115 A 
ENDROOT
BRANCH   1   7
ATOM      7  C   UNL     1     -93.530 146.380 241.619  1.00  0.00     0.071 C 
ATOM      8  O   UNL     1     -92.983 147.015 240.679  1.00  0.00    -0.545 OA
ATOM      9  O   UNL     1     -93.009 145.146 241.990  1.00  0.00    -0.545 OA
ENDBRANCH   1   7
BRANCH   6  10
ATOM     10  O   UNL     1     -98.066 148.514 244.306  1.00  0.00    -0.508 OA
ATOM     11  H   UNL     1     -97.989 148.929 245.228  1.00  0.00     0.293 HD
ENDBRANCH   6  10
TORSDOF 2
ENDMDL
MODEL 9
REMARK VINA RESULT:    -3.260      1.740      2.652
REMARK INTER + INTRA:          -3.578
REMARK INTER:                  -3.551
REMARK INTRA:                  -0.027
REMARK UNBOUND:                -0.033
REMARK SMILES O=C([O-])c1ccc(O)cc1
REMARK SMILES IDX 4 1 5 2 10 3 6 4 9 5 7 6 2 7 1 8 3 9 8 10
REMARK H PARENT 8 11
REMARK Flexibility Score: inf
ROOT
ATOM      1  C   UNL     1     -96.177 147.919 242.521  1.00  0.00    -0.003 A 
ATOM      2  C   UNL     1     -94.889 148.138 241.999  1.00  0.00     0.014 A 
ATOM      3  C   UNL     1     -96.462 146.687 243.136  1.00  0.00     0.014 A 
ATOM      4  C   UNL     1     -93.909 147.145 242.092  1.00  0.00     0.047 A 
ATOM      5  C   UNL     1     -95.480 145.697 243.227  1.00  0.00     0.047 A 
ATOM      6  C   UNL     1     -94.200 145.924 242.705  1.00  0.00     0.115 A 
ENDROOT
BRANCH   1   7
ATOM      7  C   UNL     1     -97.219 148.965 242.424  1.00  0.00     0.071 C 
ATOM      8  O   UNL     1     -97.479 149.704 243.411  1.00  0.00    -0.545 OA
ATOM      9  O   UNL     1     -97.927 149.146 241.242  1.00  0.00    -0.545 OA
ENDBRANCH   1   7
BRANCH   6  10
ATOM     10  O   UNL     1     -93.213 144.945 242.790  1.00  0.00    -0.508 OA
ATOM     11  H   UNL     1     -92.228 145.178 242.727  1.00  0.00     0.293 HD
ENDBRANCH   6  10
TORSDOF 2
ENDMDL
