MODEL 1
REMARK VINA RESULT:    -3.790      0.000      0.000
REMARK INTER + INTRA:          -4.767
REMARK INTER:                  -4.565
REMARK INTRA:                  -0.202
REMARK UNBOUND:                -0.202
REMARK SMILES NC(=O)C[C@H]([NH3+])C(=O)[O-]
REMARK SMILES IDX 4 1 5 2 6 3 7 7 8 8 9 9 2 10 3 11 1 12
REMARK H PARENT 6 4 6 5 6 6 1 13 1 14
REMARK Flexibility Score: inf
ROOT
ATOM      1  C   UNL     1     147.666 138.334 153.486  1.00  0.00     0.171 C 
ENDROOT
BRANCH   1   2
ATOM      2  C   UNL     1     147.966 137.293 154.583  1.00  0.00     0.237 C 
BRANCH   2   3
ATOM      3  N   UNL     1     149.414 137.145 154.767  1.00  0.00    -0.350 N 
ATOM      4  H   UNL     1     149.691 137.401 155.744  1.00  0.00     0.345 HD
ATOM      5  H   UNL     1     149.696 136.156 154.580  1.00  0.00     0.345 HD
ATOM      6  H   UNL     1     149.924 137.762 154.092  1.00  0.00     0.345 HD
ENDBRANCH   2   3
BRANCH   2   7
ATOM      7  C   UNL     1     147.350 135.960 154.241  1.00  0.00     0.100 C 
ATOM      8  O   UNL     1     147.401 135.525 153.061  1.00  0.00    -0.544 OA
ATOM      9  O   UNL     1     146.731 135.201 155.226  1.00  0.00    -0.544 OA
ENDBRANCH   2   7
ENDBRANCH   1   2
BRANCH   1  10
ATOM     10  C   UNL     1     148.637 139.478 153.528  1.00  0.00     0.223 C 
ATOM     11  O   UNL     1     149.485 139.616 152.606  1.00  0.00    -0.275 OA
ATOM     12  N   UNL     1     148.584 140.431 154.589  1.00  0.00    -0.369 N 
ATOM     13  H   UNL     1     149.251 141.234 154.611  1.00  0.00     0.159 HD
ATOM     14  H   UNL     1     147.876 140.339 155.353  1.00  0.00     0.159 HD
ENDBRANCH   1  10
TORSDOF 4
ENDMDL
MODEL 2
REMARK VINA RESULT:    -3.767      1.930      2.488
REMARK INTER + INTRA:          -4.739
REMARK INTER:                  -4.310
REMARK INTRA:                  -0.429
REMARK UNBOUND:                -0.202
REMARK SMILES NC(=O)C[C@H]([NH3+])C(=O)[O-]
REMARK SMILES IDX 4 1 5 2 6 3 7 7 8 8 9 9 2 10 3 11 1 12
REMARK H PARENT 6 4 6 5 6 6 1 13 1 14
REMARK Flexibility Score: inf
ROOT
ATOM      1  C   UNL     1     148.700 139.281 152.607  1.00  0.00     0.171 C 
ENDROOT
BRANCH   1   2
ATOM      2  C   UNL     1     147.219 138.926 152.370  1.00  0.00     0.237 C 
BRANCH   2   3
ATOM      3  N   UNL     1     146.365 139.604 153.353  1.00  0.00    -0.350 N 
ATOM      4  H   UNL     1     145.399 139.201 153.345  1.00  0.00     0.345 HD
ATOM      5  H   UNL     1     146.773 139.497 154.309  1.00  0.00     0.345 HD
ATOM      6  H   UNL     1     146.314 140.626 153.133  1.00  0.00     0.345 HD
ENDBRANCH   2   3
BRANCH   2   7
ATOM      7  C   UNL     1     147.005 137.435 152.443  1.00  0.00     0.100 C 
ATOM      8  O   UNL     1     146.922 136.756 151.386  1.00  0.00    -0.544 OA
ATOM      9  O   UNL     1     146.906 136.800 153.675  1.00  0.00    -0.544 OA
ENDBRANCH   2   7
ENDBRANCH   1   2
BRANCH   1  10
ATOM     10  C   UNL     1     149.038 139.299 154.069  1.00  0.00     0.223 C 
ATOM     11  O   UNL     1     148.764 140.314 154.764  1.00  0.00    -0.275 OA
ATOM     12  N   UNL     1     149.637 138.160 154.687  1.00  0.00    -0.369 N 
ATOM     13  H   UNL     1     149.859 138.168 155.706  1.00  0.00     0.159 HD
ATOM     14  H   UNL     1     149.855 137.305 154.127  1.00  0.00     0.159 HD
ENDBRANCH   1  10
TORSDOF 4
ENDMDL
MODEL 3
REMARK VINA RESULT:    -3.653      2.139      2.213
REMARK INTER + INTRA:          -4.602
REMARK INTER:                  -4.387
REMARK INTRA:                  -0.215
REMARK UNBOUND:                -0.202
REMARK SMILES NC(=O)C[C@H]([NH3+])C(=O)[O-]
REMARK SMILES IDX 4 1 5 2 6 3 7 7 8 8 9 9 2 10 3 11 1 12
REMARK H PARENT 6 4 6 5 6 6 1 13 1 14
REMARK Flexibility Score: inf
ROOT
ATOM      1  C   UNL     1     146.997 139.264 152.978  1.00  0.00     0.171 C 
ENDROOT
BRANCH   1   2
ATOM      2  C   UNL     1     146.843 137.737 153.128  1.00  0.00     0.237 C 
BRANCH   2   3
ATOM      3  N   UNL     1     147.382 137.048 151.950  1.00  0.00    -0.350 N 
ATOM      4  H   UNL     1     148.265 137.507 151.625  1.00  0.00     0.345 HD
ATOM      5  H   UNL     1     147.582 136.050 152.185  1.00  0.00     0.345 HD
ATOM      6  H   UNL     1     146.679 137.066 151.175  1.00  0.00     0.345 HD
ENDBRANCH   2   3
BRANCH   2   7
ATOM      7  C   UNL     1     145.396 137.361 153.329  1.00  0.00     0.100 C 
ATOM      8  O   UNL     1     144.486 138.040 152.787  1.00  0.00    -0.544 OA
ATOM      9  O   UNL     1     145.060 136.259 154.106  1.00  0.00    -0.544 OA
ENDBRANCH   2   7
ENDBRANCH   1   2
BRANCH   1  10
ATOM     10  C   UNL     1     148.375 139.720 153.361  1.00  0.00     0.223 C 
ATOM     11  O   UNL     1     149.327 139.599 152.544  1.00  0.00    -0.275 OA
ATOM     12  N   UNL     1     148.608 140.324 154.634  1.00  0.00    -0.369 N 
ATOM     13  H   UNL     1     149.563 140.653 154.895  1.00  0.00     0.159 HD
ATOM     14  H   UNL     1     147.826 140.446 155.316  1.00  0.00     0.159 HD
ENDBRANCH   1  10
TORSDOF 4
ENDMDL
MODEL 4
REMARK VINA RESULT:    -3.584      2.549      3.012
REMARK INTER + INTRA:          -4.519
REMARK INTER:                  -4.237
REMARK INTRA:                  -0.282
REMARK UNBOUND:                -0.202
REMARK SMILES NC(=O)C[C@H]([NH3+])C(=O)[O-]
REMARK SMILES IDX 4 1 5 2 6 3 7 7 8 8 9 9 2 10 3 11 1 12
REMARK H PARENT 6 4 6 5 6 6 1 13 1 14
REMARK Flexibility Score: inf
ROOT
ATOM      1  C   UNL     1     147.503 138.145 153.328  1.00  0.00     0.171 C 
ENDROOT
BRANCH   1   2
ATOM      2  C   UNL     1     146.172 138.547 152.662  1.00  0.00     0.237 C 
BRANCH   2   3
ATOM      3  N   UNL     1     145.902 139.974 152.874  1.00  0.00    -0.350 N 
ATOM      4  H   UNL     1     145.614 140.153 153.865  1.00  0.00     0.345 HD
ATOM      5  H   UNL     1     146.760 140.532 152.662  1.00  0.00     0.345 HD
ATOM      6  H   UNL     1     145.140 140.291 152.232  1.00  0.00     0.345 HD
ENDBRANCH   2   3
BRANCH   2   7
ATOM      7  C   UNL     1     145.031 137.720 153.200  1.00  0.00     0.100 C 
ATOM      8  O   UNL     1     145.259 136.612 153.753  1.00  0.00    -0.544 OA
ATOM      9  O   UNL     1     143.723 138.178 153.097  1.00  0.00    -0.544 OA
ENDBRANCH   2   7
ENDBRANCH   1   2
BRANCH   1  10
ATOM     10  C   UNL     1     148.404 139.330 153.521  1.00  0.00     0.223 C 
ATOM     11  O   UNL     1     148.347 139.995 154.590  1.00  0.00    -0.275 OA
ATOM     12  N   UNL     1     149.352 139.688 152.515  1.00  0.00    -0.369 N 
ATOM     13  H   UNL     1     149.987 140.503 152.655  1.00  0.00     0.159 HD
ATOM     14  H   UNL     1     149.422 139.136 151.630  1.00  0.00     0.159 HD
ENDBRANCH   1  10
TORSDOF 4
ENDMDL
MODEL 5
REMARK VINA RESULT:    -3.552      2.254      4.232
REMARK INTER + INTRA:          -4.481
REMARK INTER:                  -4.220
REMARK INTRA:                  -0.261
REMARK UNBOUND:                -0.202
REMARK SMILES NC(=O)C[C@H]([NH3+])C(=O)[O-]
REMARK SMILES IDX 4 1 5 2 6 3 7 7 8 8 9 9 2 10 3 11 1 12
REMARK H PARENT 6 4 6 5 6 6 1 13 1 14
REMARK Flexibility Score: inf
ROOT
ATOM      1  C   UNL     1     147.710 136.422 154.346  1.00  0.00     0.171 C 
ENDROOT
BRANCH   1   2
ATOM      2  C   UNL     1     147.163 137.452 153.337  1.00  0.00     0.237 C 
BRANCH   2   3
ATOM      3  N   UNL     1     147.269 136.935 151.968  1.00  0.00    -0.350 N 
ATOM      4  H   UNL     1     146.352 137.019 151.468  1.00  0.00     0.345 HD
ATOM      5  H   UNL     1     147.995 137.472 151.442  1.00  0.00     0.345 HD
ATOM      6  H   UNL     1     147.558 135.930 151.988  1.00  0.00     0.345 HD
ENDBRANCH   2   3
BRANCH   2   7
ATOM      7  C   UNL     1     147.901 138.762 153.453  1.00  0.00     0.100 C 
ATOM      8  O   UNL     1     147.475 139.782 152.850  1.00  0.00    -0.544 OA
ATOM      9  O   UNL     1     149.048 138.854 154.231  1.00  0.00    -0.544 OA
ENDBRANCH   2   7
ENDBRANCH   1   2
BRANCH   1  10
ATOM     10  C   UNL     1     146.659 135.426 154.744  1.00  0.00     0.223 C 
ATOM     11  O   UNL     1     145.705 135.174 153.961  1.00  0.00    -0.275 OA
ATOM     12  N   UNL     1     146.753 134.737 155.991  1.00  0.00    -0.369 N 
ATOM     13  H   UNL     1     146.031 134.035 156.261  1.00  0.00     0.159 HD
ATOM     14  H   UNL     1     147.548 134.924 156.643  1.00  0.00     0.159 HD
ENDBRANCH   1  10
TORSDOF 4
ENDMDL
MODEL 6
REMARK VINA RESULT:    -3.499      2.360      2.542
REMARK INTER + INTRA:          -4.416
REMARK INTER:                  -3.934
REMARK INTRA:                  -0.482
REMARK UNBOUND:                -0.202
REMARK SMILES NC(=O)C[C@H]([NH3+])C(=O)[O-]
REMARK SMILES IDX 4 1 5 2 6 3 7 7 8 8 9 9 2 10 3 11 1 12
REMARK H PARENT 6 4 6 5 6 6 1 13 1 14
REMARK Flexibility Score: inf
ROOT
ATOM      1  C   UNL     1     147.125 137.935 152.297  1.00  0.00     0.171 C 
ENDROOT
BRANCH   1   2
ATOM      2  C   UNL     1     146.392 136.834 153.089  1.00  0.00     0.237 C 
BRANCH   2   3
ATOM      3  N   UNL     1     145.092 137.322 153.563  1.00  0.00    -0.350 N 
ATOM      4  H   UNL     1     144.436 137.467 152.760  1.00  0.00     0.345 HD
ATOM      5  H   UNL     1     144.674 136.630 154.225  1.00  0.00     0.345 HD
ATOM      6  H   UNL     1     145.217 138.227 154.073  1.00  0.00     0.345 HD
ENDBRANCH   2   3
BRANCH   2   7
ATOM      7  C   UNL     1     147.225 136.366 154.255  1.00  0.00     0.100 C 
ATOM      8  O   UNL     1     146.897 135.330 154.890  1.00  0.00    -0.544 OA
ATOM      9  O   UNL     1     148.362 137.070 154.632  1.00  0.00    -0.544 OA
ENDBRANCH   2   7
ENDBRANCH   1   2
BRANCH   1  10
ATOM     10  C   UNL     1     146.727 139.307 152.759  1.00  0.00     0.223 C 
ATOM     11  O   UNL     1     145.694 139.853 152.286  1.00  0.00    -0.275 OA
ATOM     12  N   UNL     1     147.492 139.984 153.756  1.00  0.00    -0.369 N 
ATOM     13  H   UNL     1     147.207 140.932 154.086  1.00  0.00     0.159 HD
ATOM     14  H   UNL     1     148.342 139.538 154.168  1.00  0.00     0.159 HD
ENDBRANCH   1  10
TORSDOF 4
ENDMDL
MODEL 7
REMARK VINA RESULT:    -3.453      2.181      2.479
REMARK INTER + INTRA:          -4.361
REMARK INTER:                  -3.851
REMARK INTRA:                  -0.511
REMARK UNBOUND:                -0.202
REMARK SMILES NC(=O)C[C@H]([NH3+])C(=O)[O-]
REMARK SMILES IDX 4 1 5 2 6 3 7 7 8 8 9 9 2 10 3 11 1 12
REMARK H PARENT 6 4 6 5 6 6 1 13 1 14
REMARK Flexibility Score: inf
ROOT
ATOM      1  C   UNL     1     148.480 139.585 154.195  1.00  0.00     0.171 C 
ENDROOT
BRANCH   1   2
ATOM      2  C   UNL     1     147.745 138.231 154.256  1.00  0.00     0.237 C 
BRANCH   2   3
ATOM      3  N   UNL     1     148.709 137.126 154.311  1.00  0.00    -0.350 N 
ATOM      4  H   UNL     1     148.254 136.223 154.038  1.00  0.00     0.345 HD
ATOM      5  H   UNL     1     149.505 137.317 153.661  1.00  0.00     0.345 HD
ATOM      6  H   UNL     1     149.094 137.038 155.280  1.00  0.00     0.345 HD
ENDBRANCH   2   3
BRANCH   2   7
ATOM      7  C   UNL     1     146.833 138.061 153.067  1.00  0.00     0.100 C 
ATOM      8  O   UNL     1     145.585 138.025 153.229  1.00  0.00    -0.544 OA
ATOM      9  O   UNL     1     147.361 137.951 151.787  1.00  0.00    -0.544 OA
ENDBRANCH   2   7
ENDBRANCH   1   2
BRANCH   1  10
ATOM     10  C   UNL     1     149.862 139.439 153.629  1.00  0.00     0.223 C 
ATOM     11  O   UNL     1     150.837 139.229 154.398  1.00  0.00    -0.275 OA
ATOM     12  N   UNL     1     150.075 139.503 152.218  1.00  0.00    -0.369 N 
ATOM     13  H   UNL     1     151.035 139.388 151.824  1.00  0.00     0.159 HD
ATOM     14  H   UNL     1     149.275 139.661 151.566  1.00  0.00     0.159 HD
ENDBRANCH   1  10
TORSDOF 4
ENDMDL
MODEL 8
REMARK VINA RESULT:    -3.439      7.438      8.111
REMARK INTER + INTRA:          -4.344
REMARK INTER:                  -3.861
REMARK INTRA:                  -0.484
REMARK UNBOUND:                -0.202
REMARK SMILES NC(=O)C[C@H]([NH3+])C(=O)[O-]
REMARK SMILES IDX 4 1 5 2 6 3 7 7 8 8 9 9 2 10 3 11 1 12
REMARK H PARENT 6 4 6 5 6 6 1 13 1 14
REMARK Flexibility Score: inf
ROOT
ATOM      1  C   UNL     1     141.057 137.938 153.716  1.00  0.00     0.171 C 
ENDROOT
BRANCH   1   2
ATOM      2  C   UNL     1     140.747 139.428 153.959  1.00  0.00     0.237 C 
BRANCH   2   3
ATOM      3  N   UNL     1     141.752 140.023 154.848  1.00  0.00    -0.350 N 
ATOM      4  H   UNL     1     141.712 141.068 154.806  1.00  0.00     0.345 HD
ATOM      5  H   UNL     1     141.582 139.714 155.832  1.00  0.00     0.345 HD
ATOM      6  H   UNL     1     142.708 139.704 154.567  1.00  0.00     0.345 HD
ENDBRANCH   2   3
BRANCH   2   7
ATOM      7  C   UNL     1     139.370 139.602 154.548  1.00  0.00     0.100 C 
ATOM      8  O   UNL     1     138.765 140.700 154.429  1.00  0.00    -0.544 OA
ATOM      9  O   UNL     1     138.756 138.551 155.218  1.00  0.00    -0.544 OA
ENDBRANCH   2   7
ENDBRANCH   1   2
BRANCH   1  10
ATOM     10  C   UNL     1     141.903 137.362 154.814  1.00  0.00     0.223 C 
ATOM     11  O   UNL     1     143.159 137.387 154.717  1.00  0.00    -0.275 OA
ATOM     12  N   UNL     1     141.295 136.818 155.985  1.00  0.00    -0.369 N 
ATOM     13  H   UNL     1     141.884 136.431 156.754  1.00  0.00     0.159 HD
ATOM     14  H   UNL     1     140.255 136.805 156.088  1.00  0.00     0.159 HD
ENDBRANCH   1  10
TORSDOF 4
ENDMDL
MODEL 9
REMARK VINA RESULT:    -3.407      2.093      4.359
REMARK INTER + INTRA:          -4.305
REMARK INTER:                  -4.193
REMARK INTRA:                  -0.112
REMARK UNBOUND:                -0.202
REMARK SMILES NC(=O)C[C@H]([NH3+])C(=O)[O-]
REMARK SMILES IDX 4 1 5 2 6 3 7 7 8 8 9 9 2 10 3 11 1 12
REMARK H PARENT 6 4 6 5 6 6 1 13 1 14
REMARK Flexibility Score: inf
ROOT
ATOM      1  C   UNL     1     146.973 137.788 152.142  1.00  0.00     0.171 C 
ENDROOT
BRANCH   1   2
ATOM      2  C   UNL     1     146.823 138.935 153.161  1.00  0.00     0.237 C 
BRANCH   2   3
ATOM      3  N   UNL     1     145.905 139.960 152.648  1.00  0.00    -0.350 N 
ATOM      4  H   UNL     1     145.119 140.122 153.320  1.00  0.00     0.345 HD
ATOM      5  H   UNL     1     146.422 140.857 152.504  1.00  0.00     0.345 HD
ATOM      6  H   UNL     1     145.514 139.657 151.727  1.00  0.00     0.345 HD
ENDBRANCH   2   3
BRANCH   2   7
ATOM      7  C   UNL     1     148.162 139.553 153.476  1.00  0.00     0.100 C 
ATOM      8  O   UNL     1     148.376 140.052 154.612  1.00  0.00    -0.544 OA
ATOM      9  O   UNL     1     149.170 139.567 152.520  1.00  0.00    -0.544 OA
ENDBRANCH   2   7
ENDBRANCH   1   2
BRANCH   1  10
ATOM     10  C   UNL     1     146.998 136.448 152.818  1.00  0.00     0.223 C 
ATOM     11  O   UNL     1     146.559 136.329 153.994  1.00  0.00    -0.275 OA
ATOM     12  N   UNL     1     147.484 135.299 152.126  1.00  0.00    -0.369 N 
ATOM     13  H   UNL     1     147.489 134.365 152.591  1.00  0.00     0.159 HD
ATOM     14  H   UNL     1     147.836 135.378 151.145  1.00  0.00     0.159 HD
ENDBRANCH   1  10
TORSDOF 4
ENDMDL
