MODEL 1
REMARK VINA RESULT:    -3.742      0.000      0.000
REMARK INTER + INTRA:          -4.838
REMARK INTER:                  -4.617
REMARK INTRA:                  -0.221
REMARK UNBOUND:                -0.221
REMARK SMILES CCCCC=CC(C)=O
REMARK SMILES IDX 4 1 3 2 2 3 1 4 5 5 6 6 7 7 9 8 8 9
REMARK H PARENT
REMARK Flexibility Score: inf
ROOT
ATOM      1  C   UNL     1      12.431  30.263  30.280  1.00  0.00     0.027 C 
ENDROOT
BRANCH   1   2
ATOM      2  C   UNL     1      11.527  30.991  29.272  1.00  0.00     0.004 C 
BRANCH   2   3
ATOM      3  C   UNL     1      12.333  31.654  28.146  1.00  0.00    -0.003 C 
ATOM      4  C   UNL     1      11.573  32.832  27.546  1.00  0.00     0.004 C 
ENDBRANCH   2   3
ENDBRANCH   1   2
BRANCH   1   5
ATOM      5  C   UNL     1      13.845  30.774  30.253  1.00  0.00    -0.023 C 
ATOM      6  C   UNL     1      14.887  29.940  30.152  1.00  0.00     0.042 C 
BRANCH   6   7
ATOM      7  C   UNL     1      16.291  30.397  30.124  1.00  0.00     0.152 C 
ATOM      8  O   UNL     1      17.197  29.580  30.438  1.00  0.00    -0.295 OA
ATOM      9  C   UNL     1      16.675  31.793  29.736  1.00  0.00     0.093 C 
ENDBRANCH   6   7
ENDBRANCH   1   5
TORSDOF 4
ENDMDL
MODEL 2
REMARK VINA RESULT:    -3.547      2.087      4.533
REMARK INTER + INTRA:          -4.597
REMARK INTER:                  -4.489
REMARK INTRA:                  -0.109
REMARK UNBOUND:                -0.221
REMARK SMILES CCCCC=CC(C)=O
REMARK SMILES IDX 4 1 3 2 2 3 1 4 5 5 6 6 7 7 9 8 8 9
REMARK H PARENT
REMARK Flexibility Score: inf
ROOT
ATOM      1  C   UNL     1      16.243  30.016  30.260  1.00  0.00     0.027 C 
ENDROOT
BRANCH   1   2
ATOM      2  C   UNL     1      17.189  31.126  29.778  1.00  0.00     0.004 C 
BRANCH   2   3
ATOM      3  C   UNL     1      16.555  32.520  29.900  1.00  0.00    -0.003 C 
ATOM      4  C   UNL     1      17.124  33.280  31.094  1.00  0.00     0.004 C 
ENDBRANCH   2   3
ENDBRANCH   1   2
BRANCH   1   5
ATOM      5  C   UNL     1      14.896  30.084  29.596  1.00  0.00    -0.023 C 
ATOM      6  C   UNL     1      13.817  30.530  30.251  1.00  0.00     0.042 C 
BRANCH   6   7
ATOM      7  C   UNL     1      12.475  30.612  29.640  1.00  0.00     0.152 C 
ATOM      8  O   UNL     1      11.524  29.993  30.188  1.00  0.00    -0.295 OA
ATOM      9  C   UNL     1      12.205  31.404  28.396  1.00  0.00     0.093 C 
ENDBRANCH   6   7
ENDBRANCH   1   5
TORSDOF 4
ENDMDL
MODEL 3
REMARK VINA RESULT:    -3.414      2.708      4.725
REMARK INTER + INTRA:          -4.434
REMARK INTER:                  -4.300
REMARK INTRA:                  -0.133
REMARK UNBOUND:                -0.221
REMARK SMILES CCCCC=CC(C)=O
REMARK SMILES IDX 4 1 3 2 2 3 1 4 5 5 6 6 7 7 9 8 8 9
REMARK H PARENT
REMARK Flexibility Score: inf
ROOT
ATOM      1  C   UNL     1      14.214  30.272  29.866  1.00  0.00     0.027 C 
ENDROOT
BRANCH   1   2
ATOM      2  C   UNL     1      15.727  30.337  30.123  1.00  0.00     0.004 C 
BRANCH   2   3
ATOM      3  C   UNL     1      16.225  31.781  30.282  1.00  0.00    -0.003 C 
ATOM      4  C   UNL     1      17.123  32.184  29.116  1.00  0.00     0.004 C 
ENDBRANCH   2   3
ENDBRANCH   1   2
BRANCH   1   5
ATOM      5  C   UNL     1      13.714  31.459  29.090  1.00  0.00    -0.023 C 
ATOM      6  C   UNL     1      12.625  31.378  28.315  1.00  0.00     0.042 C 
BRANCH   6   7
ATOM      7  C   UNL     1      12.100  32.516  27.534  1.00  0.00     0.152 C 
ATOM      8  O   UNL     1      10.909  32.879  27.724  1.00  0.00    -0.295 OA
ATOM      9  C   UNL     1      12.931  33.252  26.526  1.00  0.00     0.093 C 
ENDBRANCH   6   7
ENDBRANCH   1   5
TORSDOF 4
ENDMDL
MODEL 4
REMARK VINA RESULT:    -3.199     14.766     16.750
REMARK INTER + INTRA:          -4.169
REMARK INTER:                  -3.933
REMARK INTRA:                  -0.236
REMARK UNBOUND:                -0.221
REMARK SMILES CCCCC=CC(C)=O
REMARK SMILES IDX 4 1 3 2 2 3 1 4 5 5 6 6 7 7 9 8 8 9
REMARK H PARENT
REMARK Flexibility Score: inf
ROOT
ATOM      1  C   UNL     1      28.499  35.686  22.015  1.00  0.00     0.027 C 
ENDROOT
BRANCH   1   2
ATOM      2  C   UNL     1      28.356  34.289  22.638  1.00  0.00     0.004 C 
BRANCH   2   3
ATOM      3  C   UNL     1      28.810  33.179  21.678  1.00  0.00    -0.003 C 
ATOM      4  C   UNL     1      28.800  33.665  20.232  1.00  0.00     0.004 C 
ENDBRANCH   2   3
ENDBRANCH   1   2
BRANCH   1   5
ATOM      5  C   UNL     1      27.215  36.467  22.061  1.00  0.00    -0.023 C 
ATOM      6  C   UNL     1      26.574  36.824  20.941  1.00  0.00     0.042 C 
BRANCH   6   7
ATOM      7  C   UNL     1      25.313  37.592  20.939  1.00  0.00     0.152 C 
ATOM      8  O   UNL     1      25.367  38.839  20.766  1.00  0.00    -0.295 OA
ATOM      9  C   UNL     1      23.976  36.943  21.133  1.00  0.00     0.093 C 
ENDBRANCH   6   7
ENDBRANCH   1   5
TORSDOF 4
ENDMDL
MODEL 5
REMARK VINA RESULT:    -3.176     14.248     15.425
REMARK INTER + INTRA:          -4.140
REMARK INTER:                  -3.932
REMARK INTRA:                  -0.208
REMARK UNBOUND:                -0.221
REMARK SMILES CCCCC=CC(C)=O
REMARK SMILES IDX 4 1 3 2 2 3 1 4 5 5 6 6 7 7 9 8 8 9
REMARK H PARENT
REMARK Flexibility Score: inf
ROOT
ATOM      1  C   UNL     1      28.941  32.685  22.618  1.00  0.00     0.027 C 
ENDROOT
BRANCH   1   2
ATOM      2  C   UNL     1      28.334  34.094  22.533  1.00  0.00     0.004 C 
BRANCH   2   3
ATOM      3  C   UNL     1      28.066  34.693  23.922  1.00  0.00    -0.003 C 
ATOM      4  C   UNL     1      26.657  35.272  24.008  1.00  0.00     0.004 C 
ENDBRANCH   2   3
ENDBRANCH   1   2
BRANCH   1   5
ATOM      5  C   UNL     1      28.790  32.079  23.985  1.00  0.00    -0.023 C 
ATOM      6  C   UNL     1      28.463  30.791  24.145  1.00  0.00     0.042 C 
BRANCH   6   7
ATOM      7  C   UNL     1      28.302  30.153  25.467  1.00  0.00     0.152 C 
ATOM      8  O   UNL     1      28.919  30.641  26.451  1.00  0.00    -0.295 OA
ATOM      9  C   UNL     1      27.431  28.951  25.680  1.00  0.00     0.093 C 
ENDBRANCH   6   7
ENDBRANCH   1   5
TORSDOF 4
ENDMDL
MODEL 6
REMARK VINA RESULT:    -3.174     16.086     18.136
REMARK INTER + INTRA:          -4.138
REMARK INTER:                  -3.992
REMARK INTRA:                  -0.146
REMARK UNBOUND:                -0.221
REMARK SMILES CCCCC=CC(C)=O
REMARK SMILES IDX 4 1 3 2 2 3 1 4 5 5 6 6 7 7 9 8 8 9
REMARK H PARENT
REMARK Flexibility Score: inf
ROOT
ATOM      1  C   UNL     1      26.815  41.018  20.239  1.00  0.00     0.027 C 
ENDROOT
BRANCH   1   2
ATOM      2  C   UNL     1      27.570  41.530  19.003  1.00  0.00     0.004 C 
BRANCH   2   3
ATOM      3  C   UNL     1      27.202  42.981  18.661  1.00  0.00    -0.003 C 
ATOM      4  C   UNL     1      26.584  43.689  19.862  1.00  0.00     0.004 C 
ENDBRANCH   2   3
ENDBRANCH   1   2
BRANCH   1   5
ATOM      5  C   UNL     1      26.559  39.538  20.181  1.00  0.00    -0.023 C 
ATOM      6  C   UNL     1      25.582  38.969  20.899  1.00  0.00     0.042 C 
BRANCH   6   7
ATOM      7  C   UNL     1      25.296  37.521  20.874  1.00  0.00     0.152 C 
ATOM      8  O   UNL     1      26.239  36.724  20.623  1.00  0.00    -0.295 OA
ATOM      9  C   UNL     1      23.928  36.967  21.136  1.00  0.00     0.093 C 
ENDBRANCH   6   7
ENDBRANCH   1   5
TORSDOF 4
ENDMDL
MODEL 7
REMARK VINA RESULT:    -3.147     17.079     18.585
REMARK INTER + INTRA:          -4.104
REMARK INTER:                  -3.870
REMARK INTRA:                  -0.235
REMARK UNBOUND:                -0.221
REMARK SMILES CCCCC=CC(C)=O
REMARK SMILES IDX 4 1 3 2 2 3 1 4 5 5 6 6 7 7 9 8 8 9
REMARK H PARENT
REMARK Flexibility Score: inf
ROOT
ATOM      1  C   UNL     1      26.088  41.857  21.715  1.00  0.00     0.027 C 
ENDROOT
BRANCH   1   2
ATOM      2  C   UNL     1      26.782  43.176  21.344  1.00  0.00     0.004 C 
BRANCH   2   3
ATOM      3  C   UNL     1      27.381  43.137  19.930  1.00  0.00    -0.003 C 
ATOM      4  C   UNL     1      26.566  43.991  18.964  1.00  0.00     0.004 C 
ENDBRANCH   2   3
ENDBRANCH   1   2
BRANCH   1   5
ATOM      5  C   UNL     1      26.461  40.734  20.788  1.00  0.00    -0.023 C 
ATOM      6  C   UNL     1      25.879  39.532  20.878  1.00  0.00     0.042 C 
BRANCH   6   7
ATOM      7  C   UNL     1      26.215  38.400  19.990  1.00  0.00     0.152 C 
ATOM      8  O   UNL     1      25.916  37.234  20.360  1.00  0.00    -0.295 OA
ATOM      9  C   UNL     1      26.898  38.590  18.669  1.00  0.00     0.093 C 
ENDBRANCH   6   7
ENDBRANCH   1   5
TORSDOF 4
ENDMDL
MODEL 8
REMARK VINA RESULT:    -3.143     14.266     15.718
REMARK INTER + INTRA:          -4.099
REMARK INTER:                  -3.945
REMARK INTRA:                  -0.154
REMARK UNBOUND:                -0.221
REMARK SMILES CCCCC=CC(C)=O
REMARK SMILES IDX 4 1 3 2 2 3 1 4 5 5 6 6 7 7 9 8 8 9
REMARK H PARENT
REMARK Flexibility Score: inf
ROOT
ATOM      1  C   UNL     1      29.064  30.938  23.441  1.00  0.00     0.027 C 
ENDROOT
BRANCH   1   2
ATOM      2  C   UNL     1      28.365  30.512  24.741  1.00  0.00     0.004 C 
BRANCH   2   3
ATOM      3  C   UNL     1      27.285  29.448  24.495  1.00  0.00    -0.003 C 
ATOM      4  C   UNL     1      26.951  28.696  25.779  1.00  0.00     0.004 C 
ENDBRANCH   2   3
ENDBRANCH   1   2
BRANCH   1   5
ATOM      5  C   UNL     1      29.124  32.433  23.288  1.00  0.00    -0.023 C 
ATOM      6  C   UNL     1      28.124  33.218  23.705  1.00  0.00     0.042 C 
BRANCH   6   7
ATOM      7  C   UNL     1      28.140  34.689  23.573  1.00  0.00     0.152 C 
ATOM      8  O   UNL     1      29.069  35.226  22.913  1.00  0.00    -0.295 OA
ATOM      9  C   UNL     1      27.092  35.564  24.193  1.00  0.00     0.093 C 
ENDBRANCH   6   7
ENDBRANCH   1   5
TORSDOF 4
ENDMDL
MODEL 9
REMARK VINA RESULT:    -3.056     15.708     16.791
REMARK INTER + INTRA:          -3.991
REMARK INTER:                  -3.750
REMARK INTRA:                  -0.242
REMARK UNBOUND:                -0.221
REMARK SMILES CCCCC=CC(C)=O
REMARK SMILES IDX 4 1 3 2 2 3 1 4 5 5 6 6 7 7 9 8 8 9
REMARK H PARENT
REMARK Flexibility Score: inf
ROOT
ATOM      1  C   UNL     1      27.215  35.474  23.620  1.00  0.00     0.027 C 
ENDROOT
BRANCH   1   2
ATOM      2  C   UNL     1      28.550  34.739  23.815  1.00  0.00     0.004 C 
BRANCH   2   3
ATOM      3  C   UNL     1      28.523  33.324  23.219  1.00  0.00    -0.003 C 
ATOM      4  C   UNL     1      28.815  33.352  21.722  1.00  0.00     0.004 C 
ENDBRANCH   2   3
ENDBRANCH   1   2
BRANCH   1   5
ATOM      5  C   UNL     1      27.331  36.628  22.663  1.00  0.00    -0.023 C 
ATOM      6  C   UNL     1      26.614  36.672  21.533  1.00  0.00     0.042 C 
BRANCH   6   7
ATOM      7  C   UNL     1      26.697  37.782  20.564  1.00  0.00     0.152 C 
ATOM      8  O   UNL     1      27.494  37.678  19.594  1.00  0.00    -0.295 OA
ATOM      9  C   UNL     1      25.869  39.026  20.692  1.00  0.00     0.093 C 
ENDBRANCH   6   7
ENDBRANCH   1   5
TORSDOF 4
ENDMDL
