MODEL 1
REMARK VINA RESULT:    -6.118      0.000      0.000
REMARK INTER + INTRA:         -12.816
REMARK INTER:                  -9.695
REMARK INTRA:                  -3.121
REMARK UNBOUND:                -3.121
REMARK SMILES C[C@H]1O[C@H](O[C@@H]2[C@@H](Oc3cc(O)c4c(c3)O[C@H](c3ccc(O)cc3)CC4=O)O[C@@H](CO)[C@@H](O)[C@H]2O)[C@@H](O)[C@@H](O)[C@H]1O
REMARK SMILES IDX 6 1 34 2 32 3 29 4 28 5 7 6 5 7 4 8 1 9 2 10 40 11 3 12
REMARK SMILES IDX 38 13 36 14 41 15 39 17 37 19 35 21 8 23 9 24 10 25 15 26
REMARK SMILES IDX 11 27 14 28 13 29 16 30 26 31 17 32 27 33 25 34 12 35 18 37
REMARK SMILES IDX 19 38 24 39 20 40 23 41 21 42 22 43 33 45 30 47 31 48
REMARK H PARENT 41 16 39 18 37 20 35 22 12 36 22 44 33 46 31 49
REMARK Flexibility Score: inf
ROOT
ATOM      1  C   UNL     1       8.705   4.435 -14.523  1.00  0.00     0.221 C 
ATOM      2  C   UNL     1       9.097   5.856 -14.051  1.00  0.00     0.181 C 
ATOM      3  C   UNL     1      10.573   5.910 -13.457  1.00  0.00     0.177 C 
ATOM      4  C   UNL     1      11.025   4.716 -12.624  1.00  0.00     0.179 C 
ATOM      5  O   UNL     1      10.705   3.548 -13.316  1.00  0.00    -0.332 OA
ATOM      6  C   UNL     1       9.304   3.386 -13.492  1.00  0.00     0.339 C 
ENDROOT
BRANCH   1   7
ATOM      7  O   UNL     1       7.316   4.333 -14.395  1.00  0.00    -0.337 OA
BRANCH   7   8
ATOM      8  C   UNL     1       6.792   4.802 -13.130  1.00  0.00     0.282 C 
ATOM      9  C   UNL     1       5.298   7.490 -14.860  1.00  0.00     0.041 C 
ATOM     10  C   UNL     1       5.277   6.213 -14.039  1.00  0.00     0.150 C 
ATOM     11  C   UNL     1       4.143   6.034 -13.005  1.00  0.00     0.174 C 
ATOM     12  O   UNL     1       6.440   6.162 -13.290  1.00  0.00    -0.344 OA
ATOM     13  C   UNL     1       4.190   4.535 -12.572  1.00  0.00     0.179 C 
ATOM     14  C   UNL     1       5.627   3.902 -12.553  1.00  0.00     0.202 C 
BRANCH  11  15
ATOM     15  O   UNL     1       4.280   6.926 -11.944  1.00  0.00    -0.388 OA
ATOM     16  H   UNL     1       4.614   7.780 -12.316  1.00  0.00     0.211 HD
ENDBRANCH  11  15
BRANCH  13  17
ATOM     17  O   UNL     1       3.451   4.312 -11.377  1.00  0.00    -0.387 OA
ATOM     18  H   UNL     1       3.563   5.117 -10.761  1.00  0.00     0.211 HD
ENDBRANCH  13  17
BRANCH  14  19
ATOM     19  O   UNL     1       5.926   3.470 -11.274  1.00  0.00    -0.385 OA
ATOM     20  H   UNL     1       6.894   3.197 -11.302  1.00  0.00     0.211 HD
ENDBRANCH  14  19
ENDBRANCH   7   8
ENDBRANCH   1   7
BRANCH   2  21
ATOM     21  O   UNL     1       8.957   6.767 -15.120  1.00  0.00    -0.387 OA
ATOM     22  H   UNL     1       8.734   7.669 -14.749  1.00  0.00     0.211 HD
ENDBRANCH   2  21
BRANCH   6  23
ATOM     23  O   UNL     1       9.057   2.095 -14.035  1.00  0.00    -0.462 OA
BRANCH  23  24
ATOM     24  C   UNL     1       8.388   1.138 -13.292  1.00  0.00     0.130 A 
ATOM     25  C   UNL     1       7.207   0.641 -13.881  1.00  0.00     0.093 A 
ATOM     26  C   UNL     1       8.895   0.547 -12.152  1.00  0.00     0.094 A 
ATOM     27  C   UNL     1       6.735  -0.582 -13.562  1.00  0.00     0.133 A 
ATOM     28  C   UNL     1       8.475  -0.825 -11.954  1.00  0.00     0.138 A 
ATOM     29  C   UNL     1       7.283  -1.283 -12.515  1.00  0.00     0.102 A 
ATOM     30  O   UNL     1       9.341  -1.835 -11.543  1.00  0.00    -0.484 OA
ATOM     31  C   UNL     1       7.162  -2.771 -12.497  1.00  0.00     0.174 C 
ATOM     32  C   UNL     1       9.668  -2.893 -12.498  1.00  0.00     0.211 C 
ATOM     33  O   UNL     1       6.286  -3.434 -11.808  1.00  0.00    -0.294 OA
ATOM     34  C   UNL     1       8.360  -3.412 -13.164  1.00  0.00     0.131 C 
BRANCH  27  35
ATOM     35  O   UNL     1       5.776  -1.160 -14.374  1.00  0.00    -0.507 OA
ATOM     36  H   UNL     1       4.911  -1.588 -13.976  1.00  0.00     0.293 HD
ENDBRANCH  27  35
BRANCH  32  37
ATOM     37  C   UNL     1      10.713  -2.313 -13.480  1.00  0.00    -0.007 A 
ATOM     38  C   UNL     1      11.892  -1.869 -12.888  1.00  0.00     0.011 A 
ATOM     39  C   UNL     1      10.375  -1.675 -14.692  1.00  0.00     0.011 A 
ATOM     40  C   UNL     1      12.276  -0.473 -13.029  1.00  0.00     0.046 A 
ATOM     41  C   UNL     1      10.997  -0.500 -15.117  1.00  0.00     0.046 A 
ATOM     42  C   UNL     1      11.774   0.217 -14.145  1.00  0.00     0.115 A 
BRANCH  42  43
ATOM     43  O   UNL     1      12.193   1.550 -14.390  1.00  0.00    -0.508 OA
ATOM     44  H   UNL     1      11.490   2.289 -14.408  1.00  0.00     0.293 HD
ENDBRANCH  42  43
ENDBRANCH  32  37
ENDBRANCH  23  24
ENDBRANCH   6  23
BRANCH   3  45
ATOM     45  O   UNL     1      11.523   6.083 -14.504  1.00  0.00    -0.387 OA
ATOM     46  H   UNL     1      12.443   6.094 -14.138  1.00  0.00     0.211 HD
ENDBRANCH   3  45
BRANCH   4  47
ATOM     47  C   UNL     1      12.587   4.640 -12.364  1.00  0.00     0.191 C 
BRANCH  47  48
ATOM     48  O   UNL     1      13.056   5.971 -12.198  1.00  0.00    -0.394 OA
ATOM     49  H   UNL     1      12.804   6.467 -13.070  1.00  0.00     0.210 HD
ENDBRANCH  47  48
ENDBRANCH   4  47
TORSDOF 14
ENDMDL
MODEL 2
REMARK VINA RESULT:    -5.929      1.904      5.685
REMARK INTER + INTRA:         -12.516
REMARK INTER:                 -10.420
REMARK INTRA:                  -2.096
REMARK UNBOUND:                -3.121
REMARK SMILES C[C@H]1O[C@H](O[C@@H]2[C@@H](Oc3cc(O)c4c(c3)O[C@H](c3ccc(O)cc3)CC4=O)O[C@@H](CO)[C@@H](O)[C@H]2O)[C@@H](O)[C@@H](O)[C@H]1O
REMARK SMILES IDX 6 1 34 2 32 3 29 4 28 5 7 6 5 7 4 8 1 9 2 10 40 11 3 12
REMARK SMILES IDX 38 13 36 14 41 15 39 17 37 19 35 21 8 23 9 24 10 25 15 26
REMARK SMILES IDX 11 27 14 28 13 29 16 30 26 31 17 32 27 33 25 34 12 35 18 37
REMARK SMILES IDX 19 38 24 39 20 40 23 41 21 42 22 43 33 45 30 47 31 48
REMARK H PARENT 41 16 39 18 37 20 35 22 12 36 22 44 33 46 31 49
REMARK Flexibility Score: inf
ROOT
ATOM      1  C   UNL     1       7.483   3.664 -13.446  1.00  0.00     0.221 C 
ATOM      2  C   UNL     1       6.124   4.247 -13.904  1.00  0.00     0.181 C 
ATOM      3  C   UNL     1       4.970   3.151 -13.916  1.00  0.00     0.177 C 
ATOM      4  C   UNL     1       5.353   1.751 -14.378  1.00  0.00     0.179 C 
ATOM      5  O   UNL     1       6.524   1.373 -13.721  1.00  0.00    -0.332 OA
ATOM      6  C   UNL     1       7.627   2.204 -14.054  1.00  0.00     0.339 C 
ENDROOT
BRANCH   1   7
ATOM      7  O   UNL     1       8.481   4.426 -14.063  1.00  0.00    -0.337 OA
BRANCH   7   8
ATOM      8  C   UNL     1       9.022   5.489 -13.244  1.00  0.00     0.282 C 
ATOM      9  C   UNL     1      12.156   3.874 -13.393  1.00  0.00     0.041 C 
ATOM     10  C   UNL     1      11.188   5.009 -13.678  1.00  0.00     0.150 C 
ATOM     11  C   UNL     1      11.746   6.450 -13.695  1.00  0.00     0.174 C 
ATOM     12  O   UNL     1      10.230   5.022 -12.679  1.00  0.00    -0.344 OA
ATOM     13  C   UNL     1      10.625   7.335 -14.325  1.00  0.00     0.179 C 
ATOM     14  C   UNL     1       9.161   6.868 -14.004  1.00  0.00     0.202 C 
BRANCH  11  15
ATOM     15  O   UNL     1      12.132   6.860 -12.422  1.00  0.00    -0.388 OA
ATOM     16  H   UNL     1      11.714   6.241 -11.772  1.00  0.00     0.211 HD
ENDBRANCH  11  15
BRANCH  13  17
ATOM     17  O   UNL     1      10.851   8.719 -14.078  1.00  0.00    -0.387 OA
ATOM     18  H   UNL     1      10.617   8.926 -13.107  1.00  0.00     0.211 HD
ENDBRANCH  13  17
BRANCH  14  19
ATOM     19  O   UNL     1       8.491   7.872 -13.329  1.00  0.00    -0.385 OA
ATOM     20  H   UNL     1       8.768   8.728 -13.778  1.00  0.00     0.211 HD
ENDBRANCH  14  19
ENDBRANCH   7   8
ENDBRANCH   1   7
BRANCH   2  21
ATOM     21  O   UNL     1       5.771   5.334 -13.077  1.00  0.00    -0.387 OA
ATOM     22  H   UNL     1       6.317   5.296 -12.240  1.00  0.00     0.211 HD
ENDBRANCH   2  21
BRANCH   6  23
ATOM     23  O   UNL     1       8.808   1.645 -13.493  1.00  0.00    -0.462 OA
BRANCH  23  24
ATOM     24  C   UNL     1       9.495   0.644 -14.158  1.00  0.00     0.130 A 
ATOM     25  C   UNL     1      10.858   0.526 -13.818  1.00  0.00     0.093 A 
ATOM     26  C   UNL     1       8.896  -0.309 -14.957  1.00  0.00     0.094 A 
ATOM     27  C   UNL     1      11.513  -0.643 -13.974  1.00  0.00     0.133 A 
ATOM     28  C   UNL     1       9.562  -1.595 -14.952  1.00  0.00     0.138 A 
ATOM     29  C   UNL     1      10.921  -1.683 -14.649  1.00  0.00     0.102 A 
ATOM     30  O   UNL     1       8.879  -2.807 -14.878  1.00  0.00    -0.484 OA
ATOM     31  C   UNL     1      11.369  -3.079 -14.370  1.00  0.00     0.174 C 
ATOM     32  C   UNL     1       9.021  -3.604 -13.661  1.00  0.00     0.211 C 
ATOM     33  O   UNL     1      12.198  -3.751 -15.106  1.00  0.00    -0.294 OA
ATOM     34  C   UNL     1      10.527  -3.701 -13.277  1.00  0.00     0.131 C 
BRANCH  27  35
ATOM     35  O   UNL     1      12.734  -0.814 -13.346  1.00  0.00    -0.507 OA
ATOM     36  H   UNL     1      12.863  -0.591 -12.334  1.00  0.00     0.293 HD
ENDBRANCH  27  35
BRANCH  32  37
ATOM     37  C   UNL     1       8.116  -2.958 -12.585  1.00  0.00    -0.007 A 
ATOM     38  C   UNL     1       8.631  -2.983 -11.292  1.00  0.00     0.011 A 
ATOM     39  C   UNL     1       6.709  -2.923 -12.668  1.00  0.00     0.011 A 
ATOM     40  C   UNL     1       7.892  -3.673 -10.247  1.00  0.00     0.046 A 
ATOM     41  C   UNL     1       5.889  -3.192 -11.570  1.00  0.00     0.046 A 
ATOM     42  C   UNL     1       6.506  -3.807 -10.428  1.00  0.00     0.115 A 
BRANCH  42  43
ATOM     43  O   UNL     1       5.717  -4.382  -9.398  1.00  0.00    -0.508 OA
ATOM     44  H   UNL     1       6.155  -5.036  -8.751  1.00  0.00     0.293 HD
ENDBRANCH  42  43
ENDBRANCH  32  37
ENDBRANCH  23  24
ENDBRANCH   6  23
BRANCH   3  45
ATOM     45  O   UNL     1       4.389   3.029 -12.621  1.00  0.00    -0.387 OA
ATOM     46  H   UNL     1       4.493   2.104 -12.281  1.00  0.00     0.211 HD
ENDBRANCH   3  45
BRANCH   4  47
ATOM     47  C   UNL     1       4.292   0.623 -14.035  1.00  0.00     0.191 C 
BRANCH  47  48
ATOM     48  O   UNL     1       4.764  -0.068 -12.887  1.00  0.00    -0.394 OA
ATOM     49  H   UNL     1       5.666   0.375 -12.644  1.00  0.00     0.210 HD
ENDBRANCH  47  48
ENDBRANCH   4  47
TORSDOF 14
ENDMDL
MODEL 3
REMARK VINA RESULT:    -5.181      2.226      4.378
REMARK INTER + INTRA:         -11.330
REMARK INTER:                  -9.861
REMARK INTRA:                  -1.469
REMARK UNBOUND:                -3.121
REMARK SMILES C[C@H]1O[C@H](O[C@@H]2[C@@H](Oc3cc(O)c4c(c3)O[C@H](c3ccc(O)cc3)CC4=O)O[C@@H](CO)[C@@H](O)[C@H]2O)[C@@H](O)[C@@H](O)[C@H]1O
REMARK SMILES IDX 6 1 34 2 32 3 29 4 28 5 7 6 5 7 4 8 1 9 2 10 40 11 3 12
REMARK SMILES IDX 38 13 36 14 41 15 39 17 37 19 35 21 8 23 9 24 10 25 15 26
REMARK SMILES IDX 11 27 14 28 13 29 16 30 26 31 17 32 27 33 25 34 12 35 18 37
REMARK SMILES IDX 19 38 24 39 20 40 23 41 21 42 22 43 33 45 30 47 31 48
REMARK H PARENT 41 16 39 18 37 20 35 22 12 36 22 44 33 46 31 49
REMARK Flexibility Score: inf
ROOT
ATOM      1  C   UNL     1       9.053   1.576 -14.038  1.00  0.00     0.221 C 
ATOM      2  C   UNL     1      10.049   2.448 -13.236  1.00  0.00     0.181 C 
ATOM      3  C   UNL     1      11.524   1.851 -13.250  1.00  0.00     0.177 C 
ATOM      4  C   UNL     1      11.655   0.335 -13.166  1.00  0.00     0.179 C 
ATOM      5  O   UNL     1      10.773  -0.236 -14.084  1.00  0.00    -0.332 OA
ATOM      6  C   UNL     1       9.414   0.050 -13.784  1.00  0.00     0.339 C 
ENDROOT
BRANCH   1   7
ATOM      7  O   UNL     1       7.793   1.763 -13.461  1.00  0.00    -0.337 OA
BRANCH   7   8
ATOM      8  C   UNL     1       7.064   2.909 -13.961  1.00  0.00     0.282 C 
ATOM      9  C   UNL     1       4.302   0.784 -14.515  1.00  0.00     0.041 C 
ATOM     10  C   UNL     1       5.028   1.933 -13.840  1.00  0.00     0.150 C 
ATOM     11  C   UNL     1       4.200   3.174 -13.432  1.00  0.00     0.174 C 
ATOM     12  O   UNL     1       5.975   2.425 -14.722  1.00  0.00    -0.344 OA
ATOM     13  C   UNL     1       5.122   4.013 -12.492  1.00  0.00     0.179 C 
ATOM     14  C   UNL     1       6.652   3.940 -12.836  1.00  0.00     0.202 C 
BRANCH  11  15
ATOM     15  O   UNL     1       3.755   3.876 -14.549  1.00  0.00    -0.388 OA
ATOM     16  H   UNL     1       4.520   4.404 -14.891  1.00  0.00     0.211 HD
ENDBRANCH  11  15
BRANCH  13  17
ATOM     17  O   UNL     1       4.635   5.340 -12.330  1.00  0.00    -0.387 OA
ATOM     18  H   UNL     1       3.912   5.344 -11.610  1.00  0.00     0.211 HD
ENDBRANCH  13  17
BRANCH  14  19
ATOM     19  O   UNL     1       7.121   5.206 -13.134  1.00  0.00    -0.385 OA
ATOM     20  H   UNL     1       7.976   5.063 -13.644  1.00  0.00     0.211 HD
ENDBRANCH  14  19
ENDBRANCH   7   8
ENDBRANCH   1   7
BRANCH   2  21
ATOM     21  O   UNL     1      10.040   3.766 -13.742  1.00  0.00    -0.387 OA
ATOM     22  H   UNL     1       9.995   3.729 -14.740  1.00  0.00     0.211 HD
ENDBRANCH   2  21
BRANCH   6  23
ATOM     23  O   UNL     1       8.583  -0.713 -14.649  1.00  0.00    -0.462 OA
BRANCH  23  24
ATOM     24  C   UNL     1       8.892  -2.032 -14.936  1.00  0.00     0.130 A 
ATOM     25  C   UNL     1      10.265  -2.298 -15.118  1.00  0.00     0.093 A 
ATOM     26  C   UNL     1       7.987  -3.072 -14.871  1.00  0.00     0.094 A 
ATOM     27  C   UNL     1      10.765  -3.533 -14.909  1.00  0.00     0.133 A 
ATOM     28  C   UNL     1       8.566  -4.342 -14.482  1.00  0.00     0.138 A 
ATOM     29  C   UNL     1       9.919  -4.597 -14.708  1.00  0.00     0.102 A 
ATOM     30  O   UNL     1       7.963  -5.207 -13.573  1.00  0.00    -0.484 OA
ATOM     31  C   UNL     1      10.420  -5.793 -13.968  1.00  0.00     0.174 C 
ATOM     32  C   UNL     1       8.609  -5.402 -12.276  1.00  0.00     0.211 C 
ATOM     33  O   UNL     1      10.832  -6.889 -14.525  1.00  0.00    -0.294 OA
ATOM     34  C   UNL     1      10.129  -5.665 -12.488  1.00  0.00     0.131 C 
BRANCH  27  35
ATOM     35  O   UNL     1      12.135  -3.688 -14.786  1.00  0.00    -0.507 OA
ATOM     36  H   UNL     1      12.637  -4.481 -15.243  1.00  0.00     0.293 HD
ENDBRANCH  27  35
BRANCH  32  37
ATOM     37  C   UNL     1       8.277  -4.164 -11.411  1.00  0.00    -0.007 A 
ATOM     38  C   UNL     1       6.919  -3.947 -11.194  1.00  0.00     0.011 A 
ATOM     39  C   UNL     1       9.083  -3.008 -11.362  1.00  0.00     0.011 A 
ATOM     40  C   UNL     1       6.318  -2.703 -11.647  1.00  0.00     0.046 A 
ATOM     41  C   UNL     1       8.545  -1.720 -11.390  1.00  0.00     0.046 A 
ATOM     42  C   UNL     1       7.169  -1.594 -11.783  1.00  0.00     0.115 A 
BRANCH  42  43
ATOM     43  O   UNL     1       6.625  -0.329 -12.125  1.00  0.00    -0.508 OA
ATOM     44  H   UNL     1       7.144   0.512 -11.877  1.00  0.00     0.293 HD
ENDBRANCH  42  43
ENDBRANCH  32  37
ENDBRANCH  23  24
ENDBRANCH   6  23
BRANCH   3  45
ATOM     45  O   UNL     1      12.219   2.274 -14.420  1.00  0.00    -0.387 OA
ATOM     46  H   UNL     1      12.448   1.495 -14.987  1.00  0.00     0.211 HD
ENDBRANCH   3  45
BRANCH   4  47
ATOM     47  C   UNL     1      13.086  -0.232 -13.545  1.00  0.00     0.191 C 
BRANCH  47  48
ATOM     48  O   UNL     1      13.048  -0.598 -14.917  1.00  0.00    -0.394 OA
ATOM     49  H   UNL     1      12.394   0.065 -15.366  1.00  0.00     0.210 HD
ENDBRANCH  47  48
ENDBRANCH   4  47
TORSDOF 14
ENDMDL
MODEL 4
REMARK VINA RESULT:    -5.119      1.563      4.679
REMARK INTER + INTRA:         -11.232
REMARK INTER:                  -9.366
REMARK INTRA:                  -1.866
REMARK UNBOUND:                -3.121
REMARK SMILES C[C@H]1O[C@H](O[C@@H]2[C@@H](Oc3cc(O)c4c(c3)O[C@H](c3ccc(O)cc3)CC4=O)O[C@@H](CO)[C@@H](O)[C@H]2O)[C@@H](O)[C@@H](O)[C@H]1O
REMARK SMILES IDX 6 1 34 2 32 3 29 4 28 5 7 6 5 7 4 8 1 9 2 10 40 11 3 12
REMARK SMILES IDX 38 13 36 14 41 15 39 17 37 19 35 21 8 23 9 24 10 25 15 26
REMARK SMILES IDX 11 27 14 28 13 29 16 30 26 31 17 32 27 33 25 34 12 35 18 37
REMARK SMILES IDX 19 38 24 39 20 40 23 41 21 42 22 43 33 45 30 47 31 48
REMARK H PARENT 41 16 39 18 37 20 35 22 12 36 22 44 33 46 31 49
REMARK Flexibility Score: inf
ROOT
ATOM      1  C   UNL     1       7.244   3.315 -13.557  1.00  0.00     0.221 C 
ATOM      2  C   UNL     1       6.242   4.485 -13.714  1.00  0.00     0.181 C 
ATOM      3  C   UNL     1       4.765   3.980 -14.021  1.00  0.00     0.177 C 
ATOM      4  C   UNL     1       4.625   2.775 -14.944  1.00  0.00     0.179 C 
ATOM      5  O   UNL     1       5.515   1.788 -14.519  1.00  0.00    -0.332 OA
ATOM      6  C   UNL     1       6.872   2.197 -14.623  1.00  0.00     0.339 C 
ENDROOT
BRANCH   1   7
ATOM      7  O   UNL     1       8.498   3.798 -13.944  1.00  0.00    -0.337 OA
BRANCH   7   8
ATOM      8  C   UNL     1       8.948   4.962 -13.212  1.00  0.00     0.282 C 
ATOM      9  C   UNL     1      12.140   3.471 -13.003  1.00  0.00     0.041 C 
ATOM     10  C   UNL     1      11.153   4.529 -13.463  1.00  0.00     0.150 C 
ATOM     11  C   UNL     1      11.661   5.983 -13.600  1.00  0.00     0.174 C 
ATOM     12  O   UNL     1      10.134   4.606 -12.529  1.00  0.00    -0.344 OA
ATOM     13  C   UNL     1      10.551   6.751 -14.385  1.00  0.00     0.179 C 
ATOM     14  C   UNL     1       9.087   6.259 -14.104  1.00  0.00     0.202 C 
BRANCH  11  15
ATOM     15  O   UNL     1      11.951   6.538 -12.357  1.00  0.00    -0.388 OA
ATOM     16  H   UNL     1      12.773   6.100 -12.021  1.00  0.00     0.211 HD
ENDBRANCH  11  15
BRANCH  13  17
ATOM     17  O   UNL     1      10.713   8.161 -14.273  1.00  0.00    -0.387 OA
ATOM     18  H   UNL     1      10.617   8.430 -13.294  1.00  0.00     0.211 HD
ENDBRANCH  13  17
BRANCH  14  19
ATOM     19  O   UNL     1       8.342   7.299 -13.580  1.00  0.00    -0.385 OA
ATOM     20  H   UNL     1       8.071   7.860 -14.369  1.00  0.00     0.211 HD
ENDBRANCH  14  19
ENDBRANCH   7   8
ENDBRANCH   1   7
BRANCH   2  21
ATOM     21  O   UNL     1       6.264   5.288 -12.553  1.00  0.00    -0.387 OA
ATOM     22  H   UNL     1       5.384   5.205 -12.086  1.00  0.00     0.211 HD
ENDBRANCH   2  21
BRANCH   6  23
ATOM     23  O   UNL     1       7.709   1.081 -14.350  1.00  0.00    -0.462 OA
BRANCH  23  24
ATOM     24  C   UNL     1       7.383   0.189 -13.343  1.00  0.00     0.130 A 
ATOM     25  C   UNL     1       6.362  -0.729 -13.665  1.00  0.00     0.093 A 
ATOM     26  C   UNL     1       8.100   0.045 -12.173  1.00  0.00     0.094 A 
ATOM     27  C   UNL     1       6.276  -1.919 -13.036  1.00  0.00     0.133 A 
ATOM     28  C   UNL     1       8.099  -1.300 -11.635  1.00  0.00     0.138 A 
ATOM     29  C   UNL     1       7.058  -2.178 -11.936  1.00  0.00     0.102 A 
ATOM     30  O   UNL     1       9.239  -1.916 -11.123  1.00  0.00    -0.484 OA
ATOM     31  C   UNL     1       7.367  -3.595 -11.583  1.00  0.00     0.174 C 
ATOM     32  C   UNL     1       9.800  -3.047 -11.859  1.00  0.00     0.211 C 
ATOM     33  O   UNL     1       6.755  -4.280 -10.668  1.00  0.00    -0.294 OA
ATOM     34  C   UNL     1       8.659  -4.038 -12.236  1.00  0.00     0.131 C 
BRANCH  27  35
ATOM     35  O   UNL     1       5.478  -2.908 -13.583  1.00  0.00    -0.507 OA
ATOM     36  H   UNL     1       4.452  -2.767 -13.719  1.00  0.00     0.293 HD
ENDBRANCH  27  35
BRANCH  32  37
ATOM     37  C   UNL     1      10.580  -2.466 -13.061  1.00  0.00    -0.007 A 
ATOM     38  C   UNL     1      11.567  -1.542 -12.730  1.00  0.00     0.011 A 
ATOM     39  C   UNL     1      10.028  -2.315 -14.350  1.00  0.00     0.011 A 
ATOM     40  C   UNL     1      11.478  -0.188 -13.255  1.00  0.00     0.046 A 
ATOM     41  C   UNL     1      10.229  -1.167 -15.119  1.00  0.00     0.046 A 
ATOM     42  C   UNL     1      10.756  -0.012 -14.447  1.00  0.00     0.115 A 
BRANCH  42  43
ATOM     43  O   UNL     1      10.717   1.266 -15.060  1.00  0.00    -0.508 OA
ATOM     44  H   UNL     1      10.036   1.435 -15.800  1.00  0.00     0.293 HD
ENDBRANCH  42  43
ENDBRANCH  32  37
ENDBRANCH  23  24
ENDBRANCH   6  23
BRANCH   3  45
ATOM     45  O   UNL     1       4.086   3.668 -12.808  1.00  0.00    -0.387 OA
ATOM     46  H   UNL     1       4.452   2.838 -12.410  1.00  0.00     0.211 HD
ENDBRANCH   3  45
BRANCH   4  47
ATOM     47  C   UNL     1       3.196   2.090 -14.932  1.00  0.00     0.191 C 
BRANCH  47  48
ATOM     48  O   UNL     1       2.236   3.113 -14.705  1.00  0.00    -0.394 OA
ATOM     49  H   UNL     1       1.496   2.965 -15.413  1.00  0.00     0.210 HD
ENDBRANCH  47  48
ENDBRANCH   4  47
TORSDOF 14
ENDMDL
MODEL 5
REMARK VINA RESULT:    -4.963      2.292      7.347
REMARK INTER + INTRA:         -10.985
REMARK INTER:                  -9.170
REMARK INTRA:                  -1.815
REMARK UNBOUND:                -3.121
REMARK SMILES C[C@H]1O[C@H](O[C@@H]2[C@@H](Oc3cc(O)c4c(c3)O[C@H](c3ccc(O)cc3)CC4=O)O[C@@H](CO)[C@@H](O)[C@H]2O)[C@@H](O)[C@@H](O)[C@H]1O
REMARK SMILES IDX 6 1 34 2 32 3 29 4 28 5 7 6 5 7 4 8 1 9 2 10 40 11 3 12
REMARK SMILES IDX 38 13 36 14 41 15 39 17 37 19 35 21 8 23 9 24 10 25 15 26
REMARK SMILES IDX 11 27 14 28 13 29 16 30 26 31 17 32 27 33 25 34 12 35 18 37
REMARK SMILES IDX 19 38 24 39 20 40 23 41 21 42 22 43 33 45 30 47 31 48
REMARK H PARENT 41 16 39 18 37 20 35 22 12 36 22 44 33 46 31 49
REMARK Flexibility Score: inf
ROOT
ATOM      1  C   UNL     1      10.479  -0.820 -13.735  1.00  0.00     0.221 C 
ATOM      2  C   UNL     1      11.873  -0.864 -14.406  1.00  0.00     0.181 C 
ATOM      3  C   UNL     1      12.461   0.590 -14.677  1.00  0.00     0.177 C 
ATOM      4  C   UNL     1      11.473   1.661 -15.124  1.00  0.00     0.179 C 
ATOM      5  O   UNL     1      10.362   1.616 -14.282  1.00  0.00    -0.332 OA
ATOM      6  C   UNL     1       9.660   0.384 -14.372  1.00  0.00     0.339 C 
ENDROOT
BRANCH   1   7
ATOM      7  O   UNL     1       9.802  -1.979 -14.126  1.00  0.00    -0.337 OA
BRANCH   7   8
ATOM      8  C   UNL     1      10.283  -3.196 -13.506  1.00  0.00     0.282 C 
ATOM      9  C   UNL     1       8.466  -2.321 -10.611  1.00  0.00     0.041 C 
ATOM     10  C   UNL     1       8.777  -3.184 -11.820  1.00  0.00     0.150 C 
ATOM     11  C   UNL     1       8.551  -4.709 -11.701  1.00  0.00     0.174 C 
ATOM     12  O   UNL     1      10.124  -3.056 -12.108  1.00  0.00    -0.344 OA
ATOM     13  C   UNL     1       8.631  -5.269 -13.156  1.00  0.00     0.179 C 
ATOM     14  C   UNL     1       9.632  -4.510 -14.097  1.00  0.00     0.202 C 
BRANCH  11  15
ATOM     15  O   UNL     1       9.466  -5.289 -10.827  1.00  0.00    -0.388 OA
ATOM     16  H   UNL     1      10.213  -5.642 -11.373  1.00  0.00     0.211 HD
ENDBRANCH  11  15
BRANCH  13  17
ATOM     17  O   UNL     1       8.800  -6.682 -13.163  1.00  0.00    -0.387 OA
ATOM     18  H   UNL     1       9.133  -6.983 -12.247  1.00  0.00     0.211 HD
ENDBRANCH  13  17
BRANCH  14  19
ATOM     19  O   UNL     1      10.606  -5.385 -14.541  1.00  0.00    -0.385 OA
ATOM     20  H   UNL     1      10.346  -6.285 -14.175  1.00  0.00     0.211 HD
ENDBRANCH  14  19
ENDBRANCH   7   8
ENDBRANCH   1   7
BRANCH   2  21
ATOM     21  O   UNL     1      12.760  -1.620 -13.609  1.00  0.00    -0.387 OA
ATOM     22  H   UNL     1      13.684  -1.255 -13.717  1.00  0.00     0.211 HD
ENDBRANCH   2  21
BRANCH   6  23
ATOM     23  O   UNL     1       8.451   0.490 -13.630  1.00  0.00    -0.462 OA
BRANCH  23  24
ATOM     24  C   UNL     1       7.264   0.809 -14.266  1.00  0.00     0.130 A 
ATOM     25  C   UNL     1       6.146   0.052 -13.861  1.00  0.00     0.093 A 
ATOM     26  C   UNL     1       7.099   1.899 -15.096  1.00  0.00     0.094 A 
ATOM     27  C   UNL     1       4.894   0.540 -13.991  1.00  0.00     0.133 A 
ATOM     28  C   UNL     1       5.770   2.476 -15.066  1.00  0.00     0.138 A 
ATOM     29  C   UNL     1       4.673   1.696 -14.698  1.00  0.00     0.102 A 
ATOM     30  O   UNL     1       5.536   3.848 -15.029  1.00  0.00    -0.484 OA
ATOM     31  C   UNL     1       3.453   2.505 -14.404  1.00  0.00     0.174 C 
ATOM     32  C   UNL     1       4.964   4.417 -13.810  1.00  0.00     0.211 C 
ATOM     33  O   UNL     1       2.361   2.478 -15.102  1.00  0.00    -0.294 OA
ATOM     34  C   UNL     1       3.749   3.555 -13.355  1.00  0.00     0.131 C 
BRANCH  27  35
ATOM     35  O   UNL     1       3.863  -0.078 -13.306  1.00  0.00    -0.507 OA
ATOM     36  H   UNL     1       3.014   0.451 -13.007  1.00  0.00     0.293 HD
ENDBRANCH  27  35
BRANCH  32  37
ATOM     37  C   UNL     1       6.110   4.524 -12.776  1.00  0.00    -0.007 A 
ATOM     38  C   UNL     1       7.236   5.214 -13.217  1.00  0.00     0.011 A 
ATOM     39  C   UNL     1       6.353   3.556 -11.779  1.00  0.00     0.011 A 
ATOM     40  C   UNL     1       8.517   4.527 -13.262  1.00  0.00     0.046 A 
ATOM     41  C   UNL     1       7.639   3.112 -11.467  1.00  0.00     0.046 A 
ATOM     42  C   UNL     1       8.686   3.434 -12.396  1.00  0.00     0.115 A 
BRANCH  42  43
ATOM     43  O   UNL     1       9.947   2.787 -12.323  1.00  0.00    -0.508 OA
ATOM     44  H   UNL     1      10.342   2.586 -11.405  1.00  0.00     0.293 HD
ENDBRANCH  42  43
ENDBRANCH  32  37
ENDBRANCH  23  24
ENDBRANCH   6  23
BRANCH   3  45
ATOM     45  O   UNL     1      13.125   1.080 -13.516  1.00  0.00    -0.387 OA
ATOM     46  H   UNL     1      12.796   1.986 -13.287  1.00  0.00     0.211 HD
ENDBRANCH   3  45
BRANCH   4  47
ATOM     47  C   UNL     1      12.016   3.147 -15.031  1.00  0.00     0.191 C 
BRANCH  47  48
ATOM     48  O   UNL     1      11.976   3.529 -13.662  1.00  0.00    -0.394 OA
ATOM     49  H   UNL     1      12.648   2.909 -13.179  1.00  0.00     0.210 HD
ENDBRANCH  47  48
ENDBRANCH   4  47
TORSDOF 14
ENDMDL
MODEL 6
REMARK VINA RESULT:    -4.910      2.257      5.883
REMARK INTER + INTRA:         -10.901
REMARK INTER:                  -9.199
REMARK INTRA:                  -1.702
REMARK UNBOUND:                -3.121
REMARK SMILES C[C@H]1O[C@H](O[C@@H]2[C@@H](Oc3cc(O)c4c(c3)O[C@H](c3ccc(O)cc3)CC4=O)O[C@@H](CO)[C@@H](O)[C@H]2O)[C@@H](O)[C@@H](O)[C@H]1O
REMARK SMILES IDX 6 1 34 2 32 3 29 4 28 5 7 6 5 7 4 8 1 9 2 10 40 11 3 12
REMARK SMILES IDX 38 13 36 14 41 15 39 17 37 19 35 21 8 23 9 24 10 25 15 26
REMARK SMILES IDX 11 27 14 28 13 29 16 30 26 31 17 32 27 33 25 34 12 35 18 37
REMARK SMILES IDX 19 38 24 39 20 40 23 41 21 42 22 43 33 45 30 47 31 48
REMARK H PARENT 41 16 39 18 37 20 35 22 12 36 22 44 33 46 31 49
REMARK Flexibility Score: inf
ROOT
ATOM      1  C   UNL     1       7.490   1.306 -13.735  1.00  0.00     0.221 C 
ATOM      2  C   UNL     1       6.108   1.961 -13.977  1.00  0.00     0.181 C 
ATOM      3  C   UNL     1       4.973   0.886 -14.274  1.00  0.00     0.177 C 
ATOM      4  C   UNL     1       5.366  -0.315 -15.125  1.00  0.00     0.179 C 
ATOM      5  O   UNL     1       6.562  -0.835 -14.629  1.00  0.00    -0.332 OA
ATOM      6  C   UNL     1       7.641   0.083 -14.737  1.00  0.00     0.339 C 
ENDROOT
BRANCH   1   7
ATOM      7  O   UNL     1       8.456   2.236 -14.132  1.00  0.00    -0.337 OA
BRANCH   7   8
ATOM      8  C   UNL     1       8.695   3.301 -13.182  1.00  0.00     0.282 C 
ATOM      9  C   UNL     1      12.141   2.568 -13.378  1.00  0.00     0.041 C 
ATOM     10  C   UNL     1      10.916   3.443 -13.577  1.00  0.00     0.150 C 
ATOM     11  C   UNL     1      11.083   4.971 -13.417  1.00  0.00     0.174 C 
ATOM     12  O   UNL     1       9.977   3.096 -12.622  1.00  0.00    -0.344 OA
ATOM     13  C   UNL     1       9.779   5.607 -13.992  1.00  0.00     0.179 C 
ATOM     14  C   UNL     1       8.482   4.748 -13.782  1.00  0.00     0.202 C 
BRANCH  11  15
ATOM     15  O   UNL     1      11.336   5.317 -12.092  1.00  0.00    -0.388 OA
ATOM     16  H   UNL     1      11.046   6.256 -11.971  1.00  0.00     0.211 HD
ENDBRANCH  11  15
BRANCH  13  17
ATOM     17  O   UNL     1       9.637   6.964 -13.588  1.00  0.00    -0.387 OA
ATOM     18  H   UNL     1       9.553   7.552 -14.418  1.00  0.00     0.211 HD
ENDBRANCH  13  17
BRANCH  14  19
ATOM     19  O   UNL     1       7.568   5.463 -13.031  1.00  0.00    -0.385 OA
ATOM     20  H   UNL     1       6.817   5.687 -13.662  1.00  0.00     0.211 HD
ENDBRANCH  14  19
ENDBRANCH   7   8
ENDBRANCH   1   7
BRANCH   2  21
ATOM     21  O   UNL     1       5.761   2.760 -12.866  1.00  0.00    -0.387 OA
ATOM     22  H   UNL     1       4.816   2.561 -12.607  1.00  0.00     0.211 HD
ENDBRANCH   2  21
BRANCH   6  23
ATOM     23  O   UNL     1       8.847  -0.584 -14.385  1.00  0.00    -0.462 OA
BRANCH  23  24
ATOM     24  C   UNL     1       9.097  -1.867 -14.839  1.00  0.00     0.130 A 
ATOM     25  C   UNL     1      10.449  -2.148 -15.125  1.00  0.00     0.093 A 
ATOM     26  C   UNL     1       8.162  -2.882 -14.846  1.00  0.00     0.094 A 
ATOM     27  C   UNL     1      10.917  -3.413 -15.087  1.00  0.00     0.133 A 
ATOM     28  C   UNL     1       8.716  -4.205 -14.639  1.00  0.00     0.138 A 
ATOM     29  C   UNL     1      10.046  -4.469 -14.965  1.00  0.00     0.102 A 
ATOM     30  O   UNL     1       8.131  -5.154 -13.804  1.00  0.00    -0.484 OA
ATOM     31  C   UNL     1      10.544  -5.757 -14.397  1.00  0.00     0.174 C 
ATOM     32  C   UNL     1       8.835  -5.517 -12.576  1.00  0.00     0.211 C 
ATOM     33  O   UNL     1      10.890  -6.791 -15.098  1.00  0.00    -0.294 OA
ATOM     34  C   UNL     1      10.333  -5.795 -12.898  1.00  0.00     0.131 C 
BRANCH  27  35
ATOM     35  O   UNL     1      12.285  -3.618 -15.058  1.00  0.00    -0.507 OA
ATOM     36  H   UNL     1      12.885  -3.415 -15.888  1.00  0.00     0.293 HD
ENDBRANCH  27  35
BRANCH  32  37
ATOM     37  C   UNL     1       8.589  -4.380 -11.557  1.00  0.00    -0.007 A 
ATOM     38  C   UNL     1       7.262  -4.219 -11.166  1.00  0.00     0.011 A 
ATOM     39  C   UNL     1       9.381  -3.216 -11.481  1.00  0.00     0.011 A 
ATOM     40  C   UNL     1       6.597  -2.950 -11.419  1.00  0.00     0.046 A 
ATOM     41  C   UNL     1       8.827  -1.945 -11.316  1.00  0.00     0.046 A 
ATOM     42  C   UNL     1       7.413  -1.814 -11.536  1.00  0.00     0.115 A 
BRANCH  42  43
ATOM     43  O   UNL     1       6.817  -0.535 -11.684  1.00  0.00    -0.508 OA
ATOM     44  H   UNL     1       5.840  -0.416 -11.419  1.00  0.00     0.293 HD
ENDBRANCH  42  43
ENDBRANCH  32  37
ENDBRANCH  23  24
ENDBRANCH   6  23
BRANCH   3  45
ATOM     45  O   UNL     1       4.432   0.386 -13.054  1.00  0.00    -0.387 OA
ATOM     46  H   UNL     1       5.116   0.407 -12.338  1.00  0.00     0.211 HD
ENDBRANCH   3  45
BRANCH   4  47
ATOM     47  C   UNL     1       4.336  -1.519 -15.093  1.00  0.00     0.191 C 
BRANCH  47  48
ATOM     48  O   UNL     1       3.029  -0.961 -15.109  1.00  0.00    -0.394 OA
ATOM     49  H   UNL     1       3.125  -0.037 -15.563  1.00  0.00     0.210 HD
ENDBRANCH  47  48
ENDBRANCH   4  47
TORSDOF 14
ENDMDL
MODEL 7
REMARK VINA RESULT:    -4.687      1.963      8.349
REMARK INTER + INTRA:         -10.548
REMARK INTER:                  -9.337
REMARK INTRA:                  -1.211
REMARK UNBOUND:                -3.121
REMARK SMILES C[C@H]1O[C@H](O[C@@H]2[C@@H](Oc3cc(O)c4c(c3)O[C@H](c3ccc(O)cc3)CC4=O)O[C@@H](CO)[C@@H](O)[C@H]2O)[C@@H](O)[C@@H](O)[C@H]1O
REMARK SMILES IDX 6 1 34 2 32 3 29 4 28 5 7 6 5 7 4 8 1 9 2 10 40 11 3 12
REMARK SMILES IDX 38 13 36 14 41 15 39 17 37 19 35 21 8 23 9 24 10 25 15 26
REMARK SMILES IDX 11 27 14 28 13 29 16 30 26 31 17 32 27 33 25 34 12 35 18 37
REMARK SMILES IDX 19 38 24 39 20 40 23 41 21 42 22 43 33 45 30 47 31 48
REMARK H PARENT 41 16 39 18 37 20 35 22 12 36 22 44 33 46 31 49
REMARK Flexibility Score: inf
ROOT
ATOM      1  C   UNL     1       7.076  -0.882 -13.362  1.00  0.00     0.221 C 
ATOM      2  C   UNL     1       5.684  -1.328 -12.852  1.00  0.00     0.181 C 
ATOM      3  C   UNL     1       4.496  -0.629 -13.648  1.00  0.00     0.177 C 
ATOM      4  C   UNL     1       4.693   0.830 -14.040  1.00  0.00     0.179 C 
ATOM      5  O   UNL     1       5.956   0.966 -14.617  1.00  0.00    -0.332 OA
ATOM      6  C   UNL     1       7.005   0.667 -13.707  1.00  0.00     0.339 C 
ENDROOT
BRANCH   1   7
ATOM      7  O   UNL     1       7.957  -0.983 -12.280  1.00  0.00    -0.337 OA
BRANCH   7   8
ATOM      8  C   UNL     1       9.053  -1.908 -12.480  1.00  0.00     0.282 C 
ATOM      9  C   UNL     1       7.615  -3.987 -10.018  1.00  0.00     0.041 C 
ATOM     10  C   UNL     1       8.058  -3.645 -11.429  1.00  0.00     0.150 C 
ATOM     11  C   UNL     1       8.590  -4.791 -12.320  1.00  0.00     0.174 C 
ATOM     12  O   UNL     1       9.112  -2.752 -11.347  1.00  0.00    -0.344 OA
ATOM     13  C   UNL     1       8.647  -4.214 -13.770  1.00  0.00     0.179 C 
ATOM     14  C   UNL     1       8.987  -2.684 -13.855  1.00  0.00     0.202 C 
BRANCH  11  15
ATOM     15  O   UNL     1       9.816  -5.263 -11.858  1.00  0.00    -0.388 OA
ATOM     16  H   UNL     1      10.446  -4.500 -11.855  1.00  0.00     0.211 HD
ENDBRANCH  11  15
BRANCH  13  17
ATOM     17  O   UNL     1       9.446  -5.026 -14.623  1.00  0.00    -0.387 OA
ATOM     18  H   UNL     1       9.190  -6.004 -14.489  1.00  0.00     0.211 HD
ENDBRANCH  13  17
BRANCH  14  19
ATOM     19  O   UNL     1      10.153  -2.507 -14.577  1.00  0.00    -0.385 OA
ATOM     20  H   UNL     1      10.287  -3.364 -15.086  1.00  0.00     0.211 HD
ENDBRANCH  14  19
ENDBRANCH   7   8
ENDBRANCH   1   7
BRANCH   2  21
ATOM     21  O   UNL     1       5.578  -2.733 -12.929  1.00  0.00    -0.387 OA
ATOM     22  H   UNL     1       4.645  -2.973 -13.198  1.00  0.00     0.211 HD
ENDBRANCH   2  21
BRANCH   6  23
ATOM     23  O   UNL     1       8.247   1.006 -14.312  1.00  0.00    -0.462 OA
BRANCH  23  24
ATOM     24  C   UNL     1       9.221   1.672 -13.588  1.00  0.00     0.130 A 
ATOM     25  C   UNL     1      10.541   1.479 -14.043  1.00  0.00     0.093 A 
ATOM     26  C   UNL     1       8.954   2.612 -12.613  1.00  0.00     0.094 A 
ATOM     27  C   UNL     1      11.500   2.395 -13.796  1.00  0.00     0.133 A 
ATOM     28  C   UNL     1       9.948   3.661 -12.509  1.00  0.00     0.138 A 
ATOM     29  C   UNL     1      11.258   3.434 -12.930  1.00  0.00     0.102 A 
ATOM     30  O   UNL     1       9.621   5.006 -12.350  1.00  0.00    -0.484 OA
ATOM     31  C   UNL     1      12.056   4.689 -13.061  1.00  0.00     0.174 C 
ATOM     32  C   UNL     1       9.905   5.918 -13.456  1.00  0.00     0.211 C 
ATOM     33  O   UNL     1      13.080   4.994 -12.326  1.00  0.00    -0.294 OA
ATOM     34  C   UNL     1      11.355   5.675 -13.971  1.00  0.00     0.131 C 
BRANCH  27  35
ATOM     35  O   UNL     1      12.682   2.334 -14.513  1.00  0.00    -0.507 OA
ATOM     36  H   UNL     1      13.522   2.884 -14.226  1.00  0.00     0.293 HD
ENDBRANCH  27  35
BRANCH  32  37
ATOM     37  C   UNL     1       8.797   5.711 -14.514  1.00  0.00    -0.007 A 
ATOM     38  C   UNL     1       7.845   6.726 -14.575  1.00  0.00     0.011 A 
ATOM     39  C   UNL     1       8.345   4.442 -14.933  1.00  0.00     0.011 A 
ATOM     40  C   UNL     1       6.449   6.406 -14.323  1.00  0.00     0.046 A 
ATOM     41  C   UNL     1       6.990   4.152 -15.109  1.00  0.00     0.046 A 
ATOM     42  C   UNL     1       6.045   5.082 -14.558  1.00  0.00     0.115 A 
BRANCH  42  43
ATOM     43  O   UNL     1       4.676   4.734 -14.426  1.00  0.00    -0.508 OA
ATOM     44  H   UNL     1       4.095   4.699 -15.264  1.00  0.00     0.293 HD
ENDBRANCH  42  43
ENDBRANCH  32  37
ENDBRANCH  23  24
ENDBRANCH   6  23
BRANCH   3  45
ATOM     45  O   UNL     1       4.203  -1.355 -14.838  1.00  0.00    -0.387 OA
ATOM     46  H   UNL     1       3.229  -1.347 -15.017  1.00  0.00     0.211 HD
ENDBRANCH   3  45
BRANCH   4  47
ATOM     47  C   UNL     1       3.671   1.371 -15.125  1.00  0.00     0.191 C 
BRANCH  47  48
ATOM     48  O   UNL     1       3.084   2.555 -14.603  1.00  0.00    -0.394 OA
ATOM     49  H   UNL     1       3.379   3.317 -15.237  1.00  0.00     0.210 HD
ENDBRANCH  47  48
ENDBRANCH   4  47
TORSDOF 14
ENDMDL
MODEL 8
REMARK VINA RESULT:    -4.451      2.351      7.419
REMARK INTER + INTRA:         -10.174
REMARK INTER:                  -8.162
REMARK INTRA:                  -2.011
REMARK UNBOUND:                -3.121
REMARK SMILES C[C@H]1O[C@H](O[C@@H]2[C@@H](Oc3cc(O)c4c(c3)O[C@H](c3ccc(O)cc3)CC4=O)O[C@@H](CO)[C@@H](O)[C@H]2O)[C@@H](O)[C@@H](O)[C@H]1O
REMARK SMILES IDX 6 1 34 2 32 3 29 4 28 5 7 6 5 7 4 8 1 9 2 10 40 11 3 12
REMARK SMILES IDX 38 13 36 14 41 15 39 17 37 19 35 21 8 23 9 24 10 25 15 26
REMARK SMILES IDX 11 27 14 28 13 29 16 30 26 31 17 32 27 33 25 34 12 35 18 37
REMARK SMILES IDX 19 38 24 39 20 40 23 41 21 42 22 43 33 45 30 47 31 48
REMARK H PARENT 41 16 39 18 37 20 35 22 12 36 22 44 33 46 31 49
REMARK Flexibility Score: inf
ROOT
ATOM      1  C   UNL     1       6.718  -1.199 -14.645  1.00  0.00     0.221 C 
ATOM      2  C   UNL     1       5.274  -1.498 -14.174  1.00  0.00     0.181 C 
ATOM      3  C   UNL     1       4.438  -0.171 -13.907  1.00  0.00     0.177 C 
ATOM      4  C   UNL     1       5.182   0.997 -13.271  1.00  0.00     0.179 C 
ATOM      5  O   UNL     1       6.384   1.180 -13.955  1.00  0.00    -0.332 OA
ATOM      6  C   UNL     1       7.252   0.061 -13.837  1.00  0.00     0.339 C 
ENDROOT
BRANCH   1   7
ATOM      7  O   UNL     1       7.512  -2.273 -14.230  1.00  0.00    -0.337 OA
BRANCH   7   8
ATOM      8  C   UNL     1       7.152  -2.826 -12.942  1.00  0.00     0.282 C 
ATOM      9  C   UNL     1       8.981  -5.723 -13.787  1.00  0.00     0.041 C 
ATOM     10  C   UNL     1       8.704  -4.470 -12.977  1.00  0.00     0.150 C 
ATOM     11  C   UNL     1       9.057  -4.487 -11.472  1.00  0.00     0.174 C 
ATOM     12  O   UNL     1       7.342  -4.226 -13.009  1.00  0.00    -0.344 OA
ATOM     13  C   UNL     1       8.977  -3.003 -10.996  1.00  0.00     0.179 C 
ATOM     14  C   UNL     1       7.888  -2.137 -11.725  1.00  0.00     0.202 C 
BRANCH  11  15
ATOM     15  O   UNL     1       8.219  -5.346 -10.765  1.00  0.00    -0.388 OA
ATOM     16  H   UNL     1       8.795  -5.986 -10.276  1.00  0.00     0.211 HD
ENDBRANCH  11  15
BRANCH  13  17
ATOM     17  O   UNL     1       8.924  -2.910  -9.577  1.00  0.00    -0.387 OA
ATOM     18  H   UNL     1       9.063  -3.838  -9.177  1.00  0.00     0.211 HD
ENDBRANCH  13  17
BRANCH  14  19
ATOM     19  O   UNL     1       6.976  -1.665 -10.801  1.00  0.00    -0.385 OA
ATOM     20  H   UNL     1       7.438  -1.728  -9.910  1.00  0.00     0.211 HD
ENDBRANCH  14  19
ENDBRANCH   7   8
ENDBRANCH   1   7
BRANCH   2  21
ATOM     21  O   UNL     1       4.624  -2.314 -15.125  1.00  0.00    -0.387 OA
ATOM     22  H   UNL     1       3.645  -2.331 -14.922  1.00  0.00     0.211 HD
ENDBRANCH   2  21
BRANCH   6  23
ATOM     23  O   UNL     1       8.514   0.398 -14.400  1.00  0.00    -0.462 OA
BRANCH  23  24
ATOM     24  C   UNL     1       9.013   1.684 -14.282  1.00  0.00     0.130 A 
ATOM     25  C   UNL     1       8.633   2.368 -13.109  1.00  0.00     0.093 A 
ATOM     26  C   UNL     1       9.963   2.227 -15.124  1.00  0.00     0.094 A 
ATOM     27  C   UNL     1       9.390   3.370 -12.614  1.00  0.00     0.133 A 
ATOM     28  C   UNL     1      10.850   3.179 -14.487  1.00  0.00     0.138 A 
ATOM     29  C   UNL     1      10.437   3.872 -13.349  1.00  0.00     0.102 A 
ATOM     30  O   UNL     1      12.224   3.205 -14.706  1.00  0.00    -0.484 OA
ATOM     31  C   UNL     1      11.560   4.553 -12.639  1.00  0.00     0.174 C 
ATOM     32  C   UNL     1      13.105   2.828 -13.603  1.00  0.00     0.211 C 
ATOM     33  O   UNL     1      11.695   5.838 -12.528  1.00  0.00    -0.294 OA
ATOM     34  C   UNL     1      12.657   3.565 -12.306  1.00  0.00     0.131 C 
BRANCH  27  35
ATOM     35  O   UNL     1       9.167   3.798 -11.318  1.00  0.00    -0.507 OA
ATOM     36  H   UNL     1       9.851   4.410 -10.821  1.00  0.00     0.293 HD
ENDBRANCH  27  35
BRANCH  32  37
ATOM     37  C   UNL     1      13.087   1.284 -13.512  1.00  0.00    -0.007 A 
ATOM     38  C   UNL     1      13.120   0.623 -14.738  1.00  0.00     0.011 A 
ATOM     39  C   UNL     1      12.466   0.571 -12.465  1.00  0.00     0.011 A 
ATOM     40  C   UNL     1      12.021  -0.258 -15.099  1.00  0.00     0.046 A 
ATOM     41  C   UNL     1      11.689  -0.566 -12.693  1.00  0.00     0.046 A 
ATOM     42  C   UNL     1      11.278  -0.817 -14.047  1.00  0.00     0.115 A 
BRANCH  42  43
ATOM     43  O   UNL     1      10.259  -1.762 -14.333  1.00  0.00    -0.508 OA
ATOM     44  H   UNL     1       9.402  -1.438 -14.781  1.00  0.00     0.293 HD
ENDBRANCH  42  43
ENDBRANCH  32  37
ENDBRANCH  23  24
ENDBRANCH   6  23
BRANCH   3  45
ATOM     45  O   UNL     1       3.858   0.303 -15.119  1.00  0.00    -0.387 OA
ATOM     46  H   UNL     1       2.960  -0.094 -15.251  1.00  0.00     0.211 HD
ENDBRANCH   3  45
BRANCH   4  47
ATOM     47  C   UNL     1       4.431   2.391 -13.356  1.00  0.00     0.191 C 
BRANCH  47  48
ATOM     48  O   UNL     1       4.968   3.095 -14.468  1.00  0.00    -0.394 OA
ATOM     49  H   UNL     1       5.994   3.070 -14.346  1.00  0.00     0.210 HD
ENDBRANCH  47  48
ENDBRANCH   4  47
TORSDOF 14
ENDMDL
MODEL 9
REMARK VINA RESULT:    -4.048      1.949      7.565
REMARK INTER + INTRA:          -9.535
REMARK INTER:                  -8.781
REMARK INTRA:                  -0.754
REMARK UNBOUND:                -3.121
REMARK SMILES C[C@H]1O[C@H](O[C@@H]2[C@@H](Oc3cc(O)c4c(c3)O[C@H](c3ccc(O)cc3)CC4=O)O[C@@H](CO)[C@@H](O)[C@H]2O)[C@@H](O)[C@@H](O)[C@H]1O
REMARK SMILES IDX 6 1 34 2 32 3 29 4 28 5 7 6 5 7 4 8 1 9 2 10 40 11 3 12
REMARK SMILES IDX 38 13 36 14 41 15 39 17 37 19 35 21 8 23 9 24 10 25 15 26
REMARK SMILES IDX 11 27 14 28 13 29 16 30 26 31 17 32 27 33 25 34 12 35 18 37
REMARK SMILES IDX 19 38 24 39 20 40 23 41 21 42 22 43 33 45 30 47 31 48
REMARK H PARENT 41 16 39 18 37 20 35 22 12 36 22 44 33 46 31 49
REMARK Flexibility Score: inf
ROOT
ATOM      1  C   UNL     1      10.286  -0.629 -13.648  1.00  0.00     0.221 C 
ATOM      2  C   UNL     1      11.760  -0.993 -13.952  1.00  0.00     0.181 C 
ATOM      3  C   UNL     1      12.758   0.204 -13.627  1.00  0.00     0.177 C 
ATOM      4  C   UNL     1      12.275   1.612 -13.953  1.00  0.00     0.179 C 
ATOM      5  O   UNL     1      10.982   1.763 -13.451  1.00  0.00    -0.332 OA
ATOM      6  C   UNL     1      10.052   0.885 -14.069  1.00  0.00     0.339 C 
ENDROOT
BRANCH   1   7
ATOM      7  O   UNL     1       9.493  -1.385 -14.517  1.00  0.00    -0.337 OA
BRANCH   7   8
ATOM      8  C   UNL     1       8.413  -2.104 -13.876  1.00  0.00     0.282 C 
ATOM      9  C   UNL     1      10.261  -5.077 -14.321  1.00  0.00     0.041 C 
ATOM     10  C   UNL     1       9.608  -3.985 -13.494  1.00  0.00     0.150 C 
ATOM     11  C   UNL     1       8.993  -4.377 -12.131  1.00  0.00     0.174 C 
ATOM     12  O   UNL     1       8.546  -3.470 -14.216  1.00  0.00    -0.344 OA
ATOM     13  C   UNL     1       8.708  -3.035 -11.387  1.00  0.00     0.179 C 
ATOM     14  C   UNL     1       8.308  -1.838 -12.321  1.00  0.00     0.202 C 
BRANCH  11  15
ATOM     15  O   UNL     1       7.864  -5.175 -12.296  1.00  0.00    -0.388 OA
ATOM     16  H   UNL     1       7.099  -4.692 -11.894  1.00  0.00     0.211 HD
ENDBRANCH  11  15
BRANCH  13  17
ATOM     17  O   UNL     1       7.824  -3.223 -10.288  1.00  0.00    -0.387 OA
ATOM     18  H   UNL     1       7.496  -2.313  -9.964  1.00  0.00     0.211 HD
ENDBRANCH  13  17
BRANCH  14  19
ATOM     19  O   UNL     1       7.044  -1.389 -11.984  1.00  0.00    -0.385 OA
ATOM     20  H   UNL     1       7.085  -0.387 -12.062  1.00  0.00     0.211 HD
ENDBRANCH  14  19
ENDBRANCH   7   8
ENDBRANCH   1   7
BRANCH   2  21
ATOM     21  O   UNL     1      12.121  -2.152 -13.232  1.00  0.00    -0.387 OA
ATOM     22  H   UNL     1      11.298  -2.551 -12.826  1.00  0.00     0.211 HD
ENDBRANCH   2  21
BRANCH   6  23
ATOM     23  O   UNL     1       8.741   1.228 -13.638  1.00  0.00    -0.462 OA
BRANCH  23  24
ATOM     24  C   UNL     1       8.450   2.522 -13.242  1.00  0.00     0.130 A 
ATOM     25  C   UNL     1       9.178   3.530 -13.906  1.00  0.00     0.093 A 
ATOM     26  C   UNL     1       7.404   2.859 -12.407  1.00  0.00     0.094 A 
ATOM     27  C   UNL     1       8.691   4.784 -14.009  1.00  0.00     0.133 A 
ATOM     28  C   UNL     1       6.819   4.157 -12.678  1.00  0.00     0.138 A 
ATOM     29  C   UNL     1       7.572   5.151 -13.302  1.00  0.00     0.102 A 
ATOM     30  O   UNL     1       5.446   4.386 -12.689  1.00  0.00    -0.484 OA
ATOM     31  C   UNL     1       6.743   6.290 -13.796  1.00  0.00     0.174 C 
ATOM     32  C   UNL     1       4.810   4.700 -13.968  1.00  0.00     0.211 C 
ATOM     33  O   UNL     1       6.801   7.501 -13.338  1.00  0.00    -0.294 OA
ATOM     34  C   UNL     1       5.641   5.791 -14.706  1.00  0.00     0.131 C 
BRANCH  27  35
ATOM     35  O   UNL     1       9.266   5.650 -14.922  1.00  0.00    -0.507 OA
ATOM     36  H   UNL     1       9.278   6.682 -14.762  1.00  0.00     0.293 HD
ENDBRANCH  27  35
BRANCH  32  37
ATOM     37  C   UNL     1       4.656   3.368 -14.739  1.00  0.00    -0.007 A 
ATOM     38  C   UNL     1       3.469   2.683 -14.495  1.00  0.00     0.011 A 
ATOM     39  C   UNL     1       5.745   2.559 -15.125  1.00  0.00     0.011 A 
ATOM     40  C   UNL     1       3.525   1.341 -13.937  1.00  0.00     0.046 A 
ATOM     41  C   UNL     1       5.728   1.170 -14.990  1.00  0.00     0.046 A 
ATOM     42  C   UNL     1       4.700   0.605 -14.162  1.00  0.00     0.115 A 
BRANCH  42  43
ATOM     43  O   UNL     1       4.776  -0.744 -13.728  1.00  0.00    -0.508 OA
ATOM     44  H   UNL     1       5.212  -1.432 -14.341  1.00  0.00     0.293 HD
ENDBRANCH  42  43
ENDBRANCH  32  37
ENDBRANCH  23  24
ENDBRANCH   6  23
BRANCH   3  45
ATOM     45  O   UNL     1      13.122   0.186 -12.250  1.00  0.00    -0.387 OA
ATOM     46  H   UNL     1      14.107   0.174 -12.153  1.00  0.00     0.211 HD
ENDBRANCH   3  45
BRANCH   4  47
ATOM     47  C   UNL     1      13.125   2.776 -13.292  1.00  0.00     0.191 C 
BRANCH  47  48
ATOM     48  O   UNL     1      12.332   3.955 -13.331  1.00  0.00    -0.394 OA
ATOM     49  H   UNL     1      12.524   4.391 -14.249  1.00  0.00     0.210 HD
ENDBRANCH  47  48
ENDBRANCH   4  47
TORSDOF 14
ENDMDL
