MODEL 1
REMARK VINA RESULT:    -9.000      0.000      0.000
REMARK INTER + INTRA:          -9.129
REMARK INTER:                  -9.789
REMARK INTRA:                   0.660
REMARK UNBOUND:                 0.660
REMARK SMILES C[C@@H]1[C@H](C)CC[C@@]2(C(=O)[O-])CC[C@]3(C)C(=CC[C@@H]4[C@@]5(C)CC[C@@H](O)C(C)(C)[C@@H]5CC[C@@]43C)[C@H]12
REMARK SMILES IDX 7 1 6 2 11 3 33 4 5 5 12 6 15 7 2 8 3 9 13 10 16 11 1 12
REMARK SMILES IDX 4 13 14 14 31 15 17 16 18 17 30 18 32 19 19 20 29 21 28 22
REMARK SMILES IDX 21 23 20 24 25 25 22 26 23 27 26 28 27 29 8 30 9 31 10 32
REMARK SMILES IDX 24 33
REMARK H PARENT 24 34
REMARK Flexibility Score: inf
ROOT
ATOM      1  C   UNL     1      15.236  -4.895  17.826  1.00  0.00     0.017 C 
ATOM      2  C   UNL     1      16.158  -6.134  18.087  1.00  0.00     0.014 C 
ATOM      3  C   UNL     1      15.868  -3.932  16.750  1.00  0.00     0.014 C 
ATOM      4  C   UNL     1      13.834  -5.369  17.297  1.00  0.00     0.030 C 
ATOM      5  C   UNL     1      15.781  -7.375  17.258  1.00  0.00     0.004 C 
ATOM      6  C   UNL     1      14.871  -3.335  15.719  1.00  0.00     0.013 C 
ATOM      7  C   UNL     1      12.909  -4.173  17.109  1.00  0.00    -0.063 C 
ATOM      8  C   UNL     1      13.325  -6.701  17.918  1.00  0.00    -0.003 C 
ATOM      9  C   UNL     1      14.313  -7.851  17.486  1.00  0.00    -0.011 C 
ATOM     10  C   UNL     1      13.443  -2.982  16.294  1.00  0.00    -0.006 C 
ATOM     11  C   UNL     1      11.639  -4.146  17.535  1.00  0.00    -0.027 C 
ATOM     12  C   UNL     1      13.073  -6.645  19.437  1.00  0.00     0.008 C 
ATOM     13  C   UNL     1      14.261  -9.111  18.366  1.00  0.00     0.008 C 
ATOM     14  C   UNL     1      13.631  -1.750  17.257  1.00  0.00     0.017 C 
ATOM     15  C   UNL     1      12.365  -2.659  15.132  1.00  0.00    -0.020 C 
ATOM     16  C   UNL     1      10.778  -2.952  17.250  1.00  0.00     0.032 C 
ATOM     17  C   UNL     1      10.888  -2.484  15.763  1.00  0.00     0.006 C 
ATOM     18  C   UNL     1      12.337  -3.809  14.068  1.00  0.00     0.008 C 
ATOM     19  C   UNL     1      12.830  -1.363  14.376  1.00  0.00     0.012 C 
ATOM     20  C   UNL     1       9.660  -3.056  14.900  1.00  0.00    -0.025 C 
ATOM     21  C   UNL     1      11.205  -3.784  13.014  1.00  0.00     0.005 C 
ATOM     22  C   UNL     1       9.989  -2.906  13.380  1.00  0.00     0.003 C 
ATOM     23  C   UNL     1       8.401  -2.208  15.255  1.00  0.00     0.010 C 
ATOM     24  C   UNL     1       9.384  -4.554  15.250  1.00  0.00     0.012 C 
ATOM     25  C   UNL     1       8.781  -2.978  12.341  1.00  0.00    -0.006 C 
ATOM     26  C   UNL     1       7.215  -2.425  14.315  1.00  0.00     0.033 C 
ATOM     27  C   UNL     1       7.570  -2.125  12.851  1.00  0.00     0.120 C 
ATOM     28  C   UNL     1       8.257  -4.412  12.034  1.00  0.00     0.014 C 
ATOM     29  C   UNL     1       9.244  -2.401  10.973  1.00  0.00     0.014 C 
ENDROOT
BRANCH   1  30
ATOM     30  C   UNL     1      15.156  -4.127  19.143  1.00  0.00     0.048 C 
ATOM     31  O   UNL     1      14.372  -4.461  20.074  1.00  0.00    -0.550 OA
ATOM     32  O   UNL     1      16.000  -3.043  19.348  1.00  0.00    -0.550 OA
ENDBRANCH   1  30
BRANCH  27  33
ATOM     33  O   UNL     1       7.750  -0.738  12.658  1.00  0.00    -0.393 OA
ATOM     34  H   UNL     1       7.274  -0.245  13.369  1.00  0.00     0.210 HD
ENDBRANCH  27  33
TORSDOF 2
ENDMDL
MODEL 2
REMARK VINA RESULT:    -8.799      1.472      2.196
REMARK INTER + INTRA:          -8.911
REMARK INTER:                  -9.571
REMARK INTRA:                   0.660
REMARK UNBOUND:                 0.660
REMARK SMILES C[C@@H]1[C@H](C)CC[C@@]2(C(=O)[O-])CC[C@]3(C)C(=CC[C@@H]4[C@@]5(C)CC[C@@H](O)C(C)(C)[C@@H]5CC[C@@]43C)[C@H]12
REMARK SMILES IDX 7 1 6 2 11 3 33 4 5 5 12 6 15 7 2 8 3 9 13 10 16 11 1 12
REMARK SMILES IDX 4 13 14 14 31 15 17 16 18 17 30 18 32 19 19 20 29 21 28 22
REMARK SMILES IDX 21 23 20 24 25 25 22 26 23 27 26 28 27 29 8 30 9 31 10 32
REMARK SMILES IDX 24 33
REMARK H PARENT 24 34
REMARK Flexibility Score: inf
ROOT
ATOM      1  C   UNL     1      15.752  -4.729  18.589  1.00  0.00     0.017 C 
ATOM      2  C   UNL     1      17.223  -5.252  18.729  1.00  0.00     0.014 C 
ATOM      3  C   UNL     1      15.702  -3.155  18.641  1.00  0.00     0.014 C 
ATOM      4  C   UNL     1      15.143  -5.195  17.218  1.00  0.00     0.030 C 
ATOM      5  C   UNL     1      17.914  -5.530  17.383  1.00  0.00     0.004 C 
ATOM      6  C   UNL     1      14.723  -2.484  17.637  1.00  0.00     0.013 C 
ATOM      7  C   UNL     1      13.690  -4.751  17.108  1.00  0.00    -0.063 C 
ATOM      8  C   UNL     1      15.598  -6.609  16.756  1.00  0.00    -0.003 C 
ATOM      9  C   UNL     1      17.152  -6.562  16.494  1.00  0.00    -0.011 C 
ATOM     10  C   UNL     1      13.376  -3.270  17.387  1.00  0.00    -0.006 C 
ATOM     11  C   UNL     1      12.699  -5.554  16.697  1.00  0.00    -0.027 C 
ATOM     12  C   UNL     1      15.165  -7.758  17.686  1.00  0.00     0.008 C 
ATOM     13  C   UNL     1      17.849  -7.932  16.501  1.00  0.00     0.008 C 
ATOM     14  C   UNL     1      12.537  -3.170  18.716  1.00  0.00     0.017 C 
ATOM     15  C   UNL     1      12.545  -2.697  16.123  1.00  0.00    -0.020 C 
ATOM     16  C   UNL     1      11.307  -5.015  16.555  1.00  0.00     0.032 C 
ATOM     17  C   UNL     1      11.277  -3.644  15.803  1.00  0.00     0.006 C 
ATOM     18  C   UNL     1      13.458  -2.614  14.853  1.00  0.00     0.008 C 
ATOM     19  C   UNL     1      12.102  -1.227  16.452  1.00  0.00     0.012 C 
ATOM     20  C   UNL     1      10.905  -3.859  14.256  1.00  0.00    -0.025 C 
ATOM     21  C   UNL     1      12.776  -2.310  13.497  1.00  0.00     0.005 C 
ATOM     22  C   UNL     1      11.252  -2.560  13.461  1.00  0.00     0.003 C 
ATOM     23  C   UNL     1       9.374  -4.136  14.174  1.00  0.00     0.010 C 
ATOM     24  C   UNL     1      11.679  -5.081  13.662  1.00  0.00     0.012 C 
ATOM     25  C   UNL     1      10.581  -2.354  12.030  1.00  0.00    -0.006 C 
ATOM     26  C   UNL     1       8.802  -4.074  12.757  1.00  0.00     0.033 C 
ATOM     27  C   UNL     1       9.057  -2.719  12.084  1.00  0.00     0.120 C 
ATOM     28  C   UNL     1      11.224  -3.174  10.872  1.00  0.00     0.014 C 
ATOM     29  C   UNL     1      10.712  -0.863  11.609  1.00  0.00     0.014 C 
ENDROOT
BRANCH   1  30
ATOM     30  C   UNL     1      14.986  -5.256  19.801  1.00  0.00     0.048 C 
ATOM     31  O   UNL     1      14.504  -6.421  19.842  1.00  0.00    -0.550 OA
ATOM     32  O   UNL     1      14.843  -4.443  20.918  1.00  0.00    -0.550 OA
ENDBRANCH   1  30
BRANCH  27  33
ATOM     33  O   UNL     1       8.269  -1.710  12.681  1.00  0.00    -0.393 OA
ATOM     34  H   UNL     1       7.930  -1.104  11.980  1.00  0.00     0.210 HD
ENDBRANCH  27  33
TORSDOF 2
ENDMDL
MODEL 3
REMARK VINA RESULT:    -8.780      1.551      7.701
REMARK INTER + INTRA:          -8.889
REMARK INTER:                  -9.551
REMARK INTRA:                   0.662
REMARK UNBOUND:                 0.660
REMARK SMILES C[C@@H]1[C@H](C)CC[C@@]2(C(=O)[O-])CC[C@]3(C)C(=CC[C@@H]4[C@@]5(C)CC[C@@H](O)C(C)(C)[C@@H]5CC[C@@]43C)[C@H]12
REMARK SMILES IDX 7 1 6 2 11 3 33 4 5 5 12 6 15 7 2 8 3 9 13 10 16 11 1 12
REMARK SMILES IDX 4 13 14 14 31 15 17 16 18 17 30 18 32 19 19 20 29 21 28 22
REMARK SMILES IDX 21 23 20 24 25 25 22 26 23 27 26 28 27 29 8 30 9 31 10 32
REMARK SMILES IDX 24 33
REMARK H PARENT 24 34
REMARK Flexibility Score: inf
ROOT
ATOM      1  C   UNL     1       9.511  -3.582  13.947  1.00  0.00     0.017 C 
ATOM      2  C   UNL     1       8.699  -3.938  12.654  1.00  0.00     0.014 C 
ATOM      3  C   UNL     1       8.875  -4.259  15.221  1.00  0.00     0.014 C 
ATOM      4  C   UNL     1      10.991  -4.090  13.809  1.00  0.00     0.030 C 
ATOM      5  C   UNL     1       9.265  -5.137  11.875  1.00  0.00     0.004 C 
ATOM      6  C   UNL     1       9.888  -4.850  16.240  1.00  0.00     0.013 C 
ATOM      7  C   UNL     1      11.804  -3.685  15.032  1.00  0.00    -0.063 C 
ATOM      8  C   UNL     1      11.578  -3.988  12.372  1.00  0.00    -0.003 C 
ATOM      9  C   UNL     1      10.750  -4.948  11.435  1.00  0.00    -0.011 C 
ATOM     10  C   UNL     1      11.222  -4.022  16.416  1.00  0.00    -0.006 C 
ATOM     11  C   UNL     1      13.026  -3.139  14.961  1.00  0.00    -0.027 C 
ATOM     12  C   UNL     1      11.699  -2.551  11.829  1.00  0.00     0.008 C 
ATOM     13  C   UNL     1      10.856  -4.634   9.934  1.00  0.00     0.008 C 
ATOM     14  C   UNL     1      10.833  -2.681  17.145  1.00  0.00     0.017 C 
ATOM     15  C   UNL     1      12.354  -4.831  17.241  1.00  0.00    -0.020 C 
ATOM     16  C   UNL     1      13.783  -2.831  16.218  1.00  0.00     0.032 C 
ATOM     17  C   UNL     1      13.749  -4.017  17.236  1.00  0.00     0.006 C 
ATOM     18  C   UNL     1      12.583  -6.250  16.619  1.00  0.00     0.008 C 
ATOM     19  C   UNL     1      11.825  -5.065  18.702  1.00  0.00     0.012 C 
ATOM     20  C   UNL     1      15.095  -4.887  17.132  1.00  0.00    -0.025 C 
ATOM     21  C   UNL     1      13.790  -7.072  17.131  1.00  0.00     0.005 C 
ATOM     22  C   UNL     1      14.878  -6.252  17.859  1.00  0.00     0.003 C 
ATOM     23  C   UNL     1      16.229  -4.085  17.839  1.00  0.00     0.010 C 
ATOM     24  C   UNL     1      15.490  -5.125  15.638  1.00  0.00     0.012 C 
ATOM     25  C   UNL     1      16.168  -7.090  18.281  1.00  0.00    -0.006 C 
ATOM     26  C   UNL     1      17.504  -4.892  18.089  1.00  0.00     0.033 C 
ATOM     27  C   UNL     1      17.242  -6.150  18.929  1.00  0.00     0.120 C 
ATOM     28  C   UNL     1      16.857  -7.873  17.125  1.00  0.00     0.014 C 
ATOM     29  C   UNL     1      15.764  -8.165  19.330  1.00  0.00     0.014 C 
ENDROOT
BRANCH   1  30
ATOM     30  C   UNL     1       9.405  -2.069  14.125  1.00  0.00     0.048 C 
ATOM     31  O   UNL     1      10.155  -1.262  13.510  1.00  0.00    -0.550 OA
ATOM     32  O   UNL     1       8.426  -1.553  14.964  1.00  0.00    -0.550 OA
ENDBRANCH   1  30
BRANCH  27  33
ATOM     33  O   UNL     1      16.940  -5.802  20.264  1.00  0.00    -0.393 OA
ATOM     34  H   UNL     1      16.888  -6.623  20.811  1.00  0.00     0.210 HD
ENDBRANCH  27  33
TORSDOF 2
ENDMDL
MODEL 4
REMARK VINA RESULT:    -8.773      1.874      8.061
REMARK INTER + INTRA:          -8.883
REMARK INTER:                  -9.544
REMARK INTRA:                   0.662
REMARK UNBOUND:                 0.660
REMARK SMILES C[C@@H]1[C@H](C)CC[C@@]2(C(=O)[O-])CC[C@]3(C)C(=CC[C@@H]4[C@@]5(C)CC[C@@H](O)C(C)(C)[C@@H]5CC[C@@]43C)[C@H]12
REMARK SMILES IDX 7 1 6 2 11 3 33 4 5 5 12 6 15 7 2 8 3 9 13 10 16 11 1 12
REMARK SMILES IDX 4 13 14 14 31 15 17 16 18 17 30 18 32 19 19 20 29 21 28 22
REMARK SMILES IDX 21 23 20 24 25 25 22 26 23 27 26 28 27 29 8 30 9 31 10 32
REMARK SMILES IDX 24 33
REMARK H PARENT 24 34
REMARK Flexibility Score: inf
ROOT
ATOM      1  C   UNL     1       7.858  -3.521  10.881  1.00  0.00     0.017 C 
ATOM      2  C   UNL     1       7.001  -4.341   9.856  1.00  0.00     0.014 C 
ATOM      3  C   UNL     1       7.023  -3.179  12.173  1.00  0.00     0.014 C 
ATOM      4  C   UNL     1       9.117  -4.353  11.317  1.00  0.00     0.030 C 
ATOM      5  C   UNL     1       7.192  -5.864   9.965  1.00  0.00     0.004 C 
ATOM      6  C   UNL     1       7.789  -3.308  13.519  1.00  0.00     0.013 C 
ATOM      7  C   UNL     1       9.991  -3.534  12.258  1.00  0.00    -0.063 C 
ATOM      8  C   UNL     1       9.735  -5.229  10.190  1.00  0.00    -0.003 C 
ATOM      9  C   UNL     1       8.672  -6.319   9.779  1.00  0.00    -0.011 C 
ATOM     10  C   UNL     1       9.308  -2.875  13.469  1.00  0.00    -0.006 C 
ATOM     11  C   UNL     1      11.322  -3.437  12.136  1.00  0.00    -0.027 C 
ATOM     12  C   UNL     1      10.295  -4.435   8.995  1.00  0.00     0.008 C 
ATOM     13  C   UNL     1       8.897  -6.950   8.395  1.00  0.00     0.008 C 
ATOM     14  C   UNL     1       9.330  -1.312  13.277  1.00  0.00     0.017 C 
ATOM     15  C   UNL     1      10.126  -3.314  14.795  1.00  0.00    -0.020 C 
ATOM     16  C   UNL     1      12.113  -2.662  13.147  1.00  0.00     0.032 C 
ATOM     17  C   UNL     1      11.701  -3.010  14.614  1.00  0.00     0.006 C 
ATOM     18  C   UNL     1       9.926  -4.840  15.086  1.00  0.00     0.008 C 
ATOM     19  C   UNL     1       9.523  -2.542  16.022  1.00  0.00     0.012 C 
ATOM     20  C   UNL     1      12.722  -4.076  15.248  1.00  0.00    -0.025 C 
ATOM     21  C   UNL     1      10.817  -5.485  16.175  1.00  0.00     0.005 C 
ATOM     22  C   UNL     1      12.088  -4.686  16.538  1.00  0.00     0.003 C 
ATOM     23  C   UNL     1      14.032  -3.314  15.611  1.00  0.00     0.010 C 
ATOM     24  C   UNL     1      13.055  -5.206  14.220  1.00  0.00     0.012 C 
ATOM     25  C   UNL     1      13.055  -5.415  17.576  1.00  0.00    -0.006 C 
ATOM     26  C   UNL     1      14.997  -4.113  16.488  1.00  0.00     0.033 C 
ATOM     27  C   UNL     1      14.351  -4.564  17.805  1.00  0.00     0.120 C 
ATOM     28  C   UNL     1      13.496  -6.853  17.173  1.00  0.00     0.014 C 
ATOM     29  C   UNL     1      12.324  -5.569  18.940  1.00  0.00     0.014 C 
ENDROOT
BRANCH   1  30
ATOM     30  C   UNL     1       8.212  -2.203  10.197  1.00  0.00     0.048 C 
ATOM     31  O   UNL     1       9.183  -2.096   9.398  1.00  0.00    -0.550 OA
ATOM     32  O   UNL     1       7.419  -1.086  10.426  1.00  0.00    -0.550 OA
ENDBRANCH   1  30
BRANCH  27  33
ATOM     33  O   UNL     1      14.143  -3.460  18.661  1.00  0.00    -0.393 OA
ATOM     34  H   UNL     1      14.060  -2.638  18.119  1.00  0.00     0.210 HD
ENDBRANCH  27  33
TORSDOF 2
ENDMDL
MODEL 5
REMARK VINA RESULT:    -8.637      1.962      3.356
REMARK INTER + INTRA:          -8.734
REMARK INTER:                  -9.396
REMARK INTRA:                   0.662
REMARK UNBOUND:                 0.660
REMARK SMILES C[C@@H]1[C@H](C)CC[C@@]2(C(=O)[O-])CC[C@]3(C)C(=CC[C@@H]4[C@@]5(C)CC[C@@H](O)C(C)(C)[C@@H]5CC[C@@]43C)[C@H]12
REMARK SMILES IDX 7 1 6 2 11 3 33 4 5 5 12 6 15 7 2 8 3 9 13 10 16 11 1 12
REMARK SMILES IDX 4 13 14 14 31 15 17 16 18 17 30 18 32 19 19 20 29 21 28 22
REMARK SMILES IDX 21 23 20 24 25 25 22 26 23 27 26 28 27 29 8 30 9 31 10 32
REMARK SMILES IDX 24 33
REMARK H PARENT 24 34
REMARK Flexibility Score: inf
ROOT
ATOM      1  C   UNL     1      14.794  -4.735  20.116  1.00  0.00     0.017 C 
ATOM      2  C   UNL     1      16.356  -4.750  20.236  1.00  0.00     0.014 C 
ATOM      3  C   UNL     1      14.177  -3.510  20.894  1.00  0.00     0.014 C 
ATOM      4  C   UNL     1      14.371  -4.621  18.607  1.00  0.00     0.030 C 
ATOM      5  C   UNL     1      17.077  -4.079  19.054  1.00  0.00     0.004 C 
ATOM      6  C   UNL     1      13.004  -2.785  20.178  1.00  0.00     0.013 C 
ATOM      7  C   UNL     1      12.854  -4.677  18.479  1.00  0.00    -0.063 C 
ATOM      8  C   UNL     1      15.299  -5.380  17.617  1.00  0.00    -0.003 C 
ATOM      9  C   UNL     1      16.725  -4.710  17.671  1.00  0.00    -0.011 C 
ATOM     10  C   UNL     1      12.029  -3.727  19.366  1.00  0.00    -0.006 C 
ATOM     11  C   UNL     1      12.214  -5.437  17.579  1.00  0.00    -0.027 C 
ATOM     12  C   UNL     1      15.328  -6.909  17.809  1.00  0.00     0.008 C 
ATOM     13  C   UNL     1      17.871  -5.591  17.148  1.00  0.00     0.008 C 
ATOM     14  C   UNL     1      11.235  -4.580  20.425  1.00  0.00     0.017 C 
ATOM     15  C   UNL     1      11.025  -2.903  18.403  1.00  0.00    -0.020 C 
ATOM     16  C   UNL     1      10.719  -5.381  17.478  1.00  0.00     0.032 C 
ATOM     17  C   UNL     1      10.181  -3.914  17.468  1.00  0.00     0.006 C 
ATOM     18  C   UNL     1      11.823  -1.907  17.494  1.00  0.00     0.008 C 
ATOM     19  C   UNL     1      10.085  -2.027  19.307  1.00  0.00     0.012 C 
ATOM     20  C   UNL     1       9.885  -3.433  15.965  1.00  0.00    -0.025 C 
ATOM     21  C   UNL     1      11.053  -1.206  16.349  1.00  0.00     0.005 C 
ATOM     22  C   UNL     1       9.723  -1.880  15.946  1.00  0.00     0.003 C 
ATOM     23  C   UNL     1       8.556  -4.109  15.508  1.00  0.00     0.010 C 
ATOM     24  C   UNL     1      11.038  -3.870  15.003  1.00  0.00     0.012 C 
ATOM     25  C   UNL     1       8.997  -1.216  14.691  1.00  0.00    -0.006 C 
ATOM     26  C   UNL     1       7.976  -3.536  14.214  1.00  0.00     0.033 C 
ATOM     27  C   UNL     1       7.711  -2.027  14.313  1.00  0.00     0.120 C 
ATOM     28  C   UNL     1       9.873  -1.089  13.410  1.00  0.00     0.014 C 
ATOM     29  C   UNL     1       8.571   0.236  15.051  1.00  0.00     0.014 C 
ENDROOT
BRANCH   1  30
ATOM     30  C   UNL     1      14.293  -6.010  20.790  1.00  0.00     0.048 C 
ATOM     31  O   UNL     1      14.226  -7.114  20.182  1.00  0.00    -0.550 OA
ATOM     32  O   UNL     1      13.931  -5.971  22.130  1.00  0.00    -0.550 OA
ENDBRANCH   1  30
BRANCH  27  33
ATOM     33  O   UNL     1       6.621  -1.769  15.173  1.00  0.00    -0.393 OA
ATOM     34  H   UNL     1       6.962  -1.520  16.066  1.00  0.00     0.210 HD
ENDBRANCH  27  33
TORSDOF 2
ENDMDL
MODEL 6
REMARK VINA RESULT:    -8.601      2.122      3.482
REMARK INTER + INTRA:          -8.695
REMARK INTER:                  -9.357
REMARK INTRA:                   0.662
REMARK UNBOUND:                 0.660
REMARK SMILES C[C@@H]1[C@H](C)CC[C@@]2(C(=O)[O-])CC[C@]3(C)C(=CC[C@@H]4[C@@]5(C)CC[C@@H](O)C(C)(C)[C@@H]5CC[C@@]43C)[C@H]12
REMARK SMILES IDX 7 1 6 2 11 3 33 4 5 5 12 6 15 7 2 8 3 9 13 10 16 11 1 12
REMARK SMILES IDX 4 13 14 14 31 15 17 16 18 17 30 18 32 19 19 20 29 21 28 22
REMARK SMILES IDX 21 23 20 24 25 25 22 26 23 27 26 28 27 29 8 30 9 31 10 32
REMARK SMILES IDX 24 33
REMARK H PARENT 24 34
REMARK Flexibility Score: inf
ROOT
ATOM      1  C   UNL     1      12.789  -3.570  16.239  1.00  0.00     0.017 C 
ATOM      2  C   UNL     1      13.463  -4.655  17.148  1.00  0.00     0.014 C 
ATOM      3  C   UNL     1      13.708  -3.208  15.011  1.00  0.00     0.014 C 
ATOM      4  C   UNL     1      11.419  -4.106  15.686  1.00  0.00     0.030 C 
ATOM      5  C   UNL     1      13.019  -6.094  16.832  1.00  0.00     0.004 C 
ATOM      6  C   UNL     1      12.970  -3.023  13.655  1.00  0.00     0.013 C 
ATOM      7  C   UNL     1      10.726  -3.030  14.861  1.00  0.00    -0.063 C 
ATOM      8  C   UNL     1      10.629  -5.004  16.680  1.00  0.00    -0.003 C 
ATOM      9  C   UNL     1      11.477  -6.307  16.945  1.00  0.00    -0.011 C 
ATOM     10  C   UNL     1      11.547  -2.343  13.755  1.00  0.00    -0.006 C 
ATOM     11  C   UNL     1       9.428  -2.722  14.987  1.00  0.00    -0.027 C 
ATOM     12  C   UNL     1      10.177  -4.291  17.969  1.00  0.00     0.008 C 
ATOM     13  C   UNL     1      11.108  -7.067  18.228  1.00  0.00     0.008 C 
ATOM     14  C   UNL     1      11.787  -0.840  14.158  1.00  0.00     0.017 C 
ATOM     15  C   UNL     1      10.706  -2.454  12.377  1.00  0.00    -0.020 C 
ATOM     16  C   UNL     1       8.811  -1.694  14.087  1.00  0.00     0.032 C 
ATOM     17  C   UNL     1       9.200  -1.909  12.588  1.00  0.00     0.006 C 
ATOM     18  C   UNL     1      10.650  -3.939  11.881  1.00  0.00     0.008 C 
ATOM     19  C   UNL     1      11.467  -1.642  11.269  1.00  0.00     0.012 C 
ATOM     20  C   UNL     1       8.032  -2.688  11.809  1.00  0.00    -0.025 C 
ATOM     21  C   UNL     1       9.695  -4.270  10.710  1.00  0.00     0.005 C 
ATOM     22  C   UNL     1       8.590  -3.222  10.451  1.00  0.00     0.003 C 
ATOM     23  C   UNL     1       6.882  -1.670  11.545  1.00  0.00     0.010 C 
ATOM     24  C   UNL     1       7.481  -3.871  12.671  1.00  0.00     0.012 C 
ATOM     25  C   UNL     1       7.544  -3.627   9.318  1.00  0.00    -0.006 C 
ATOM     26  C   UNL     1       5.821  -2.165  10.562  1.00  0.00     0.033 C 
ATOM     27  C   UNL     1       6.419  -2.542   9.199  1.00  0.00     0.120 C 
ATOM     28  C   UNL     1       6.852  -5.008   9.519  1.00  0.00     0.014 C 
ATOM     29  C   UNL     1       8.277  -3.723   7.950  1.00  0.00     0.014 C 
ENDROOT
BRANCH   1  30
ATOM     30  C   UNL     1      12.645  -2.314  17.095  1.00  0.00     0.048 C 
ATOM     31  O   UNL     1      11.684  -2.148  17.895  1.00  0.00    -0.550 OA
ATOM     32  O   UNL     1      13.622  -1.330  17.023  1.00  0.00    -0.550 OA
ENDBRANCH   1  30
BRANCH  27  33
ATOM     33  O   UNL     1       6.838  -1.386   8.504  1.00  0.00    -0.393 OA
ATOM     34  H   UNL     1       7.137  -0.705   9.153  1.00  0.00     0.210 HD
ENDBRANCH  27  33
TORSDOF 2
ENDMDL
MODEL 7
REMARK VINA RESULT:    -8.556      2.006      3.090
REMARK INTER + INTRA:          -8.646
REMARK INTER:                  -9.315
REMARK INTRA:                   0.669
REMARK UNBOUND:                 0.660
REMARK SMILES C[C@@H]1[C@H](C)CC[C@@]2(C(=O)[O-])CC[C@]3(C)C(=CC[C@@H]4[C@@]5(C)CC[C@@H](O)C(C)(C)[C@@H]5CC[C@@]43C)[C@H]12
REMARK SMILES IDX 7 1 6 2 11 3 33 4 5 5 12 6 15 7 2 8 3 9 13 10 16 11 1 12
REMARK SMILES IDX 4 13 14 14 31 15 17 16 18 17 30 18 32 19 19 20 29 21 28 22
REMARK SMILES IDX 21 23 20 24 25 25 22 26 23 27 26 28 27 29 8 30 9 31 10 32
REMARK SMILES IDX 24 33
REMARK H PARENT 24 34
REMARK Flexibility Score: inf
ROOT
ATOM      1  C   UNL     1      12.774  -3.890  17.809  1.00  0.00     0.017 C 
ATOM      2  C   UNL     1      13.856  -4.621  18.676  1.00  0.00     0.014 C 
ATOM      3  C   UNL     1      13.273  -2.463  17.364  1.00  0.00     0.014 C 
ATOM      4  C   UNL     1      12.464  -4.727  16.517  1.00  0.00     0.030 C 
ATOM      5  C   UNL     1      14.762  -5.568  17.871  1.00  0.00     0.004 C 
ATOM      6  C   UNL     1      12.932  -2.061  15.902  1.00  0.00     0.013 C 
ATOM      7  C   UNL     1      11.362  -4.058  15.706  1.00  0.00    -0.063 C 
ATOM      8  C   UNL     1      12.501  -6.269  16.721  1.00  0.00    -0.003 C 
ATOM      9  C   UNL     1      13.976  -6.676  17.104  1.00  0.00    -0.011 C 
ATOM     10  C   UNL     1      11.527  -2.563  15.380  1.00  0.00    -0.006 C 
ATOM     11  C   UNL     1      10.316  -4.719  15.192  1.00  0.00    -0.027 C 
ATOM     12  C   UNL     1      11.439  -6.813  17.696  1.00  0.00     0.008 C 
ATOM     13  C   UNL     1      14.108  -8.041  17.798  1.00  0.00     0.008 C 
ATOM     14  C   UNL     1      10.432  -1.747  16.164  1.00  0.00     0.017 C 
ATOM     15  C   UNL     1      11.358  -2.387  13.780  1.00  0.00    -0.020 C 
ATOM     16  C   UNL     1       9.311  -3.992  14.349  1.00  0.00     0.032 C 
ATOM     17  C   UNL     1       9.987  -3.077  13.277  1.00  0.00     0.006 C 
ATOM     18  C   UNL     1      12.567  -3.032  13.022  1.00  0.00     0.008 C 
ATOM     19  C   UNL     1      11.390  -0.852  13.449  1.00  0.00     0.012 C 
ATOM     20  C   UNL     1      10.029  -3.816  11.852  1.00  0.00    -0.025 C 
ATOM     21  C   UNL     1      12.461  -3.166  11.484  1.00  0.00     0.005 C 
ATOM     22  C   UNL     1      11.029  -3.066  10.916  1.00  0.00     0.003 C 
ATOM     23  C   UNL     1       8.593  -3.757  11.249  1.00  0.00     0.010 C 
ATOM     24  C   UNL     1      10.456  -5.312  12.013  1.00  0.00     0.012 C 
ATOM     25  C   UNL     1      10.919  -3.319   9.345  1.00  0.00    -0.006 C 
ATOM     26  C   UNL     1       8.517  -4.154   9.774  1.00  0.00     0.033 C 
ATOM     27  C   UNL     1       9.420  -3.283   8.890  1.00  0.00     0.120 C 
ATOM     28  C   UNL     1      11.536  -4.658   8.846  1.00  0.00     0.014 C 
ATOM     29  C   UNL     1      11.687  -2.197   8.588  1.00  0.00     0.014 C 
ENDROOT
BRANCH   1  30
ATOM     30  C   UNL     1      11.555  -3.694  18.709  1.00  0.00     0.048 C 
ATOM     31  O   UNL     1      10.634  -4.551  18.794  1.00  0.00    -0.550 OA
ATOM     32  O   UNL     1      11.469  -2.551  19.493  1.00  0.00    -0.550 OA
ENDBRANCH   1  30
BRANCH  27  33
ATOM     33  O   UNL     1       8.903  -1.973   8.789  1.00  0.00    -0.393 OA
ATOM     34  H   UNL     1       8.168  -1.961   8.130  1.00  0.00     0.210 HD
ENDBRANCH  27  33
TORSDOF 2
ENDMDL
MODEL 8
REMARK VINA RESULT:    -8.457      1.680      7.731
REMARK INTER + INTRA:          -8.538
REMARK INTER:                  -9.201
REMARK INTRA:                   0.662
REMARK UNBOUND:                 0.660
REMARK SMILES C[C@@H]1[C@H](C)CC[C@@]2(C(=O)[O-])CC[C@]3(C)C(=CC[C@@H]4[C@@]5(C)CC[C@@H](O)C(C)(C)[C@@H]5CC[C@@]43C)[C@H]12
REMARK SMILES IDX 7 1 6 2 11 3 33 4 5 5 12 6 15 7 2 8 3 9 13 10 16 11 1 12
REMARK SMILES IDX 4 13 14 14 31 15 17 16 18 17 30 18 32 19 19 20 29 21 28 22
REMARK SMILES IDX 21 23 20 24 25 25 22 26 23 27 26 28 27 29 8 30 9 31 10 32
REMARK SMILES IDX 24 33
REMARK H PARENT 24 34
REMARK Flexibility Score: inf
ROOT
ATOM      1  C   UNL     1      10.151  -2.938  12.336  1.00  0.00     0.017 C 
ATOM      2  C   UNL     1      10.071  -3.043  10.774  1.00  0.00     0.014 C 
ATOM      3  C   UNL     1       9.499  -4.197  13.024  1.00  0.00     0.014 C 
ATOM      4  C   UNL     1      11.651  -2.850  12.793  1.00  0.00     0.030 C 
ATOM      5  C   UNL     1      11.339  -3.625  10.125  1.00  0.00     0.004 C 
ATOM      6  C   UNL     1      10.261  -4.754  14.258  1.00  0.00     0.013 C 
ATOM      7  C   UNL     1      11.733  -2.675  14.304  1.00  0.00    -0.063 C 
ATOM      8  C   UNL     1      12.575  -2.049  11.831  1.00  0.00    -0.003 C 
ATOM      9  C   UNL     1      12.632  -2.817  10.456  1.00  0.00    -0.011 C 
ATOM     10  C   UNL     1      10.937  -3.661  15.178  1.00  0.00    -0.006 C 
ATOM     11  C   UNL     1      12.525  -1.776  14.904  1.00  0.00    -0.027 C 
ATOM     12  C   UNL     1      12.213  -0.558  11.689  1.00  0.00     0.008 C 
ATOM     13  C   UNL     1      13.084  -1.964   9.259  1.00  0.00     0.008 C 
ATOM     14  C   UNL     1       9.769  -2.880  15.891  1.00  0.00     0.017 C 
ATOM     15  C   UNL     1      11.960  -4.299  16.257  1.00  0.00    -0.020 C 
ATOM     16  C   UNL     1      12.593  -1.716  16.401  1.00  0.00     0.032 C 
ATOM     17  C   UNL     1      12.753  -3.132  17.043  1.00  0.00     0.006 C 
ATOM     18  C   UNL     1      12.995  -5.238  15.548  1.00  0.00     0.008 C 
ATOM     19  C   UNL     1      11.136  -5.204  17.240  1.00  0.00     0.012 C 
ATOM     20  C   UNL     1      14.293  -3.417  17.400  1.00  0.00    -0.025 C 
ATOM     21  C   UNL     1      14.191  -5.750  16.387  1.00  0.00     0.005 C 
ATOM     22  C   UNL     1      14.481  -4.944  17.672  1.00  0.00     0.003 C 
ATOM     23  C   UNL     1      14.636  -2.605  18.684  1.00  0.00     0.010 C 
ATOM     24  C   UNL     1      15.229  -2.955  16.235  1.00  0.00     0.012 C 
ATOM     25  C   UNL     1      15.783  -5.409  18.466  1.00  0.00    -0.006 C 
ATOM     26  C   UNL     1      15.970  -2.985  19.328  1.00  0.00     0.033 C 
ATOM     27  C   UNL     1      16.035  -4.474  19.698  1.00  0.00     0.120 C 
ATOM     28  C   UNL     1      17.093  -5.450  17.625  1.00  0.00     0.014 C 
ATOM     29  C   UNL     1      15.577  -6.860  18.988  1.00  0.00     0.014 C 
ENDROOT
BRANCH   1  30
ATOM     30  C   UNL     1       9.326  -1.715  12.732  1.00  0.00     0.048 C 
ATOM     31  O   UNL     1       9.783  -0.541  12.667  1.00  0.00    -0.550 OA
ATOM     32  O   UNL     1       8.011  -1.890  13.144  1.00  0.00    -0.550 OA
ENDBRANCH   1  30
BRANCH  27  33
ATOM     33  O   UNL     1      15.180  -4.752  20.788  1.00  0.00    -0.393 OA
ATOM     34  H   UNL     1      15.502  -4.268  21.586  1.00  0.00     0.210 HD
ENDBRANCH  27  33
TORSDOF 2
ENDMDL
