MODEL 1
REMARK VINA RESULT:    -3.968      0.000      0.000
REMARK INTER + INTRA:          -4.297
REMARK INTER:                  -4.200
REMARK INTRA:                  -0.097
REMARK UNBOUND:                -0.097
REMARK SMILES C=C(C)[C@@H]1CC=C(C)C(=O)C1
REMARK SMILES IDX 8 1 7 2 6 3 5 4 4 5 11 6 9 7 10 8 2 9 1 10 3 11
REMARK H PARENT
REMARK Flexibility Score: inf
ROOT
ATOM      1  C   UNL     1      25.620  37.388  20.234  1.00  0.00     0.048 C 
ATOM      2  C   UNL     1      26.204  38.773  20.168  1.00  0.00    -0.012 C 
ATOM      3  C   UNL     1      25.628  39.775  20.853  1.00  0.00    -0.019 C 
ATOM      4  C   UNL     1      26.182  41.175  20.836  1.00  0.00     0.036 C 
ATOM      5  C   UNL     1      26.839  41.495  19.480  1.00  0.00     0.025 C 
ATOM      6  C   UNL     1      27.909  40.441  19.143  1.00  0.00     0.089 C 
ATOM      7  C   UNL     1      27.338  39.054  19.252  1.00  0.00     0.158 C 
ATOM      8  O   UNL     1      27.857  38.122  18.581  1.00  0.00    -0.295 OA
ENDROOT
BRANCH   5   9
ATOM      9  C   UNL     1      27.418  42.902  19.461  1.00  0.00    -0.077 C 
ATOM     10  C   UNL     1      28.593  43.156  20.059  1.00  0.00     0.008 C 
ATOM     11  C   UNL     1      26.697  44.041  18.782  1.00  0.00     0.039 C 
ENDBRANCH   5   9
TORSDOF 1
ENDMDL
MODEL 2
REMARK VINA RESULT:    -3.903      1.905      4.810
REMARK INTER + INTRA:          -4.228
REMARK INTER:                  -4.137
REMARK INTRA:                  -0.091
REMARK UNBOUND:                -0.097
REMARK SMILES C=C(C)[C@@H]1CC=C(C)C(=O)C1
REMARK SMILES IDX 8 1 7 2 6 3 5 4 4 5 11 6 9 7 10 8 2 9 1 10 3 11
REMARK H PARENT
REMARK Flexibility Score: inf
ROOT
ATOM      1  C   UNL     1      27.208  43.356  18.925  1.00  0.00     0.048 C 
ATOM      2  C   UNL     1      27.027  41.949  19.424  1.00  0.00    -0.012 C 
ATOM      3  C   UNL     1      27.378  40.912  18.644  1.00  0.00    -0.019 C 
ATOM      4  C   UNL     1      27.234  39.484  19.103  1.00  0.00     0.036 C 
ATOM      5  C   UNL     1      26.023  39.322  20.040  1.00  0.00     0.025 C 
ATOM      6  C   UNL     1      26.124  40.306  21.220  1.00  0.00     0.089 C 
ATOM      7  C   UNL     1      26.349  41.707  20.723  1.00  0.00     0.158 C 
ATOM      8  O   UNL     1      25.987  42.678  21.440  1.00  0.00    -0.295 OA
ENDROOT
BRANCH   5   9
ATOM      9  C   UNL     1      25.882  37.886  20.523  1.00  0.00    -0.077 C 
ATOM     10  C   UNL     1      24.676  37.405  20.867  1.00  0.00     0.008 C 
ATOM     11  C   UNL     1      27.077  36.971  20.632  1.00  0.00     0.039 C 
ENDBRANCH   5   9
TORSDOF 1
ENDMDL
MODEL 3
REMARK VINA RESULT:    -3.734      2.780      4.285
REMARK INTER + INTRA:          -4.049
REMARK INTER:                  -3.951
REMARK INTRA:                  -0.098
REMARK UNBOUND:                -0.097
REMARK SMILES C=C(C)[C@@H]1CC=C(C)C(=O)C1
REMARK SMILES IDX 8 1 7 2 6 3 5 4 4 5 11 6 9 7 10 8 2 9 1 10 3 11
REMARK H PARENT
REMARK Flexibility Score: inf
ROOT
ATOM      1  C   UNL     1      28.354  34.419  22.023  1.00  0.00     0.048 C 
ATOM      2  C   UNL     1      28.166  35.530  21.025  1.00  0.00    -0.012 C 
ATOM      3  C   UNL     1      29.033  35.670  20.008  1.00  0.00    -0.019 C 
ATOM      4  C   UNL     1      28.880  36.752  18.972  1.00  0.00     0.036 C 
ATOM      5  C   UNL     1      28.253  38.019  19.583  1.00  0.00     0.025 C 
ATOM      6  C   UNL     1      26.919  37.678  20.270  1.00  0.00     0.089 C 
ATOM      7  C   UNL     1      27.098  36.539  21.236  1.00  0.00     0.158 C 
ATOM      8  O   UNL     1      26.305  36.430  22.210  1.00  0.00    -0.295 OA
ENDROOT
BRANCH   5   9
ATOM      9  C   UNL     1      28.078  39.112  18.538  1.00  0.00    -0.077 C 
ATOM     10  C   UNL     1      28.443  38.892  17.264  1.00  0.00     0.008 C 
ATOM     11  C   UNL     1      27.501  40.460  18.897  1.00  0.00     0.039 C 
ENDBRANCH   5   9
TORSDOF 1
ENDMDL
MODEL 4
REMARK VINA RESULT:    -3.715      1.774      2.582
REMARK INTER + INTRA:          -4.028
REMARK INTER:                  -3.936
REMARK INTRA:                  -0.092
REMARK UNBOUND:                -0.097
REMARK SMILES C=C(C)[C@@H]1CC=C(C)C(=O)C1
REMARK SMILES IDX 8 1 7 2 6 3 5 4 4 5 11 6 9 7 10 8 2 9 1 10 3 11
REMARK H PARENT
REMARK Flexibility Score: inf
ROOT
ATOM      1  C   UNL     1      27.933  35.948  20.541  1.00  0.00     0.048 C 
ATOM      2  C   UNL     1      27.560  37.386  20.303  1.00  0.00    -0.012 C 
ATOM      3  C   UNL     1      28.472  38.241  19.809  1.00  0.00    -0.019 C 
ATOM      4  C   UNL     1      28.146  39.686  19.536  1.00  0.00     0.036 C 
ATOM      5  C   UNL     1      27.107  40.219  20.541  1.00  0.00     0.025 C 
ATOM      6  C   UNL     1      25.852  39.328  20.536  1.00  0.00     0.089 C 
ATOM      7  C   UNL     1      26.228  37.884  20.729  1.00  0.00     0.158 C 
ATOM      8  O   UNL     1      25.384  37.091  21.226  1.00  0.00    -0.295 OA
ENDROOT
BRANCH   5   9
ATOM      9  C   UNL     1      26.758  41.674  20.260  1.00  0.00    -0.077 C 
ATOM     10  C   UNL     1      26.142  42.413  21.197  1.00  0.00     0.008 C 
ATOM     11  C   UNL     1      27.086  42.320  18.936  1.00  0.00     0.039 C 
ENDBRANCH   5   9
TORSDOF 1
ENDMDL
MODEL 5
REMARK VINA RESULT:    -3.694      2.176      4.278
REMARK INTER + INTRA:          -4.007
REMARK INTER:                  -3.909
REMARK INTRA:                  -0.098
REMARK UNBOUND:                -0.097
REMARK SMILES C=C(C)[C@@H]1CC=C(C)C(=O)C1
REMARK SMILES IDX 8 1 7 2 6 3 5 4 4 5 11 6 9 7 10 8 2 9 1 10 3 11
REMARK H PARENT
REMARK Flexibility Score: inf
ROOT
ATOM      1  C   UNL     1      26.874  44.125  21.899  1.00  0.00     0.048 C 
ATOM      2  C   UNL     1      26.772  42.888  21.048  1.00  0.00    -0.012 C 
ATOM      3  C   UNL     1      26.313  41.744  21.584  1.00  0.00    -0.019 C 
ATOM      4  C   UNL     1      26.174  40.483  20.772  1.00  0.00     0.036 C 
ATOM      5  C   UNL     1      27.261  40.401  19.684  1.00  0.00     0.025 C 
ATOM      6  C   UNL     1      27.234  41.665  18.805  1.00  0.00     0.089 C 
ATOM      7  C   UNL     1      27.292  42.903  19.658  1.00  0.00     0.158 C 
ATOM      8  O   UNL     1      27.756  43.966  19.165  1.00  0.00    -0.295 OA
ENDROOT
BRANCH   5   9
ATOM      9  C   UNL     1      27.116  39.138  18.847  1.00  0.00    -0.077 C 
ATOM     10  C   UNL     1      26.186  38.223  19.163  1.00  0.00     0.008 C 
ATOM     11  C   UNL     1      28.004  38.877  17.655  1.00  0.00     0.039 C 
ENDBRANCH   5   9
TORSDOF 1
ENDMDL
MODEL 6
REMARK VINA RESULT:    -3.468      2.751      5.651
REMARK INTER + INTRA:          -3.768
REMARK INTER:                  -3.670
REMARK INTRA:                  -0.098
REMARK UNBOUND:                -0.097
REMARK SMILES C=C(C)[C@@H]1CC=C(C)C(=O)C1
REMARK SMILES IDX 8 1 7 2 6 3 5 4 4 5 11 6 9 7 10 8 2 9 1 10 3 11
REMARK H PARENT
REMARK Flexibility Score: inf
ROOT
ATOM      1  C   UNL     1      26.553  40.168  19.820  1.00  0.00     0.048 C 
ATOM      2  C   UNL     1      26.915  38.720  20.013  1.00  0.00    -0.012 C 
ATOM      3  C   UNL     1      26.310  38.002  20.975  1.00  0.00    -0.019 C 
ATOM      4  C   UNL     1      26.621  36.546  21.198  1.00  0.00     0.036 C 
ATOM      5  C   UNL     1      28.094  36.237  20.867  1.00  0.00     0.025 C 
ATOM      6  C   UNL     1      28.425  36.690  19.433  1.00  0.00     0.089 C 
ATOM      7  C   UNL     1      28.023  38.124  19.226  1.00  0.00     0.158 C 
ATOM      8  O   UNL     1      28.617  38.807  18.348  1.00  0.00    -0.295 OA
ENDROOT
BRANCH   5   9
ATOM      9  C   UNL     1      28.412  34.763  21.073  1.00  0.00    -0.077 C 
ATOM     10  C   UNL     1      28.635  33.966  20.014  1.00  0.00     0.008 C 
ATOM     11  C   UNL     1      28.482  34.158  22.454  1.00  0.00     0.039 C 
ENDBRANCH   5   9
TORSDOF 1
ENDMDL
MODEL 7
REMARK VINA RESULT:    -3.457      1.667      2.612
REMARK INTER + INTRA:          -3.755
REMARK INTER:                  -3.659
REMARK INTRA:                  -0.096
REMARK UNBOUND:                -0.097
REMARK SMILES C=C(C)[C@@H]1CC=C(C)C(=O)C1
REMARK SMILES IDX 8 1 7 2 6 3 5 4 4 5 11 6 9 7 10 8 2 9 1 10 3 11
REMARK H PARENT
REMARK Flexibility Score: inf
ROOT
ATOM      1  C   UNL     1      28.564  37.360  19.249  1.00  0.00     0.048 C 
ATOM      2  C   UNL     1      28.070  38.722  19.656  1.00  0.00    -0.012 C 
ATOM      3  C   UNL     1      28.935  39.747  19.749  1.00  0.00    -0.019 C 
ATOM      4  C   UNL     1      28.490  41.134  20.133  1.00  0.00     0.036 C 
ATOM      5  C   UNL     1      27.302  41.083  21.112  1.00  0.00     0.025 C 
ATOM      6  C   UNL     1      26.154  40.248  20.518  1.00  0.00     0.089 C 
ATOM      7  C   UNL     1      26.656  38.902  20.071  1.00  0.00     0.158 C 
ATOM      8  O   UNL     1      25.852  37.933  20.019  1.00  0.00    -0.295 OA
ENDROOT
BRANCH   5   9
ATOM      9  C   UNL     1      26.835  42.481  21.492  1.00  0.00    -0.077 C 
ATOM     10  C   UNL     1      26.300  43.289  20.561  1.00  0.00     0.008 C 
ATOM     11  C   UNL     1      26.959  42.996  22.905  1.00  0.00     0.039 C 
ENDBRANCH   5   9
TORSDOF 1
ENDMDL
MODEL 8
REMARK VINA RESULT:    -2.921      2.298      4.491
REMARK INTER + INTRA:          -3.189
REMARK INTER:                  -3.090
REMARK INTRA:                  -0.099
REMARK UNBOUND:                -0.097
REMARK SMILES C=C(C)[C@@H]1CC=C(C)C(=O)C1
REMARK SMILES IDX 8 1 7 2 6 3 5 4 4 5 11 6 9 7 10 8 2 9 1 10 3 11
REMARK H PARENT
REMARK Flexibility Score: inf
ROOT
ATOM      1  C   UNL     1      28.260  43.850  21.868  1.00  0.00     0.048 C 
ATOM      2  C   UNL     1      28.073  42.561  21.114  1.00  0.00    -0.012 C 
ATOM      3  C   UNL     1      29.125  41.981  20.510  1.00  0.00    -0.019 C 
ATOM      4  C   UNL     1      28.997  40.682  19.758  1.00  0.00     0.036 C 
ATOM      5  C   UNL     1      27.611  40.558  19.099  1.00  0.00     0.025 C 
ATOM      6  C   UNL     1      26.500  40.734  20.150  1.00  0.00     0.089 C 
ATOM      7  C   UNL     1      26.711  42.000  20.934  1.00  0.00     0.158 C 
ATOM      8  O   UNL     1      25.718  42.563  21.470  1.00  0.00    -0.295 OA
ENDROOT
BRANCH   5   9
ATOM      9  C   UNL     1      27.467  39.240  18.352  1.00  0.00    -0.077 C 
ATOM     10  C   UNL     1      26.490  38.379  18.684  1.00  0.00     0.008 C 
ATOM     11  C   UNL     1      28.406  38.863  17.232  1.00  0.00     0.039 C 
ENDBRANCH   5   9
TORSDOF 1
ENDMDL
