MODEL 1
REMARK VINA RESULT:    -4.804      0.000      0.000
REMARK INTER + INTRA:          -6.167
REMARK INTER:                  -5.927
REMARK INTRA:                  -0.240
REMARK UNBOUND:                -0.240
REMARK SMILES O=c1c(O)c(-c2cc(O)c(O)c(O)c2)oc2cc(O)cc(O)c12
REMARK SMILES IDX 5 1 3 2 2 3 1 4 23 5 21 6 20 7 18 8 17 9 16 10 15 11 6 12
REMARK SMILES IDX 7 13 8 14 14 15 10 16 12 17 9 18 11 20 13 22 4 24 22 26
REMARK SMILES IDX 19 28
REMARK H PARENT 9 19 11 21 13 23 4 25 22 27 19 29
REMARK Flexibility Score: inf
ROOT
ATOM      1  C   UNL     1      20.902  -2.424  19.611  1.00  0.00     0.180 A 
ATOM      2  C   UNL     1      19.953  -2.969  20.492  1.00  0.00     0.208 A 
ATOM      3  C   UNL     1      18.784  -2.242  20.768  1.00  0.00     0.238 A 
ATOM      4  O   UNL     1      17.963  -2.711  21.600  1.00  0.00    -0.285 OA
ATOM      5  C   UNL     1      18.570  -0.988  20.148  1.00  0.00     0.111 A 
ATOM      6  C   UNL     1      17.404  -0.184  20.324  1.00  0.00     0.134 A 
ATOM      7  C   UNL     1      17.358   1.098  19.764  1.00  0.00     0.093 A 
ATOM      8  C   UNL     1      18.409   1.580  18.980  1.00  0.00     0.123 A 
ATOM      9  C   UNL     1      19.526   0.780  18.754  1.00  0.00     0.094 A 
ATOM     10  C   UNL     1      19.617  -0.490  19.328  1.00  0.00     0.146 A 
ATOM     11  O   UNL     1      20.704  -1.216  19.096  1.00  0.00    -0.452 OA
ENDROOT
BRANCH   1  12
ATOM     12  C   UNL     1      22.147  -3.141  19.251  1.00  0.00     0.029 A 
ATOM     13  C   UNL     1      23.388  -2.593  19.609  1.00  0.00     0.062 A 
ATOM     14  C   UNL     1      24.580  -3.239  19.264  1.00  0.00     0.162 A 
ATOM     15  C   UNL     1      22.114  -4.333  18.507  1.00  0.00     0.062 A 
ATOM     16  C   UNL     1      24.541  -4.441  18.538  1.00  0.00     0.200 A 
ATOM     17  C   UNL     1      23.304  -4.985  18.156  1.00  0.00     0.162 A 
BRANCH  14  18
ATOM     18  O   UNL     1      25.792  -2.668  19.651  1.00  0.00    -0.504 OA
ATOM     19  H   UNL     1      26.451  -3.155  20.247  1.00  0.00     0.293 HD
ENDBRANCH  14  18
BRANCH  16  20
ATOM     20  O   UNL     1      25.735  -5.081  18.201  1.00  0.00    -0.502 OA
ATOM     21  H   UNL     1      25.802  -5.722  17.421  1.00  0.00     0.293 HD
ENDBRANCH  16  20
BRANCH  17  22
ATOM     22  O   UNL     1      23.260  -6.170  17.423  1.00  0.00    -0.504 OA
ATOM     23  H   UNL     1      23.344  -6.175  16.413  1.00  0.00     0.293 HD
ENDBRANCH  17  22
ENDBRANCH   1  12
BRANCH   2  24
ATOM     24  O   UNL     1      20.193  -4.199  21.111  1.00  0.00    -0.502 OA
ATOM     25  H   UNL     1      20.721  -4.939  20.664  1.00  0.00     0.293 HD
ENDBRANCH   2  24
BRANCH   6  26
ATOM     26  O   UNL     1      16.262  -0.606  21.012  1.00  0.00    -0.507 OA
ATOM     27  H   UNL     1      15.666  -1.367  20.723  1.00  0.00     0.293 HD
ENDBRANCH   6  26
BRANCH   8  28
ATOM     28  O   UNL     1      18.348   2.851  18.413  1.00  0.00    -0.508 OA
ATOM     29  H   UNL     1      18.061   3.659  18.952  1.00  0.00     0.293 HD
ENDBRANCH   8  28
TORSDOF 7
ENDMDL
MODEL 2
REMARK VINA RESULT:    -4.747      0.645      1.809
REMARK INTER + INTRA:          -6.096
REMARK INTER:                  -5.740
REMARK INTRA:                  -0.356
REMARK UNBOUND:                -0.240
REMARK SMILES O=c1c(O)c(-c2cc(O)c(O)c(O)c2)oc2cc(O)cc(O)c12
REMARK SMILES IDX 5 1 3 2 2 3 1 4 23 5 21 6 20 7 18 8 17 9 16 10 15 11 6 12
REMARK SMILES IDX 7 13 8 14 14 15 10 16 12 17 9 18 11 20 13 22 4 24 22 26
REMARK SMILES IDX 19 28
REMARK H PARENT 9 19 11 21 13 23 4 25 22 27 19 29
REMARK Flexibility Score: inf
ROOT
ATOM      1  C   UNL     1      20.929  -2.721  19.935  1.00  0.00     0.180 A 
ATOM      2  C   UNL     1      19.920  -3.200  20.789  1.00  0.00     0.208 A 
ATOM      3  C   UNL     1      18.765  -2.425  20.979  1.00  0.00     0.238 A 
ATOM      4  O   UNL     1      17.890  -2.834  21.788  1.00  0.00    -0.285 OA
ATOM      5  C   UNL     1      18.623  -1.192  20.300  1.00  0.00     0.111 A 
ATOM      6  C   UNL     1      17.477  -0.345  20.387  1.00  0.00     0.134 A 
ATOM      7  C   UNL     1      17.500   0.914  19.775  1.00  0.00     0.093 A 
ATOM      8  C   UNL     1      18.604   1.330  19.025  1.00  0.00     0.123 A 
ATOM      9  C   UNL     1      19.702   0.487  18.886  1.00  0.00     0.094 A 
ATOM     10  C   UNL     1      19.723  -0.761  19.513  1.00  0.00     0.146 A 
ATOM     11  O   UNL     1      20.796  -1.529  19.364  1.00  0.00    -0.452 OA
ENDROOT
BRANCH   1  12
ATOM     12  C   UNL     1      22.164  -3.491  19.664  1.00  0.00     0.029 A 
ATOM     13  C   UNL     1      22.167  -4.458  18.648  1.00  0.00     0.062 A 
ATOM     14  C   UNL     1      23.313  -5.214  18.384  1.00  0.00     0.162 A 
ATOM     15  C   UNL     1      23.321  -3.313  20.441  1.00  0.00     0.062 A 
ATOM     16  C   UNL     1      24.474  -5.018  19.151  1.00  0.00     0.200 A 
ATOM     17  C   UNL     1      24.474  -4.067  20.185  1.00  0.00     0.162 A 
BRANCH  14  18
ATOM     18  O   UNL     1      23.278  -6.156  17.357  1.00  0.00    -0.504 OA
ATOM     19  H   UNL     1      22.907  -5.939  16.439  1.00  0.00     0.293 HD
ENDBRANCH  14  18
BRANCH  16  20
ATOM     20  O   UNL     1      25.616  -5.774  18.879  1.00  0.00    -0.502 OA
ATOM     21  H   UNL     1      25.615  -6.786  18.920  1.00  0.00     0.293 HD
ENDBRANCH  16  20
BRANCH  17  22
ATOM     22  O   UNL     1      25.619  -3.878  20.958  1.00  0.00    -0.504 OA
ATOM     23  H   UNL     1      25.964  -4.597  21.583  1.00  0.00     0.293 HD
ENDBRANCH  17  22
ENDBRANCH   1  12
BRANCH   2  24
ATOM     24  O   UNL     1      20.090  -4.410  21.467  1.00  0.00    -0.502 OA
ATOM     25  H   UNL     1      19.651  -5.270  21.162  1.00  0.00     0.293 HD
ENDBRANCH   2  24
BRANCH   6  26
ATOM     26  O   UNL     1      16.290  -0.702  21.034  1.00  0.00    -0.507 OA
ATOM     27  H   UNL     1      16.215  -0.920  22.016  1.00  0.00     0.293 HD
ENDBRANCH   6  26
BRANCH   8  28
ATOM     28  O   UNL     1      18.612   2.578  18.406  1.00  0.00    -0.508 OA
ATOM     29  H   UNL     1      17.756   3.020  18.092  1.00  0.00     0.293 HD
ENDBRANCH   8  28
TORSDOF 7
ENDMDL
MODEL 3
REMARK VINA RESULT:    -4.693      1.269      2.800
REMARK INTER + INTRA:          -6.030
REMARK INTER:                  -5.684
REMARK INTRA:                  -0.346
REMARK UNBOUND:                -0.240
REMARK SMILES O=c1c(O)c(-c2cc(O)c(O)c(O)c2)oc2cc(O)cc(O)c12
REMARK SMILES IDX 5 1 3 2 2 3 1 4 23 5 21 6 20 7 18 8 17 9 16 10 15 11 6 12
REMARK SMILES IDX 7 13 8 14 14 15 10 16 12 17 9 18 11 20 13 22 4 24 22 26
REMARK SMILES IDX 19 28
REMARK H PARENT 9 19 11 21 13 23 4 25 22 27 19 29
REMARK Flexibility Score: inf
ROOT
ATOM      1  C   UNL     1      20.969  -2.333  19.450  1.00  0.00     0.180 A 
ATOM      2  C   UNL     1      20.943  -1.082  18.810  1.00  0.00     0.208 A 
ATOM      3  C   UNL     1      19.829  -0.247  18.993  1.00  0.00     0.238 A 
ATOM      4  O   UNL     1      19.788   0.849  18.374  1.00  0.00    -0.285 OA
ATOM      5  C   UNL     1      18.764  -0.664  19.826  1.00  0.00     0.111 A 
ATOM      6  C   UNL     1      17.606   0.118  20.116  1.00  0.00     0.134 A 
ATOM      7  C   UNL     1      16.555  -0.447  20.848  1.00  0.00     0.093 A 
ATOM      8  C   UNL     1      16.649  -1.745  21.357  1.00  0.00     0.123 A 
ATOM      9  C   UNL     1      17.800  -2.495  21.131  1.00  0.00     0.094 A 
ATOM     10  C   UNL     1      18.850  -1.971  20.374  1.00  0.00     0.146 A 
ATOM     11  O   UNL     1      19.925  -2.725  20.172  1.00  0.00    -0.452 OA
ENDROOT
BRANCH   1  12
ATOM     12  C   UNL     1      22.118  -3.259  19.325  1.00  0.00     0.029 A 
ATOM     13  C   UNL     1      23.243  -3.077  20.144  1.00  0.00     0.062 A 
ATOM     14  C   UNL     1      24.350  -3.924  20.034  1.00  0.00     0.162 A 
ATOM     15  C   UNL     1      22.130  -4.284  18.364  1.00  0.00     0.062 A 
ATOM     16  C   UNL     1      24.349  -4.961  19.086  1.00  0.00     0.200 A 
ATOM     17  C   UNL     1      23.237  -5.136  18.246  1.00  0.00     0.162 A 
BRANCH  14  18
ATOM     18  O   UNL     1      25.443  -3.718  20.876  1.00  0.00    -0.504 OA
ATOM     19  H   UNL     1      26.313  -4.225  20.765  1.00  0.00     0.293 HD
ENDBRANCH  14  18
BRANCH  16  20
ATOM     20  O   UNL     1      25.458  -5.803  18.985  1.00  0.00    -0.502 OA
ATOM     21  H   UNL     1      25.904  -6.207  19.798  1.00  0.00     0.293 HD
ENDBRANCH  16  20
BRANCH  17  22
ATOM     22  O   UNL     1      23.236  -6.154  17.294  1.00  0.00    -0.504 OA
ATOM     23  H   UNL     1      23.230  -7.132  17.560  1.00  0.00     0.293 HD
ENDBRANCH  17  22
ENDBRANCH   1  12
BRANCH   2  24
ATOM     24  O   UNL     1      21.995  -0.699  17.973  1.00  0.00    -0.502 OA
ATOM     25  H   UNL     1      21.843  -0.330  17.043  1.00  0.00     0.293 HD
ENDBRANCH   2  24
BRANCH   6  26
ATOM     26  O   UNL     1      17.451   1.454  19.732  1.00  0.00    -0.507 OA
ATOM     27  H   UNL     1      17.804   1.850  18.874  1.00  0.00     0.293 HD
ENDBRANCH   6  26
BRANCH   8  28
ATOM     28  O   UNL     1      15.605  -2.295  22.099  1.00  0.00    -0.508 OA
ATOM     29  H   UNL     1      14.985  -1.715  22.652  1.00  0.00     0.293 HD
ENDBRANCH   8  28
TORSDOF 7
ENDMDL
MODEL 4
REMARK VINA RESULT:    -4.670      1.364      3.279
REMARK INTER + INTRA:          -6.002
REMARK INTER:                  -5.637
REMARK INTRA:                  -0.365
REMARK UNBOUND:                -0.240
REMARK SMILES O=c1c(O)c(-c2cc(O)c(O)c(O)c2)oc2cc(O)cc(O)c12
REMARK SMILES IDX 5 1 3 2 2 3 1 4 23 5 21 6 20 7 18 8 17 9 16 10 15 11 6 12
REMARK SMILES IDX 7 13 8 14 14 15 10 16 12 17 9 18 11 20 13 22 4 24 22 26
REMARK SMILES IDX 19 28
REMARK H PARENT 9 19 11 21 13 23 4 25 22 27 19 29
REMARK Flexibility Score: inf
ROOT
ATOM      1  C   UNL     1      21.001  -2.432  19.528  1.00  0.00     0.180 A 
ATOM      2  C   UNL     1      21.029  -1.180  18.889  1.00  0.00     0.208 A 
ATOM      3  C   UNL     1      19.924  -0.324  19.022  1.00  0.00     0.238 A 
ATOM      4  O   UNL     1      19.932   0.772  18.404  1.00  0.00    -0.285 OA
ATOM      5  C   UNL     1      18.815  -0.721  19.806  1.00  0.00     0.111 A 
ATOM      6  C   UNL     1      17.659   0.084  20.043  1.00  0.00     0.134 A 
ATOM      7  C   UNL     1      16.566  -0.462  20.726  1.00  0.00     0.093 A 
ATOM      8  C   UNL     1      16.611  -1.762  21.237  1.00  0.00     0.123 A 
ATOM      9  C   UNL     1      17.757  -2.534  21.062  1.00  0.00     0.094 A 
ATOM     10  C   UNL     1      18.850  -2.030  20.355  1.00  0.00     0.146 A 
ATOM     11  O   UNL     1      19.919  -2.804  20.201  1.00  0.00    -0.452 OA
ENDROOT
BRANCH   1  12
ATOM     12  C   UNL     1      22.137  -3.380  19.455  1.00  0.00     0.029 A 
ATOM     13  C   UNL     1      22.154  -4.361  18.452  1.00  0.00     0.062 A 
ATOM     14  C   UNL     1      23.204  -5.282  18.372  1.00  0.00     0.162 A 
ATOM     15  C   UNL     1      23.173  -3.353  20.403  1.00  0.00     0.062 A 
ATOM     16  C   UNL     1      24.249  -5.238  19.311  1.00  0.00     0.200 A 
ATOM     17  C   UNL     1      24.228  -4.273  20.331  1.00  0.00     0.162 A 
BRANCH  14  18
ATOM     18  O   UNL     1      23.191  -6.233  17.352  1.00  0.00    -0.504 OA
ATOM     19  H   UNL     1      23.756  -7.073  17.391  1.00  0.00     0.293 HD
ENDBRANCH  14  18
BRANCH  16  20
ATOM     20  O   UNL     1      25.295  -6.158  19.222  1.00  0.00    -0.502 OA
ATOM     21  H   UNL     1      25.837  -6.438  20.029  1.00  0.00     0.293 HD
ENDBRANCH  16  20
BRANCH  17  22
ATOM     22  O   UNL     1      25.254  -4.233  21.274  1.00  0.00    -0.504 OA
ATOM     23  H   UNL     1      25.983  -3.529  21.239  1.00  0.00     0.293 HD
ENDBRANCH  17  22
ENDBRANCH   1  12
BRANCH   2  24
ATOM     24  O   UNL     1      22.125  -0.817  18.102  1.00  0.00    -0.502 OA
ATOM     25  H   UNL     1      22.563  -1.456  17.451  1.00  0.00     0.293 HD
ENDBRANCH   2  24
BRANCH   6  26
ATOM     26  O   UNL     1      17.548   1.422  19.655  1.00  0.00    -0.507 OA
ATOM     27  H   UNL     1      16.734   1.998  19.806  1.00  0.00     0.293 HD
ENDBRANCH   6  26
BRANCH   8  28
ATOM     28  O   UNL     1      15.524  -2.291  21.929  1.00  0.00    -0.508 OA
ATOM     29  H   UNL     1      14.571  -2.055  21.681  1.00  0.00     0.293 HD
ENDBRANCH   8  28
TORSDOF 7
ENDMDL
MODEL 5
REMARK VINA RESULT:    -4.466     13.822     14.734
REMARK INTER + INTRA:          -5.750
REMARK INTER:                  -5.489
REMARK INTRA:                  -0.261
REMARK UNBOUND:                -0.240
REMARK SMILES O=c1c(O)c(-c2cc(O)c(O)c(O)c2)oc2cc(O)cc(O)c12
REMARK SMILES IDX 5 1 3 2 2 3 1 4 23 5 21 6 20 7 18 8 17 9 16 10 15 11 6 12
REMARK SMILES IDX 7 13 8 14 14 15 10 16 12 17 9 18 11 20 13 22 4 24 22 26
REMARK SMILES IDX 19 28
REMARK H PARENT 9 19 11 21 13 23 4 25 22 27 19 29
REMARK Flexibility Score: inf
ROOT
ATOM      1  C   UNL     1      13.005  -7.995   8.979  1.00  0.00     0.180 A 
ATOM      2  C   UNL     1      12.146  -7.362   9.895  1.00  0.00     0.208 A 
ATOM      3  C   UNL     1      12.196  -5.964  10.020  1.00  0.00     0.238 A 
ATOM      4  O   UNL     1      11.464  -5.409  10.880  1.00  0.00    -0.285 OA
ATOM      5  C   UNL     1      13.090  -5.216   9.218  1.00  0.00     0.111 A 
ATOM      6  C   UNL     1      13.196  -3.792   9.233  1.00  0.00     0.134 A 
ATOM      7  C   UNL     1      14.207  -3.167   8.492  1.00  0.00     0.093 A 
ATOM      8  C   UNL     1      15.073  -3.910   7.686  1.00  0.00     0.123 A 
ATOM      9  C   UNL     1      14.940  -5.294   7.619  1.00  0.00     0.094 A 
ATOM     10  C   UNL     1      13.965  -5.949   8.374  1.00  0.00     0.146 A 
ATOM     11  O   UNL     1      13.879  -7.272   8.289  1.00  0.00    -0.452 OA
ENDROOT
BRANCH   1  12
ATOM     12  C   UNL     1      12.993  -9.461   8.772  1.00  0.00     0.029 A 
ATOM     13  C   UNL     1      14.118 -10.219   9.133  1.00  0.00     0.062 A 
ATOM     14  C   UNL     1      14.142 -11.602   8.930  1.00  0.00     0.162 A 
ATOM     15  C   UNL     1      11.900 -10.105   8.169  1.00  0.00     0.062 A 
ATOM     16  C   UNL     1      13.038 -12.245   8.346  1.00  0.00     0.200 A 
ATOM     17  C   UNL     1      11.917 -11.492   7.960  1.00  0.00     0.162 A 
BRANCH  14  18
ATOM     18  O   UNL     1      15.274 -12.320   9.316  1.00  0.00    -0.504 OA
ATOM     19  H   UNL     1      16.192 -12.123   8.937  1.00  0.00     0.293 HD
ENDBRANCH  14  18
BRANCH  16  20
ATOM     20  O   UNL     1      13.069 -13.626   8.149  1.00  0.00    -0.502 OA
ATOM     21  H   UNL     1      13.936 -14.150   8.131  1.00  0.00     0.293 HD
ENDBRANCH  16  20
BRANCH  17  22
ATOM     22  O   UNL     1      10.824 -12.121   7.367  1.00  0.00    -0.504 OA
ATOM     23  H   UNL     1      10.895 -12.567   6.459  1.00  0.00     0.293 HD
ENDBRANCH  17  22
ENDBRANCH   1  12
BRANCH   2  24
ATOM     24  O   UNL     1      11.286  -8.121  10.693  1.00  0.00    -0.502 OA
ATOM     25  H   UNL     1      11.193  -7.969  11.689  1.00  0.00     0.293 HD
ENDBRANCH   2  24
BRANCH   6  26
ATOM     26  O   UNL     1      12.324  -2.953   9.932  1.00  0.00    -0.507 OA
ATOM     27  H   UNL     1      12.575  -2.414  10.747  1.00  0.00     0.293 HD
ENDBRANCH   6  26
BRANCH   8  28
ATOM     28  O   UNL     1      16.066  -3.277   6.940  1.00  0.00    -0.508 OA
ATOM     29  H   UNL     1      16.915  -2.932   7.371  1.00  0.00     0.293 HD
ENDBRANCH   8  28
TORSDOF 7
ENDMDL
MODEL 6
REMARK VINA RESULT:    -4.452      4.150      7.587
REMARK INTER + INTRA:          -5.732
REMARK INTER:                  -5.390
REMARK INTRA:                  -0.342
REMARK UNBOUND:                -0.240
REMARK SMILES O=c1c(O)c(-c2cc(O)c(O)c(O)c2)oc2cc(O)cc(O)c12
REMARK SMILES IDX 5 1 3 2 2 3 1 4 23 5 21 6 20 7 18 8 17 9 16 10 15 11 6 12
REMARK SMILES IDX 7 13 8 14 14 15 10 16 12 17 9 18 11 20 13 22 4 24 22 26
REMARK SMILES IDX 19 28
REMARK H PARENT 9 19 11 21 13 23 4 25 22 27 19 29
REMARK Flexibility Score: inf
ROOT
ATOM      1  C   UNL     1      21.846  -6.156  20.747  1.00  0.00     0.180 A 
ATOM      2  C   UNL     1      20.859  -6.245  21.744  1.00  0.00     0.208 A 
ATOM      3  C   UNL     1      20.537  -7.505  22.273  1.00  0.00     0.238 A 
ATOM      4  O   UNL     1      19.615  -7.584  23.126  1.00  0.00    -0.285 OA
ATOM      5  C   UNL     1      21.216  -8.658  21.813  1.00  0.00     0.111 A 
ATOM      6  C   UNL     1      20.999  -9.979  22.307  1.00  0.00     0.134 A 
ATOM      7  C   UNL     1      21.634 -11.062  21.686  1.00  0.00     0.093 A 
ATOM      8  C   UNL     1      22.528 -10.864  20.631  1.00  0.00     0.123 A 
ATOM      9  C   UNL     1      22.792  -9.574  20.181  1.00  0.00     0.094 A 
ATOM     10  C   UNL     1      22.147  -8.476  20.756  1.00  0.00     0.146 A 
ATOM     11  O   UNL     1      22.419  -7.263  20.288  1.00  0.00    -0.452 OA
ENDROOT
BRANCH   1  12
ATOM     12  C   UNL     1      22.258  -4.862  20.158  1.00  0.00     0.029 A 
ATOM     13  C   UNL     1      21.524  -4.323  19.091  1.00  0.00     0.062 A 
ATOM     14  C   UNL     1      21.902  -3.112  18.503  1.00  0.00     0.162 A 
ATOM     15  C   UNL     1      23.405  -4.186  20.609  1.00  0.00     0.062 A 
ATOM     16  C   UNL     1      23.038  -2.430  18.971  1.00  0.00     0.200 A 
ATOM     17  C   UNL     1      23.793  -2.973  20.024  1.00  0.00     0.162 A 
BRANCH  14  18
ATOM     18  O   UNL     1      21.137  -2.604  17.454  1.00  0.00    -0.504 OA
ATOM     19  H   UNL     1      21.215  -2.959  16.508  1.00  0.00     0.293 HD
ENDBRANCH  14  18
BRANCH  16  20
ATOM     20  O   UNL     1      23.407  -1.220  18.381  1.00  0.00    -0.502 OA
ATOM     21  H   UNL     1      23.648  -0.403  18.928  1.00  0.00     0.293 HD
ENDBRANCH  16  20
BRANCH  17  22
ATOM     22  O   UNL     1      24.928  -2.308  20.483  1.00  0.00    -0.504 OA
ATOM     23  H   UNL     1      25.004  -1.298  20.447  1.00  0.00     0.293 HD
ENDBRANCH  17  22
ENDBRANCH   1  12
BRANCH   2  24
ATOM     24  O   UNL     1      20.185  -5.097  22.169  1.00  0.00    -0.502 OA
ATOM     25  H   UNL     1      19.484  -4.636  21.602  1.00  0.00     0.293 HD
ENDBRANCH   2  24
BRANCH   6  26
ATOM     26  O   UNL     1      20.198 -10.276  23.413  1.00  0.00    -0.507 OA
ATOM     27  H   UNL     1      20.511 -10.257  24.372  1.00  0.00     0.293 HD
ENDBRANCH   6  26
BRANCH   8  28
ATOM     28  O   UNL     1      23.167 -11.946  20.030  1.00  0.00    -0.508 OA
ATOM     29  H   UNL     1      24.154 -12.127  20.174  1.00  0.00     0.293 HD
ENDBRANCH   8  28
TORSDOF 7
ENDMDL
MODEL 7
REMARK VINA RESULT:    -4.394      2.260      7.304
REMARK INTER + INTRA:          -5.661
REMARK INTER:                  -5.524
REMARK INTRA:                  -0.137
REMARK UNBOUND:                -0.240
REMARK SMILES O=c1c(O)c(-c2cc(O)c(O)c(O)c2)oc2cc(O)cc(O)c12
REMARK SMILES IDX 5 1 3 2 2 3 1 4 23 5 21 6 20 7 18 8 17 9 16 10 15 11 6 12
REMARK SMILES IDX 7 13 8 14 14 15 10 16 12 17 9 18 11 20 13 22 4 24 22 26
REMARK SMILES IDX 19 28
REMARK H PARENT 9 19 11 21 13 23 4 25 22 27 19 29
REMARK Flexibility Score: inf
ROOT
ATOM      1  C   UNL     1      20.323  -3.153  20.098  1.00  0.00     0.180 A 
ATOM      2  C   UNL     1      21.159  -3.365  18.987  1.00  0.00     0.208 A 
ATOM      3  C   UNL     1      22.010  -4.481  18.979  1.00  0.00     0.238 A 
ATOM      4  O   UNL     1      22.795  -4.635  18.007  1.00  0.00    -0.285 OA
ATOM      5  C   UNL     1      22.003  -5.381  20.071  1.00  0.00     0.111 A 
ATOM      6  C   UNL     1      22.794  -6.567  20.151  1.00  0.00     0.134 A 
ATOM      7  C   UNL     1      22.804  -7.313  21.335  1.00  0.00     0.093 A 
ATOM      8  C   UNL     1      22.000  -6.953  22.420  1.00  0.00     0.123 A 
ATOM      9  C   UNL     1      21.180  -5.831  22.330  1.00  0.00     0.094 A 
ATOM     10  C   UNL     1      21.175  -5.046  21.175  1.00  0.00     0.146 A 
ATOM     11  O   UNL     1      20.387  -3.979  21.136  1.00  0.00    -0.452 OA
ENDROOT
BRANCH   1  12
ATOM     12  C   UNL     1      19.380  -2.014  20.169  1.00  0.00     0.029 A 
ATOM     13  C   UNL     1      19.878  -0.702  20.145  1.00  0.00     0.062 A 
ATOM     14  C   UNL     1      19.013   0.393  20.231  1.00  0.00     0.162 A 
ATOM     15  C   UNL     1      17.998  -2.217  20.317  1.00  0.00     0.062 A 
ATOM     16  C   UNL     1      17.629   0.184  20.358  1.00  0.00     0.200 A 
ATOM     17  C   UNL     1      17.123  -1.125  20.406  1.00  0.00     0.162 A 
BRANCH  14  18
ATOM     18  O   UNL     1      19.547   1.680  20.190  1.00  0.00    -0.504 OA
ATOM     19  H   UNL     1      20.265   1.987  20.836  1.00  0.00     0.293 HD
ENDBRANCH  14  18
BRANCH  16  20
ATOM     20  O   UNL     1      16.772   1.283  20.440  1.00  0.00    -0.502 OA
ATOM     21  H   UNL     1      16.809   1.941  21.209  1.00  0.00     0.293 HD
ENDBRANCH  16  20
BRANCH  17  22
ATOM     22  O   UNL     1      15.752  -1.338  20.546  1.00  0.00    -0.504 OA
ATOM     23  H   UNL     1      15.343  -1.597  21.436  1.00  0.00     0.293 HD
ENDBRANCH  17  22
ENDBRANCH   1  12
BRANCH   2  24
ATOM     24  O   UNL     1      21.166  -2.452  17.929  1.00  0.00    -0.502 OA
ATOM     25  H   UNL     1      22.021  -2.074  17.543  1.00  0.00     0.293 HD
ENDBRANCH   2  24
BRANCH   6  26
ATOM     26  O   UNL     1      23.561  -7.065  19.093  1.00  0.00    -0.507 OA
ATOM     27  H   UNL     1      24.281  -7.765  19.186  1.00  0.00     0.293 HD
ENDBRANCH   6  26
BRANCH   8  28
ATOM     28  O   UNL     1      22.004  -7.710  23.589  1.00  0.00    -0.508 OA
ATOM     29  H   UNL     1      21.545  -8.612  23.639  1.00  0.00     0.293 HD
ENDBRANCH   8  28
TORSDOF 7
ENDMDL
MODEL 8
REMARK VINA RESULT:    -4.361      1.952      2.855
REMARK INTER + INTRA:          -5.620
REMARK INTER:                  -5.673
REMARK INTRA:                   0.053
REMARK UNBOUND:                -0.240
REMARK SMILES O=c1c(O)c(-c2cc(O)c(O)c(O)c2)oc2cc(O)cc(O)c12
REMARK SMILES IDX 5 1 3 2 2 3 1 4 23 5 21 6 20 7 18 8 17 9 16 10 15 11 6 12
REMARK SMILES IDX 7 13 8 14 14 15 10 16 12 17 9 18 11 20 13 22 4 24 22 26
REMARK SMILES IDX 19 28
REMARK H PARENT 9 19 11 21 13 23 4 25 22 27 19 29
REMARK Flexibility Score: inf
ROOT
ATOM      1  C   UNL     1      21.027  -2.450  19.599  1.00  0.00     0.180 A 
ATOM      2  C   UNL     1      19.704  -2.214  20.014  1.00  0.00     0.208 A 
ATOM      3  C   UNL     1      19.189  -0.911  19.935  1.00  0.00     0.238 A 
ATOM      4  O   UNL     1      18.023  -0.696  20.359  1.00  0.00    -0.285 OA
ATOM      5  C   UNL     1      19.994   0.136  19.427  1.00  0.00     0.111 A 
ATOM      6  C   UNL     1      19.561   1.487  19.265  1.00  0.00     0.134 A 
ATOM      7  C   UNL     1      20.483   2.466  18.875  1.00  0.00     0.093 A 
ATOM      8  C   UNL     1      21.807   2.131  18.579  1.00  0.00     0.123 A 
ATOM      9  C   UNL     1      22.224   0.807  18.678  1.00  0.00     0.094 A 
ATOM     10  C   UNL     1      21.337  -0.187  19.098  1.00  0.00     0.146 A 
ATOM     11  O   UNL     1      21.779  -1.436  19.189  1.00  0.00    -0.452 OA
ENDROOT
BRANCH   1  12
ATOM     12  C   UNL     1      21.633  -3.801  19.629  1.00  0.00     0.029 A 
ATOM     13  C   UNL     1      22.317  -4.276  18.499  1.00  0.00     0.062 A 
ATOM     14  C   UNL     1      22.882  -5.555  18.492  1.00  0.00     0.162 A 
ATOM     15  C   UNL     1      21.490  -4.642  20.745  1.00  0.00     0.062 A 
ATOM     16  C   UNL     1      22.754  -6.385  19.619  1.00  0.00     0.200 A 
ATOM     17  C   UNL     1      22.052  -5.927  20.745  1.00  0.00     0.162 A 
BRANCH  14  18
ATOM     18  O   UNL     1      23.565  -5.984  17.355  1.00  0.00    -0.504 OA
ATOM     19  H   UNL     1      24.451  -6.474  17.410  1.00  0.00     0.293 HD
ENDBRANCH  14  18
BRANCH  16  20
ATOM     20  O   UNL     1      23.324  -7.659  19.604  1.00  0.00    -0.502 OA
ATOM     21  H   UNL     1      23.571  -8.149  20.455  1.00  0.00     0.293 HD
ENDBRANCH  16  20
BRANCH  17  22
ATOM     22  O   UNL     1      21.910  -6.750  21.861  1.00  0.00    -0.504 OA
ATOM     23  H   UNL     1      21.097  -7.343  21.984  1.00  0.00     0.293 HD
ENDBRANCH  17  22
ENDBRANCH   1  12
BRANCH   2  24
ATOM     24  O   UNL     1      18.934  -3.258  20.534  1.00  0.00    -0.502 OA
ATOM     25  H   UNL     1      18.137  -3.098  21.137  1.00  0.00     0.293 HD
ENDBRANCH   2  24
BRANCH   6  26
ATOM     26  O   UNL     1      18.241   1.910  19.446  1.00  0.00    -0.507 OA
ATOM     27  H   UNL     1      17.458   1.295  19.610  1.00  0.00     0.293 HD
ENDBRANCH   6  26
BRANCH   8  28
ATOM     28  O   UNL     1      22.714   3.110  18.177  1.00  0.00    -0.508 OA
ATOM     29  H   UNL     1      23.322   3.575  18.840  1.00  0.00     0.293 HD
ENDBRANCH   8  28
TORSDOF 7
ENDMDL
MODEL 9
REMARK VINA RESULT:    -4.265     13.487     15.568
REMARK INTER + INTRA:          -5.502
REMARK INTER:                  -5.329
REMARK INTRA:                  -0.173
REMARK UNBOUND:                -0.240
REMARK SMILES O=c1c(O)c(-c2cc(O)c(O)c(O)c2)oc2cc(O)cc(O)c12
REMARK SMILES IDX 5 1 3 2 2 3 1 4 23 5 21 6 20 7 18 8 17 9 16 10 15 11 6 12
REMARK SMILES IDX 7 13 8 14 14 15 10 16 12 17 9 18 11 20 13 22 4 24 22 26
REMARK SMILES IDX 19 28
REMARK H PARENT 9 19 11 21 13 23 4 25 22 27 19 29
REMARK Flexibility Score: inf
ROOT
ATOM      1  C   UNL     1      13.819  -8.060   9.247  1.00  0.00     0.180 A 
ATOM      2  C   UNL     1      14.869  -8.597  10.013  1.00  0.00     0.208 A 
ATOM      3  C   UNL     1      15.103  -9.981   9.970  1.00  0.00     0.238 A 
ATOM      4  O   UNL     1      16.008 -10.463  10.700  1.00  0.00    -0.285 OA
ATOM      5  C   UNL     1      14.298 -10.807   9.150  1.00  0.00     0.111 A 
ATOM      6  C   UNL     1      14.472 -12.216   8.998  1.00  0.00     0.134 A 
ATOM      7  C   UNL     1      13.536 -12.953   8.263  1.00  0.00     0.093 A 
ATOM      8  C   UNL     1      12.468 -12.321   7.619  1.00  0.00     0.123 A 
ATOM      9  C   UNL     1      12.324 -10.940   7.712  1.00  0.00     0.094 A 
ATOM     10  C   UNL     1      13.221 -10.182   8.468  1.00  0.00     0.146 A 
ATOM     11  O   UNL     1      13.040  -8.869   8.539  1.00  0.00    -0.452 OA
ENDROOT
BRANCH   1  12
ATOM     12  C   UNL     1      13.526  -6.608   9.221  1.00  0.00     0.029 A 
ATOM     13  C   UNL     1      12.249  -6.155   9.582  1.00  0.00     0.062 A 
ATOM     14  C   UNL     1      11.939  -4.792   9.547  1.00  0.00     0.162 A 
ATOM     15  C   UNL     1      14.485  -5.677   8.787  1.00  0.00     0.062 A 
ATOM     16  C   UNL     1      12.907  -3.862   9.132  1.00  0.00     0.200 A 
ATOM     17  C   UNL     1      14.181  -4.309   8.747  1.00  0.00     0.162 A 
BRANCH  14  18
ATOM     18  O   UNL     1      10.661  -4.381   9.928  1.00  0.00    -0.504 OA
ATOM     19  H   UNL     1      10.505  -3.543  10.476  1.00  0.00     0.293 HD
ENDBRANCH  14  18
BRANCH  16  20
ATOM     20  O   UNL     1      12.590  -2.503   9.103  1.00  0.00    -0.502 OA
ATOM     21  H   UNL     1      13.300  -1.782   9.130  1.00  0.00     0.293 HD
ENDBRANCH  16  20
BRANCH  17  22
ATOM     22  O   UNL     1      15.142  -3.393   8.320  1.00  0.00    -0.504 OA
ATOM     23  H   UNL     1      14.927  -2.675   7.639  1.00  0.00     0.293 HD
ENDBRANCH  17  22
ENDBRANCH   1  12
BRANCH   2  24
ATOM     24  O   UNL     1      15.637  -7.767  10.833  1.00  0.00    -0.502 OA
ATOM     25  H   UNL     1      16.602  -7.971  11.063  1.00  0.00     0.293 HD
ENDBRANCH   2  24
BRANCH   6  26
ATOM     26  O   UNL     1      15.553 -12.929   9.524  1.00  0.00    -0.507 OA
ATOM     27  H   UNL     1      15.629 -13.235  10.482  1.00  0.00     0.293 HD
ENDBRANCH   6  26
BRANCH   8  28
ATOM     28  O   UNL     1      11.550 -13.060   6.875  1.00  0.00    -0.508 OA
ATOM     29  H   UNL     1      10.787 -13.559   7.318  1.00  0.00     0.293 HD
ENDBRANCH   8  28
TORSDOF 7
ENDMDL
