MODEL 1
REMARK VINA RESULT:    -7.439      0.000      0.000
REMARK INTER + INTRA:          -9.026
REMARK INTER:                  -8.961
REMARK INTRA:                  -0.065
REMARK UNBOUND:                -0.065
REMARK SMILES Oc1cc(O)c2c(c1)O[C@@H](c1ccc(O)c(O)c1)[C@@H](O)C2
REMARK SMILES IDX 21 1 19 2 10 3 9 4 7 5 8 6 2 7 3 8 4 9 6 10 20 11 11 13
REMARK SMILES IDX 18 14 12 15 16 16 13 17 14 18 17 19 15 21 5 23 1 25
REMARK H PARENT 20 12 17 20 15 22 5 24 1 26
REMARK Flexibility Score: inf
ROOT
ATOM      1  C   UNL     1      16.753  24.845  43.223  1.00  0.00     0.079 C 
ATOM      2  C   UNL     1      17.454  23.818  42.313  1.00  0.00     0.164 C 
ATOM      3  C   UNL     1      18.295  24.562  41.249  1.00  0.00     0.232 C 
ATOM      4  O   UNL     1      19.235  25.417  41.904  1.00  0.00    -0.482 OA
ATOM      5  C   UNL     1      18.912  26.142  43.060  1.00  0.00     0.131 A 
ATOM      6  C   UNL     1      19.803  27.111  43.533  1.00  0.00     0.093 A 
ATOM      7  C   UNL     1      19.499  27.846  44.683  1.00  0.00     0.122 A 
ATOM      8  C   UNL     1      18.306  27.600  45.370  1.00  0.00     0.092 A 
ATOM      9  C   UNL     1      17.409  26.621  44.919  1.00  0.00     0.126 A 
ATOM     10  C   UNL     1      17.715  25.881  43.759  1.00  0.00     0.039 A 
ENDROOT
BRANCH   2  11
ATOM     11  O   UNL     1      18.292  23.005  43.102  1.00  0.00    -0.389 OA
ATOM     12  H   UNL     1      18.806  23.603  43.703  1.00  0.00     0.211 HD
ENDBRANCH   2  11
BRANCH   3  13
ATOM     13  C   UNL     1      19.035  23.682  40.253  1.00  0.00    -0.001 A 
ATOM     14  C   UNL     1      20.090  22.817  40.615  1.00  0.00     0.057 A 
ATOM     15  C   UNL     1      18.593  23.676  38.914  1.00  0.00     0.012 A 
ATOM     16  C   UNL     1      20.701  21.992  39.661  1.00  0.00     0.157 A 
ATOM     17  C   UNL     1      19.212  22.867  37.957  1.00  0.00     0.050 A 
ATOM     18  C   UNL     1      20.273  22.033  38.323  1.00  0.00     0.157 A 
BRANCH  16  19
ATOM     19  O   UNL     1      21.739  21.145  40.056  1.00  0.00    -0.504 OA
ATOM     20  H   UNL     1      22.348  20.691  39.387  1.00  0.00     0.293 HD
ENDBRANCH  16  19
BRANCH  18  21
ATOM     21  O   UNL     1      20.911  21.260  37.362  1.00  0.00    -0.504 OA
ATOM     22  H   UNL     1      21.067  21.600  36.418  1.00  0.00     0.293 HD
ENDBRANCH  18  21
ENDBRANCH   3  13
BRANCH   9  23
ATOM     23  O   UNL     1      16.230  26.378  45.618  1.00  0.00    -0.507 OA
ATOM     24  H   UNL     1      15.693  25.531  45.461  1.00  0.00     0.293 HD
ENDBRANCH   9  23
BRANCH   7  25
ATOM     25  O   UNL     1      20.392  28.820  45.130  1.00  0.00    -0.508 OA
ATOM     26  H   UNL     1      20.138  29.468  45.870  1.00  0.00     0.293 HD
ENDBRANCH   7  25
TORSDOF 6
ENDMDL
MODEL 2
REMARK VINA RESULT:    -7.088      1.340      2.870
REMARK INTER + INTRA:          -8.604
REMARK INTER:                  -8.372
REMARK INTRA:                  -0.231
REMARK UNBOUND:                -0.065
REMARK SMILES Oc1cc(O)c2c(c1)O[C@@H](c1ccc(O)c(O)c1)[C@@H](O)C2
REMARK SMILES IDX 21 1 19 2 10 3 9 4 7 5 8 6 2 7 3 8 4 9 6 10 20 11 11 13
REMARK SMILES IDX 18 14 12 15 16 16 13 17 14 18 17 19 15 21 5 23 1 25
REMARK H PARENT 20 12 17 20 15 22 5 24 1 26
REMARK Flexibility Score: inf
ROOT
ATOM      1  C   UNL     1      20.700  26.773  41.955  1.00  0.00     0.079 C 
ATOM      2  C   UNL     1      20.356  26.133  40.596  1.00  0.00     0.164 C 
ATOM      3  C   UNL     1      19.767  24.722  40.826  1.00  0.00     0.232 C 
ATOM      4  O   UNL     1      18.616  24.822  41.669  1.00  0.00    -0.482 OA
ATOM      5  C   UNL     1      18.558  25.705  42.757  1.00  0.00     0.131 A 
ATOM      6  C   UNL     1      17.494  25.612  43.660  1.00  0.00     0.093 A 
ATOM      7  C   UNL     1      17.418  26.481  44.752  1.00  0.00     0.122 A 
ATOM      8  C   UNL     1      18.403  27.458  44.933  1.00  0.00     0.092 A 
ATOM      9  C   UNL     1      19.468  27.576  44.028  1.00  0.00     0.126 A 
ATOM     10  C   UNL     1      19.546  26.698  42.928  1.00  0.00     0.039 A 
ENDROOT
BRANCH   2  11
ATOM     11  O   UNL     1      19.412  26.944  39.935  1.00  0.00    -0.389 OA
ATOM     12  H   UNL     1      19.330  27.787  40.451  1.00  0.00     0.211 HD
ENDBRANCH   2  11
BRANCH   3  13
ATOM     13  C   UNL     1      19.395  23.945  39.572  1.00  0.00    -0.001 A 
ATOM     14  C   UNL     1      20.252  23.007  38.956  1.00  0.00     0.057 A 
ATOM     15  C   UNL     1      18.099  24.115  39.043  1.00  0.00     0.012 A 
ATOM     16  C   UNL     1      19.835  22.284  37.831  1.00  0.00     0.157 A 
ATOM     17  C   UNL     1      17.686  23.408  37.911  1.00  0.00     0.050 A 
ATOM     18  C   UNL     1      18.554  22.500  37.296  1.00  0.00     0.157 A 
BRANCH  16  19
ATOM     19  O   UNL     1      20.708  21.361  37.251  1.00  0.00    -0.504 OA
ATOM     20  H   UNL     1      21.089  21.490  36.322  1.00  0.00     0.293 HD
ENDBRANCH  16  19
BRANCH  18  21
ATOM     21  O   UNL     1      18.154  21.828  36.147  1.00  0.00    -0.504 OA
ATOM     22  H   UNL     1      18.795  21.654  35.379  1.00  0.00     0.293 HD
ENDBRANCH  18  21
ENDBRANCH   3  13
BRANCH   9  23
ATOM     23  O   UNL     1      20.436  28.560  44.213  1.00  0.00    -0.507 OA
ATOM     24  H   UNL     1      20.179  29.539  44.289  1.00  0.00     0.293 HD
ENDBRANCH   9  23
BRANCH   7  25
ATOM     25  O   UNL     1      16.359  26.361  45.651  1.00  0.00    -0.508 OA
ATOM     26  H   UNL     1      15.647  27.082  45.727  1.00  0.00     0.293 HD
ENDBRANCH   7  25
TORSDOF 6
ENDMDL
MODEL 3
REMARK VINA RESULT:    -6.759      1.759      3.244
REMARK INTER + INTRA:          -8.207
REMARK INTER:                  -7.901
REMARK INTRA:                  -0.306
REMARK UNBOUND:                -0.065
REMARK SMILES Oc1cc(O)c2c(c1)O[C@@H](c1ccc(O)c(O)c1)[C@@H](O)C2
REMARK SMILES IDX 21 1 19 2 10 3 9 4 7 5 8 6 2 7 3 8 4 9 6 10 20 11 11 13
REMARK SMILES IDX 18 14 12 15 16 16 13 17 14 18 17 19 15 21 5 23 1 25
REMARK H PARENT 20 12 17 20 15 22 5 24 1 26
REMARK Flexibility Score: inf
ROOT
ATOM      1  C   UNL     1      20.614  26.754  42.004  1.00  0.00     0.079 C 
ATOM      2  C   UNL     1      20.193  26.142  40.654  1.00  0.00     0.164 C 
ATOM      3  C   UNL     1      19.571  24.746  40.894  1.00  0.00     0.232 C 
ATOM      4  O   UNL     1      18.462  24.870  41.787  1.00  0.00    -0.482 OA
ATOM      5  C   UNL     1      18.477  25.742  42.887  1.00  0.00     0.131 A 
ATOM      6  C   UNL     1      17.451  25.669  43.833  1.00  0.00     0.093 A 
ATOM      7  C   UNL     1      17.448  26.527  44.937  1.00  0.00     0.122 A 
ATOM      8  C   UNL     1      18.469  27.472  45.086  1.00  0.00     0.092 A 
ATOM      9  C   UNL     1      19.498  27.569  44.137  1.00  0.00     0.126 A 
ATOM     10  C   UNL     1      19.501  26.703  43.025  1.00  0.00     0.039 A 
ENDROOT
BRANCH   2  11
ATOM     11  O   UNL     1      19.246  26.989  40.043  1.00  0.00    -0.389 OA
ATOM     12  H   UNL     1      19.738  27.581  39.418  1.00  0.00     0.211 HD
ENDBRANCH   2  11
BRANCH   3  13
ATOM     13  C   UNL     1      19.123  23.996  39.649  1.00  0.00    -0.001 A 
ATOM     14  C   UNL     1      17.809  24.056  39.137  1.00  0.00     0.057 A 
ATOM     15  C   UNL     1      20.090  23.266  38.928  1.00  0.00     0.012 A 
ATOM     16  C   UNL     1      17.467  23.383  37.956  1.00  0.00     0.157 A 
ATOM     17  C   UNL     1      19.748  22.579  37.760  1.00  0.00     0.050 A 
ATOM     18  C   UNL     1      18.437  22.626  37.277  1.00  0.00     0.157 A 
BRANCH  16  19
ATOM     19  O   UNL     1      16.158  23.468  37.477  1.00  0.00    -0.504 OA
ATOM     20  H   UNL     1      15.947  23.485  36.487  1.00  0.00     0.293 HD
ENDBRANCH  16  19
BRANCH  18  21
ATOM     21  O   UNL     1      18.091  21.910  36.137  1.00  0.00    -0.504 OA
ATOM     22  H   UNL     1      17.474  21.106  36.177  1.00  0.00     0.293 HD
ENDBRANCH  18  21
ENDBRANCH   3  13
BRANCH   9  23
ATOM     23  O   UNL     1      20.502  28.521  44.290  1.00  0.00    -0.507 OA
ATOM     24  H   UNL     1      20.726  28.903  45.204  1.00  0.00     0.293 HD
ENDBRANCH   9  23
BRANCH   7  25
ATOM     25  O   UNL     1      16.425  26.428  45.880  1.00  0.00    -0.508 OA
ATOM     26  H   UNL     1      15.453  26.352  45.597  1.00  0.00     0.293 HD
ENDBRANCH   7  25
TORSDOF 6
ENDMDL
MODEL 4
REMARK VINA RESULT:    -6.677      4.156      7.412
REMARK INTER + INTRA:          -8.109
REMARK INTER:                  -7.867
REMARK INTRA:                  -0.242
REMARK UNBOUND:                -0.065
REMARK SMILES Oc1cc(O)c2c(c1)O[C@@H](c1ccc(O)c(O)c1)[C@@H](O)C2
REMARK SMILES IDX 21 1 19 2 10 3 9 4 7 5 8 6 2 7 3 8 4 9 6 10 20 11 11 13
REMARK SMILES IDX 18 14 12 15 16 16 13 17 14 18 17 19 15 21 5 23 1 25
REMARK H PARENT 20 12 17 20 15 22 5 24 1 26
REMARK Flexibility Score: inf
ROOT
ATOM      1  C   UNL     1      16.609  20.748  43.791  1.00  0.00     0.079 C 
ATOM      2  C   UNL     1      17.180  22.176  43.694  1.00  0.00     0.164 C 
ATOM      3  C   UNL     1      16.577  23.049  44.819  1.00  0.00     0.232 C 
ATOM      4  O   UNL     1      16.864  22.451  46.086  1.00  0.00    -0.482 OA
ATOM      5  C   UNL     1      16.825  21.063  46.287  1.00  0.00     0.131 A 
ATOM      6  C   UNL     1      16.914  20.556  47.587  1.00  0.00     0.093 A 
ATOM      7  C   UNL     1      16.876  19.176  47.809  1.00  0.00     0.122 A 
ATOM      8  C   UNL     1      16.763  18.300  46.724  1.00  0.00     0.092 A 
ATOM      9  C   UNL     1      16.689  18.791  45.412  1.00  0.00     0.126 A 
ATOM     10  C   UNL     1      16.726  20.183  45.189  1.00  0.00     0.039 A 
ENDROOT
BRANCH   2  11
ATOM     11  O   UNL     1      18.581  22.119  43.831  1.00  0.00    -0.389 OA
ATOM     12  H   UNL     1      18.778  21.868  44.770  1.00  0.00     0.211 HD
ENDBRANCH   2  11
BRANCH   3  13
ATOM     13  C   UNL     1      17.025  24.502  44.845  1.00  0.00    -0.001 A 
ATOM     14  C   UNL     1      17.474  25.197  43.701  1.00  0.00     0.057 A 
ATOM     15  C   UNL     1      16.914  25.212  46.058  1.00  0.00     0.012 A 
ATOM     16  C   UNL     1      17.826  26.551  43.776  1.00  0.00     0.157 A 
ATOM     17  C   UNL     1      17.281  26.557  46.140  1.00  0.00     0.050 A 
ATOM     18  C   UNL     1      17.748  27.227  45.005  1.00  0.00     0.157 A 
BRANCH  16  19
ATOM     19  O   UNL     1      18.263  27.208  42.623  1.00  0.00    -0.504 OA
ATOM     20  H   UNL     1      18.177  28.210  42.508  1.00  0.00     0.293 HD
ENDBRANCH  16  19
BRANCH  18  21
ATOM     21  O   UNL     1      18.150  28.555  45.099  1.00  0.00    -0.504 OA
ATOM     22  H   UNL     1      18.264  29.138  44.277  1.00  0.00     0.293 HD
ENDBRANCH  18  21
ENDBRANCH   3  13
BRANCH   9  23
ATOM     23  O   UNL     1      16.587  17.909  44.341  1.00  0.00    -0.507 OA
ATOM     24  H   UNL     1      17.046  18.104  43.456  1.00  0.00     0.293 HD
ENDBRANCH   9  23
BRANCH   7  25
ATOM     25  O   UNL     1      16.949  18.689  49.114  1.00  0.00    -0.508 OA
ATOM     26  H   UNL     1      17.742  18.900  49.712  1.00  0.00     0.293 HD
ENDBRANCH   7  25
TORSDOF 6
ENDMDL
MODEL 5
REMARK VINA RESULT:    -6.659      4.077      6.919
REMARK INTER + INTRA:          -8.087
REMARK INTER:                  -7.811
REMARK INTRA:                  -0.276
REMARK UNBOUND:                -0.065
REMARK SMILES Oc1cc(O)c2c(c1)O[C@@H](c1ccc(O)c(O)c1)[C@@H](O)C2
REMARK SMILES IDX 21 1 19 2 10 3 9 4 7 5 8 6 2 7 3 8 4 9 6 10 20 11 11 13
REMARK SMILES IDX 18 14 12 15 16 16 13 17 14 18 17 19 15 21 5 23 1 25
REMARK H PARENT 20 12 17 20 15 22 5 24 1 26
REMARK Flexibility Score: inf
ROOT
ATOM      1  C   UNL     1      14.594  23.690  43.824  1.00  0.00     0.079 C 
ATOM      2  C   UNL     1      15.529  24.903  43.653  1.00  0.00     0.164 C 
ATOM      3  C   UNL     1      16.616  24.875  44.752  1.00  0.00     0.232 C 
ATOM      4  O   UNL     1      17.333  23.640  44.676  1.00  0.00    -0.482 OA
ATOM      5  C   UNL     1      16.699  22.420  44.396  1.00  0.00     0.131 A 
ATOM      6  C   UNL     1      17.416  21.227  44.535  1.00  0.00     0.093 A 
ATOM      7  C   UNL     1      16.803  20.001  44.263  1.00  0.00     0.122 A 
ATOM      8  C   UNL     1      15.472  19.969  43.835  1.00  0.00     0.092 A 
ATOM      9  C   UNL     1      14.743  21.157  43.674  1.00  0.00     0.126 A 
ATOM     10  C   UNL     1      15.361  22.394  43.950  1.00  0.00     0.039 A 
ENDROOT
BRANCH   2  11
ATOM     11  O   UNL     1      16.133  24.839  42.381  1.00  0.00    -0.389 OA
ATOM     12  H   UNL     1      16.813  25.559  42.339  1.00  0.00     0.211 HD
ENDBRANCH   2  11
BRANCH   3  13
ATOM     13  C   UNL     1      17.610  26.026  44.734  1.00  0.00    -0.001 A 
ATOM     14  C   UNL     1      17.418  27.230  45.445  1.00  0.00     0.057 A 
ATOM     15  C   UNL     1      18.819  25.850  44.031  1.00  0.00     0.012 A 
ATOM     16  C   UNL     1      18.393  28.236  45.431  1.00  0.00     0.157 A 
ATOM     17  C   UNL     1      19.786  26.858  44.000  1.00  0.00     0.050 A 
ATOM     18  C   UNL     1      19.573  28.056  44.689  1.00  0.00     0.157 A 
BRANCH  16  19
ATOM     19  O   UNL     1      18.171  29.412  46.151  1.00  0.00    -0.504 OA
ATOM     20  H   UNL     1      17.811  29.405  47.097  1.00  0.00     0.293 HD
ENDBRANCH  16  19
BRANCH  18  21
ATOM     21  O   UNL     1      20.519  29.072  44.624  1.00  0.00    -0.504 OA
ATOM     22  H   UNL     1      20.253  30.043  44.490  1.00  0.00     0.293 HD
ENDBRANCH  18  21
ENDBRANCH   3  13
BRANCH   9  23
ATOM     23  O   UNL     1      13.422  21.113  43.237  1.00  0.00    -0.507 OA
ATOM     24  H   UNL     1      13.196  21.161  42.248  1.00  0.00     0.293 HD
ENDBRANCH   9  23
BRANCH   7  25
ATOM     25  O   UNL     1      17.528  18.821  44.424  1.00  0.00    -0.508 OA
ATOM     26  H   UNL     1      18.419  18.681  43.957  1.00  0.00     0.293 HD
ENDBRANCH   7  25
TORSDOF 6
ENDMDL
MODEL 6
REMARK VINA RESULT:    -6.625      1.804      7.016
REMARK INTER + INTRA:          -8.046
REMARK INTER:                  -7.951
REMARK INTRA:                  -0.096
REMARK UNBOUND:                -0.065
REMARK SMILES Oc1cc(O)c2c(c1)O[C@@H](c1ccc(O)c(O)c1)[C@@H](O)C2
REMARK SMILES IDX 21 1 19 2 10 3 9 4 7 5 8 6 2 7 3 8 4 9 6 10 20 11 11 13
REMARK SMILES IDX 18 14 12 15 16 16 13 17 14 18 17 19 15 21 5 23 1 25
REMARK H PARENT 20 12 17 20 15 22 5 24 1 26
REMARK Flexibility Score: inf
ROOT
ATOM      1  C   UNL     1      16.969  24.442  38.723  1.00  0.00     0.079 C 
ATOM      2  C   UNL     1      17.517  25.505  39.695  1.00  0.00     0.164 C 
ATOM      3  C   UNL     1      18.274  24.806  40.849  1.00  0.00     0.232 C 
ATOM      4  O   UNL     1      19.320  23.997  40.306  1.00  0.00    -0.482 OA
ATOM      5  C   UNL     1      19.160  23.254  39.127  1.00  0.00     0.131 A 
ATOM      6  C   UNL     1      20.143  22.330  38.759  1.00  0.00     0.093 A 
ATOM      7  C   UNL     1      20.001  21.578  37.589  1.00  0.00     0.122 A 
ATOM      8  C   UNL     1      18.878  21.762  36.776  1.00  0.00     0.092 A 
ATOM      9  C   UNL     1      17.890  22.697  37.121  1.00  0.00     0.126 A 
ATOM     10  C   UNL     1      18.033  23.454  38.302  1.00  0.00     0.039 A 
ENDROOT
BRANCH   2  11
ATOM     11  O   UNL     1      18.394  26.357  38.994  1.00  0.00    -0.389 OA
ATOM     12  H   UNL     1      17.914  26.679  38.189  1.00  0.00     0.211 HD
ENDBRANCH   2  11
BRANCH   3  13
ATOM     13  C   UNL     1      18.859  25.724  41.912  1.00  0.00    -0.001 A 
ATOM     14  C   UNL     1      19.944  26.595  41.674  1.00  0.00     0.057 A 
ATOM     15  C   UNL     1      18.235  25.761  43.175  1.00  0.00     0.012 A 
ATOM     16  C   UNL     1      20.406  27.455  42.679  1.00  0.00     0.157 A 
ATOM     17  C   UNL     1      18.705  26.604  44.185  1.00  0.00     0.050 A 
ATOM     18  C   UNL     1      19.797  27.444  43.945  1.00  0.00     0.157 A 
BRANCH  16  19
ATOM     19  O   UNL     1      21.480  28.307  42.407  1.00  0.00    -0.504 OA
ATOM     20  H   UNL     1      21.639  28.696  41.486  1.00  0.00     0.293 HD
ENDBRANCH  16  19
BRANCH  18  21
ATOM     21  O   UNL     1      20.287  28.253  44.963  1.00  0.00    -0.504 OA
ATOM     22  H   UNL     1      20.544  27.876  45.870  1.00  0.00     0.293 HD
ENDBRANCH  18  21
ENDBRANCH   3  13
BRANCH   9  23
ATOM     23  O   UNL     1      16.783  22.879  36.298  1.00  0.00    -0.507 OA
ATOM     24  H   UNL     1      15.839  22.822  36.668  1.00  0.00     0.293 HD
ENDBRANCH   9  23
BRANCH   7  25
ATOM     25  O   UNL     1      20.983  20.648  37.248  1.00  0.00    -0.508 OA
ATOM     26  H   UNL     1      21.970  20.881  37.300  1.00  0.00     0.293 HD
ENDBRANCH   7  25
TORSDOF 6
ENDMDL
MODEL 7
REMARK VINA RESULT:    -6.422      1.849      7.220
REMARK INTER + INTRA:          -7.801
REMARK INTER:                  -7.427
REMARK INTRA:                  -0.375
REMARK UNBOUND:                -0.065
REMARK SMILES Oc1cc(O)c2c(c1)O[C@@H](c1ccc(O)c(O)c1)[C@@H](O)C2
REMARK SMILES IDX 21 1 19 2 10 3 9 4 7 5 8 6 2 7 3 8 4 9 6 10 20 11 11 13
REMARK SMILES IDX 18 14 12 15 16 16 13 17 14 18 17 19 15 21 5 23 1 25
REMARK H PARENT 20 12 17 20 15 22 5 24 1 26
REMARK Flexibility Score: inf
ROOT
ATOM      1  C   UNL     1      20.556  23.125  39.363  1.00  0.00     0.079 C 
ATOM      2  C   UNL     1      20.157  23.752  40.712  1.00  0.00     0.164 C 
ATOM      3  C   UNL     1      19.346  25.045  40.458  1.00  0.00     0.232 C 
ATOM      4  O   UNL     1      18.201  24.735  39.660  1.00  0.00    -0.482 OA
ATOM      5  C   UNL     1      18.249  23.814  38.603  1.00  0.00     0.131 A 
ATOM      6  C   UNL     1      17.157  23.707  37.737  1.00  0.00     0.093 A 
ATOM      7  C   UNL     1      17.186  22.796  36.676  1.00  0.00     0.122 A 
ATOM      8  C   UNL     1      18.306  21.979  36.491  1.00  0.00     0.092 A 
ATOM      9  C   UNL     1      19.404  22.062  37.361  1.00  0.00     0.126 A 
ATOM     10  C   UNL     1      19.375  22.982  38.429  1.00  0.00     0.039 A 
ENDROOT
BRANCH   2  11
ATOM     11  O   UNL     1      19.372  22.829  41.432  1.00  0.00    -0.389 OA
ATOM     12  H   UNL     1      19.975  22.105  41.742  1.00  0.00     0.211 HD
ENDBRANCH   2  11
BRANCH   3  13
ATOM     13  C   UNL     1      18.895  25.800  41.699  1.00  0.00    -0.001 A 
ATOM     14  C   UNL     1      19.775  26.526  42.530  1.00  0.00     0.057 A 
ATOM     15  C   UNL     1      17.516  25.840  41.989  1.00  0.00     0.012 A 
ATOM     16  C   UNL     1      19.293  27.245  43.632  1.00  0.00     0.157 A 
ATOM     17  C   UNL     1      17.034  26.541  43.098  1.00  0.00     0.050 A 
ATOM     18  C   UNL     1      17.920  27.235  43.928  1.00  0.00     0.157 A 
BRANCH  16  19
ATOM     19  O   UNL     1      20.194  27.955  44.430  1.00  0.00    -0.504 OA
ATOM     20  H   UNL     1      21.065  27.551  44.750  1.00  0.00     0.293 HD
ENDBRANCH  16  19
BRANCH  18  21
ATOM     21  O   UNL     1      17.443  27.899  45.051  1.00  0.00    -0.504 OA
ATOM     22  H   UNL     1      16.762  27.476  45.674  1.00  0.00     0.293 HD
ENDBRANCH  18  21
ENDBRANCH   3  13
BRANCH   9  23
ATOM     23  O   UNL     1      20.508  21.236  37.173  1.00  0.00    -0.507 OA
ATOM     24  H   UNL     1      20.921  21.115  36.254  1.00  0.00     0.293 HD
ENDBRANCH   9  23
BRANCH   7  25
ATOM     25  O   UNL     1      16.094  22.715  35.812  1.00  0.00    -0.508 OA
ATOM     26  H   UNL     1      15.748  21.820  35.481  1.00  0.00     0.293 HD
ENDBRANCH   7  25
TORSDOF 6
ENDMDL
MODEL 8
REMARK VINA RESULT:    -6.387      3.405      6.003
REMARK INTER + INTRA:          -7.758
REMARK INTER:                  -7.517
REMARK INTRA:                  -0.242
REMARK UNBOUND:                -0.065
REMARK SMILES Oc1cc(O)c2c(c1)O[C@@H](c1ccc(O)c(O)c1)[C@@H](O)C2
REMARK SMILES IDX 21 1 19 2 10 3 9 4 7 5 8 6 2 7 3 8 4 9 6 10 20 11 11 13
REMARK SMILES IDX 18 14 12 15 16 16 13 17 14 18 17 19 15 21 5 23 1 25
REMARK H PARENT 20 12 17 20 15 22 5 24 1 26
REMARK Flexibility Score: inf
ROOT
ATOM      1  C   UNL     1      16.543  21.558  43.396  1.00  0.00     0.079 C 
ATOM      2  C   UNL     1      17.578  22.608  42.948  1.00  0.00     0.164 C 
ATOM      3  C   UNL     1      17.390  23.902  43.774  1.00  0.00     0.232 C 
ATOM      4  O   UNL     1      17.516  23.597  45.165  1.00  0.00    -0.482 OA
ATOM      5  C   UNL     1      16.997  22.420  45.726  1.00  0.00     0.131 A 
ATOM      6  C   UNL     1      16.973  22.275  47.116  1.00  0.00     0.093 A 
ATOM      7  C   UNL     1      16.459  21.111  47.695  1.00  0.00     0.122 A 
ATOM      8  C   UNL     1      15.980  20.081  46.878  1.00  0.00     0.092 A 
ATOM      9  C   UNL     1      16.012  20.203  45.480  1.00  0.00     0.126 A 
ATOM     10  C   UNL     1      16.529  21.378  44.897  1.00  0.00     0.039 A 
ENDROOT
BRANCH   2  11
ATOM     11  O   UNL     1      18.873  22.092  43.155  1.00  0.00    -0.389 OA
ATOM     12  H   UNL     1      19.487  22.578  42.547  1.00  0.00     0.211 HD
ENDBRANCH   2  11
BRANCH   3  13
ATOM     13  C   UNL     1      18.327  25.050  43.433  1.00  0.00    -0.001 A 
ATOM     14  C   UNL     1      18.810  25.970  44.389  1.00  0.00     0.057 A 
ATOM     15  C   UNL     1      18.797  25.154  42.107  1.00  0.00     0.012 A 
ATOM     16  C   UNL     1      19.713  26.978  44.023  1.00  0.00     0.157 A 
ATOM     17  C   UNL     1      19.683  26.169  41.736  1.00  0.00     0.050 A 
ATOM     18  C   UNL     1      20.134  27.089  42.688  1.00  0.00     0.157 A 
BRANCH  16  19
ATOM     19  O   UNL     1      20.173  27.867  44.997  1.00  0.00    -0.504 OA
ATOM     20  H   UNL     1      21.156  28.076  45.114  1.00  0.00     0.293 HD
ENDBRANCH  16  19
BRANCH  18  21
ATOM     21  O   UNL     1      20.984  28.120  42.307  1.00  0.00    -0.504 OA
ATOM     22  H   UNL     1      21.953  27.950  42.055  1.00  0.00     0.293 HD
ENDBRANCH  18  21
ENDBRANCH   3  13
BRANCH   9  23
ATOM     23  O   UNL     1      15.543  19.167  44.678  1.00  0.00    -0.507 OA
ATOM     24  H   UNL     1      16.185  18.569  44.166  1.00  0.00     0.293 HD
ENDBRANCH   9  23
BRANCH   7  25
ATOM     25  O   UNL     1      16.427  20.992  49.084  1.00  0.00    -0.508 OA
ATOM     26  H   UNL     1      16.814  21.714  49.684  1.00  0.00     0.293 HD
ENDBRANCH   7  25
TORSDOF 6
ENDMDL
MODEL 9
REMARK VINA RESULT:    -6.344      3.881      5.753
REMARK INTER + INTRA:          -7.707
REMARK INTER:                  -7.335
REMARK INTRA:                  -0.372
REMARK UNBOUND:                -0.065
REMARK SMILES Oc1cc(O)c2c(c1)O[C@@H](c1ccc(O)c(O)c1)[C@@H](O)C2
REMARK SMILES IDX 21 1 19 2 10 3 9 4 7 5 8 6 2 7 3 8 4 9 6 10 20 11 11 13
REMARK SMILES IDX 18 14 12 15 16 16 13 17 14 18 17 19 15 21 5 23 1 25
REMARK H PARENT 20 12 17 20 15 22 5 24 1 26
REMARK Flexibility Score: inf
ROOT
ATOM      1  C   UNL     1      18.232  23.622  42.693  1.00  0.00     0.079 C 
ATOM      2  C   UNL     1      17.374  22.362  42.913  1.00  0.00     0.164 C 
ATOM      3  C   UNL     1      17.428  21.955  44.404  1.00  0.00     0.232 C 
ATOM      4  O   UNL     1      16.978  23.048  45.209  1.00  0.00    -0.482 OA
ATOM      5  C   UNL     1      17.303  24.381  44.915  1.00  0.00     0.131 A 
ATOM      6  C   UNL     1      17.006  25.380  45.846  1.00  0.00     0.093 A 
ATOM      7  C   UNL     1      17.324  26.715  45.573  1.00  0.00     0.122 A 
ATOM      8  C   UNL     1      17.927  27.051  44.357  1.00  0.00     0.092 A 
ATOM      9  C   UNL     1      18.217  26.063  43.405  1.00  0.00     0.126 A 
ATOM     10  C   UNL     1      17.899  24.717  43.681  1.00  0.00     0.039 A 
ENDROOT
BRANCH   2  11
ATOM     11  O   UNL     1      16.044  22.644  42.543  1.00  0.00    -0.389 OA
ATOM     12  H   UNL     1      16.057  22.956  41.601  1.00  0.00     0.211 HD
ENDBRANCH   2  11
BRANCH   3  13
ATOM     13  C   UNL     1      16.645  20.707  44.782  1.00  0.00    -0.001 A 
ATOM     14  C   UNL     1      17.062  19.399  44.452  1.00  0.00     0.057 A 
ATOM     15  C   UNL     1      15.485  20.862  45.567  1.00  0.00     0.012 A 
ATOM     16  C   UNL     1      16.325  18.284  44.872  1.00  0.00     0.157 A 
ATOM     17  C   UNL     1      14.737  19.752  45.972  1.00  0.00     0.050 A 
ATOM     18  C   UNL     1      15.147  18.463  45.617  1.00  0.00     0.157 A 
BRANCH  16  19
ATOM     19  O   UNL     1      16.770  17.004  44.531  1.00  0.00    -0.504 OA
ATOM     20  H   UNL     1      16.903  16.278  45.223  1.00  0.00     0.293 HD
ENDBRANCH  16  19
BRANCH  18  21
ATOM     21  O   UNL     1      14.381  17.365  45.988  1.00  0.00    -0.504 OA
ATOM     22  H   UNL     1      14.517  16.452  45.567  1.00  0.00     0.293 HD
ENDBRANCH  18  21
ENDBRANCH   3  13
BRANCH   9  23
ATOM     23  O   UNL     1      18.808  26.412  42.194  1.00  0.00    -0.507 OA
ATOM     24  H   UNL     1      18.735  27.356  41.828  1.00  0.00     0.293 HD
ENDBRANCH   9  23
BRANCH   7  25
ATOM     25  O   UNL     1      17.035  27.696  46.522  1.00  0.00    -0.508 OA
ATOM     26  H   UNL     1      17.757  28.319  46.872  1.00  0.00     0.293 HD
ENDBRANCH   7  25
TORSDOF 6
ENDMDL
