MODEL 1
REMARK VINA RESULT:    -3.682      0.000      0.000
REMARK INTER + INTRA:          -5.264
REMARK INTER:                  -5.619
REMARK INTRA:                   0.355
REMARK UNBOUND:                 0.355
REMARK SMILES CC1=CCC[C@H](C)C(=O)C[C@H](C(C)C)C(=O)C1
REMARK SMILES IDX 8 1 9 2 6 3 7 4 5 5 4 6 3 7 2 8 1 9 10 11 11 12 15 13 16 14
REMARK SMILES IDX 17 15 12 17 13 18 14 19
REMARK H PARENT
REMARK Flexibility Score: 70.00
ROOT
ATOM      1  C   UNL     1      -0.025  30.435  51.998  1.00  0.00     0.136 C 
ATOM      2  O   UNL     1       0.092  31.235  52.915  1.00  0.00    -0.299 OA
ENDROOT
BRANCH   1   3
ATOM      3  C   UNL     1      -0.923  30.820  50.827  1.00  0.00     0.053 C 
ATOM      4  C   UNL     1      -0.779  29.939  49.577  1.00  0.00     0.016 C 
BRANCH   3   5
ATOM      5  C   UNL     1      -2.404  30.970  51.264  1.00  0.00     0.015 C 
BRANCH   5   6
ATOM      6  C   UNL     1      -3.043  29.713  51.885  1.00  0.00     0.028 C 
BRANCH   6   7
ATOM      7  C   UNL     1      -3.056  29.764  53.392  1.00  0.00    -0.028 C 
ATOM      8  C   UNL     1      -2.645  28.768  54.213  1.00  0.00    -0.070 CG0
ATOM      9  C   UNL     1      -2.669  28.986  55.706  1.00  0.00     0.039 C 
ATOM     10  G   UNL     1      -2.231  27.397  53.715  1.00  0.00     0.000 G0
ENDBRANCH   6   7
ENDBRANCH   5   6
ENDBRANCH   3   5
ENDBRANCH   1   3
BRANCH   1  11
ATOM     11  C   UNL     1       0.753  29.138  52.095  1.00  0.00     0.087 C 
BRANCH  11  12
ATOM     12  C   UNL     1       0.223  28.225  53.234  1.00  0.00     0.066 C 
BRANCH  12  13
ATOM     13  C   UNL     1      -1.041  27.495  52.804  1.00  0.00     0.140 C 
ATOM     14  O   UNL     1      -1.079  26.940  51.715  1.00  0.00    -0.299 OA
BRANCH  13  15
ATOM     15  C   UNL     1      -2.246  27.403  53.705  1.00  0.00     0.106 CG0
ATOM     16  G   UNL     1      -2.642  28.775  54.216  1.00  0.00     0.000 G0
ENDBRANCH  13  15
ENDBRANCH  12  13
BRANCH  12  17
ATOM     17  C   UNL     1       1.320  27.247  53.757  1.00  0.00    -0.006 C 
ATOM     18  C   UNL     1       2.729  27.731  53.379  1.00  0.00     0.008 C 
ATOM     19  C   UNL     1       1.244  26.969  55.268  1.00  0.00     0.008 C 
ENDBRANCH  12  17
ENDBRANCH  11  12
ENDBRANCH   1  11
TORSDOF 1
ENDMDL
MODEL 2
REMARK VINA RESULT:    -3.084      8.496     10.938
REMARK INTER + INTRA:          -4.352
REMARK INTER:                  -4.460
REMARK INTRA:                   0.108
REMARK UNBOUND:                 0.355
REMARK SMILES CC1=CCC[C@H](C)C(=O)C[C@H](C(C)C)C(=O)C1
REMARK SMILES IDX 8 1 9 2 6 3 7 4 5 5 4 6 3 7 2 8 1 9 10 11 11 12 15 13 16 14
REMARK SMILES IDX 17 15 12 17 13 18 14 19
REMARK H PARENT
REMARK Flexibility Score: 70.00
ROOT
ATOM      1  C   UNL     1      -0.911  33.462  63.636  1.00  0.00     0.136 C 
ATOM      2  O   UNL     1       0.006  34.081  64.158  1.00  0.00    -0.299 OA
ENDROOT
BRANCH   1   3
ATOM      3  C   UNL     1      -2.312  33.647  64.208  1.00  0.00     0.053 C 
ATOM      4  C   UNL     1      -2.513  33.100  65.630  1.00  0.00     0.016 C 
BRANCH   3   5
ATOM      5  C   UNL     1      -2.796  35.115  64.079  1.00  0.00     0.015 C 
BRANCH   5   6
ATOM      6  C   UNL     1      -3.849  35.373  62.984  1.00  0.00     0.028 C 
BRANCH   6   7
ATOM      7  C   UNL     1      -3.314  36.237  61.869  1.00  0.00    -0.028 C 
ATOM      8  C   UNL     1      -3.034  35.812  60.614  1.00  0.00    -0.070 CG0
ATOM      9  C   UNL     1      -2.554  36.809  59.588  1.00  0.00     0.039 C 
ATOM     10  G   UNL     1      -3.102  34.356  60.194  1.00  0.00     0.000 G0
ENDBRANCH   6   7
ENDBRANCH   5   6
ENDBRANCH   3   5
ENDBRANCH   1   3
BRANCH   1  11
ATOM     11  C   UNL     1      -0.575  32.583  62.448  1.00  0.00     0.087 C 
BRANCH  11  12
ATOM     12  C   UNL     1      -1.769  32.453  61.464  1.00  0.00     0.066 C 
BRANCH  12  13
ATOM     13  C   UNL     1      -1.809  33.627  60.497  1.00  0.00     0.140 C 
ATOM     14  O   UNL     1      -0.783  33.982  59.933  1.00  0.00    -0.299 OA
BRANCH  13  15
ATOM     15  C   UNL     1      -3.094  34.350  60.182  1.00  0.00     0.106 CG0
ATOM     16  G   UNL     1      -3.017  35.800  60.619  1.00  0.00     0.000 G0
ENDBRANCH  13  15
ENDBRANCH  12  13
BRANCH  12  17
ATOM     17  C   UNL     1      -1.771  31.080  60.725  1.00  0.00    -0.006 C 
ATOM     18  C   UNL     1      -2.581  30.027  61.498  1.00  0.00     0.008 C 
ATOM     19  C   UNL     1      -2.255  31.153  59.265  1.00  0.00     0.008 C 
ENDBRANCH  12  17
ENDBRANCH  11  12
ENDBRANCH   1  11
TORSDOF 1
ENDMDL
MODEL 3
REMARK VINA RESULT:    -2.948      1.479      2.065
REMARK INTER + INTRA:          -4.145
REMARK INTER:                  -4.256
REMARK INTRA:                   0.111
REMARK UNBOUND:                 0.355
REMARK SMILES CC1=CCC[C@H](C)C(=O)C[C@H](C(C)C)C(=O)C1
REMARK SMILES IDX 8 1 9 2 6 3 7 4 5 5 4 6 3 7 2 8 1 9 10 11 11 12 15 13 16 14
REMARK SMILES IDX 17 15 12 17 13 18 14 19
REMARK H PARENT
REMARK Flexibility Score: 70.00
ROOT
ATOM      1  C   UNL     1      -1.127  28.383  51.508  1.00  0.00     0.136 C 
ATOM      2  O   UNL     1      -1.906  27.989  50.650  1.00  0.00    -0.299 OA
ENDROOT
BRANCH   1   3
ATOM      3  C   UNL     1      -0.687  29.842  51.453  1.00  0.00     0.053 C 
ATOM      4  C   UNL     1      -0.262  30.343  50.064  1.00  0.00     0.016 C 
BRANCH   3   5
ATOM      5  C   UNL     1      -1.729  30.781  52.115  1.00  0.00     0.015 C 
BRANCH   5   6
ATOM      6  C   UNL     1      -3.105  30.150  52.399  1.00  0.00     0.028 C 
BRANCH   6   7
ATOM      7  C   UNL     1      -3.531  30.331  53.835  1.00  0.00    -0.028 C 
ATOM      8  C   UNL     1      -3.284  29.458  54.841  1.00  0.00    -0.070 CG0
ATOM      9  C   UNL     1      -3.728  29.802  56.242  1.00  0.00     0.039 C 
ATOM     10  G   UNL     1      -2.648  28.098  54.625  1.00  0.00     0.000 G0
ENDBRANCH   6   7
ENDBRANCH   5   6
ENDBRANCH   3   5
ENDBRANCH   1   3
BRANCH   1  11
ATOM     11  C   UNL     1      -0.687  27.390  52.564  1.00  0.00     0.087 C 
BRANCH  11  12
ATOM     12  C   UNL     1      -0.118  28.095  53.825  1.00  0.00     0.066 C 
BRANCH  12  13
ATOM     13  C   UNL     1      -1.153  28.139  54.939  1.00  0.00     0.140 C 
ATOM     14  O   UNL     1      -0.787  28.241  56.102  1.00  0.00    -0.299 OA
BRANCH  13  15
ATOM     15  C   UNL     1      -2.631  28.096  54.647  1.00  0.00     0.106 CG0
ATOM     16  G   UNL     1      -3.255  29.467  54.823  1.00  0.00     0.000 G0
ENDBRANCH  13  15
ENDBRANCH  12  13
BRANCH  12  17
ATOM     17  C   UNL     1       1.227  27.457  54.294  1.00  0.00    -0.006 C 
ATOM     18  C   UNL     1       1.216  25.931  54.115  1.00  0.00     0.008 C 
ATOM     19  C   UNL     1       2.474  28.060  53.625  1.00  0.00     0.008 C 
ENDBRANCH  12  17
ENDBRANCH  11  12
ENDBRANCH   1  11
TORSDOF 1
ENDMDL
MODEL 4
REMARK VINA RESULT:    -2.889      7.610      9.801
REMARK INTER + INTRA:          -4.055
REMARK INTER:                  -4.267
REMARK INTRA:                   0.212
REMARK UNBOUND:                 0.355
REMARK SMILES CC1=CCC[C@H](C)C(=O)C[C@H](C(C)C)C(=O)C1
REMARK SMILES IDX 8 1 9 2 6 3 7 4 5 5 4 6 3 7 2 8 1 9 10 11 11 12 15 13 16 14
REMARK SMILES IDX 17 15 12 17 13 18 14 19
REMARK H PARENT
REMARK Flexibility Score: 70.00
ROOT
ATOM      1  C   UNL     1      -3.818  34.600  59.695  1.00  0.00     0.136 C 
ATOM      2  O   UNL     1      -4.092  34.704  58.507  1.00  0.00    -0.299 OA
ENDROOT
BRANCH   1   3
ATOM      3  C   UNL     1      -3.331  35.847  60.425  1.00  0.00     0.053 C 
ATOM      4  C   UNL     1      -3.536  35.833  61.947  1.00  0.00     0.016 C 
BRANCH   3   5
ATOM      5  C   UNL     1      -1.871  36.204  60.040  1.00  0.00     0.015 C 
BRANCH   5   6
ATOM      6  C   UNL     1      -0.841  35.071  60.219  1.00  0.00     0.028 C 
BRANCH   6   7
ATOM      7  C   UNL     1      -0.498  34.836  61.669  1.00  0.00    -0.028 C 
ATOM      8  C   UNL     1      -0.327  33.623  62.246  1.00  0.00    -0.070 CG0
ATOM      9  C   UNL     1       0.068  33.547  63.701  1.00  0.00     0.039 C 
ATOM     10  G   UNL     1      -0.590  32.314  61.526  1.00  0.00     0.000 G0
ENDBRANCH   6   7
ENDBRANCH   5   6
ENDBRANCH   3   5
ENDBRANCH   1   3
BRANCH   1  11
ATOM     11  C   UNL     1      -4.011  33.244  60.342  1.00  0.00     0.087 C 
BRANCH  11  12
ATOM     12  C   UNL     1      -2.801  32.303  60.096  1.00  0.00     0.066 C 
BRANCH  12  13
ATOM     13  C   UNL     1      -2.059  32.017  61.393  1.00  0.00     0.140 C 
ATOM     14  O   UNL     1      -2.659  31.524  62.338  1.00  0.00    -0.299 OA
BRANCH  13  15
ATOM     15  C   UNL     1      -0.584  32.293  61.538  1.00  0.00     0.106 CG0
ATOM     16  G   UNL     1      -0.350  33.609  62.254  1.00  0.00     0.000 G0
ENDBRANCH  13  15
ENDBRANCH  12  13
BRANCH  12  17
ATOM     17  C   UNL     1      -3.219  30.995  59.355  1.00  0.00    -0.006 C 
ATOM     18  C   UNL     1      -3.905  31.304  58.015  1.00  0.00     0.008 C 
ATOM     19  C   UNL     1      -2.066  29.998  59.142  1.00  0.00     0.008 C 
ENDBRANCH  12  17
ENDBRANCH  11  12
ENDBRANCH   1  11
TORSDOF 1
ENDMDL
MODEL 5
REMARK VINA RESULT:    -2.845      8.163     10.791
REMARK INTER + INTRA:          -3.988
REMARK INTER:                  -4.451
REMARK INTRA:                   0.464
REMARK UNBOUND:                 0.355
REMARK SMILES CC1=CCC[C@H](C)C(=O)C[C@H](C(C)C)C(=O)C1
REMARK SMILES IDX 8 1 9 2 6 3 7 4 5 5 4 6 3 7 2 8 1 9 10 11 11 12 15 13 16 14
REMARK SMILES IDX 17 15 12 17 13 18 14 19
REMARK H PARENT
REMARK Flexibility Score: 70.00
ROOT
ATOM      1  C   UNL     1      -3.317  32.343  63.720  1.00  0.00     0.136 C 
ATOM      2  O   UNL     1      -3.872  31.938  64.732  1.00  0.00    -0.299 OA
ENDROOT
BRANCH   1   3
ATOM      3  C   UNL     1      -2.493  33.621  63.822  1.00  0.00     0.053 C 
ATOM      4  C   UNL     1      -3.152  34.760  64.615  1.00  0.00     0.016 C 
BRANCH   3   5
ATOM      5  C   UNL     1      -1.047  33.336  64.309  1.00  0.00     0.015 C 
BRANCH   5   6
ATOM      6  C   UNL     1       0.057  33.512  63.249  1.00  0.00     0.028 C 
BRANCH   6   7
ATOM      7  C   UNL     1      -0.323  34.516  62.189  1.00  0.00    -0.028 C 
ATOM      8  C   UNL     1      -0.636  34.218  60.905  1.00  0.00    -0.070 CG0
ATOM      9  C   UNL     1      -1.049  35.329  59.971  1.00  0.00     0.039 C 
ATOM     10  G   UNL     1      -0.517  32.823  60.322  1.00  0.00     0.000 G0
ENDBRANCH   6   7
ENDBRANCH   5   6
ENDBRANCH   3   5
ENDBRANCH   1   3
BRANCH   1  11
ATOM     11  C   UNL     1      -3.478  31.521  62.457  1.00  0.00     0.087 C 
BRANCH  11  12
ATOM     12  C   UNL     1      -2.921  32.257  61.208  1.00  0.00     0.066 C 
BRANCH  12  13
ATOM     13  C   UNL     1      -1.480  31.854  60.936  1.00  0.00     0.140 C 
ATOM     14  O   UNL     1      -1.107  30.721  61.202  1.00  0.00    -0.299 OA
BRANCH  13  15
ATOM     15  C   UNL     1      -0.497  32.811  60.309  1.00  0.00     0.106 CG0
ATOM     16  G   UNL     1      -0.659  34.204  60.886  1.00  0.00     0.000 G0
ENDBRANCH  13  15
ENDBRANCH  12  13
BRANCH  12  17
ATOM     17  C   UNL     1      -3.834  32.060  59.959  1.00  0.00    -0.006 C 
ATOM     18  C   UNL     1      -4.123  33.397  59.258  1.00  0.00     0.008 C 
ATOM     19  C   UNL     1      -3.297  31.036  58.944  1.00  0.00     0.008 C 
ENDBRANCH  12  17
ENDBRANCH  11  12
ENDBRANCH   1  11
TORSDOF 1
ENDMDL
MODEL 6
REMARK VINA RESULT:    -2.656      1.772      3.652
REMARK INTER + INTRA:          -3.699
REMARK INTER:                  -4.957
REMARK INTRA:                   1.258
REMARK UNBOUND:                 0.355
REMARK SMILES CC1=CCC[C@H](C)C(=O)C[C@H](C(C)C)C(=O)C1
REMARK SMILES IDX 8 1 9 2 6 3 7 4 5 5 4 6 3 7 2 8 1 9 10 11 11 12 15 13 16 14
REMARK SMILES IDX 17 15 12 17 13 18 14 19
REMARK H PARENT
REMARK Flexibility Score: 70.00
ROOT
ATOM      1  C   UNL     1      -1.886  28.284  54.725  1.00  0.00     0.136 C 
ATOM      2  O   UNL     1      -1.119  28.600  55.625  1.00  0.00    -0.299 OA
ENDROOT
BRANCH   1   3
ATOM      3  C   UNL     1      -3.138  29.131  54.527  1.00  0.00     0.053 C 
ATOM      4  C   UNL     1      -3.826  29.591  55.821  1.00  0.00     0.016 C 
BRANCH   3   5
ATOM      5  C   UNL     1      -2.884  30.312  53.553  1.00  0.00     0.015 C 
BRANCH   5   6
ATOM      6  C   UNL     1      -3.362  30.093  52.105  1.00  0.00     0.028 C 
BRANCH   6   7
ATOM      7  C   UNL     1      -2.400  30.666  51.094  1.00  0.00    -0.028 C 
ATOM      8  C   UNL     1      -1.372  29.993  50.523  1.00  0.00    -0.070 CG0
ATOM      9  C   UNL     1      -0.525  30.686  49.484  1.00  0.00     0.039 C 
ATOM     10  G   UNL     1      -0.969  28.589  50.930  1.00  0.00     0.000 G0
ENDBRANCH   6   7
ENDBRANCH   5   6
ENDBRANCH   3   5
ENDBRANCH   1   3
BRANCH   1  11
ATOM     11  C   UNL     1      -1.509  27.091  53.871  1.00  0.00     0.087 C 
BRANCH  11  12
ATOM     12  C   UNL     1      -0.172  27.315  53.115  1.00  0.00     0.066 C 
BRANCH  12  13
ATOM     13  C   UNL     1      -0.240  28.561  52.244  1.00  0.00     0.140 C 
ATOM     14  O   UNL     1       0.346  29.576  52.593  1.00  0.00    -0.299 OA
BRANCH  13  15
ATOM     15  C   UNL     1      -0.985  28.570  50.934  1.00  0.00     0.106 CG0
ATOM     16  G   UNL     1      -1.361  29.985  50.537  1.00  0.00     0.000 G0
ENDBRANCH  13  15
ENDBRANCH  12  13
BRANCH  12  17
ATOM     17  C   UNL     1       1.051  27.339  54.084  1.00  0.00    -0.006 C 
ATOM     18  C   UNL     1       1.124  26.056  54.926  1.00  0.00     0.008 C 
ATOM     19  C   UNL     1       2.399  27.593  53.387  1.00  0.00     0.008 C 
ENDBRANCH  12  17
ENDBRANCH  11  12
ENDBRANCH   1  11
TORSDOF 1
ENDMDL
MODEL 7
REMARK VINA RESULT:    -2.434      9.836     12.225
REMARK INTER + INTRA:          -3.361
REMARK INTER:                  -3.398
REMARK INTRA:                   0.038
REMARK UNBOUND:                 0.355
REMARK SMILES CC1=CCC[C@H](C)C(=O)C[C@H](C(C)C)C(=O)C1
REMARK SMILES IDX 8 1 9 2 6 3 7 4 5 5 4 6 3 7 2 8 1 9 10 11 11 12 15 13 16 14
REMARK SMILES IDX 17 15 12 17 13 18 14 19
REMARK H PARENT
REMARK Flexibility Score: 70.00
ROOT
ATOM      1  C   UNL     1      -0.382  34.577  61.475  1.00  0.00     0.136 C 
ATOM      2  O   UNL     1       0.820  34.772  61.356  1.00  0.00    -0.299 OA
ENDROOT
BRANCH   1   3
ATOM      3  C   UNL     1      -0.862  33.134  61.577  1.00  0.00     0.053 C 
ATOM      4  C   UNL     1      -0.471  32.232  60.396  1.00  0.00     0.016 C 
BRANCH   3   5
ATOM      5  C   UNL     1      -0.487  32.498  62.941  1.00  0.00     0.015 C 
BRANCH   5   6
ATOM      6  C   UNL     1      -0.474  33.463  64.142  1.00  0.00     0.028 C 
BRANCH   6   7
ATOM      7  C   UNL     1      -1.760  33.415  64.928  1.00  0.00    -0.028 C 
ATOM      8  C   UNL     1      -2.627  34.446  65.074  1.00  0.00    -0.070 CG0
ATOM      9  C   UNL     1      -3.904  34.231  65.848  1.00  0.00     0.039 C 
ATOM     10  G   UNL     1      -2.348  35.847  64.563  1.00  0.00     0.000 G0
ENDBRANCH   6   7
ENDBRANCH   5   6
ENDBRANCH   3   5
ENDBRANCH   1   3
BRANCH   1  11
ATOM     11  C   UNL     1      -1.285  35.792  61.535  1.00  0.00     0.087 C 
BRANCH  11  12
ATOM     12  C   UNL     1      -2.728  35.423  61.974  1.00  0.00     0.066 C 
BRANCH  12  13
ATOM     13  C   UNL     1      -3.097  36.117  63.276  1.00  0.00     0.140 C 
ATOM     14  O   UNL     1      -4.038  36.898  63.301  1.00  0.00    -0.299 OA
BRANCH  13  15
ATOM     15  C   UNL     1      -2.352  35.841  64.558  1.00  0.00     0.106 CG0
ATOM     16  G   UNL     1      -2.641  34.438  65.057  1.00  0.00     0.000 G0
ENDBRANCH  13  15
ENDBRANCH  12  13
BRANCH  12  17
ATOM     17  C   UNL     1      -3.770  35.696  60.845  1.00  0.00    -0.006 C 
ATOM     18  C   UNL     1      -3.674  37.141  60.330  1.00  0.00     0.008 C 
ATOM     19  C   UNL     1      -3.692  34.708  59.667  1.00  0.00     0.008 C 
ENDBRANCH  12  17
ENDBRANCH  11  12
ENDBRANCH   1  11
TORSDOF 1
ENDMDL
MODEL 8
REMARK VINA RESULT:    -2.409      9.437     11.645
REMARK INTER + INTRA:          -3.322
REMARK INTER:                  -3.720
REMARK INTRA:                   0.398
REMARK UNBOUND:                 0.355
REMARK SMILES CC1=CCC[C@H](C)C(=O)C[C@H](C(C)C)C(=O)C1
REMARK SMILES IDX 8 1 9 2 6 3 7 4 5 5 4 6 3 7 2 8 1 9 10 11 11 12 15 13 16 14
REMARK SMILES IDX 17 15 12 17 13 18 14 19
REMARK H PARENT
REMARK Flexibility Score: 70.00
ROOT
ATOM      1  C   UNL     1      -3.289  38.023  61.653  1.00  0.00     0.136 C 
ATOM      2  O   UNL     1      -3.088  39.224  61.538  1.00  0.00    -0.299 OA
ENDROOT
BRANCH   1   3
ATOM      3  C   UNL     1      -3.007  37.380  63.006  1.00  0.00     0.053 C 
ATOM      4  C   UNL     1      -3.001  38.348  64.199  1.00  0.00     0.016 C 
BRANCH   3   5
ATOM      5  C   UNL     1      -3.920  36.152  63.260  1.00  0.00     0.015 C 
BRANCH   5   6
ATOM      6  C   UNL     1      -3.220  34.781  63.204  1.00  0.00     0.028 C 
BRANCH   6   7
ATOM      7  C   UNL     1      -1.813  34.879  62.668  1.00  0.00    -0.028 C 
ATOM      8  C   UNL     1      -1.432  34.565  61.407  1.00  0.00    -0.070 CG0
ATOM      9  C   UNL     1       0.007  34.767  61.000  1.00  0.00     0.039 C 
ATOM     10  G   UNL     1      -2.364  33.941  60.387  1.00  0.00     0.000 G0
ENDBRANCH   6   7
ENDBRANCH   5   6
ENDBRANCH   3   5
ENDBRANCH   1   3
BRANCH   1  11
ATOM     11  C   UNL     1      -3.824  37.284  60.443  1.00  0.00     0.087 C 
BRANCH  11  12
ATOM     12  C   UNL     1      -2.712  36.490  59.706  1.00  0.00     0.066 C 
BRANCH  12  13
ATOM     13  C   UNL     1      -3.080  35.019  59.586  1.00  0.00     0.140 C 
ATOM     14  O   UNL     1      -3.970  34.678  58.820  1.00  0.00    -0.299 OA
BRANCH  13  15
ATOM     15  C   UNL     1      -2.349  33.955  60.364  1.00  0.00     0.106 CG0
ATOM     16  G   UNL     1      -1.418  34.579  61.386  1.00  0.00     0.000 G0
ENDBRANCH  13  15
ENDBRANCH  12  13
BRANCH  12  17
ATOM     17  C   UNL     1      -2.359  37.124  58.325  1.00  0.00    -0.006 C 
ATOM     18  C   UNL     1      -3.107  38.449  58.108  1.00  0.00     0.008 C 
ATOM     19  C   UNL     1      -0.851  37.324  58.093  1.00  0.00     0.008 C 
ENDBRANCH  12  17
ENDBRANCH  11  12
ENDBRANCH   1  11
TORSDOF 1
ENDMDL
MODEL 9
REMARK VINA RESULT:    -2.396      8.185     10.864
REMARK INTER + INTRA:          -3.302
REMARK INTER:                  -3.841
REMARK INTRA:                   0.540
REMARK UNBOUND:                 0.355
REMARK SMILES CC1=CCC[C@H](C)C(=O)C[C@H](C(C)C)C(=O)C1
REMARK SMILES IDX 8 1 9 2 6 3 7 4 5 5 4 6 3 7 2 8 1 9 10 11 11 12 15 13 16 14
REMARK SMILES IDX 17 15 12 17 13 18 14 19
REMARK H PARENT
REMARK Flexibility Score: 70.00
ROOT
ATOM      1  C   UNL     1      -2.728  34.938  63.140  1.00  0.00     0.136 C 
ATOM      2  O   UNL     1      -2.588  35.786  64.010  1.00  0.00    -0.299 OA
ENDROOT
BRANCH   1   3
ATOM      3  C   UNL     1      -2.234  33.526  63.436  1.00  0.00     0.053 C 
ATOM      4  C   UNL     1      -1.105  33.434  64.474  1.00  0.00     0.016 C 
BRANCH   3   5
ATOM      5  C   UNL     1      -3.406  32.565  63.768  1.00  0.00     0.015 C 
BRANCH   5   6
ATOM      6  C   UNL     1      -4.062  31.874  62.557  1.00  0.00     0.028 C 
BRANCH   6   7
ATOM      7  C   UNL     1      -3.049  31.184  61.676  1.00  0.00    -0.028 C 
ATOM      8  C   UNL     1      -2.513  31.702  60.545  1.00  0.00    -0.070 CG0
ATOM      9  C   UNL     1      -1.469  30.912  59.796  1.00  0.00     0.039 C 
ATOM     10  G   UNL     1      -2.965  33.016  59.936  1.00  0.00     0.000 G0
ENDBRANCH   6   7
ENDBRANCH   5   6
ENDBRANCH   3   5
ENDBRANCH   1   3
BRANCH   1  11
ATOM     11  C   UNL     1      -3.404  35.361  61.852  1.00  0.00     0.087 C 
BRANCH  11  12
ATOM     12  C   UNL     1      -2.393  35.499  60.682  1.00  0.00     0.066 C 
BRANCH  12  13
ATOM     13  C   UNL     1      -1.959  34.133  60.172  1.00  0.00     0.140 C 
ATOM     14  O   UNL     1      -0.771  33.903  59.993  1.00  0.00    -0.299 OA
BRANCH  13  15
ATOM     15  C   UNL     1      -2.956  33.033  59.913  1.00  0.00     0.106 CG0
ATOM     16  G   UNL     1      -2.502  31.733  60.549  1.00  0.00     0.000 G0
ENDBRANCH  13  15
ENDBRANCH  12  13
BRANCH  12  17
ATOM     17  C   UNL     1      -2.942  36.408  59.539  1.00  0.00    -0.006 C 
ATOM     18  C   UNL     1      -3.950  37.436  60.075  1.00  0.00     0.008 C 
ATOM     19  C   UNL     1      -1.849  37.115  58.719  1.00  0.00     0.008 C 
ENDBRANCH  12  17
ENDBRANCH  11  12
ENDBRANCH   1  11
TORSDOF 1
ENDMDL
