MODEL 1
REMARK VINA RESULT:    -6.302      0.000      0.000
REMARK INTER + INTRA:          -7.524
REMARK INTER:                  -7.223
REMARK INTRA:                  -0.301
REMARK UNBOUND:                -0.301
REMARK SMILES O=C1C[C@H](c2ccc(O)cc2)Oc2cc(O)cc(O)c21
REMARK SMILES IDX 3 1 4 2 12 3 13 4 14 5 15 6 17 7 18 8 20 9 2 10 1 11 5 12
REMARK SMILES IDX 6 13 11 14 7 15 10 16 8 17 9 18 19 20 16 22
REMARK H PARENT 9 19 19 21 16 23
REMARK Flexibility Score: inf
ROOT
ATOM      1  C   UNL     1      30.041 -92.196  37.045  1.00  0.00     0.131 C 
ATOM      2  C   UNL     1      30.919 -91.566  38.136  1.00  0.00     0.211 C 
ATOM      3  O   UNL     1      32.098 -92.349  38.347  1.00  0.00    -0.484 OA
ATOM      4  C   UNL     1      32.087 -93.751  38.334  1.00  0.00     0.138 A 
ATOM      5  C   UNL     1      33.200 -94.441  38.818  1.00  0.00     0.093 A 
ATOM      6  C   UNL     1      33.214 -95.836  38.833  1.00  0.00     0.123 A 
ATOM      7  C   UNL     1      32.118 -96.546  38.332  1.00  0.00     0.093 A 
ATOM      8  C   UNL     1      31.008 -95.875  37.804  1.00  0.00     0.133 A 
ATOM      9  C   UNL     1      30.971 -94.456  37.832  1.00  0.00     0.102 A 
ATOM     10  C   UNL     1      29.820 -93.644  37.368  1.00  0.00     0.174 C 
ATOM     11  O   UNL     1      28.659 -94.124  37.289  1.00  0.00    -0.294 OA
ENDROOT
BRANCH   2  12
ATOM     12  C   UNL     1      31.296 -90.153  37.766  1.00  0.00    -0.007 A 
ATOM     13  C   UNL     1      30.556 -89.062  38.258  1.00  0.00     0.011 A 
ATOM     14  C   UNL     1      32.428 -89.909  36.969  1.00  0.00     0.011 A 
ATOM     15  C   UNL     1      30.929 -87.753  37.937  1.00  0.00     0.046 A 
ATOM     16  C   UNL     1      32.798 -88.598  36.651  1.00  0.00     0.046 A 
ATOM     17  C   UNL     1      32.050 -87.519  37.131  1.00  0.00     0.115 A 
BRANCH  17  18
ATOM     18  O   UNL     1      32.430 -86.218  36.804  1.00  0.00    -0.508 OA
ATOM     19  H   UNL     1      33.224 -85.772  37.247  1.00  0.00     0.293 HD
ENDBRANCH  17  18
ENDBRANCH   2  12
BRANCH   8  20
ATOM     20  O   UNL     1      29.997 -96.654  37.237  1.00  0.00    -0.507 OA
ATOM     21  H   UNL     1      29.203 -96.275  36.743  1.00  0.00     0.293 HD
ENDBRANCH   8  20
BRANCH   6  22
ATOM     22  O   UNL     1      34.324 -96.506  39.341  1.00  0.00    -0.508 OA
ATOM     23  H   UNL     1      34.430 -97.510  39.238  1.00  0.00     0.293 HD
ENDBRANCH   6  22
TORSDOF 4
ENDMDL
MODEL 2
REMARK VINA RESULT:    -6.199      1.452      3.067
REMARK INTER + INTRA:          -7.407
REMARK INTER:                  -7.097
REMARK INTRA:                  -0.309
REMARK UNBOUND:                -0.301
REMARK SMILES O=C1C[C@H](c2ccc(O)cc2)Oc2cc(O)cc(O)c21
REMARK SMILES IDX 3 1 4 2 12 3 13 4 14 5 15 6 17 7 18 8 20 9 2 10 1 11 5 12
REMARK SMILES IDX 6 13 11 14 7 15 10 16 8 17 9 18 19 20 16 22
REMARK H PARENT 9 19 19 21 16 23
REMARK Flexibility Score: inf
ROOT
ATOM      1  C   UNL     1      32.471 -92.679  38.337  1.00  0.00     0.131 C 
ATOM      2  C   UNL     1      31.485 -92.228  37.250  1.00  0.00     0.211 C 
ATOM      3  O   UNL     1      30.268 -92.975  37.333  1.00  0.00    -0.484 OA
ATOM      4  C   UNL     1      30.240 -94.346  37.624  1.00  0.00     0.138 A 
ATOM      5  C   UNL     1      29.057 -95.059  37.417  1.00  0.00     0.093 A 
ATOM      6  C   UNL     1      29.002 -96.427  37.682  1.00  0.00     0.123 A 
ATOM      7  C   UNL     1      30.130 -97.082  38.187  1.00  0.00     0.093 A 
ATOM      8  C   UNL     1      31.315 -96.380  38.441  1.00  0.00     0.133 A 
ATOM      9  C   UNL     1      31.388 -94.997  38.126  1.00  0.00     0.102 A 
ATOM     10  C   UNL     1      32.610 -94.171  38.286  1.00  0.00     0.174 C 
ATOM     11  O   UNL     1      33.758 -94.686  38.326  1.00  0.00    -0.294 OA
ENDROOT
BRANCH   2  12
ATOM     12  C   UNL     1      31.196 -90.752  37.370  1.00  0.00    -0.007 A 
ATOM     13  C   UNL     1      32.162 -89.800  36.999  1.00  0.00     0.011 A 
ATOM     14  C   UNL     1      29.934 -90.313  37.806  1.00  0.00     0.011 A 
ATOM     15  C   UNL     1      31.878 -88.434  37.084  1.00  0.00     0.046 A 
ATOM     16  C   UNL     1      29.652 -88.945  37.890  1.00  0.00     0.046 A 
ATOM     17  C   UNL     1      30.622 -88.004  37.532  1.00  0.00     0.115 A 
BRANCH  17  18
ATOM     18  O   UNL     1      30.328 -86.645  37.621  1.00  0.00    -0.508 OA
ATOM     19  H   UNL     1      29.495 -86.254  37.199  1.00  0.00     0.293 HD
ENDBRANCH  17  18
ENDBRANCH   2  12
BRANCH   8  20
ATOM     20  O   UNL     1      32.365 -97.086  39.032  1.00  0.00    -0.507 OA
ATOM     21  H   UNL     1      33.173 -96.648  39.451  1.00  0.00     0.293 HD
ENDBRANCH   8  20
BRANCH   6  22
ATOM     22  O   UNL     1      27.820 -97.124  37.448  1.00  0.00    -0.508 OA
ATOM     23  H   UNL     1      27.292 -97.543  38.207  1.00  0.00     0.293 HD
ENDBRANCH   6  22
TORSDOF 4
ENDMDL
MODEL 3
REMARK VINA RESULT:    -5.309      8.117     10.460
REMARK INTER + INTRA:          -6.386
REMARK INTER:                  -6.090
REMARK INTRA:                  -0.296
REMARK UNBOUND:                -0.301
REMARK SMILES O=C1C[C@H](c2ccc(O)cc2)Oc2cc(O)cc(O)c21
REMARK SMILES IDX 3 1 4 2 12 3 13 4 14 5 15 6 17 7 18 8 20 9 2 10 1 11 5 12
REMARK SMILES IDX 6 13 11 14 7 15 10 16 8 17 9 18 19 20 16 22
REMARK H PARENT 9 19 19 21 16 23
REMARK Flexibility Score: inf
ROOT
ATOM      1  C   UNL     1      41.481 -94.432  35.826  1.00  0.00     0.131 C 
ATOM      2  C   UNL     1      40.743 -95.562  35.095  1.00  0.00     0.211 C 
ATOM      3  O   UNL     1      39.406 -95.692  35.587  1.00  0.00    -0.484 OA
ATOM      4  C   UNL     1      39.084 -95.559  36.945  1.00  0.00     0.138 A 
ATOM      5  C   UNL     1      37.824 -95.969  37.386  1.00  0.00     0.093 A 
ATOM      6  C   UNL     1      37.479 -95.864  38.733  1.00  0.00     0.123 A 
ATOM      7  C   UNL     1      38.390 -95.316  39.642  1.00  0.00     0.093 A 
ATOM      8  C   UNL     1      39.644 -94.860  39.216  1.00  0.00     0.133 A 
ATOM      9  C   UNL     1      40.016 -95.011  37.854  1.00  0.00     0.102 A 
ATOM     10  C   UNL     1      41.341 -94.631  37.306  1.00  0.00     0.174 C 
ATOM     11  O   UNL     1      42.357 -94.525  38.042  1.00  0.00    -0.294 OA
ENDROOT
BRANCH   2  12
ATOM     12  C   UNL     1      40.725 -95.311  33.607  1.00  0.00    -0.007 A 
ATOM     13  C   UNL     1      41.510 -96.091  32.740  1.00  0.00     0.011 A 
ATOM     14  C   UNL     1      39.877 -94.329  33.067  1.00  0.00     0.011 A 
ATOM     15  C   UNL     1      41.466 -95.875  31.359  1.00  0.00     0.046 A 
ATOM     16  C   UNL     1      39.835 -94.115  31.685  1.00  0.00     0.046 A 
ATOM     17  C   UNL     1      40.629 -94.884  30.829  1.00  0.00     0.115 A 
BRANCH  17  18
ATOM     18  O   UNL     1      40.577 -94.659  29.455  1.00  0.00    -0.508 OA
ATOM     19  H   UNL     1      40.643 -95.421  28.791  1.00  0.00     0.293 HD
ENDBRANCH  17  18
ENDBRANCH   2  12
BRANCH   8  20
ATOM     20  O   UNL     1      40.458 -94.241  40.167  1.00  0.00    -0.507 OA
ATOM     21  H   UNL     1      40.111 -93.647  40.905  1.00  0.00     0.293 HD
ENDBRANCH   8  20
BRANCH   6  22
ATOM     22  O   UNL     1      36.225 -96.299  39.156  1.00  0.00    -0.508 OA
ATOM     23  H   UNL     1      36.108 -97.174  39.655  1.00  0.00     0.293 HD
ENDBRANCH   6  22
TORSDOF 4
ENDMDL
MODEL 4
REMARK VINA RESULT:    -5.232      9.085     11.311
REMARK INTER + INTRA:          -6.298
REMARK INTER:                  -5.980
REMARK INTRA:                  -0.317
REMARK UNBOUND:                -0.301
REMARK SMILES O=C1C[C@H](c2ccc(O)cc2)Oc2cc(O)cc(O)c21
REMARK SMILES IDX 3 1 4 2 12 3 13 4 14 5 15 6 17 7 18 8 20 9 2 10 1 11 5 12
REMARK SMILES IDX 6 13 11 14 7 15 10 16 8 17 9 18 19 20 16 22
REMARK H PARENT 9 19 19 21 16 23
REMARK Flexibility Score: inf
ROOT
ATOM      1  C   UNL     1      42.335 -95.423  35.328  1.00  0.00     0.131 C 
ATOM      2  C   UNL     1      41.413 -94.403  36.011  1.00  0.00     0.211 C 
ATOM      3  O   UNL     1      40.094 -94.468  35.461  1.00  0.00    -0.484 OA
ATOM      4  C   UNL     1      39.855 -94.657  34.093  1.00  0.00     0.138 A 
ATOM      5  C   UNL     1      38.570 -94.434  33.593  1.00  0.00     0.093 A 
ATOM      6  C   UNL     1      38.303 -94.598  32.234  1.00  0.00     0.123 A 
ATOM      7  C   UNL     1      39.321 -95.019  31.372  1.00  0.00     0.093 A 
ATOM      8  C   UNL     1      40.607 -95.288  31.858  1.00  0.00     0.133 A 
ATOM      9  C   UNL     1      40.894 -95.074  33.232  1.00  0.00     0.102 A 
ATOM     10  C   UNL     1      42.234 -95.258  33.841  1.00  0.00     0.174 C 
ATOM     11  O   UNL     1      43.286 -95.225  33.151  1.00  0.00    -0.294 OA
ENDROOT
BRANCH   2  12
ATOM     12  C   UNL     1      41.365 -94.641  37.500  1.00  0.00    -0.007 A 
ATOM     13  C   UNL     1      40.205 -94.339  38.236  1.00  0.00     0.011 A 
ATOM     14  C   UNL     1      42.462 -95.221  38.160  1.00  0.00     0.011 A 
ATOM     15  C   UNL     1      40.154 -94.590  39.611  1.00  0.00     0.046 A 
ATOM     16  C   UNL     1      42.409 -95.472  39.535  1.00  0.00     0.046 A 
ATOM     17  C   UNL     1      41.258 -95.156  40.263  1.00  0.00     0.115 A 
BRANCH  17  18
ATOM     18  O   UNL     1      41.219 -95.410  41.633  1.00  0.00    -0.508 OA
ATOM     19  H   UNL     1      41.917 -95.987  42.084  1.00  0.00     0.293 HD
ENDBRANCH  17  18
ENDBRANCH   2  12
BRANCH   8  20
ATOM     20  O   UNL     1      41.542 -95.793  30.952  1.00  0.00    -0.507 OA
ATOM     21  H   UNL     1      42.416 -95.339  30.732  1.00  0.00     0.293 HD
ENDBRANCH   8  20
BRANCH   6  22
ATOM     22  O   UNL     1      37.020 -94.349  31.751  1.00  0.00    -0.508 OA
ATOM     23  H   UNL     1      36.776 -94.522  30.782  1.00  0.00     0.293 HD
ENDBRANCH   6  22
TORSDOF 4
ENDMDL
MODEL 5
REMARK VINA RESULT:    -5.232      9.839     11.483
REMARK INTER + INTRA:          -6.298
REMARK INTER:                  -5.983
REMARK INTRA:                  -0.315
REMARK UNBOUND:                -0.301
REMARK SMILES O=C1C[C@H](c2ccc(O)cc2)Oc2cc(O)cc(O)c21
REMARK SMILES IDX 3 1 4 2 12 3 13 4 14 5 15 6 17 7 18 8 20 9 2 10 1 11 5 12
REMARK SMILES IDX 6 13 11 14 7 15 10 16 8 17 9 18 19 20 16 22
REMARK H PARENT 9 19 19 21 16 23
REMARK Flexibility Score: inf
ROOT
ATOM      1  C   UNL     1      41.033 -95.369  31.425  1.00  0.00     0.131 C 
ATOM      2  C   UNL     1      40.395 -94.372  32.403  1.00  0.00     0.211 C 
ATOM      3  O   UNL     1      38.979 -94.568  32.470  1.00  0.00    -0.484 OA
ATOM      4  C   UNL     1      38.203 -94.866  31.340  1.00  0.00     0.138 A 
ATOM      5  C   UNL     1      36.813 -94.769  31.429  1.00  0.00     0.093 A 
ATOM      6  C   UNL     1      36.015 -95.043  30.319  1.00  0.00     0.123 A 
ATOM      7  C   UNL     1      36.609 -95.448  29.119  1.00  0.00     0.093 A 
ATOM      8  C   UNL     1      37.999 -95.592  29.019  1.00  0.00     0.133 A 
ATOM      9  C   UNL     1      38.817 -95.266  30.133  1.00  0.00     0.102 A 
ATOM     10  C   UNL     1      40.299 -95.312  30.118  1.00  0.00     0.174 C 
ATOM     11  O   UNL     1      40.954 -95.251  29.045  1.00  0.00    -0.294 OA
ENDROOT
BRANCH   2  12
ATOM     12  C   UNL     1      41.001 -94.512  33.778  1.00  0.00    -0.007 A 
ATOM     13  C   UNL     1      42.373 -94.780  33.932  1.00  0.00     0.011 A 
ATOM     14  C   UNL     1      40.208 -94.322  34.923  1.00  0.00     0.011 A 
ATOM     15  C   UNL     1      42.936 -94.878  35.208  1.00  0.00     0.046 A 
ATOM     16  C   UNL     1      40.773 -94.421  36.198  1.00  0.00     0.046 A 
ATOM     17  C   UNL     1      42.136 -94.701  36.345  1.00  0.00     0.115 A 
BRANCH  17  18
ATOM     18  O   UNL     1      42.685 -94.798  37.621  1.00  0.00    -0.508 OA
ATOM     19  H   UNL     1      42.210 -95.292  38.366  1.00  0.00     0.293 HD
ENDBRANCH  17  18
ENDBRANCH   2  12
BRANCH   8  20
ATOM     20  O   UNL     1      38.507 -96.089  27.817  1.00  0.00    -0.507 OA
ATOM     21  H   UNL     1      38.568 -97.072  27.595  1.00  0.00     0.293 HD
ENDBRANCH   8  20
BRANCH   6  22
ATOM     22  O   UNL     1      34.631 -94.919  30.421  1.00  0.00    -0.508 OA
ATOM     23  H   UNL     1      34.085 -95.539  31.009  1.00  0.00     0.293 HD
ENDBRANCH   6  22
TORSDOF 4
ENDMDL
MODEL 6
REMARK VINA RESULT:    -5.189      9.863     11.114
REMARK INTER + INTRA:          -6.249
REMARK INTER:                  -5.957
REMARK INTRA:                  -0.292
REMARK UNBOUND:                -0.301
REMARK SMILES O=C1C[C@H](c2ccc(O)cc2)Oc2cc(O)cc(O)c21
REMARK SMILES IDX 3 1 4 2 12 3 13 4 14 5 15 6 17 7 18 8 20 9 2 10 1 11 5 12
REMARK SMILES IDX 6 13 11 14 7 15 10 16 8 17 9 18 19 20 16 22
REMARK H PARENT 9 19 19 21 16 23
REMARK Flexibility Score: inf
ROOT
ATOM      1  C   UNL     1      37.563 -95.500  28.545  1.00  0.00     0.131 C 
ATOM      2  C   UNL     1      36.467 -95.891  29.546  1.00  0.00     0.211 C 
ATOM      3  O   UNL     1      36.650 -95.202  30.787  1.00  0.00    -0.484 OA
ATOM      4  C   UNL     1      37.914 -94.983  31.351  1.00  0.00     0.138 A 
ATOM      5  C   UNL     1      38.000 -94.558  32.679  1.00  0.00     0.093 A 
ATOM      6  C   UNL     1      39.243 -94.347  33.274  1.00  0.00     0.123 A 
ATOM      7  C   UNL     1      40.411 -94.533  32.526  1.00  0.00     0.093 A 
ATOM      8  C   UNL     1      40.349 -94.919  31.181  1.00  0.00     0.133 A 
ATOM      9  C   UNL     1      39.086 -95.182  30.588  1.00  0.00     0.102 A 
ATOM     10  C   UNL     1      38.904 -95.663  29.196  1.00  0.00     0.174 C 
ATOM     11  O   UNL     1      39.827 -96.250  28.572  1.00  0.00    -0.294 OA
ENDROOT
BRANCH   2  12
ATOM     12  C   UNL     1      35.100 -95.590  28.984  1.00  0.00    -0.007 A 
ATOM     13  C   UNL     1      34.720 -94.267  28.693  1.00  0.00     0.011 A 
ATOM     14  C   UNL     1      34.208 -96.637  28.694  1.00  0.00     0.011 A 
ATOM     15  C   UNL     1      33.463 -93.996  28.144  1.00  0.00     0.046 A 
ATOM     16  C   UNL     1      32.952 -96.363  28.144  1.00  0.00     0.046 A 
ATOM     17  C   UNL     1      32.575 -95.045  27.870  1.00  0.00     0.115 A 
BRANCH  17  18
ATOM     18  O   UNL     1      31.320 -94.787  27.324  1.00  0.00    -0.508 OA
ATOM     19  H   UNL     1      30.629 -95.519  27.216  1.00  0.00     0.293 HD
ENDBRANCH  17  18
ENDBRANCH   2  12
BRANCH   8  20
ATOM     20  O   UNL     1      41.553 -94.991  30.478  1.00  0.00    -0.507 OA
ATOM     21  H   UNL     1      42.347 -95.540  30.775  1.00  0.00     0.293 HD
ENDBRANCH   8  20
BRANCH   6  22
ATOM     22  O   UNL     1      39.308 -93.945  34.606  1.00  0.00    -0.508 OA
ATOM     23  H   UNL     1      38.485 -93.944  35.200  1.00  0.00     0.293 HD
ENDBRANCH   6  22
TORSDOF 4
ENDMDL
MODEL 7
REMARK VINA RESULT:    -5.174      9.443     11.385
REMARK INTER + INTRA:          -6.231
REMARK INTER:                  -5.913
REMARK INTRA:                  -0.318
REMARK UNBOUND:                -0.301
REMARK SMILES O=C1C[C@H](c2ccc(O)cc2)Oc2cc(O)cc(O)c21
REMARK SMILES IDX 3 1 4 2 12 3 13 4 14 5 15 6 17 7 18 8 20 9 2 10 1 11 5 12
REMARK SMILES IDX 6 13 11 14 7 15 10 16 8 17 9 18 19 20 16 22
REMARK H PARENT 9 19 19 21 16 23
REMARK Flexibility Score: inf
ROOT
ATOM      1  C   UNL     1      41.800 -95.513  33.086  1.00  0.00     0.131 C 
ATOM      2  C   UNL     1      41.035 -94.446  33.882  1.00  0.00     0.211 C 
ATOM      3  O   UNL     1      39.624 -94.587  33.686  1.00  0.00    -0.484 OA
ATOM      4  C   UNL     1      39.062 -94.913  32.444  1.00  0.00     0.138 A 
ATOM      5  C   UNL     1      37.686 -94.761  32.263  1.00  0.00     0.093 A 
ATOM      6  C   UNL     1      37.099 -95.061  31.034  1.00  0.00     0.123 A 
ATOM      7  C   UNL     1      37.889 -95.547  29.987  1.00  0.00     0.093 A 
ATOM      8  C   UNL     1      39.265 -95.747  30.159  1.00  0.00     0.133 A 
ATOM      9  C   UNL     1      39.873 -95.395  31.393  1.00  0.00     0.102 A 
ATOM     10  C   UNL     1      41.328 -95.495  31.662  1.00  0.00     0.174 C 
ATOM     11  O   UNL     1      42.175 -95.512  30.731  1.00  0.00    -0.294 OA
ENDROOT
BRANCH   2  12
ATOM     12  C   UNL     1      41.365 -94.539  35.351  1.00  0.00    -0.007 A 
ATOM     13  C   UNL     1      40.395 -94.234  36.323  1.00  0.00     0.011 A 
ATOM     14  C   UNL     1      42.632 -94.986  35.764  1.00  0.00     0.011 A 
ATOM     15  C   UNL     1      40.697 -94.350  37.684  1.00  0.00     0.046 A 
ATOM     16  C   UNL     1      42.930 -95.102  37.126  1.00  0.00     0.046 A 
ATOM     17  C   UNL     1      41.967 -94.783  38.088  1.00  0.00     0.115 A 
BRANCH  17  18
ATOM     18  O   UNL     1      42.279 -94.903  39.440  1.00  0.00    -0.508 OA
ATOM     19  H   UNL     1      41.851 -95.613  40.021  1.00  0.00     0.293 HD
ENDBRANCH  17  18
ENDBRANCH   2  12
BRANCH   8  20
ATOM     20  O   UNL     1      39.967 -96.322  29.098  1.00  0.00    -0.507 OA
ATOM     21  H   UNL     1      39.531 -96.677  28.260  1.00  0.00     0.293 HD
ENDBRANCH   8  20
BRANCH   6  22
ATOM     22  O   UNL     1      35.728 -94.882  30.866  1.00  0.00    -0.508 OA
ATOM     23  H   UNL     1      35.178 -94.347  31.529  1.00  0.00     0.293 HD
ENDBRANCH   6  22
TORSDOF 4
ENDMDL
MODEL 8
REMARK VINA RESULT:    -5.104     15.401     16.551
REMARK INTER + INTRA:          -6.151
REMARK INTER:                  -5.841
REMARK INTRA:                  -0.310
REMARK UNBOUND:                -0.301
REMARK SMILES O=C1C[C@H](c2ccc(O)cc2)Oc2cc(O)cc(O)c21
REMARK SMILES IDX 3 1 4 2 12 3 13 4 14 5 15 6 17 7 18 8 20 9 2 10 1 11 5 12
REMARK SMILES IDX 6 13 11 14 7 15 10 16 8 17 9 18 19 20 16 22
REMARK H PARENT 9 19 19 21 16 23
REMARK Flexibility Score: inf
ROOT
ATOM      1  C   UNL     1      38.739 -76.964  36.853  1.00  0.00     0.131 C 
ATOM      2  C   UNL     1      37.773 -78.135  37.085  1.00  0.00     0.211 C 
ATOM      3  O   UNL     1      37.758 -78.509  38.466  1.00  0.00    -0.484 OA
ATOM      4  C   UNL     1      38.916 -78.532  39.256  1.00  0.00     0.138 A 
ATOM      5  C   UNL     1      38.875 -79.166  40.500  1.00  0.00     0.093 A 
ATOM      6  C   UNL     1      40.014 -79.220  41.302  1.00  0.00     0.123 A 
ATOM      7  C   UNL     1      41.197 -78.609  40.871  1.00  0.00     0.093 A 
ATOM      8  C   UNL     1      41.250 -77.933  39.646  1.00  0.00     0.133 A 
ATOM      9  C   UNL     1      40.106 -77.919  38.806  1.00  0.00     0.102 A 
ATOM     10  C   UNL     1      40.069 -77.297  37.459  1.00  0.00     0.174 C 
ATOM     11  O   UNL     1      41.119 -77.092  36.795  1.00  0.00    -0.294 OA
ENDROOT
BRANCH   2  12
ATOM     12  C   UNL     1      36.380 -77.776  36.631  1.00  0.00    -0.007 A 
ATOM     13  C   UNL     1      36.098 -77.585  35.267  1.00  0.00     0.011 A 
ATOM     14  C   UNL     1      35.334 -77.682  37.566  1.00  0.00     0.011 A 
ATOM     15  C   UNL     1      34.799 -77.283  34.848  1.00  0.00     0.046 A 
ATOM     16  C   UNL     1      34.036 -77.379  37.145  1.00  0.00     0.046 A 
ATOM     17  C   UNL     1      33.765 -77.177  35.788  1.00  0.00     0.115 A 
BRANCH  17  18
ATOM     18  O   UNL     1      32.466 -76.875  35.383  1.00  0.00    -0.508 OA
ATOM     19  H   UNL     1      31.749 -76.620  36.050  1.00  0.00     0.293 HD
ENDBRANCH  17  18
ENDBRANCH   2  12
BRANCH   8  20
ATOM     20  O   UNL     1      42.438 -77.271  39.330  1.00  0.00    -0.507 OA
ATOM     21  H   UNL     1      43.292 -77.361  39.861  1.00  0.00     0.293 HD
ENDBRANCH   8  20
BRANCH   6  22
ATOM     22  O   UNL     1      39.959 -79.875  42.530  1.00  0.00    -0.508 OA
ATOM     23  H   UNL     1      39.813 -79.367  43.396  1.00  0.00     0.293 HD
ENDBRANCH   6  22
TORSDOF 4
ENDMDL
MODEL 9
REMARK VINA RESULT:    -5.040      9.338     10.814
REMARK INTER + INTRA:          -6.078
REMARK INTER:                  -5.762
REMARK INTRA:                  -0.315
REMARK UNBOUND:                -0.301
REMARK SMILES O=C1C[C@H](c2ccc(O)cc2)Oc2cc(O)cc(O)c21
REMARK SMILES IDX 3 1 4 2 12 3 13 4 14 5 15 6 17 7 18 8 20 9 2 10 1 11 5 12
REMARK SMILES IDX 6 13 11 14 7 15 10 16 8 17 9 18 19 20 16 22
REMARK H PARENT 9 19 19 21 16 23
REMARK Flexibility Score: inf
ROOT
ATOM      1  C   UNL     1      31.095 -95.700  30.518  1.00  0.00     0.131 C 
ATOM      2  C   UNL     1      31.596 -96.317  29.205  1.00  0.00     0.211 C 
ATOM      3  O   UNL     1      30.705 -96.006  28.130  1.00  0.00    -0.484 OA
ATOM      4  C   UNL     1      29.311 -95.992  28.282  1.00  0.00     0.138 A 
ATOM      5  C   UNL     1      28.505 -95.955  27.142  1.00  0.00     0.093 A 
ATOM      6  C   UNL     1      27.116 -95.957  27.260  1.00  0.00     0.123 A 
ATOM      7  C   UNL     1      26.526 -95.965  28.529  1.00  0.00     0.093 A 
ATOM      8  C   UNL     1      27.315 -95.960  29.686  1.00  0.00     0.133 A 
ATOM      9  C   UNL     1      28.729 -96.008  29.569  1.00  0.00     0.102 A 
ATOM     10  C   UNL     1      29.658 -96.079  30.723  1.00  0.00     0.174 C 
ATOM     11  O   UNL     1      29.285 -96.499  31.850  1.00  0.00    -0.294 OA
ENDROOT
BRANCH   2  12
ATOM     12  C   UNL     1      32.986 -95.829  28.882  1.00  0.00    -0.007 A 
ATOM     13  C   UNL     1      33.948 -95.683  29.898  1.00  0.00     0.011 A 
ATOM     14  C   UNL     1      33.352 -95.567  27.551  1.00  0.00     0.011 A 
ATOM     15  C   UNL     1      35.244 -95.260  29.590  1.00  0.00     0.046 A 
ATOM     16  C   UNL     1      34.649 -95.143  27.245  1.00  0.00     0.046 A 
ATOM     17  C   UNL     1      35.597 -94.987  28.261  1.00  0.00     0.115 A 
BRANCH  17  18
ATOM     18  O   UNL     1      36.885 -94.563  27.942  1.00  0.00    -0.508 OA
ATOM     19  H   UNL     1      37.700 -95.104  28.204  1.00  0.00     0.293 HD
ENDBRANCH  17  18
ENDBRANCH   2  12
BRANCH   8  20
ATOM     20  O   UNL     1      26.653 -95.873  30.913  1.00  0.00    -0.507 OA
ATOM     21  H   UNL     1      26.580 -96.637  31.569  1.00  0.00     0.293 HD
ENDBRANCH   8  20
BRANCH   6  22
ATOM     22  O   UNL     1      26.329 -95.942  26.110  1.00  0.00    -0.508 OA
ATOM     23  H   UNL     1      26.446 -95.231  25.397  1.00  0.00     0.293 HD
ENDBRANCH   6  22
TORSDOF 4
ENDMDL
