MODEL 1
REMARK VINA RESULT:     7.605      0.000      0.000
REMARK INTER + INTRA:           7.605
REMARK INTER:                   7.605
REMARK INTRA:                   0.000
REMARK UNBOUND:                 0.000
REMARK SMILES Cc1cc2cc3c(C)cc(=O)oc3c(C)c2o1
REMARK SMILES IDX 8 1 7 2 9 3 10 4 11 5 12 6 13 7 6 8 5 9 4 10 3 11 2 12 17 13
REMARK SMILES IDX 16 14 14 15 15 16 1 17
REMARK H PARENT
REMARK Flexibility Score: inf
ROOT
ATOM      1  C   UNL     1     -22.026  28.203   8.438  1.00  0.00     0.045 C 
ATOM      2  C   UNL     1     -23.157  28.926   7.752  1.00  0.00    -0.033 A 
ATOM      3  C   UNL     1     -24.101  28.187   7.027  1.00  0.00     0.098 A 
ATOM      4  C   UNL     1     -25.150  28.848   6.387  1.00  0.00     0.336 A 
ATOM      5  O   UNL     1     -26.000  28.189   5.734  1.00  0.00    -0.246 OA
ATOM      6  O   UNL     1     -25.262  30.168   6.463  1.00  0.00    -0.422 OA
ATOM      7  C   UNL     1     -24.403  30.931   7.134  1.00  0.00     0.145 A 
ATOM      8  C   UNL     1     -23.296  30.330   7.815  1.00  0.00     0.022 A 
ATOM      9  C   UNL     1     -22.382  31.150   8.521  1.00  0.00     0.024 A 
ATOM     10  C   UNL     1     -22.598  32.523   8.518  1.00  0.00     0.022 A 
ATOM     11  C   UNL     1     -21.875  33.542   9.097  1.00  0.00     0.054 A 
ATOM     12  C   UNL     1     -22.570  34.693   8.747  1.00  0.00     0.102 A 
ATOM     13  O   UNL     1     -23.626  34.400   8.010  1.00  0.00    -0.461 OA
ATOM     14  C   UNL     1     -23.656  33.096   7.867  1.00  0.00     0.140 A 
ATOM     15  C   UNL     1     -24.594  32.333   7.168  1.00  0.00     0.036 A 
ATOM     16  C   UNL     1     -25.733  32.981   6.435  1.00  0.00     0.052 C 
ATOM     17  C   UNL     1     -22.179  36.083   9.123  1.00  0.00     0.087 C 
ENDROOT
TORSDOF 0
ENDMDL
