MODEL 1
REMARK VINA RESULT:    -5.181      0.000      0.000
REMARK INTER + INTRA:          -7.026
REMARK INTER:                  -6.393
REMARK INTRA:                  -0.634
REMARK UNBOUND:                -0.634
REMARK SMILES CC(C)=CCC[C@H](C)c1ccc(C)cc1
REMARK SMILES IDX 6 1 7 2 8 3 9 4 13 5 12 6 11 7 14 8 10 9 15 10 5 11 4 12
REMARK SMILES IDX 2 13 1 14 3 15
REMARK H PARENT
REMARK Flexibility Score: inf
ROOT
ATOM      1  C   UNL     1     -38.066  -0.579  -8.968  1.00  0.00     0.012 C 
ENDROOT
BRANCH   1   2
ATOM      2  C   UNL     1     -36.606  -0.172  -9.279  1.00  0.00     0.016 C 
ATOM      3  C   UNL     1     -36.435   0.366 -10.709  1.00  0.00     0.013 C 
BRANCH   2   4
ATOM      4  C   UNL     1     -35.673  -1.346  -9.042  1.00  0.00    -0.045 A 
ATOM      5  C   UNL     1     -32.985  -4.650  -8.322  1.00  0.00     0.044 C 
ATOM      6  C   UNL     1     -33.922  -3.513  -8.599  1.00  0.00    -0.051 A 
ATOM      7  C   UNL     1     -33.429  -2.290  -9.077  1.00  0.00     0.004 A 
ATOM      8  C   UNL     1     -35.291  -3.640  -8.318  1.00  0.00     0.004 A 
ATOM      9  C   UNL     1     -34.297  -1.218  -9.300  1.00  0.00     0.004 A 
ATOM     10  C   UNL     1     -36.160  -2.569  -8.543  1.00  0.00     0.004 A 
ENDBRANCH   2   4
ENDBRANCH   1   2
BRANCH   1  11
ATOM     11  C   UNL     1     -38.925  -0.831 -10.224  1.00  0.00     0.028 C 
BRANCH  11  12
ATOM     12  C   UNL     1     -39.735  -2.102 -10.122  1.00  0.00    -0.028 C 
ATOM     13  C   UNL     1     -40.909  -2.314 -10.758  1.00  0.00    -0.080 C 
ATOM     14  C   UNL     1     -41.512  -1.290 -11.692  1.00  0.00     0.039 C 
ATOM     15  C   UNL     1     -41.612  -3.629 -10.545  1.00  0.00     0.039 C 
ENDBRANCH  11  12
ENDBRANCH   1  11
TORSDOF 4
ENDMDL
MODEL 2
REMARK VINA RESULT:    -4.378      1.284      5.624
REMARK INTER + INTRA:          -6.035
REMARK INTER:                  -5.465
REMARK INTRA:                  -0.571
REMARK UNBOUND:                -0.634
REMARK SMILES CC(C)=CCC[C@H](C)c1ccc(C)cc1
REMARK SMILES IDX 6 1 7 2 8 3 9 4 13 5 12 6 11 7 14 8 10 9 15 10 5 11 4 12
REMARK SMILES IDX 2 13 1 14 3 15
REMARK H PARENT
REMARK Flexibility Score: inf
ROOT
ATOM      1  C   UNL     1     -33.264  -0.970  -9.580  1.00  0.00     0.012 C 
ENDROOT
BRANCH   1   2
ATOM      2  C   UNL     1     -34.271  -0.218  -8.677  1.00  0.00     0.016 C 
ATOM      3  C   UNL     1     -34.036  -0.483  -7.182  1.00  0.00     0.013 C 
BRANCH   2   4
ATOM      4  C   UNL     1     -35.693  -0.585  -9.062  1.00  0.00    -0.045 A 
ATOM      5  C   UNL     1     -39.716  -1.651 -10.218  1.00  0.00     0.044 C 
ATOM      6  C   UNL     1     -38.331  -1.260  -9.800  1.00  0.00    -0.051 A 
ATOM      7  C   UNL     1     -37.594  -0.343 -10.565  1.00  0.00     0.004 A 
ATOM      8  C   UNL     1     -37.734  -1.858  -8.680  1.00  0.00     0.004 A 
ATOM      9  C   UNL     1     -36.288  -0.005 -10.197  1.00  0.00     0.004 A 
ATOM     10  C   UNL     1     -36.429  -1.519  -8.310  1.00  0.00     0.004 A 
ENDBRANCH   2   4
ENDBRANCH   1   2
BRANCH   1  11
ATOM     11  C   UNL     1     -33.752  -2.359 -10.037  1.00  0.00     0.028 C 
BRANCH  11  12
ATOM     12  C   UNL     1     -32.984  -3.483  -9.381  1.00  0.00    -0.028 C 
ATOM     13  C   UNL     1     -33.454  -4.238  -8.363  1.00  0.00    -0.080 C 
ATOM     14  C   UNL     1     -34.846  -4.054  -7.803  1.00  0.00     0.039 C 
ATOM     15  C   UNL     1     -32.564  -5.314  -7.799  1.00  0.00     0.039 C 
ENDBRANCH  11  12
ENDBRANCH   1  11
TORSDOF 4
ENDMDL
MODEL 3
REMARK VINA RESULT:    -4.288      0.874      1.374
REMARK INTER + INTRA:          -5.925
REMARK INTER:                  -5.909
REMARK INTRA:                  -0.015
REMARK UNBOUND:                -0.634
REMARK SMILES CC(C)=CCC[C@H](C)c1ccc(C)cc1
REMARK SMILES IDX 6 1 7 2 8 3 9 4 13 5 12 6 11 7 14 8 10 9 15 10 5 11 4 12
REMARK SMILES IDX 2 13 1 14 3 15
REMARK H PARENT
REMARK Flexibility Score: inf
ROOT
ATOM      1  C   UNL     1     -37.314  -0.222  -9.014  1.00  0.00     0.012 C 
ENDROOT
BRANCH   1   2
ATOM      2  C   UNL     1     -35.845  -0.096  -9.483  1.00  0.00     0.016 C 
ATOM      3  C   UNL     1     -35.729   0.246 -10.977  1.00  0.00     0.013 C 
BRANCH   2   4
ATOM      4  C   UNL     1     -35.085  -1.374  -9.173  1.00  0.00    -0.045 A 
ATOM      5  C   UNL     1     -32.882  -4.973  -8.251  1.00  0.00     0.044 C 
ATOM      6  C   UNL     1     -33.654  -3.735  -8.598  1.00  0.00    -0.051 A 
ATOM      7  C   UNL     1     -33.008  -2.643  -9.196  1.00  0.00     0.004 A 
ATOM      8  C   UNL     1     -35.012  -3.632  -8.263  1.00  0.00     0.004 A 
ATOM      9  C   UNL     1     -33.718  -1.475  -9.485  1.00  0.00     0.004 A 
ATOM     10  C   UNL     1     -35.724  -2.464  -8.553  1.00  0.00     0.004 A 
ENDBRANCH   2   4
ENDBRANCH   1   2
BRANCH   1  11
ATOM     11  C   UNL     1     -38.345   0.261 -10.054  1.00  0.00     0.028 C 
BRANCH  11  12
ATOM     12  C   UNL     1     -39.250  -0.852 -10.528  1.00  0.00    -0.028 C 
ATOM     13  C   UNL     1     -39.673  -1.876  -9.754  1.00  0.00    -0.080 C 
ATOM     14  C   UNL     1     -39.309  -1.979  -8.290  1.00  0.00     0.039 C 
ATOM     15  C   UNL     1     -40.560  -2.924 -10.373  1.00  0.00     0.039 C 
ENDBRANCH  11  12
ENDBRANCH   1  11
TORSDOF 4
ENDMDL
MODEL 4
REMARK VINA RESULT:    -4.261      1.328      2.320
REMARK INTER + INTRA:          -5.892
REMARK INTER:                  -4.962
REMARK INTRA:                  -0.930
REMARK UNBOUND:                -0.634
REMARK SMILES CC(C)=CCC[C@H](C)c1ccc(C)cc1
REMARK SMILES IDX 6 1 7 2 8 3 9 4 13 5 12 6 11 7 14 8 10 9 15 10 5 11 4 12
REMARK SMILES IDX 2 13 1 14 3 15
REMARK H PARENT
REMARK Flexibility Score: inf
ROOT
ATOM      1  C   UNL     1     -35.640  -0.159  -9.831  1.00  0.00     0.012 C 
ENDROOT
BRANCH   1   2
ATOM      2  C   UNL     1     -35.289  -0.506  -8.365  1.00  0.00     0.016 C 
ATOM      3  C   UNL     1     -34.450   0.586  -7.684  1.00  0.00     0.013 C 
BRANCH   2   4
ATOM      4  C   UNL     1     -34.569  -1.842  -8.301  1.00  0.00    -0.045 A 
ATOM      5  C   UNL     1     -32.509  -5.630  -8.055  1.00  0.00     0.044 C 
ATOM      6  C   UNL     1     -33.216  -4.313  -8.169  1.00  0.00    -0.051 A 
ATOM      7  C   UNL     1     -32.550  -3.123  -7.842  1.00  0.00     0.004 A 
ATOM      8  C   UNL     1     -34.568  -4.266  -8.536  1.00  0.00     0.004 A 
ATOM      9  C   UNL     1     -33.219  -1.898  -7.912  1.00  0.00     0.004 A 
ATOM     10  C   UNL     1     -35.238  -3.041  -8.608  1.00  0.00     0.004 A 
ENDBRANCH   2   4
ENDBRANCH   1   2
BRANCH   1  11
ATOM     11  C   UNL     1     -37.059   0.418 -10.013  1.00  0.00     0.028 C 
BRANCH  11  12
ATOM     12  C   UNL     1     -38.088  -0.655 -10.276  1.00  0.00    -0.028 C 
ATOM     13  C   UNL     1     -38.873  -1.212  -9.327  1.00  0.00    -0.080 C 
ATOM     14  C   UNL     1     -38.825  -0.766  -7.883  1.00  0.00     0.039 C 
ATOM     15  C   UNL     1     -39.843  -2.288  -9.739  1.00  0.00     0.039 C 
ENDBRANCH  11  12
ENDBRANCH   1  11
TORSDOF 4
ENDMDL
MODEL 5
REMARK VINA RESULT:    -4.200      1.249      5.640
REMARK INTER + INTRA:          -5.815
REMARK INTER:                  -4.935
REMARK INTRA:                  -0.880
REMARK UNBOUND:                -0.634
REMARK SMILES CC(C)=CCC[C@H](C)c1ccc(C)cc1
REMARK SMILES IDX 6 1 7 2 8 3 9 4 13 5 12 6 11 7 14 8 10 9 15 10 5 11 4 12
REMARK SMILES IDX 2 13 1 14 3 15
REMARK H PARENT
REMARK Flexibility Score: inf
ROOT
ATOM      1  C   UNL     1     -35.078  -0.279  -8.303  1.00  0.00     0.012 C 
ENDROOT
BRANCH   1   2
ATOM      2  C   UNL     1     -35.511  -0.426  -9.781  1.00  0.00     0.016 C 
ATOM      3  C   UNL     1     -35.469   0.908 -10.544  1.00  0.00     0.013 C 
BRANCH   2   4
ATOM      4  C   UNL     1     -36.899  -1.037  -9.861  1.00  0.00    -0.045 A 
ATOM      5  C   UNL     1     -40.851  -2.755 -10.153  1.00  0.00     0.044 C 
ATOM      6  C   UNL     1     -39.484  -2.154 -10.023  1.00  0.00    -0.051 A 
ATOM      7  C   UNL     1     -39.291  -0.781 -10.236  1.00  0.00     0.004 A 
ATOM      8  C   UNL     1     -38.375  -2.971  -9.756  1.00  0.00     0.004 A 
ATOM      9  C   UNL     1     -38.011  -0.227 -10.151  1.00  0.00     0.004 A 
ATOM     10  C   UNL     1     -37.095  -2.418  -9.669  1.00  0.00     0.004 A 
ENDBRANCH   2   4
ENDBRANCH   1   2
BRANCH   1  11
ATOM     11  C   UNL     1     -33.634  -0.745  -8.026  1.00  0.00     0.028 C 
BRANCH  11  12
ATOM     12  C   UNL     1     -33.531  -2.245  -7.883  1.00  0.00    -0.028 C 
ATOM     13  C   UNL     1     -33.249  -3.093  -8.898  1.00  0.00    -0.080 C 
ATOM     14  C   UNL     1     -32.956  -2.600 -10.297  1.00  0.00     0.039 C 
ATOM     15  C   UNL     1     -33.198  -4.570  -8.606  1.00  0.00     0.039 C 
ENDBRANCH  11  12
ENDBRANCH   1  11
TORSDOF 4
ENDMDL
MODEL 6
REMARK VINA RESULT:    -3.590      1.071      5.634
REMARK INTER + INTRA:          -5.063
REMARK INTER:                  -4.237
REMARK INTRA:                  -0.826
REMARK UNBOUND:                -0.634
REMARK SMILES CC(C)=CCC[C@H](C)c1ccc(C)cc1
REMARK SMILES IDX 6 1 7 2 8 3 9 4 13 5 12 6 11 7 14 8 10 9 15 10 5 11 4 12
REMARK SMILES IDX 2 13 1 14 3 15
REMARK H PARENT
REMARK Flexibility Score: inf
ROOT
ATOM      1  C   UNL     1     -34.631  -0.627  -9.999  1.00  0.00     0.012 C 
ENDROOT
BRANCH   1   2
ATOM      2  C   UNL     1     -35.676  -0.163  -8.955  1.00  0.00     0.016 C 
ATOM      3  C   UNL     1     -35.271  -0.517  -7.516  1.00  0.00     0.013 C 
BRANCH   2   4
ATOM      4  C   UNL     1     -37.037  -0.752  -9.281  1.00  0.00    -0.045 A 
ATOM      5  C   UNL     1     -40.933  -2.405 -10.147  1.00  0.00     0.044 C 
ATOM      6  C   UNL     1     -39.569  -1.852  -9.864  1.00  0.00    -0.051 A 
ATOM      7  C   UNL     1     -38.844  -2.294  -8.747  1.00  0.00     0.004 A 
ATOM      8  C   UNL     1     -39.035  -0.838 -10.673  1.00  0.00     0.004 A 
ATOM      9  C   UNL     1     -37.588  -1.752  -8.461  1.00  0.00     0.004 A 
ATOM     10  C   UNL     1     -37.778  -0.297 -10.388  1.00  0.00     0.004 A 
ENDBRANCH   2   4
ENDBRANCH   1   2
BRANCH   1  11
ATOM     11  C   UNL     1     -34.695  -2.135 -10.318  1.00  0.00     0.028 C 
BRANCH  11  12
ATOM     12  C   UNL     1     -33.639  -2.924  -9.582  1.00  0.00    -0.028 C 
ATOM     13  C   UNL     1     -33.888  -3.761  -8.550  1.00  0.00    -0.080 C 
ATOM     14  C   UNL     1     -35.292  -4.027  -8.055  1.00  0.00     0.039 C 
ATOM     15  C   UNL     1     -32.726  -4.468  -7.903  1.00  0.00     0.039 C 
ENDBRANCH  11  12
ENDBRANCH   1  11
TORSDOF 4
ENDMDL
MODEL 7
REMARK VINA RESULT:    -3.264      1.671      6.132
REMARK INTER + INTRA:          -4.661
REMARK INTER:                  -4.910
REMARK INTRA:                   0.249
REMARK UNBOUND:                -0.634
REMARK SMILES CC(C)=CCC[C@H](C)c1ccc(C)cc1
REMARK SMILES IDX 6 1 7 2 8 3 9 4 13 5 12 6 11 7 14 8 10 9 15 10 5 11 4 12
REMARK SMILES IDX 2 13 1 14 3 15
REMARK H PARENT
REMARK Flexibility Score: inf
ROOT
ATOM      1  C   UNL     1     -34.150  -3.676  -9.454  1.00  0.00     0.012 C 
ENDROOT
BRANCH   1   2
ATOM      2  C   UNL     1     -35.146  -3.249  -8.350  1.00  0.00     0.016 C 
ATOM      3  C   UNL     1     -35.689  -4.443  -7.550  1.00  0.00     0.013 C 
BRANCH   2   4
ATOM      4  C   UNL     1     -36.289  -2.454  -8.956  1.00  0.00    -0.045 A 
ATOM      5  C   UNL     1     -39.497  -0.150 -10.706  1.00  0.00     0.044 C 
ATOM      6  C   UNL     1     -38.402  -0.958 -10.077  1.00  0.00    -0.051 A 
ATOM      7  C   UNL     1     -37.523  -0.365  -9.158  1.00  0.00     0.004 A 
ATOM      8  C   UNL     1     -38.203  -2.295 -10.454  1.00  0.00     0.004 A 
ATOM      9  C   UNL     1     -36.479  -1.108  -8.599  1.00  0.00     0.004 A 
ATOM     10  C   UNL     1     -37.161  -3.039  -9.894  1.00  0.00     0.004 A 
ENDBRANCH   2   4
ENDBRANCH   1   2
BRANCH   1  11
ATOM     11  C   UNL     1     -33.260  -2.527  -9.971  1.00  0.00     0.028 C 
BRANCH  11  12
ATOM     12  C   UNL     1     -33.470  -1.245  -9.200  1.00  0.00    -0.028 C 
ATOM     13  C   UNL     1     -33.010  -1.022  -7.948  1.00  0.00    -0.080 C 
ATOM     14  C   UNL     1     -32.181  -2.043  -7.203  1.00  0.00     0.039 C 
ATOM     15  C   UNL     1     -33.314   0.303  -7.299  1.00  0.00     0.039 C 
ENDBRANCH  11  12
ENDBRANCH   1  11
TORSDOF 4
ENDMDL
MODEL 8
REMARK VINA RESULT:    -2.820      1.979      2.851
REMARK INTER + INTRA:          -4.113
REMARK INTER:                  -3.524
REMARK INTRA:                  -0.588
REMARK UNBOUND:                -0.634
REMARK SMILES CC(C)=CCC[C@H](C)c1ccc(C)cc1
REMARK SMILES IDX 6 1 7 2 8 3 9 4 13 5 12 6 11 7 14 8 10 9 15 10 5 11 4 12
REMARK SMILES IDX 2 13 1 14 3 15
REMARK H PARENT
REMARK Flexibility Score: inf
ROOT
ATOM      1  C   UNL     1     -38.167   0.256  -9.515  1.00  0.00     0.012 C 
ENDROOT
BRANCH   1   2
ATOM      2  C   UNL     1     -36.800   0.706 -10.084  1.00  0.00     0.016 C 
ATOM      3  C   UNL     1     -36.748   0.639 -11.618  1.00  0.00     0.013 C 
BRANCH   2   4
ATOM      4  C   UNL     1     -35.683  -0.126  -9.480  1.00  0.00    -0.045 A 
ATOM      5  C   UNL     1     -32.460  -2.461  -7.802  1.00  0.00     0.044 C 
ATOM      6  C   UNL     1     -33.597  -1.673  -8.379  1.00  0.00    -0.051 A 
ATOM      7  C   UNL     1     -33.860  -1.716  -9.757  1.00  0.00     0.004 A 
ATOM      8  C   UNL     1     -34.363  -0.832  -7.559  1.00  0.00     0.004 A 
ATOM      9  C   UNL     1     -34.897  -0.953 -10.301  1.00  0.00     0.004 A 
ATOM     10  C   UNL     1     -35.401  -0.070  -8.102  1.00  0.00     0.004 A 
ENDBRANCH   2   4
ENDBRANCH   1   2
BRANCH   1  11
ATOM     11  C   UNL     1     -38.456  -1.248  -9.702  1.00  0.00     0.028 C 
BRANCH  11  12
ATOM     12  C   UNL     1     -37.738  -2.102  -8.685  1.00  0.00    -0.028 C 
ATOM     13  C   UNL     1     -37.048  -3.227  -8.980  1.00  0.00    -0.080 C 
ATOM     14  C   UNL     1     -36.887  -3.719 -10.401  1.00  0.00     0.039 C 
ATOM     15  C   UNL     1     -36.398  -3.986  -7.853  1.00  0.00     0.039 C 
ENDBRANCH  11  12
ENDBRANCH   1  11
TORSDOF 4
ENDMDL
