MODEL 1
REMARK VINA RESULT:    -4.145      0.000      0.000
REMARK INTER + INTRA:         -10.457
REMARK INTER:                  -8.023
REMARK INTRA:                  -2.434
REMARK UNBOUND:                -2.434
REMARK SMILES CCCCCCCCCCCCCCCCCC(=O)[O-]
REMARK SMILES IDX 10 1 11 2 12 3 13 4 14 5 15 6 16 7 17 8 18 9 19 10 20 11
REMARK SMILES IDX 9 12 8 13 7 14 6 15 5 16 4 17 3 18 2 19 1 20
REMARK H PARENT
REMARK Flexibility Score: inf
ROOT
ATOM      1  C   UNL     1     164.123 162.278 182.705  1.00  0.00     0.000 C 
ENDROOT
BRANCH   1   2
ATOM      2  C   UNL     1     163.873 160.786 182.993  1.00  0.00     0.000 C 
BRANCH   2   3
ATOM      3  C   UNL     1     164.974 159.875 182.430  1.00  0.00     0.000 C 
BRANCH   3   4
ATOM      4  C   UNL     1     166.093 160.704 181.781  1.00  0.00     0.000 C 
BRANCH   4   5
ATOM      5  C   UNL     1     167.450 160.544 182.491  1.00  0.00     0.000 C 
BRANCH   5   6
ATOM      6  C   UNL     1     167.378 160.466 184.026  1.00  0.00     0.000 C 
BRANCH   6   7
ATOM      7  C   UNL     1     167.332 161.850 184.696  1.00  0.00     0.006 C 
BRANCH   7   8
ATOM      8  C   UNL     1     168.128 162.899 183.910  1.00  0.00     0.053 C 
BRANCH   8   9
ATOM      9  C   UNL     1     167.729 164.295 184.282  1.00  0.00     0.041 C 
ATOM     10  O   UNL     1     166.513 164.609 184.351  1.00  0.00    -0.550 OA
ATOM     11  O   UNL     1     168.704 165.242 184.573  1.00  0.00    -0.550 OA
ENDBRANCH   8   9
ENDBRANCH   7   8
ENDBRANCH   6   7
ENDBRANCH   5   6
ENDBRANCH   4   5
ENDBRANCH   3   4
ENDBRANCH   2   3
ENDBRANCH   1   2
BRANCH   1  12
ATOM     12  C   UNL     1     163.171 163.249 183.425  1.00  0.00     0.000 C 
BRANCH  12  13
ATOM     13  C   UNL     1     161.760 163.267 182.814  1.00  0.00    -0.000 C 
BRANCH  13  14
ATOM     14  C   UNL     1     160.753 162.438 183.629  1.00  0.00    -0.000 C 
BRANCH  14  15
ATOM     15  C   UNL     1     160.281 161.180 182.879  1.00  0.00    -0.000 C 
BRANCH  15  16
ATOM     16  C   UNL     1     160.177 161.401 181.361  1.00  0.00    -0.000 C 
BRANCH  16  17
ATOM     17  C   UNL     1     161.044 160.420 180.556  1.00  0.00    -0.000 C 
BRANCH  17  18
ATOM     18  C   UNL     1     161.809 161.151 179.444  1.00  0.00    -0.000 C 
BRANCH  18  19
ATOM     19  C   UNL     1     163.247 160.636 179.278  1.00  0.00    -0.003 C 
ATOM     20  C   UNL     1     163.943 161.208 178.043  1.00  0.00     0.004 C 
ENDBRANCH  18  19
ENDBRANCH  17  18
ENDBRANCH  16  17
ENDBRANCH  15  16
ENDBRANCH  14  15
ENDBRANCH  13  14
ENDBRANCH  12  13
ENDBRANCH   1  12
TORSDOF 16
ENDMDL
MODEL 2
REMARK VINA RESULT:    -4.123      1.590      3.488
REMARK INTER + INTRA:         -10.413
REMARK INTER:                  -7.752
REMARK INTRA:                  -2.661
REMARK UNBOUND:                -2.434
REMARK SMILES CCCCCCCCCCCCCCCCCC(=O)[O-]
REMARK SMILES IDX 10 1 11 2 12 3 13 4 14 5 15 6 16 7 17 8 18 9 19 10 20 11
REMARK SMILES IDX 9 12 8 13 7 14 6 15 5 16 4 17 3 18 2 19 1 20
REMARK H PARENT
REMARK Flexibility Score: inf
ROOT
ATOM      1  C   UNL     1     161.146 160.909 182.826  1.00  0.00     0.000 C 
ENDROOT
BRANCH   1   2
ATOM      2  C   UNL     1     161.934 162.139 183.312  1.00  0.00     0.000 C 
BRANCH   2   3
ATOM      3  C   UNL     1     163.440 162.037 183.027  1.00  0.00     0.000 C 
BRANCH   3   4
ATOM      4  C   UNL     1     163.822 160.610 182.608  1.00  0.00     0.000 C 
BRANCH   4   5
ATOM      5  C   UNL     1     165.143 160.130 183.239  1.00  0.00     0.000 C 
BRANCH   5   6
ATOM      6  C   UNL     1     166.377 160.230 182.324  1.00  0.00     0.000 C 
BRANCH   6   7
ATOM      7  C   UNL     1     167.482 161.129 182.906  1.00  0.00     0.006 C 
BRANCH   7   8
ATOM      8  C   UNL     1     167.221 161.491 184.373  1.00  0.00     0.053 C 
BRANCH   8   9
ATOM      9  C   UNL     1     167.198 162.974 184.585  1.00  0.00     0.041 C 
ATOM     10  O   UNL     1     168.230 163.661 184.367  1.00  0.00    -0.550 OA
ATOM     11  O   UNL     1     166.029 163.598 185.002  1.00  0.00    -0.550 OA
ENDBRANCH   8   9
ENDBRANCH   7   8
ENDBRANCH   6   7
ENDBRANCH   5   6
ENDBRANCH   4   5
ENDBRANCH   3   4
ENDBRANCH   2   3
ENDBRANCH   1   2
BRANCH   1  12
ATOM     12  C   UNL     1     159.983 161.217 181.866  1.00  0.00     0.000 C 
BRANCH  12  13
ATOM     13  C   UNL     1     160.073 160.431 180.547  1.00  0.00    -0.000 C 
BRANCH  13  14
ATOM     14  C   UNL     1     161.438 160.589 179.857  1.00  0.00    -0.000 C 
BRANCH  14  15
ATOM     15  C   UNL     1     161.548 161.899 179.059  1.00  0.00    -0.000 C 
BRANCH  15  16
ATOM     16  C   UNL     1     162.829 162.685 179.385  1.00  0.00    -0.000 C 
BRANCH  16  17
ATOM     17  C   UNL     1     162.543 164.038 180.054  1.00  0.00    -0.000 C 
BRANCH  17  18
ATOM     18  C   UNL     1     161.083 164.460 179.836  1.00  0.00    -0.000 C 
BRANCH  18  19
ATOM     19  C   UNL     1     160.322 164.662 181.155  1.00  0.00    -0.003 C 
ATOM     20  C   UNL     1     160.974 165.708 182.060  1.00  0.00     0.004 C 
ENDBRANCH  18  19
ENDBRANCH  17  18
ENDBRANCH  16  17
ENDBRANCH  15  16
ENDBRANCH  14  15
ENDBRANCH  13  14
ENDBRANCH  12  13
ENDBRANCH   1  12
TORSDOF 16
ENDMDL
MODEL 3
REMARK VINA RESULT:    -4.106      2.414      6.371
REMARK INTER + INTRA:         -10.381
REMARK INTER:                  -7.735
REMARK INTRA:                  -2.647
REMARK UNBOUND:                -2.434
REMARK SMILES CCCCCCCCCCCCCCCCCC(=O)[O-]
REMARK SMILES IDX 10 1 11 2 12 3 13 4 14 5 15 6 16 7 17 8 18 9 19 10 20 11
REMARK SMILES IDX 9 12 8 13 7 14 6 15 5 16 4 17 3 18 2 19 1 20
REMARK H PARENT
REMARK Flexibility Score: inf
ROOT
ATOM      1  C   UNL     1     162.588 163.130 183.048  1.00  0.00     0.000 C 
ENDROOT
BRANCH   1   2
ATOM      2  C   UNL     1     161.358 162.424 183.648  1.00  0.00     0.000 C 
BRANCH   2   3
ATOM      3  C   UNL     1     160.181 162.333 182.666  1.00  0.00     0.000 C 
BRANCH   3   4
ATOM      4  C   UNL     1     159.901 160.873 182.279  1.00  0.00     0.000 C 
BRANCH   4   5
ATOM      5  C   UNL     1     160.492 160.488 180.910  1.00  0.00     0.000 C 
BRANCH   5   6
ATOM      6  C   UNL     1     160.684 161.660 179.931  1.00  0.00     0.000 C 
BRANCH   6   7
ATOM      7  C   UNL     1     162.159 161.900 179.564  1.00  0.00     0.006 C 
BRANCH   7   8
ATOM      8  C   UNL     1     162.899 160.591 179.261  1.00  0.00     0.053 C 
BRANCH   8   9
ATOM      9  C   UNL     1     164.333 160.834 178.900  1.00  0.00     0.041 C 
ATOM     10  O   UNL     1     165.147 159.875 178.857  1.00  0.00    -0.550 OA
ATOM     11  O   UNL     1     164.764 162.118 178.591  1.00  0.00    -0.550 OA
ENDBRANCH   8   9
ENDBRANCH   7   8
ENDBRANCH   6   7
ENDBRANCH   5   6
ENDBRANCH   4   5
ENDBRANCH   3   4
ENDBRANCH   2   3
ENDBRANCH   1   2
BRANCH   1  12
ATOM     12  C   UNL     1     163.877 162.289 183.029  1.00  0.00     0.000 C 
BRANCH  12  13
ATOM     13  C   UNL     1     163.605 160.776 183.080  1.00  0.00    -0.000 C 
BRANCH  13  14
ATOM     14  C   UNL     1     164.747 159.949 182.466  1.00  0.00    -0.000 C 
BRANCH  14  15
ATOM     15  C   UNL     1     166.010 159.946 183.343  1.00  0.00    -0.000 C 
BRANCH  15  16
ATOM     16  C   UNL     1     167.252 160.455 182.594  1.00  0.00    -0.000 C 
BRANCH  16  17
ATOM     17  C   UNL     1     168.010 161.544 183.368  1.00  0.00    -0.000 C 
BRANCH  17  18
ATOM     18  C   UNL     1     167.380 161.774 184.750  1.00  0.00    -0.000 C 
BRANCH  18  19
ATOM     19  C   UNL     1     166.959 163.234 184.972  1.00  0.00    -0.003 C 
ATOM     20  C   UNL     1     167.077 164.084 183.706  1.00  0.00     0.004 C 
ENDBRANCH  18  19
ENDBRANCH  17  18
ENDBRANCH  16  17
ENDBRANCH  15  16
ENDBRANCH  14  15
ENDBRANCH  13  14
ENDBRANCH  12  13
ENDBRANCH   1  12
TORSDOF 16
ENDMDL
MODEL 4
REMARK VINA RESULT:    -4.101      2.453      2.870
REMARK INTER + INTRA:         -10.371
REMARK INTER:                  -8.000
REMARK INTRA:                  -2.371
REMARK UNBOUND:                -2.434
REMARK SMILES CCCCCCCCCCCCCCCCCC(=O)[O-]
REMARK SMILES IDX 10 1 11 2 12 3 13 4 14 5 15 6 16 7 17 8 18 9 19 10 20 11
REMARK SMILES IDX 9 12 8 13 7 14 6 15 5 16 4 17 3 18 2 19 1 20
REMARK H PARENT
REMARK Flexibility Score: inf
ROOT
ATOM      1  C   UNL     1     163.173 163.116 182.248  1.00  0.00     0.000 C 
ENDROOT
BRANCH   1   2
ATOM      2  C   UNL     1     164.269 162.057 182.033  1.00  0.00     0.000 C 
BRANCH   2   3
ATOM      3  C   UNL     1     163.841 160.653 182.486  1.00  0.00     0.000 C 
BRANCH   3   4
ATOM      4  C   UNL     1     164.954 159.977 183.301  1.00  0.00     0.000 C 
BRANCH   4   5
ATOM      5  C   UNL     1     166.055 160.957 183.745  1.00  0.00     0.000 C 
BRANCH   5   6
ATOM      6  C   UNL     1     167.407 160.305 184.090  1.00  0.00     0.000 C 
BRANCH   6   7
ATOM      7  C   UNL     1     168.447 160.448 182.966  1.00  0.00     0.006 C 
BRANCH   7   8
ATOM      8  C   UNL     1     168.010 161.462 181.901  1.00  0.00     0.053 C 
BRANCH   8   9
ATOM      9  C   UNL     1     167.874 160.826 180.551  1.00  0.00     0.041 C 
ATOM     10  O   UNL     1     168.718 161.065 179.649  1.00  0.00    -0.550 OA
ATOM     11  O   UNL     1     166.823 159.952 180.297  1.00  0.00    -0.550 OA
ENDBRANCH   8   9
ENDBRANCH   7   8
ENDBRANCH   6   7
ENDBRANCH   5   6
ENDBRANCH   4   5
ENDBRANCH   3   4
ENDBRANCH   2   3
ENDBRANCH   1   2
BRANCH   1  12
ATOM     12  C   UNL     1     162.278 162.889 183.479  1.00  0.00     0.000 C 
BRANCH  12  13
ATOM     13  C   UNL     1     160.798 162.684 183.112  1.00  0.00    -0.000 C 
BRANCH  13  14
ATOM     14  C   UNL     1     160.268 161.306 183.542  1.00  0.00    -0.000 C 
BRANCH  14  15
ATOM     15  C   UNL     1     159.967 160.390 182.344  1.00  0.00    -0.000 C 
BRANCH  15  16
ATOM     16  C   UNL     1     160.164 161.099 180.994  1.00  0.00    -0.000 C 
BRANCH  16  17
ATOM     17  C   UNL     1     161.103 160.332 180.051  1.00  0.00    -0.000 C 
BRANCH  17  18
ATOM     18  C   UNL     1     161.866 161.297 179.132  1.00  0.00    -0.000 C 
BRANCH  18  19
ATOM     19  C   UNL     1     160.931 162.140 178.252  1.00  0.00    -0.003 C 
ATOM     20  C   UNL     1     161.494 162.383 176.852  1.00  0.00     0.004 C 
ENDBRANCH  18  19
ENDBRANCH  17  18
ENDBRANCH  16  17
ENDBRANCH  15  16
ENDBRANCH  14  15
ENDBRANCH  13  14
ENDBRANCH  12  13
ENDBRANCH   1  12
TORSDOF 16
ENDMDL
MODEL 5
REMARK VINA RESULT:    -4.079      2.204      4.019
REMARK INTER + INTRA:         -10.328
REMARK INTER:                  -7.900
REMARK INTRA:                  -2.428
REMARK UNBOUND:                -2.434
REMARK SMILES CCCCCCCCCCCCCCCCCC(=O)[O-]
REMARK SMILES IDX 10 1 11 2 12 3 13 4 14 5 15 6 16 7 17 8 18 9 19 10 20 11
REMARK SMILES IDX 9 12 8 13 7 14 6 15 5 16 4 17 3 18 2 19 1 20
REMARK H PARENT
REMARK Flexibility Score: inf
ROOT
ATOM      1  C   UNL     1     161.888 162.461 179.346  1.00  0.00     0.000 C 
ENDROOT
BRANCH   1   2
ATOM      2  C   UNL     1     163.163 161.607 179.474  1.00  0.00     0.000 C 
BRANCH   2   3
ATOM      3  C   UNL     1     163.967 161.917 180.745  1.00  0.00     0.000 C 
BRANCH   3   4
ATOM      4  C   UNL     1     164.122 160.661 181.615  1.00  0.00     0.000 C 
BRANCH   4   5
ATOM      5  C   UNL     1     164.563 160.977 183.056  1.00  0.00     0.000 C 
BRANCH   5   6
ATOM      6  C   UNL     1     165.449 162.226 183.208  1.00  0.00     0.000 C 
BRANCH   6   7
ATOM      7  C   UNL     1     166.764 161.943 183.954  1.00  0.00     0.006 C 
BRANCH   7   8
ATOM      8  C   UNL     1     167.207 160.482 183.809  1.00  0.00     0.053 C 
BRANCH   8   9
ATOM      9  C   UNL     1     168.105 160.288 182.625  1.00  0.00     0.041 C 
ATOM     10  O   UNL     1     169.354 160.355 182.759  1.00  0.00    -0.550 OA
ATOM     11  O   UNL     1     167.559 160.011 181.377  1.00  0.00    -0.550 OA
ENDBRANCH   8   9
ENDBRANCH   7   8
ENDBRANCH   6   7
ENDBRANCH   5   6
ENDBRANCH   4   5
ENDBRANCH   3   4
ENDBRANCH   2   3
ENDBRANCH   1   2
BRANCH   1  12
ATOM     12  C   UNL     1     160.567 161.674 179.406  1.00  0.00     0.000 C 
BRANCH  12  13
ATOM     13  C   UNL     1     160.647 160.441 180.323  1.00  0.00    -0.000 C 
BRANCH  13  14
ATOM     14  C   UNL     1     159.899 160.644 181.652  1.00  0.00    -0.000 C 
BRANCH  14  15
ATOM     15  C   UNL     1     160.853 160.887 182.834  1.00  0.00    -0.000 C 
BRANCH  15  16
ATOM     16  C   UNL     1     160.621 162.247 183.510  1.00  0.00    -0.000 C 
BRANCH  16  17
ATOM     17  C   UNL     1     161.109 163.428 182.656  1.00  0.00    -0.000 C 
BRANCH  17  18
ATOM     18  C   UNL     1     159.922 164.235 182.109  1.00  0.00    -0.000 C 
BRANCH  18  19
ATOM     19  C   UNL     1     160.338 165.621 181.594  1.00  0.00    -0.003 C 
ATOM     20  C   UNL     1     161.750 166.015 182.027  1.00  0.00     0.004 C 
ENDBRANCH  18  19
ENDBRANCH  17  18
ENDBRANCH  16  17
ENDBRANCH  15  16
ENDBRANCH  14  15
ENDBRANCH  13  14
ENDBRANCH  12  13
ENDBRANCH   1  12
TORSDOF 16
ENDMDL
MODEL 6
REMARK VINA RESULT:    -4.065      2.738      6.331
REMARK INTER + INTRA:         -10.301
REMARK INTER:                  -7.707
REMARK INTRA:                  -2.594
REMARK UNBOUND:                -2.434
REMARK SMILES CCCCCCCCCCCCCCCCCC(=O)[O-]
REMARK SMILES IDX 10 1 11 2 12 3 13 4 14 5 15 6 16 7 17 8 18 9 19 10 20 11
REMARK SMILES IDX 9 12 8 13 7 14 6 15 5 16 4 17 3 18 2 19 1 20
REMARK H PARENT
REMARK Flexibility Score: inf
ROOT
ATOM      1  C   UNL     1     163.114 163.238 182.578  1.00  0.00     0.000 C 
ENDROOT
BRANCH   1   2
ATOM      2  C   UNL     1     162.107 162.761 183.640  1.00  0.00     0.000 C 
BRANCH   2   3
ATOM      3  C   UNL     1     160.705 162.509 183.065  1.00  0.00     0.000 C 
BRANCH   3   4
ATOM      4  C   UNL     1     160.243 161.074 183.356  1.00  0.00     0.000 C 
BRANCH   4   5
ATOM      5  C   UNL     1     159.875 160.289 182.083  1.00  0.00     0.000 C 
BRANCH   5   6
ATOM      6  C   UNL     1     160.227 160.992 180.760  1.00  0.00     0.000 C 
BRANCH   6   7
ATOM      7  C   UNL     1     161.445 160.370 180.056  1.00  0.00     0.006 C 
BRANCH   7   8
ATOM      8  C   UNL     1     162.344 161.432 179.411  1.00  0.00     0.053 C 
BRANCH   8   9
ATOM      9  C   UNL     1     163.509 160.817 178.698  1.00  0.00     0.041 C 
ATOM     10  O   UNL     1     164.374 160.166 179.340  1.00  0.00    -0.550 OA
ATOM     11  O   UNL     1     163.626 160.945 177.319  1.00  0.00    -0.550 OA
ENDBRANCH   8   9
ENDBRANCH   7   8
ENDBRANCH   6   7
ENDBRANCH   5   6
ENDBRANCH   4   5
ENDBRANCH   3   4
ENDBRANCH   2   3
ENDBRANCH   1   2
BRANCH   1  12
ATOM     12  C   UNL     1     164.301 162.290 182.331  1.00  0.00     0.000 C 
BRANCH  12  13
ATOM     13  C   UNL     1     164.025 160.852 182.803  1.00  0.00    -0.000 C 
BRANCH  13  14
ATOM     14  C   UNL     1     165.305 160.005 182.897  1.00  0.00    -0.000 C 
BRANCH  14  15
ATOM     15  C   UNL     1     166.232 160.461 184.036  1.00  0.00    -0.000 C 
BRANCH  15  16
ATOM     16  C   UNL     1     167.720 160.283 183.695  1.00  0.00    -0.000 C 
BRANCH  16  17
ATOM     17  C   UNL     1     168.226 161.318 182.679  1.00  0.00    -0.000 C 
BRANCH  17  18
ATOM     18  C   UNL     1     168.735 160.630 181.403  1.00  0.00    -0.000 C 
BRANCH  18  19
ATOM     19  C   UNL     1     167.772 160.796 180.218  1.00  0.00    -0.003 C 
ATOM     20  C   UNL     1     167.189 162.206 180.121  1.00  0.00     0.004 C 
ENDBRANCH  18  19
ENDBRANCH  17  18
ENDBRANCH  16  17
ENDBRANCH  15  16
ENDBRANCH  14  15
ENDBRANCH  13  14
ENDBRANCH  12  13
ENDBRANCH   1  12
TORSDOF 16
ENDMDL
MODEL 7
REMARK VINA RESULT:    -4.064      1.153      1.703
REMARK INTER + INTRA:         -10.298
REMARK INTER:                  -7.546
REMARK INTRA:                  -2.753
REMARK UNBOUND:                -2.434
REMARK SMILES CCCCCCCCCCCCCCCCCC(=O)[O-]
REMARK SMILES IDX 10 1 11 2 12 3 13 4 14 5 15 6 16 7 17 8 18 9 19 10 20 11
REMARK SMILES IDX 9 12 8 13 7 14 6 15 5 16 4 17 3 18 2 19 1 20
REMARK H PARENT
REMARK Flexibility Score: inf
ROOT
ATOM      1  C   UNL     1     163.245 162.566 182.585  1.00  0.00     0.000 C 
ENDROOT
BRANCH   1   2
ATOM      2  C   UNL     1     163.704 161.230 183.197  1.00  0.00     0.000 C 
BRANCH   2   3
ATOM      3  C   UNL     1     164.472 160.348 182.201  1.00  0.00     0.000 C 
BRANCH   3   4
ATOM      4  C   UNL     1     165.095 161.198 181.083  1.00  0.00     0.000 C 
BRANCH   4   5
ATOM      5  C   UNL     1     166.591 161.484 181.306  1.00  0.00     0.000 C 
BRANCH   5   6
ATOM      6  C   UNL     1     167.313 160.492 182.235  1.00  0.00     0.000 C 
BRANCH   6   7
ATOM      7  C   UNL     1     168.134 161.189 183.334  1.00  0.00     0.006 C 
BRANCH   7   8
ATOM      8  C   UNL     1     167.265 161.613 184.524  1.00  0.00     0.053 C 
BRANCH   8   9
ATOM      9  C   UNL     1     167.091 163.100 184.584  1.00  0.00     0.041 C 
ATOM     10  O   UNL     1     165.938 163.603 184.610  1.00  0.00    -0.550 OA
ATOM     11  O   UNL     1     168.206 163.928 184.633  1.00  0.00    -0.550 OA
ENDBRANCH   8   9
ENDBRANCH   7   8
ENDBRANCH   6   7
ENDBRANCH   5   6
ENDBRANCH   4   5
ENDBRANCH   3   4
ENDBRANCH   2   3
ENDBRANCH   1   2
BRANCH   1  12
ATOM     12  C   UNL     1     161.775 162.935 182.852  1.00  0.00     0.000 C 
BRANCH  12  13
ATOM     13  C   UNL     1     161.065 161.931 183.777  1.00  0.00    -0.000 C 
BRANCH  13  14
ATOM     14  C   UNL     1     160.199 160.924 183.002  1.00  0.00    -0.000 C 
BRANCH  14  15
ATOM     15  C   UNL     1     160.024 161.312 181.524  1.00  0.00    -0.000 C 
BRANCH  15  16
ATOM     16  C   UNL     1     160.451 160.191 180.563  1.00  0.00    -0.000 C 
BRANCH  16  17
ATOM     17  C   UNL     1     161.708 160.546 179.755  1.00  0.00    -0.000 C 
BRANCH  17  18
ATOM     18  C   UNL     1     161.439 161.729 178.814  1.00  0.00    -0.000 C 
BRANCH  18  19
ATOM     19  C   UNL     1     162.342 162.937 179.108  1.00  0.00    -0.003 C 
ATOM     20  C   UNL     1     161.550 164.216 179.380  1.00  0.00     0.004 C 
ENDBRANCH  18  19
ENDBRANCH  17  18
ENDBRANCH  16  17
ENDBRANCH  15  16
ENDBRANCH  14  15
ENDBRANCH  13  14
ENDBRANCH  12  13
ENDBRANCH   1  12
TORSDOF 16
ENDMDL
MODEL 8
REMARK VINA RESULT:    -4.021      1.361      3.037
REMARK INTER + INTRA:         -10.215
REMARK INTER:                  -7.536
REMARK INTRA:                  -2.679
REMARK UNBOUND:                -2.434
REMARK SMILES CCCCCCCCCCCCCCCCCC(=O)[O-]
REMARK SMILES IDX 10 1 11 2 12 3 13 4 14 5 15 6 16 7 17 8 18 9 19 10 20 11
REMARK SMILES IDX 9 12 8 13 7 14 6 15 5 16 4 17 3 18 2 19 1 20
REMARK H PARENT
REMARK Flexibility Score: inf
ROOT
ATOM      1  C   UNL     1     163.497 161.497 180.030  1.00  0.00     0.000 C 
ENDROOT
BRANCH   1   2
ATOM      2  C   UNL     1     164.543 161.195 181.118  1.00  0.00     0.000 C 
BRANCH   2   3
ATOM      3  C   UNL     1     163.930 160.570 182.381  1.00  0.00     0.000 C 
BRANCH   3   4
ATOM      4  C   UNL     1     165.011 159.896 183.239  1.00  0.00     0.000 C 
BRANCH   4   5
ATOM      5  C   UNL     1     166.442 160.257 182.799  1.00  0.00     0.000 C 
BRANCH   5   6
ATOM      6  C   UNL     1     167.373 160.729 183.930  1.00  0.00     0.000 C 
BRANCH   6   7
ATOM      7  C   UNL     1     168.141 162.015 183.578  1.00  0.00     0.006 C 
BRANCH   7   8
ATOM      8  C   UNL     1     167.523 163.255 184.236  1.00  0.00     0.053 C 
BRANCH   8   9
ATOM      9  C   UNL     1     166.256 163.673 183.554  1.00  0.00     0.041 C 
ATOM     10  O   UNL     1     166.275 164.038 182.350  1.00  0.00    -0.550 OA
ATOM     11  O   UNL     1     165.051 163.639 184.245  1.00  0.00    -0.550 OA
ENDBRANCH   8   9
ENDBRANCH   7   8
ENDBRANCH   6   7
ENDBRANCH   5   6
ENDBRANCH   4   5
ENDBRANCH   3   4
ENDBRANCH   2   3
ENDBRANCH   1   2
BRANCH   1  12
ATOM     12  C   UNL     1     162.270 160.569 180.029  1.00  0.00     0.000 C 
BRANCH  12  13
ATOM     13  C   UNL     1     160.966 161.303 179.671  1.00  0.00    -0.000 C 
BRANCH  13  14
ATOM     14  C   UNL     1     159.892 161.165 180.763  1.00  0.00    -0.000 C 
BRANCH  14  15
ATOM     15  C   UNL     1     160.364 160.305 181.949  1.00  0.00    -0.000 C 
BRANCH  15  16
ATOM     16  C   UNL     1     160.342 161.072 183.281  1.00  0.00    -0.000 C 
BRANCH  16  17
ATOM     17  C   UNL     1     160.337 162.596 183.089  1.00  0.00    -0.000 C 
BRANCH  17  18
ATOM     18  C   UNL     1     161.758 163.169 183.205  1.00  0.00    -0.000 C 
BRANCH  18  19
ATOM     19  C   UNL     1     162.066 164.210 182.119  1.00  0.00    -0.003 C 
ATOM     20  C   UNL     1     160.830 164.999 181.686  1.00  0.00     0.004 C 
ENDBRANCH  18  19
ENDBRANCH  17  18
ENDBRANCH  16  17
ENDBRANCH  15  16
ENDBRANCH  14  15
ENDBRANCH  13  14
ENDBRANCH  12  13
ENDBRANCH   1  12
TORSDOF 16
ENDMDL
