MODEL 1
REMARK VINA RESULT:    -5.346      0.000      0.000
REMARK INTER + INTRA:          -7.299
REMARK INTER:                  -7.534
REMARK INTRA:                   0.235
REMARK UNBOUND:                 0.235
REMARK SMILES CC1=CCC(=C(C)C)C(=O)CC(C)=CCC1
REMARK SMILES IDX 12 1 14 2 13 3 15 4 16 5 2 6 1 7 3 8 11 10 9 11 10 12 5 13
REMARK SMILES IDX 6 14 7 15 8 16 4 17
REMARK H PARENT
REMARK Flexibility Score: 60.00
ROOT
ATOM      1  C   UNL     1      21.728 -19.992  21.624  1.00  0.00    -0.070 C 
ATOM      2  C   UNL     1      22.548 -18.936  21.428  1.00  0.00    -0.027 C 
ATOM      3  C   UNL     1      20.264 -19.715  21.863  1.00  0.00     0.039 C 
ENDROOT
BRANCH   2   4
ATOM      4  C   UNL     1      24.019 -19.012  21.080  1.00  0.00     0.032 C 
BRANCH   4   5
ATOM      5  C   UNL     1      24.328 -18.981  19.568  1.00  0.00     0.034 C 
BRANCH   5   6
ATOM      6  C   UNL     1      25.412 -19.963  19.162  1.00  0.00    -0.077 C 
ATOM      7  C   UNL     1      26.845 -19.578  19.432  1.00  0.00     0.039 C 
ATOM      8  C   UNL     1      25.173 -21.189  18.635  1.00  0.00    -0.023 CG0
ATOM      9  G   UNL     1      23.828 -21.779  18.262  1.00  0.00     0.000 G0
ENDBRANCH   5   6
ENDBRANCH   4   5
ENDBRANCH   2   4
BRANCH   1  10
ATOM     10  C   UNL     1      22.189 -21.432  21.526  1.00  0.00     0.111 C 
BRANCH  10  11
ATOM     11  C   UNL     1      22.065 -21.961  20.122  1.00  0.00     0.163 C 
ATOM     12  O   UNL     1      20.960 -21.823  19.531  1.00  0.00    -0.294 OA
BRANCH  11  13
ATOM     13  C   UNL     1      23.212 -22.582  19.396  1.00  0.00    -0.002 C 
ATOM     14  C   UNL     1      23.621 -23.853  19.691  1.00  0.00    -0.069 C 
ATOM     15  C   UNL     1      23.037 -24.614  20.861  1.00  0.00     0.039 C 
ATOM     16  C   UNL     1      24.672 -24.567  18.869  1.00  0.00     0.039 C 
BRANCH  13  17
ATOM     17  C   UNL     1      23.832 -21.783  18.262  1.00  0.00     0.066 CG0
ATOM     18  G   UNL     1      25.175 -21.191  18.642  1.00  0.00     0.000 G0
ENDBRANCH  13  17
ENDBRANCH  11  13
ENDBRANCH  10  11
ENDBRANCH   1  10
TORSDOF 0
ENDMDL
MODEL 2
REMARK VINA RESULT:    -5.279      2.697      5.128
REMARK INTER + INTRA:          -7.205
REMARK INTER:                  -7.417
REMARK INTRA:                   0.212
REMARK UNBOUND:                 0.235
REMARK SMILES CC1=CCC(=C(C)C)C(=O)CC(C)=CCC1
REMARK SMILES IDX 12 1 14 2 13 3 15 4 16 5 2 6 1 7 3 8 11 10 9 11 10 12 5 13
REMARK SMILES IDX 6 14 7 15 8 16 4 17
REMARK H PARENT
REMARK Flexibility Score: 60.00
ROOT
ATOM      1  C   UNL     1      27.855 -21.049  18.996  1.00  0.00    -0.070 C 
ATOM      2  C   UNL     1      28.258 -22.256  19.451  1.00  0.00    -0.027 C 
ATOM      3  C   UNL     1      28.629 -19.833  19.441  1.00  0.00     0.039 C 
ENDROOT
BRANCH   2   4
ATOM      4  C   UNL     1      27.675 -23.592  19.046  1.00  0.00     0.032 C 
BRANCH   4   5
ATOM      5  C   UNL     1      26.347 -23.957  19.741  1.00  0.00     0.034 C 
BRANCH   5   6
ATOM      6  C   UNL     1      25.271 -24.410  18.771  1.00  0.00    -0.077 C 
ATOM      7  C   UNL     1      25.475 -25.725  18.061  1.00  0.00     0.039 C 
ATOM      8  C   UNL     1      24.109 -23.745  18.553  1.00  0.00    -0.023 CG0
ATOM      9  G   UNL     1      23.697 -22.408  19.136  1.00  0.00     0.000 G0
ENDBRANCH   5   6
ENDBRANCH   4   5
ENDBRANCH   2   4
BRANCH   1  10
ATOM     10  C   UNL     1      26.730 -20.870  17.997  1.00  0.00     0.111 C 
BRANCH  10  11
ATOM     11  C   UNL     1      25.422 -20.572  18.679  1.00  0.00     0.163 C 
ATOM     12  O   UNL     1      25.410 -19.693  19.582  1.00  0.00    -0.294 OA
BRANCH  11  13
ATOM     13  C   UNL     1      24.144 -21.233  18.283  1.00  0.00    -0.002 C 
ATOM     14  C   UNL     1      23.477 -20.846  17.154  1.00  0.00    -0.069 C 
ATOM     15  C   UNL     1      23.920 -19.640  16.356  1.00  0.00     0.039 C 
ATOM     16  C   UNL     1      22.269 -21.599  16.639  1.00  0.00     0.039 C 
BRANCH  13  17
ATOM     17  C   UNL     1      23.675 -22.406  19.129  1.00  0.00     0.066 CG0
ATOM     18  G   UNL     1      24.112 -23.740  18.557  1.00  0.00     0.000 G0
ENDBRANCH  13  17
ENDBRANCH  11  13
ENDBRANCH  10  11
ENDBRANCH   1  10
TORSDOF 0
ENDMDL
MODEL 3
REMARK VINA RESULT:    -5.252      2.402      5.154
REMARK INTER + INTRA:          -7.167
REMARK INTER:                  -7.450
REMARK INTRA:                   0.283
REMARK UNBOUND:                 0.235
REMARK SMILES CC1=CCC(=C(C)C)C(=O)CC(C)=CCC1
REMARK SMILES IDX 12 1 14 2 13 3 15 4 16 5 2 6 1 7 3 8 11 10 9 11 10 12 5 13
REMARK SMILES IDX 6 14 7 15 8 16 4 17
REMARK H PARENT
REMARK Flexibility Score: 60.00
ROOT
ATOM      1  C   UNL     1      22.021 -23.808  15.583  1.00  0.00    -0.070 C 
ATOM      2  C   UNL     1      22.556 -24.991  15.957  1.00  0.00    -0.027 C 
ATOM      3  C   UNL     1      20.623 -23.813  15.014  1.00  0.00     0.039 C 
ENDROOT
BRANCH   2   4
ATOM      4  C   UNL     1      23.895 -25.181  16.634  1.00  0.00     0.032 C 
BRANCH   4   5
ATOM      5  C   UNL     1      23.876 -25.010  18.167  1.00  0.00     0.034 C 
BRANCH   5   6
ATOM      6  C   UNL     1      25.094 -24.280  18.702  1.00  0.00    -0.077 C 
ATOM      7  C   UNL     1      26.420 -24.998  18.652  1.00  0.00     0.039 C 
ATOM      8  C   UNL     1      25.081 -23.003  19.157  1.00  0.00    -0.023 CG0
ATOM      9  G   UNL     1      23.873 -22.101  19.316  1.00  0.00     0.000 G0
ENDBRANCH   5   6
ENDBRANCH   4   5
ENDBRANCH   2   4
BRANCH   1  10
ATOM     10  C   UNL     1      22.716 -22.478  15.792  1.00  0.00     0.111 C 
BRANCH  10  11
ATOM     11  C   UNL     1      22.455 -21.924  17.167  1.00  0.00     0.163 C 
ATOM     12  O   UNL     1      21.284 -22.000  17.627  1.00  0.00    -0.294 OA
BRANCH  11  13
ATOM     13  C   UNL     1      23.540 -21.349  18.017  1.00  0.00    -0.002 C 
ATOM     14  C   UNL     1      24.132 -20.162  17.687  1.00  0.00    -0.069 C 
ATOM     15  C   UNL     1      23.828 -19.471  16.376  1.00  0.00     0.039 C 
ATOM     16  C   UNL     1      25.119 -19.476  18.607  1.00  0.00     0.039 C 
BRANCH  13  17
ATOM     17  C   UNL     1      23.881 -22.086  19.302  1.00  0.00     0.066 CG0
ATOM     18  G   UNL     1      25.086 -22.991  19.144  1.00  0.00     0.000 G0
ENDBRANCH  13  17
ENDBRANCH  11  13
ENDBRANCH  10  11
ENDBRANCH   1  10
TORSDOF 0
ENDMDL
MODEL 4
REMARK VINA RESULT:    -5.221      1.302      4.214
REMARK INTER + INTRA:          -7.123
REMARK INTER:                  -8.211
REMARK INTRA:                   1.088
REMARK UNBOUND:                 0.235
REMARK SMILES CC1=CCC(=C(C)C)C(=O)CC(C)=CCC1
REMARK SMILES IDX 12 1 14 2 13 3 15 4 16 5 2 6 1 7 3 8 11 10 9 11 10 12 5 13
REMARK SMILES IDX 6 14 7 15 8 16 4 17
REMARK H PARENT
REMARK Flexibility Score: 60.00
ROOT
ATOM      1  C   UNL     1      22.578 -24.482  21.552  1.00  0.00    -0.070 C 
ATOM      2  C   UNL     1      23.363 -24.991  20.577  1.00  0.00    -0.027 C 
ATOM      3  C   UNL     1      21.679 -25.432  22.304  1.00  0.00     0.039 C 
ENDROOT
BRANCH   2   4
ATOM      4  C   UNL     1      24.394 -24.222  19.781  1.00  0.00     0.032 C 
BRANCH   4   5
ATOM      5  C   UNL     1      24.292 -24.394  18.251  1.00  0.00     0.034 C 
BRANCH   5   6
ATOM      6  C   UNL     1      23.438 -23.329  17.587  1.00  0.00    -0.077 C 
ATOM      7  C   UNL     1      22.625 -23.734  16.383  1.00  0.00     0.039 C 
ATOM      8  C   UNL     1      23.308 -22.060  18.044  1.00  0.00    -0.023 CG0
ATOM      9  G   UNL     1      24.035 -21.429  19.214  1.00  0.00     0.000 G0
ENDBRANCH   5   6
ENDBRANCH   4   5
ENDBRANCH   2   4
BRANCH   1  10
ATOM     10  C   UNL     1      22.625 -23.030  21.984  1.00  0.00     0.111 C 
BRANCH  10  11
ATOM     11  C   UNL     1      22.192 -22.106  20.877  1.00  0.00     0.163 C 
ATOM     12  O   UNL     1      21.017 -22.218  20.435  1.00  0.00    -0.294 OA
BRANCH  11  13
ATOM     13  C   UNL     1      23.080 -21.034  20.336  1.00  0.00    -0.002 C 
ATOM     14  C   UNL     1      23.090 -19.787  20.895  1.00  0.00    -0.069 C 
ATOM     15  C   UNL     1      22.099 -19.400  21.970  1.00  0.00     0.039 C 
ATOM     16  C   UNL     1      24.089 -18.729  20.475  1.00  0.00     0.039 C 
BRANCH  13  17
ATOM     17  C   UNL     1      24.029 -21.418  19.213  1.00  0.00     0.066 CG0
ATOM     18  G   UNL     1      23.306 -22.047  18.038  1.00  0.00     0.000 G0
ENDBRANCH  13  17
ENDBRANCH  11  13
ENDBRANCH  10  11
ENDBRANCH   1  10
TORSDOF 0
ENDMDL
MODEL 5
REMARK VINA RESULT:    -5.218      1.860      4.141
REMARK INTER + INTRA:          -7.119
REMARK INTER:                  -7.331
REMARK INTRA:                   0.212
REMARK UNBOUND:                 0.235
REMARK SMILES CC1=CCC(=C(C)C)C(=O)CC(C)=CCC1
REMARK SMILES IDX 12 1 14 2 13 3 15 4 16 5 2 6 1 7 3 8 11 10 9 11 10 12 5 13
REMARK SMILES IDX 6 14 7 15 8 16 4 17
REMARK H PARENT
REMARK Flexibility Score: 60.00
ROOT
ATOM      1  C   UNL     1      24.821 -18.954  20.098  1.00  0.00    -0.070 C 
ATOM      2  C   UNL     1      24.050 -18.930  21.207  1.00  0.00    -0.027 C 
ATOM      3  C   UNL     1      26.289 -18.639  20.251  1.00  0.00     0.039 C 
ENDROOT
BRANCH   2   4
ATOM      4  C   UNL     1      22.587 -19.308  21.275  1.00  0.00     0.032 C 
BRANCH   4   5
ATOM      5  C   UNL     1      22.315 -20.819  21.432  1.00  0.00     0.034 C 
BRANCH   5   6
ATOM      6  C   UNL     1      21.172 -21.313  20.564  1.00  0.00    -0.077 C 
ATOM      7  C   UNL     1      19.776 -20.871  20.924  1.00  0.00     0.039 C 
ATOM      8  C   UNL     1      21.331 -22.068  19.449  1.00  0.00    -0.023 CG0
ATOM      9  G   UNL     1      22.625 -22.641  18.908  1.00  0.00     0.000 G0
ENDBRANCH   5   6
ENDBRANCH   4   5
ENDBRANCH   2   4
BRANCH   1  10
ATOM     10  C   UNL     1      24.304 -19.367  18.735  1.00  0.00     0.111 C 
BRANCH  10  11
ATOM     11  C   UNL     1      24.441 -20.850  18.514  1.00  0.00     0.163 C 
ATOM     12  O   UNL     1      25.516 -21.406  18.866  1.00  0.00    -0.294 OA
BRANCH  11  13
ATOM     13  C   UNL     1      23.335 -21.681  17.954  1.00  0.00    -0.002 C 
ATOM     14  C   UNL     1      23.030 -21.634  16.622  1.00  0.00    -0.069 C 
ATOM     15  C   UNL     1      23.688 -20.630  15.701  1.00  0.00     0.039 C 
ATOM     16  C   UNL     1      22.025 -22.577  15.997  1.00  0.00     0.039 C 
BRANCH  13  17
ATOM     17  C   UNL     1      22.638 -22.642  18.903  1.00  0.00     0.066 CG0
ATOM     18  G   UNL     1      21.336 -22.080  19.439  1.00  0.00     0.000 G0
ENDBRANCH  13  17
ENDBRANCH  11  13
ENDBRANCH  10  11
ENDBRANCH   1  10
TORSDOF 0
ENDMDL
MODEL 6
REMARK VINA RESULT:    -5.175      2.044      4.214
REMARK INTER + INTRA:          -7.058
REMARK INTER:                  -7.298
REMARK INTRA:                   0.241
REMARK UNBOUND:                 0.235
REMARK SMILES CC1=CCC(=C(C)C)C(=O)CC(C)=CCC1
REMARK SMILES IDX 12 1 14 2 13 3 15 4 16 5 2 6 1 7 3 8 11 10 9 11 10 12 5 13
REMARK SMILES IDX 6 14 7 15 8 16 4 17
REMARK H PARENT
REMARK Flexibility Score: 60.00
ROOT
ATOM      1  C   UNL     1      27.495 -23.670  19.338  1.00  0.00    -0.070 C 
ATOM      2  C   UNL     1      28.242 -22.595  19.003  1.00  0.00    -0.027 C 
ATOM      3  C   UNL     1      28.034 -25.038  18.998  1.00  0.00     0.039 C 
ENDROOT
BRANCH   2   4
ATOM      4  C   UNL     1      27.921 -21.156  19.342  1.00  0.00     0.032 C 
BRANCH   4   5
ATOM      5  C   UNL     1      26.826 -20.512  18.464  1.00  0.00     0.034 C 
BRANCH   5   6
ATOM      6  C   UNL     1      25.722 -19.856  19.273  1.00  0.00    -0.077 C 
ATOM      7  C   UNL     1      26.085 -18.658  20.113  1.00  0.00     0.039 C 
ATOM      8  C   UNL     1      24.421 -20.235  19.237  1.00  0.00    -0.023 CG0
ATOM      9  G   UNL     1      23.831 -21.412  18.486  1.00  0.00     0.000 G0
ENDBRANCH   5   6
ENDBRANCH   4   5
ENDBRANCH   2   4
BRANCH   1  10
ATOM     10  C   UNL     1      26.197 -23.572  20.113  1.00  0.00     0.111 C 
BRANCH  10  11
ATOM     11  C   UNL     1      25.000 -23.612  19.201  1.00  0.00     0.163 C 
ATOM     12  O   UNL     1      24.964 -24.499  18.306  1.00  0.00    -0.294 OA
BRANCH  11  13
ATOM     13  C   UNL     1      23.840 -22.686  19.361  1.00  0.00    -0.002 C 
ATOM     14  C   UNL     1      22.879 -22.926  20.304  1.00  0.00    -0.069 C 
ATOM     15  C   UNL     1      22.868 -24.209  21.106  1.00  0.00     0.039 C 
ATOM     16  C   UNL     1      21.780 -21.928  20.599  1.00  0.00     0.039 C 
BRANCH  13  17
ATOM     17  C   UNL     1      23.828 -21.430  18.505  1.00  0.00     0.066 CG0
ATOM     18  G   UNL     1      24.408 -20.233  19.232  1.00  0.00     0.000 G0
ENDBRANCH  13  17
ENDBRANCH  11  13
ENDBRANCH  10  11
ENDBRANCH   1  10
TORSDOF 0
ENDMDL
MODEL 7
REMARK VINA RESULT:    -5.164      2.472      5.367
REMARK INTER + INTRA:          -7.043
REMARK INTER:                  -7.305
REMARK INTRA:                   0.263
REMARK UNBOUND:                 0.235
REMARK SMILES CC1=CCC(=C(C)C)C(=O)CC(C)=CCC1
REMARK SMILES IDX 12 1 14 2 13 3 15 4 16 5 2 6 1 7 3 8 11 10 9 11 10 12 5 13
REMARK SMILES IDX 6 14 7 15 8 16 4 17
REMARK H PARENT
REMARK Flexibility Score: 60.00
ROOT
ATOM      1  C   UNL     1      24.849 -25.448  17.891  1.00  0.00    -0.070 C 
ATOM      2  C   UNL     1      24.324 -25.464  16.646  1.00  0.00    -0.027 C 
ATOM      3  C   UNL     1      26.283 -25.883  18.059  1.00  0.00     0.039 C 
ENDROOT
BRANCH   2   4
ATOM      4  C   UNL     1      22.944 -24.976  16.262  1.00  0.00     0.032 C 
BRANCH   4   5
ATOM      5  C   UNL     1      22.876 -23.492  15.843  1.00  0.00     0.034 C 
BRANCH   5   6
ATOM      6  C   UNL     1      21.652 -22.776  16.383  1.00  0.00    -0.077 C 
ATOM      7  C   UNL     1      20.330 -23.039  15.708  1.00  0.00     0.039 C 
ATOM      8  C   UNL     1      21.658 -21.968  17.473  1.00  0.00    -0.023 CG0
ATOM      9  G   UNL     1      22.862 -21.548  18.293  1.00  0.00     0.000 G0
ENDBRANCH   5   6
ENDBRANCH   4   5
ENDBRANCH   2   4
BRANCH   1  10
ATOM     10  C   UNL     1      24.099 -24.931  19.103  1.00  0.00     0.111 C 
BRANCH  10  11
ATOM     11  C   UNL     1      24.287 -23.448  19.282  1.00  0.00     0.163 C 
ATOM     12  O   UNL     1      25.460 -22.989  19.243  1.00  0.00    -0.294 OA
BRANCH  11  13
ATOM     13  C   UNL     1      23.138 -22.509  19.442  1.00  0.00    -0.002 C 
ATOM     14  C   UNL     1      22.430 -22.462  20.611  1.00  0.00    -0.069 C 
ATOM     15  C   UNL     1      22.679 -23.460  21.719  1.00  0.00     0.039 C 
ATOM     16  C   UNL     1      21.366 -21.415  20.861  1.00  0.00     0.039 C 
BRANCH  13  17
ATOM     17  C   UNL     1      22.857 -21.552  18.294  1.00  0.00     0.066 CG0
ATOM     18  G   UNL     1      21.648 -21.968  17.480  1.00  0.00     0.000 G0
ENDBRANCH  13  17
ENDBRANCH  11  13
ENDBRANCH  10  11
ENDBRANCH   1  10
TORSDOF 0
ENDMDL
MODEL 8
REMARK VINA RESULT:    -5.067      1.928      3.317
REMARK INTER + INTRA:          -6.906
REMARK INTER:                  -7.608
REMARK INTRA:                   0.702
REMARK UNBOUND:                 0.235
REMARK SMILES CC1=CCC(=C(C)C)C(=O)CC(C)=CCC1
REMARK SMILES IDX 12 1 14 2 13 3 15 4 16 5 2 6 1 7 3 8 11 10 9 11 10 12 5 13
REMARK SMILES IDX 6 14 7 15 8 16 4 17
REMARK H PARENT
REMARK Flexibility Score: 60.00
ROOT
ATOM      1  C   UNL     1      23.030 -23.880  21.538  1.00  0.00    -0.070 C 
ATOM      2  C   UNL     1      22.460 -22.688  21.819  1.00  0.00    -0.027 C 
ATOM      3  C   UNL     1      23.736 -24.607  22.656  1.00  0.00     0.039 C 
ENDROOT
BRANCH   2   4
ATOM      4  C   UNL     1      21.631 -21.857  20.864  1.00  0.00     0.032 C 
BRANCH   4   5
ATOM      5  C   UNL     1      22.084 -20.389  20.721  1.00  0.00     0.034 C 
BRANCH   5   6
ATOM      6  C   UNL     1      23.342 -20.231  19.886  1.00  0.00    -0.077 C 
ATOM      7  C   UNL     1      24.418 -19.311  20.406  1.00  0.00     0.039 C 
ATOM      8  C   UNL     1      23.589 -20.914  18.741  1.00  0.00    -0.023 CG0
ATOM      9  G   UNL     1      22.655 -21.869  18.025  1.00  0.00     0.000 G0
ENDBRANCH   5   6
ENDBRANCH   4   5
ENDBRANCH   2   4
BRANCH   1  10
ATOM     10  C   UNL     1      22.917 -24.557  20.187  1.00  0.00     0.111 C 
BRANCH  10  11
ATOM     11  C   UNL     1      23.777 -23.882  19.152  1.00  0.00     0.163 C 
ATOM     12  O   UNL     1      25.025 -23.879  19.327  1.00  0.00    -0.294 OA
BRANCH  11  13
ATOM     13  C   UNL     1      23.210 -23.278  17.911  1.00  0.00    -0.002 C 
ATOM     14  C   UNL     1      23.123 -24.004  16.756  1.00  0.00    -0.069 C 
ATOM     15  C   UNL     1      23.737 -25.382  16.648  1.00  0.00     0.039 C 
ATOM     16  C   UNL     1      22.410 -23.476  15.529  1.00  0.00     0.039 C 
BRANCH  13  17
ATOM     17  C   UNL     1      22.651 -21.868  18.015  1.00  0.00     0.066 CG0
ATOM     18  G   UNL     1      23.592 -20.928  18.744  1.00  0.00     0.000 G0
ENDBRANCH  13  17
ENDBRANCH  11  13
ENDBRANCH  10  11
ENDBRANCH   1  10
TORSDOF 0
ENDMDL
MODEL 9
REMARK VINA RESULT:    -4.626      2.852      4.826
REMARK INTER + INTRA:          -6.284
REMARK INTER:                  -6.509
REMARK INTRA:                   0.224
REMARK UNBOUND:                 0.235
REMARK SMILES CC1=CCC(=C(C)C)C(=O)CC(C)=CCC1
REMARK SMILES IDX 12 1 14 2 13 3 15 4 16 5 2 6 1 7 3 8 11 10 9 11 10 12 5 13
REMARK SMILES IDX 6 14 7 15 8 16 4 17
REMARK H PARENT
REMARK Flexibility Score: 60.00
ROOT
ATOM      1  C   UNL     1      19.152 -22.018  16.829  1.00  0.00    -0.070 C 
ATOM      2  C   UNL     1      18.444 -22.182  17.968  1.00  0.00    -0.027 C 
ATOM      3  C   UNL     1      18.614 -22.645  15.567  1.00  0.00     0.039 C 
ENDROOT
BRANCH   2   4
ATOM      4  C   UNL     1      18.766 -21.554  19.307  1.00  0.00     0.032 C 
BRANCH   4   5
ATOM      5  C   UNL     1      19.889 -22.257  20.099  1.00  0.00     0.034 C 
BRANCH   5   6
ATOM      6  C   UNL     1      20.986 -21.308  20.547  1.00  0.00    -0.077 C 
ATOM      7  C   UNL     1      20.643 -20.289  21.604  1.00  0.00     0.039 C 
ATOM      8  C   UNL     1      22.269 -21.362  20.109  1.00  0.00    -0.023 CG0
ATOM      9  G   UNL     1      22.835 -22.282  19.046  1.00  0.00     0.000 G0
ENDBRANCH   5   6
ENDBRANCH   4   5
ENDBRANCH   2   4
BRANCH   1  10
ATOM     10  C   UNL     1      20.402 -21.165  16.742  1.00  0.00     0.111 C 
BRANCH  10  11
ATOM     11  C   UNL     1      21.652 -22.003  16.780  1.00  0.00     0.163 C 
ATOM     12  O   UNL     1      21.728 -22.992  16.003  1.00  0.00    -0.294 OA
BRANCH  11  13
ATOM     13  C   UNL     1      22.814 -21.668  17.656  1.00  0.00    -0.002 C 
ATOM     14  C   UNL     1      23.760 -20.770  17.248  1.00  0.00    -0.069 C 
ATOM     15  C   UNL     1      23.754 -20.207  15.844  1.00  0.00     0.039 C 
ATOM     16  C   UNL     1      24.860 -20.291  18.171  1.00  0.00     0.039 C 
BRANCH  13  17
ATOM     17  C   UNL     1      22.842 -22.290  19.042  1.00  0.00     0.066 CG0
ATOM     18  G   UNL     1      22.280 -21.363  20.101  1.00  0.00     0.000 G0
ENDBRANCH  13  17
ENDBRANCH  11  13
ENDBRANCH  10  11
ENDBRANCH   1  10
TORSDOF 0
ENDMDL
