MODEL 1
REMARK VINA RESULT:     3.341      0.000      0.000
REMARK INTER + INTRA:           4.266
REMARK INTER:                   4.122
REMARK INTRA:                   0.144
REMARK UNBOUND:                 0.144
REMARK SMILES O=c1c(O)c(-c2cc(O)c(O)c(O)c2)oc2cc(O)cc(O)c12
REMARK SMILES IDX 5 1 3 2 2 3 1 4 23 5 21 6 20 7 18 8 17 9 16 10 15 11 6 12
REMARK SMILES IDX 7 13 8 14 14 15 10 16 12 17 9 18 11 20 13 22 4 24 22 26
REMARK SMILES IDX 19 28
REMARK H PARENT 9 19 11 21 13 23 4 25 22 27 19 29
REMARK Flexibility Score: inf
ROOT
ATOM      1  C   UNL     1       9.308 -33.372  15.305  1.00  0.00     0.180 A 
ATOM      2  C   UNL     1       8.890 -33.877  14.062  1.00  0.00     0.208 A 
ATOM      3  C   UNL     1       7.988 -34.953  14.033  1.00  0.00     0.238 A 
ATOM      4  O   UNL     1       7.659 -35.437  12.918  1.00  0.00    -0.285 OA
ATOM      5  C   UNL     1       7.503 -35.498  15.246  1.00  0.00     0.111 A 
ATOM      6  C   UNL     1       6.556 -36.563  15.335  1.00  0.00     0.134 A 
ATOM      7  C   UNL     1       6.246 -37.108  16.587  1.00  0.00     0.093 A 
ATOM      8  C   UNL     1       6.801 -36.586  17.758  1.00  0.00     0.123 A 
ATOM      9  C   UNL     1       7.681 -35.508  17.686  1.00  0.00     0.094 A 
ATOM     10  C   UNL     1       8.037 -34.965  16.449  1.00  0.00     0.146 A 
ATOM     11  O   UNL     1       8.887 -33.947  16.424  1.00  0.00    -0.452 OA
ENDROOT
BRANCH   1  12
ATOM     12  C   UNL     1      10.238 -32.224  15.414  1.00  0.00     0.029 A 
ATOM     13  C   UNL     1      11.347 -32.149  14.557  1.00  0.00     0.062 A 
ATOM     14  C   UNL     1      12.254 -31.085  14.655  1.00  0.00     0.162 A 
ATOM     15  C   UNL     1      10.068 -31.237  16.400  1.00  0.00     0.062 A 
ATOM     16  C   UNL     1      12.065 -30.091  15.629  1.00  0.00     0.200 A 
ATOM     17  C   UNL     1      10.969 -30.173  16.506  1.00  0.00     0.162 A 
BRANCH  14  18
ATOM     18  O   UNL     1      13.344 -31.015  13.788  1.00  0.00    -0.504 OA
ATOM     19  H   UNL     1      13.237 -31.148  12.790  1.00  0.00     0.293 HD
ENDBRANCH  14  18
BRANCH  16  20
ATOM     20  O   UNL     1      12.958 -29.023  15.739  1.00  0.00    -0.502 OA
ATOM     21  H   UNL     1      13.935 -29.108  15.487  1.00  0.00     0.293 HD
ENDBRANCH  16  20
BRANCH  17  22
ATOM     22  O   UNL     1      10.763 -29.209  17.492  1.00  0.00    -0.504 OA
ATOM     23  H   UNL     1      10.775 -29.435  18.479  1.00  0.00     0.293 HD
ENDBRANCH  17  22
ENDBRANCH   1  12
BRANCH   2  24
ATOM     24  O   UNL     1       9.398 -33.339  12.876  1.00  0.00    -0.502 OA
ATOM     25  H   UNL     1      10.079 -33.825  12.305  1.00  0.00     0.293 HD
ENDBRANCH   2  24
BRANCH   6  26
ATOM     26  O   UNL     1       5.875 -37.095  14.237  1.00  0.00    -0.507 OA
ATOM     27  H   UNL     1       5.723 -38.080  14.077  1.00  0.00     0.293 HD
ENDBRANCH   6  26
BRANCH   8  28
ATOM     28  O   UNL     1       6.476 -37.125  19.001  1.00  0.00    -0.508 OA
ATOM     29  H   UNL     1       5.892 -37.949  19.085  1.00  0.00     0.293 HD
ENDBRANCH   8  28
TORSDOF 7
ENDMDL
MODEL 2
REMARK VINA RESULT:     4.060      2.809      3.743
REMARK INTER + INTRA:           5.154
REMARK INTER:                   5.500
REMARK INTRA:                  -0.347
REMARK UNBOUND:                 0.144
REMARK SMILES O=c1c(O)c(-c2cc(O)c(O)c(O)c2)oc2cc(O)cc(O)c12
REMARK SMILES IDX 5 1 3 2 2 3 1 4 23 5 21 6 20 7 18 8 17 9 16 10 15 11 6 12
REMARK SMILES IDX 7 13 8 14 14 15 10 16 12 17 9 18 11 20 13 22 4 24 22 26
REMARK SMILES IDX 19 28
REMARK H PARENT 9 19 11 21 13 23 4 25 22 27 19 29
REMARK Flexibility Score: inf
ROOT
ATOM      1  C   UNL     1      11.718 -32.122  14.217  1.00  0.00     0.180 A 
ATOM      2  C   UNL     1      11.921 -33.364  13.591  1.00  0.00     0.208 A 
ATOM      3  C   UNL     1      10.822 -34.216  13.397  1.00  0.00     0.238 A 
ATOM      4  O   UNL     1      11.018 -35.350  12.885  1.00  0.00    -0.285 OA
ATOM      5  C   UNL     1       9.532 -33.810  13.815  1.00  0.00     0.111 A 
ATOM      6  C   UNL     1       8.341 -34.575  13.633  1.00  0.00     0.134 A 
ATOM      7  C   UNL     1       7.142 -34.132  14.203  1.00  0.00     0.093 A 
ATOM      8  C   UNL     1       7.076 -32.919  14.894  1.00  0.00     0.123 A 
ATOM      9  C   UNL     1       8.221 -32.136  15.026  1.00  0.00     0.094 A 
ATOM     10  C   UNL     1       9.441 -32.569  14.500  1.00  0.00     0.146 A 
ATOM     11  O   UNL     1      10.509 -31.798  14.658  1.00  0.00    -0.452 OA
ENDROOT
BRANCH   1  12
ATOM     12  C   UNL     1      12.823 -31.161  14.435  1.00  0.00     0.029 A 
ATOM     13  C   UNL     1      13.626 -31.279  15.579  1.00  0.00     0.062 A 
ATOM     14  C   UNL     1      14.666 -30.370  15.820  1.00  0.00     0.162 A 
ATOM     15  C   UNL     1      13.050 -30.095  13.548  1.00  0.00     0.062 A 
ATOM     16  C   UNL     1      14.899 -29.318  14.918  1.00  0.00     0.200 A 
ATOM     17  C   UNL     1      14.083 -29.181  13.781  1.00  0.00     0.162 A 
BRANCH  14  18
ATOM     18  O   UNL     1      15.465 -30.506  16.954  1.00  0.00    -0.504 OA
ATOM     19  H   UNL     1      15.707 -29.710  17.532  1.00  0.00     0.293 HD
ENDBRANCH  14  18
BRANCH  16  20
ATOM     20  O   UNL     1      15.930 -28.405  15.141  1.00  0.00    -0.502 OA
ATOM     21  H   UNL     1      16.877 -28.570  14.821  1.00  0.00     0.293 HD
ENDBRANCH  16  20
BRANCH  17  22
ATOM     22  O   UNL     1      14.281 -28.140  12.875  1.00  0.00    -0.504 OA
ATOM     23  H   UNL     1      14.158 -27.168  13.133  1.00  0.00     0.293 HD
ENDBRANCH  17  22
ENDBRANCH   1  12
BRANCH   2  24
ATOM     24  O   UNL     1      13.206 -33.756  13.205  1.00  0.00    -0.502 OA
ATOM     25  H   UNL     1      13.520 -34.718  13.255  1.00  0.00     0.293 HD
ENDBRANCH   2  24
BRANCH   6  26
ATOM     26  O   UNL     1       8.278 -35.752  12.882  1.00  0.00    -0.507 OA
ATOM     27  H   UNL     1       8.971 -36.042  12.207  1.00  0.00     0.293 HD
ENDBRANCH   6  26
BRANCH   8  28
ATOM     28  O   UNL     1       5.875 -32.478  15.445  1.00  0.00    -0.508 OA
ATOM     29  H   UNL     1       5.632 -32.672  16.409  1.00  0.00     0.293 HD
ENDBRANCH   8  28
TORSDOF 7
ENDMDL
MODEL 3
REMARK VINA RESULT:     4.117      1.948      3.467
REMARK INTER + INTRA:           5.224
REMARK INTER:                   4.997
REMARK INTRA:                   0.227
REMARK UNBOUND:                 0.144
REMARK SMILES O=c1c(O)c(-c2cc(O)c(O)c(O)c2)oc2cc(O)cc(O)c12
REMARK SMILES IDX 5 1 3 2 2 3 1 4 23 5 21 6 20 7 18 8 17 9 16 10 15 11 6 12
REMARK SMILES IDX 7 13 8 14 14 15 10 16 12 17 9 18 11 20 13 22 4 24 22 26
REMARK SMILES IDX 19 28
REMARK H PARENT 9 19 11 21 13 23 4 25 22 27 19 29
REMARK Flexibility Score: inf
ROOT
ATOM      1  C   UNL     1      10.421 -32.616  14.408  1.00  0.00     0.180 A 
ATOM      2  C   UNL     1       9.651 -31.994  15.405  1.00  0.00     0.208 A 
ATOM      3  C   UNL     1       8.417 -32.561  15.765  1.00  0.00     0.238 A 
ATOM      4  O   UNL     1       7.706 -31.970  16.620  1.00  0.00    -0.285 OA
ATOM      5  C   UNL     1       7.978 -33.750  15.135  1.00  0.00     0.111 A 
ATOM      6  C   UNL     1       6.765 -34.434  15.449  1.00  0.00     0.134 A 
ATOM      7  C   UNL     1       6.369 -35.529  14.672  1.00  0.00     0.093 A 
ATOM      8  C   UNL     1       7.173 -36.006  13.634  1.00  0.00     0.123 A 
ATOM      9  C   UNL     1       8.388 -35.382  13.358  1.00  0.00     0.094 A 
ATOM     10  C   UNL     1       8.793 -34.264  14.092  1.00  0.00     0.146 A 
ATOM     11  O   UNL     1       9.952 -33.693  13.790  1.00  0.00    -0.452 OA
ENDROOT
BRANCH   1  12
ATOM     12  C   UNL     1      11.742 -32.090  13.993  1.00  0.00     0.029 A 
ATOM     13  C   UNL     1      12.758 -32.986  13.626  1.00  0.00     0.062 A 
ATOM     14  C   UNL     1      14.024 -32.516  13.250  1.00  0.00     0.162 A 
ATOM     15  C   UNL     1      12.020 -30.713  14.014  1.00  0.00     0.062 A 
ATOM     16  C   UNL     1      14.288 -31.136  13.254  1.00  0.00     0.200 A 
ATOM     17  C   UNL     1      13.281 -30.235  13.642  1.00  0.00     0.162 A 
BRANCH  14  18
ATOM     18  O   UNL     1      15.020 -33.416  12.875  1.00  0.00    -0.504 OA
ATOM     19  H   UNL     1      15.464 -34.028  13.550  1.00  0.00     0.293 HD
ENDBRANCH  14  18
BRANCH  16  20
ATOM     20  O   UNL     1      15.541 -30.650  12.880  1.00  0.00    -0.502 OA
ATOM     21  H   UNL     1      16.276 -30.473  13.555  1.00  0.00     0.293 HD
ENDBRANCH  16  20
BRANCH  17  22
ATOM     22  O   UNL     1      13.517 -28.861  13.670  1.00  0.00    -0.504 OA
ATOM     23  H   UNL     1      14.109 -28.400  12.988  1.00  0.00     0.293 HD
ENDBRANCH  17  22
ENDBRANCH   1  12
BRANCH   2  24
ATOM     24  O   UNL     1      10.092 -30.808  15.999  1.00  0.00    -0.502 OA
ATOM     25  H   UNL     1      10.944 -30.340  15.713  1.00  0.00     0.293 HD
ENDBRANCH   2  24
BRANCH   6  26
ATOM     26  O   UNL     1       5.935 -34.097  16.522  1.00  0.00    -0.507 OA
ATOM     27  H   UNL     1       6.260 -33.865  17.449  1.00  0.00     0.293 HD
ENDBRANCH   6  26
BRANCH   8  28
ATOM     28  O   UNL     1       6.779 -37.106  12.876  1.00  0.00    -0.508 OA
ATOM     29  H   UNL     1       5.879 -37.550  13.015  1.00  0.00     0.293 HD
ENDBRANCH   8  28
TORSDOF 7
ENDMDL
MODEL 4
REMARK VINA RESULT:     4.326      2.772      3.609
REMARK INTER + INTRA:           5.481
REMARK INTER:                   5.833
REMARK INTRA:                  -0.352
REMARK UNBOUND:                 0.144
REMARK SMILES O=c1c(O)c(-c2cc(O)c(O)c(O)c2)oc2cc(O)cc(O)c12
REMARK SMILES IDX 5 1 3 2 2 3 1 4 23 5 21 6 20 7 18 8 17 9 16 10 15 11 6 12
REMARK SMILES IDX 7 13 8 14 14 15 10 16 12 17 9 18 11 20 13 22 4 24 22 26
REMARK SMILES IDX 19 28
REMARK H PARENT 9 19 11 21 13 23 4 25 22 27 19 29
REMARK Flexibility Score: inf
ROOT
ATOM      1  C   UNL     1      11.704 -32.028  14.310  1.00  0.00     0.180 A 
ATOM      2  C   UNL     1      11.906 -33.247  13.640  1.00  0.00     0.208 A 
ATOM      3  C   UNL     1      10.808 -34.096  13.427  1.00  0.00     0.238 A 
ATOM      4  O   UNL     1      11.003 -35.211  12.875  1.00  0.00    -0.285 OA
ATOM      5  C   UNL     1       9.521 -33.709  13.872  1.00  0.00     0.111 A 
ATOM      6  C   UNL     1       8.331 -34.473  13.675  1.00  0.00     0.134 A 
ATOM      7  C   UNL     1       7.136 -34.055  14.272  1.00  0.00     0.093 A 
ATOM      8  C   UNL     1       7.072 -32.867  15.005  1.00  0.00     0.123 A 
ATOM      9  C   UNL     1       8.215 -32.084  15.153  1.00  0.00     0.094 A 
ATOM     10  C   UNL     1       9.431 -32.493  14.600  1.00  0.00     0.146 A 
ATOM     11  O   UNL     1      10.498 -31.724  14.774  1.00  0.00    -0.452 OA
ENDROOT
BRANCH   1  12
ATOM     12  C   UNL     1      12.808 -31.071  14.550  1.00  0.00     0.029 A 
ATOM     13  C   UNL     1      13.058 -30.056  13.614  1.00  0.00     0.062 A 
ATOM     14  C   UNL     1      14.110 -29.149  13.806  1.00  0.00     0.162 A 
ATOM     15  C   UNL     1      13.651 -31.192  15.668  1.00  0.00     0.062 A 
ATOM     16  C   UNL     1      14.936 -29.265  14.937  1.00  0.00     0.200 A 
ATOM     17  C   UNL     1      14.705 -30.294  15.866  1.00  0.00     0.162 A 
BRANCH  14  18
ATOM     18  O   UNL     1      14.339 -28.137  12.875  1.00  0.00    -0.504 OA
ATOM     19  H   UNL     1      14.122 -28.260  11.893  1.00  0.00     0.293 HD
ENDBRANCH  14  18
BRANCH  16  20
ATOM     20  O   UNL     1      15.986 -28.370  15.145  1.00  0.00    -0.502 OA
ATOM     21  H   UNL     1      15.869 -27.510  15.666  1.00  0.00     0.293 HD
ENDBRANCH  16  20
BRANCH  17  22
ATOM     22  O   UNL     1      15.516 -30.442  16.991  1.00  0.00    -0.504 OA
ATOM     23  H   UNL     1      16.461 -30.079  17.027  1.00  0.00     0.293 HD
ENDBRANCH  17  22
ENDBRANCH   1  12
BRANCH   2  24
ATOM     24  O   UNL     1      13.188 -33.620  13.228  1.00  0.00    -0.502 OA
ATOM     25  H   UNL     1      13.940 -32.951  13.116  1.00  0.00     0.293 HD
ENDBRANCH   2  24
BRANCH   6  26
ATOM     26  O   UNL     1       8.265 -35.624  12.885  1.00  0.00    -0.507 OA
ATOM     27  H   UNL     1       7.737 -36.452  13.119  1.00  0.00     0.293 HD
ENDBRANCH   6  26
BRANCH   8  28
ATOM     28  O   UNL     1       5.875 -32.450  15.582  1.00  0.00    -0.508 OA
ATOM     29  H   UNL     1       5.674 -31.469  15.735  1.00  0.00     0.293 HD
ENDBRANCH   8  28
TORSDOF 7
ENDMDL
MODEL 5
REMARK VINA RESULT:     4.376      1.902      3.679
REMARK INTER + INTRA:           5.544
REMARK INTER:                   5.260
REMARK INTRA:                   0.283
REMARK UNBOUND:                 0.144
REMARK SMILES O=c1c(O)c(-c2cc(O)c(O)c(O)c2)oc2cc(O)cc(O)c12
REMARK SMILES IDX 5 1 3 2 2 3 1 4 23 5 21 6 20 7 18 8 17 9 16 10 15 11 6 12
REMARK SMILES IDX 7 13 8 14 14 15 10 16 12 17 9 18 11 20 13 22 4 24 22 26
REMARK SMILES IDX 19 28
REMARK H PARENT 9 19 11 21 13 23 4 25 22 27 19 29
REMARK Flexibility Score: inf
ROOT
ATOM      1  C   UNL     1      10.390 -32.590  14.579  1.00  0.00     0.180 A 
ATOM      2  C   UNL     1       9.593 -32.001  15.575  1.00  0.00     0.208 A 
ATOM      3  C   UNL     1       8.360 -32.591  15.898  1.00  0.00     0.238 A 
ATOM      4  O   UNL     1       7.626 -32.029  16.752  1.00  0.00    -0.285 OA
ATOM      5  C   UNL     1       7.948 -33.771  15.233  1.00  0.00     0.111 A 
ATOM      6  C   UNL     1       6.738 -34.477  15.508  1.00  0.00     0.134 A 
ATOM      7  C   UNL     1       6.370 -35.559  14.699  1.00  0.00     0.093 A 
ATOM      8  C   UNL     1       7.200 -36.001  13.666  1.00  0.00     0.123 A 
ATOM      9  C   UNL     1       8.412 -35.356  13.427  1.00  0.00     0.094 A 
ATOM     10  C   UNL     1       8.789 -34.251  14.194  1.00  0.00     0.146 A 
ATOM     11  O   UNL     1       9.946 -33.658  13.927  1.00  0.00    -0.452 OA
ENDROOT
BRANCH   1  12
ATOM     12  C   UNL     1      11.711 -32.039  14.201  1.00  0.00     0.029 A 
ATOM     13  C   UNL     1      11.928 -30.654  14.268  1.00  0.00     0.062 A 
ATOM     14  C   UNL     1      13.162 -30.105  13.895  1.00  0.00     0.162 A 
ATOM     15  C   UNL     1      12.739 -32.869  13.719  1.00  0.00     0.062 A 
ATOM     16  C   UNL     1      14.191 -30.943  13.434  1.00  0.00     0.200 A 
ATOM     17  C   UNL     1      13.973 -32.329  13.343  1.00  0.00     0.162 A 
BRANCH  14  18
ATOM     18  O   UNL     1      13.368 -28.729  13.980  1.00  0.00    -0.504 OA
ATOM     19  H   UNL     1      13.753 -28.201  13.206  1.00  0.00     0.293 HD
ENDBRANCH  14  18
BRANCH  16  20
ATOM     20  O   UNL     1      15.427 -30.413  13.061  1.00  0.00    -0.502 OA
ATOM     21  H   UNL     1      15.674 -29.447  13.232  1.00  0.00     0.293 HD
ENDBRANCH  16  20
BRANCH  17  22
ATOM     22  O   UNL     1      14.970 -33.185  12.875  1.00  0.00    -0.504 OA
ATOM     23  H   UNL     1      15.821 -32.840  12.449  1.00  0.00     0.293 HD
ENDBRANCH  17  22
ENDBRANCH   1  12
BRANCH   2  24
ATOM     24  O   UNL     1      10.008 -30.824  16.204  1.00  0.00    -0.502 OA
ATOM     25  H   UNL     1       9.423 -29.999  16.255  1.00  0.00     0.293 HD
ENDBRANCH   2  24
BRANCH   6  26
ATOM     26  O   UNL     1       5.884 -34.175  16.573  1.00  0.00    -0.507 OA
ATOM     27  H   UNL     1       5.167 -33.465  16.551  1.00  0.00     0.293 HD
ENDBRANCH   6  26
BRANCH   8  28
ATOM     28  O   UNL     1       6.834 -37.088  12.875  1.00  0.00    -0.508 OA
ATOM     29  H   UNL     1       6.275 -36.970  12.039  1.00  0.00     0.293 HD
ENDBRANCH   8  28
TORSDOF 7
ENDMDL
MODEL 6
REMARK VINA RESULT:     4.618      1.428      7.437
REMARK INTER + INTRA:           5.842
REMARK INTER:                   6.072
REMARK INTRA:                  -0.230
REMARK UNBOUND:                 0.144
REMARK SMILES O=c1c(O)c(-c2cc(O)c(O)c(O)c2)oc2cc(O)cc(O)c12
REMARK SMILES IDX 5 1 3 2 2 3 1 4 23 5 21 6 20 7 18 8 17 9 16 10 15 11 6 12
REMARK SMILES IDX 7 13 8 14 14 15 10 16 12 17 9 18 11 20 13 22 4 24 22 26
REMARK SMILES IDX 19 28
REMARK H PARENT 9 19 11 21 13 23 4 25 22 27 19 29
REMARK Flexibility Score: inf
ROOT
ATOM      1  C   UNL     1      10.004 -32.721  15.304  1.00  0.00     0.180 A 
ATOM      2  C   UNL     1       9.935 -31.589  16.134  1.00  0.00     0.208 A 
ATOM      3  C   UNL     1      10.996 -30.670  16.122  1.00  0.00     0.238 A 
ATOM      4  O   UNL     1      10.954 -29.686  16.907  1.00  0.00    -0.285 OA
ATOM      5  C   UNL     1      12.105 -30.886  15.270  1.00  0.00     0.111 A 
ATOM      6  C   UNL     1      13.219 -30.000  15.146  1.00  0.00     0.134 A 
ATOM      7  C   UNL     1      14.319 -30.379  14.369  1.00  0.00     0.093 A 
ATOM      8  C   UNL     1      14.321 -31.582  13.659  1.00  0.00     0.123 A 
ATOM      9  C   UNL     1      13.215 -32.426  13.725  1.00  0.00     0.094 A 
ATOM     10  C   UNL     1      12.116 -32.093  14.521  1.00  0.00     0.146 A 
ATOM     11  O   UNL     1      11.087 -32.930  14.565  1.00  0.00    -0.452 OA
ENDROOT
BRANCH   1  12
ATOM     12  C   UNL     1       8.914 -33.721  15.245  1.00  0.00     0.029 A 
ATOM     13  C   UNL     1       8.690 -34.566  16.343  1.00  0.00     0.062 A 
ATOM     14  C   UNL     1       7.678 -35.535  16.305  1.00  0.00     0.162 A 
ATOM     15  C   UNL     1       8.133 -33.884  14.088  1.00  0.00     0.062 A 
ATOM     16  C   UNL     1       6.888 -35.677  15.151  1.00  0.00     0.200 A 
ATOM     17  C   UNL     1       7.123 -34.850  14.040  1.00  0.00     0.162 A 
BRANCH  14  18
ATOM     18  O   UNL     1       7.457 -36.358  17.408  1.00  0.00    -0.504 OA
ATOM     19  H   UNL     1       7.460 -35.992  18.352  1.00  0.00     0.293 HD
ENDBRANCH  14  18
BRANCH  16  20
ATOM     20  O   UNL     1       5.875 -36.636  15.097  1.00  0.00    -0.502 OA
ATOM     21  H   UNL     1       5.820 -37.322  14.354  1.00  0.00     0.293 HD
ENDBRANCH  16  20
BRANCH  17  22
ATOM     22  O   UNL     1       6.365 -34.977  12.876  1.00  0.00    -0.504 OA
ATOM     23  H   UNL     1       6.705 -34.669  11.973  1.00  0.00     0.293 HD
ENDBRANCH  17  22
ENDBRANCH   1  12
BRANCH   2  24
ATOM     24  O   UNL     1       8.841 -31.406  16.985  1.00  0.00    -0.502 OA
ATOM     25  H   UNL     1       8.945 -31.127  17.953  1.00  0.00     0.293 HD
ENDBRANCH   2  24
BRANCH   6  26
ATOM     26  O   UNL     1      13.278 -28.736  15.739  1.00  0.00    -0.507 OA
ATOM     27  H   UNL     1      12.890 -27.895  15.339  1.00  0.00     0.293 HD
ENDBRANCH   6  26
BRANCH   8  28
ATOM     28  O   UNL     1      15.415 -31.945  12.875  1.00  0.00    -0.508 OA
ATOM     29  H   UNL     1      16.338 -31.565  13.047  1.00  0.00     0.293 HD
ENDBRANCH   8  28
TORSDOF 7
ENDMDL
MODEL 7
REMARK VINA RESULT:     5.488      3.006      7.368
REMARK INTER + INTRA:           6.915
REMARK INTER:                   7.068
REMARK INTRA:                  -0.153
REMARK UNBOUND:                 0.144
REMARK SMILES O=c1c(O)c(-c2cc(O)c(O)c(O)c2)oc2cc(O)cc(O)c12
REMARK SMILES IDX 5 1 3 2 2 3 1 4 23 5 21 6 20 7 18 8 17 9 16 10 15 11 6 12
REMARK SMILES IDX 7 13 8 14 14 15 10 16 12 17 9 18 11 20 13 22 4 24 22 26
REMARK SMILES IDX 19 28
REMARK H PARENT 9 19 11 21 13 23 4 25 22 27 19 29
REMARK Flexibility Score: inf
ROOT
ATOM      1  C   UNL     1      11.249 -31.878  14.451  1.00  0.00     0.180 A 
ATOM      2  C   UNL     1      11.973 -32.929  13.863  1.00  0.00     0.208 A 
ATOM      3  C   UNL     1      13.296 -32.697  13.452  1.00  0.00     0.238 A 
ATOM      4  O   UNL     1      13.923 -33.625  12.876  1.00  0.00    -0.285 OA
ATOM      5  C   UNL     1      13.882 -31.423  13.650  1.00  0.00     0.111 A 
ATOM      6  C   UNL     1      15.228 -31.088  13.309  1.00  0.00     0.134 A 
ATOM      7  C   UNL     1      15.660 -29.762  13.429  1.00  0.00     0.093 A 
ATOM      8  C   UNL     1      14.816 -28.771  13.939  1.00  0.00     0.123 A 
ATOM      9  C   UNL     1      13.520 -29.101  14.330  1.00  0.00     0.094 A 
ATOM     10  C   UNL     1      13.048 -30.408  14.188  1.00  0.00     0.146 A 
ATOM     11  O   UNL     1      11.804 -30.677  14.562  1.00  0.00    -0.452 OA
ENDROOT
BRANCH   1  12
ATOM     12  C   UNL     1       9.859 -32.054  14.931  1.00  0.00     0.029 A 
ATOM     13  C   UNL     1       8.845 -32.365  14.012  1.00  0.00     0.062 A 
ATOM     14  C   UNL     1       7.517 -32.515  14.436  1.00  0.00     0.162 A 
ATOM     15  C   UNL     1       9.521 -31.856  16.280  1.00  0.00     0.062 A 
ATOM     16  C   UNL     1       7.191 -32.337  15.791  1.00  0.00     0.200 A 
ATOM     17  C   UNL     1       8.198 -32.002  16.712  1.00  0.00     0.162 A 
BRANCH  14  18
ATOM     18  O   UNL     1       6.522 -32.839  13.515  1.00  0.00    -0.504 OA
ATOM     19  H   UNL     1       5.546 -32.882  13.782  1.00  0.00     0.293 HD
ENDBRANCH  14  18
BRANCH  16  20
ATOM     20  O   UNL     1       5.875 -32.485  16.231  1.00  0.00    -0.502 OA
ATOM     21  H   UNL     1       5.258 -31.693  16.366  1.00  0.00     0.293 HD
ENDBRANCH  16  20
BRANCH  17  22
ATOM     22  O   UNL     1       7.903 -31.804  18.061  1.00  0.00    -0.504 OA
ATOM     23  H   UNL     1       8.624 -31.742  18.769  1.00  0.00     0.293 HD
ENDBRANCH  17  22
ENDBRANCH   1  12
BRANCH   2  24
ATOM     24  O   UNL     1      11.369 -34.172  13.657  1.00  0.00    -0.502 OA
ATOM     25  H   UNL     1      10.945 -34.702  14.409  1.00  0.00     0.293 HD
ENDBRANCH   2  24
BRANCH   6  26
ATOM     26  O   UNL     1      16.178 -32.018  12.879  1.00  0.00    -0.507 OA
ATOM     27  H   UNL     1      16.872 -31.844  12.166  1.00  0.00     0.293 HD
ENDBRANCH   6  26
BRANCH   8  28
ATOM     28  O   UNL     1      15.259 -27.457  14.069  1.00  0.00    -0.508 OA
ATOM     29  H   UNL     1      14.644 -26.671  13.896  1.00  0.00     0.293 HD
ENDBRANCH   8  28
TORSDOF 7
ENDMDL
MODEL 8
REMARK VINA RESULT:     5.739      3.187      4.151
REMARK INTER + INTRA:           7.225
REMARK INTER:                   7.356
REMARK INTRA:                  -0.131
REMARK UNBOUND:                 0.144
REMARK SMILES O=c1c(O)c(-c2cc(O)c(O)c(O)c2)oc2cc(O)cc(O)c12
REMARK SMILES IDX 5 1 3 2 2 3 1 4 23 5 21 6 20 7 18 8 17 9 16 10 15 11 6 12
REMARK SMILES IDX 7 13 8 14 14 15 10 16 12 17 9 18 11 20 13 22 4 24 22 26
REMARK SMILES IDX 19 28
REMARK H PARENT 9 19 11 21 13 23 4 25 22 27 19 29
REMARK Flexibility Score: inf
ROOT
ATOM      1  C   UNL     1      11.173 -31.371  14.987  1.00  0.00     0.180 A 
ATOM      2  C   UNL     1      10.132 -31.912  14.214  1.00  0.00     0.208 A 
ATOM      3  C   UNL     1       8.877 -32.116  14.810  1.00  0.00     0.238 A 
ATOM      4  O   UNL     1       7.963 -32.650  14.128  1.00  0.00    -0.285 OA
ATOM      5  C   UNL     1       8.675 -31.762  16.165  1.00  0.00     0.111 A 
ATOM      6  C   UNL     1       7.434 -31.887  16.860  1.00  0.00     0.134 A 
ATOM      7  C   UNL     1       7.383 -31.628  18.235  1.00  0.00     0.093 A 
ATOM      8  C   UNL     1       8.514 -31.186  18.928  1.00  0.00     0.123 A 
ATOM      9  C   UNL     1       9.715 -31.003  18.246  1.00  0.00     0.094 A 
ATOM     10  C   UNL     1       9.806 -31.288  16.881  1.00  0.00     0.146 A 
ATOM     11  O   UNL     1      10.972 -31.111  16.273  1.00  0.00    -0.452 OA
ENDROOT
BRANCH   1  12
ATOM     12  C   UNL     1      12.516 -31.106  14.421  1.00  0.00     0.029 A 
ATOM     13  C   UNL     1      13.276 -32.172  13.916  1.00  0.00     0.062 A 
ATOM     14  C   UNL     1      14.559 -31.951  13.395  1.00  0.00     0.162 A 
ATOM     15  C   UNL     1      13.072 -29.815  14.433  1.00  0.00     0.062 A 
ATOM     16  C   UNL     1      15.099 -30.654  13.392  1.00  0.00     0.200 A 
ATOM     17  C   UNL     1      14.352 -29.586  13.917  1.00  0.00     0.162 A 
BRANCH  14  18
ATOM     18  O   UNL     1      15.298 -33.017  12.884  1.00  0.00    -0.504 OA
ATOM     19  H   UNL     1      15.861 -32.919  12.048  1.00  0.00     0.293 HD
ENDBRANCH  14  18
BRANCH  16  20
ATOM     20  O   UNL     1      16.374 -30.416  12.875  1.00  0.00    -0.502 OA
ATOM     21  H   UNL     1      16.646 -30.716  11.947  1.00  0.00     0.293 HD
ENDBRANCH  16  20
BRANCH  17  22
ATOM     22  O   UNL     1      14.867 -28.290  13.941  1.00  0.00    -0.504 OA
ATOM     23  H   UNL     1      15.822 -28.084  13.672  1.00  0.00     0.293 HD
ENDBRANCH  17  22
ENDBRANCH   1  12
BRANCH   2  24
ATOM     24  O   UNL     1      10.358 -32.275  12.882  1.00  0.00    -0.502 OA
ATOM     25  H   UNL     1      10.693 -33.194  12.619  1.00  0.00     0.293 HD
ENDBRANCH   2  24
BRANCH   6  26
ATOM     26  O   UNL     1       6.227 -32.232  16.245  1.00  0.00    -0.507 OA
ATOM     27  H   UNL     1       5.613 -32.970  16.557  1.00  0.00     0.293 HD
ENDBRANCH   6  26
BRANCH   8  28
ATOM     28  O   UNL     1       8.451 -30.916  20.293  1.00  0.00    -0.508 OA
ATOM     29  H   UNL     1       8.648 -29.992  20.659  1.00  0.00     0.293 HD
ENDBRANCH   8  28
TORSDOF 7
ENDMDL
