MODEL 1
REMARK VINA RESULT:    -3.746      0.000      0.000
REMARK INTER + INTRA:          -4.120
REMARK INTER:                  -4.075
REMARK INTRA:                  -0.046
REMARK UNBOUND:                -0.046
REMARK SMILES COc1ccccc1O
REMARK SMILES IDX 3 1 4 2 5 3 6 4 7 5 8 6 2 7 1 8 9 9
REMARK H PARENT 9 10
REMARK Flexibility Score: inf
ROOT
ATOM      1  C   UNL     1      18.339  28.704  28.016  1.00  0.00     0.160 A 
ATOM      2  C   UNL     1      18.438  30.094  28.219  1.00  0.00     0.050 A 
ATOM      3  C   UNL     1      18.394  30.623  29.512  1.00  0.00     0.004 A 
ATOM      4  C   UNL     1      18.250  29.775  30.612  1.00  0.00     0.004 A 
ATOM      5  C   UNL     1      18.151  28.395  30.421  1.00  0.00     0.050 A 
ATOM      6  C   UNL     1      18.194  27.857  29.126  1.00  0.00     0.157 A 
ENDROOT
BRANCH   1   7
ATOM      7  O   UNL     1      18.378  28.129  26.736  1.00  0.00    -0.493 OA
ATOM      8  C   UNL     1      19.547  28.048  25.926  1.00  0.00     0.278 C 
ENDBRANCH   1   7
BRANCH   6   9
ATOM      9  O   UNL     1      18.094  26.480  28.935  1.00  0.00    -0.504 OA
ATOM     10  H   UNL     1      18.169  25.830  29.709  1.00  0.00     0.293 HD
ENDBRANCH   6   9
TORSDOF 2
ENDMDL
MODEL 2
REMARK VINA RESULT:    -3.623      3.952      5.654
REMARK INTER + INTRA:          -3.986
REMARK INTER:                  -3.941
REMARK INTRA:                  -0.045
REMARK UNBOUND:                -0.046
REMARK SMILES COc1ccccc1O
REMARK SMILES IDX 3 1 4 2 5 3 6 4 7 5 8 6 2 7 1 8 9 9
REMARK H PARENT 9 10
REMARK Flexibility Score: inf
ROOT
ATOM      1  C   UNL     1      17.600  29.661  33.406  1.00  0.00     0.160 A 
ATOM      2  C   UNL     1      17.940  29.149  34.673  1.00  0.00     0.050 A 
ATOM      3  C   UNL     1      18.863  28.106  34.788  1.00  0.00     0.004 A 
ATOM      4  C   UNL     1      19.454  27.564  33.645  1.00  0.00     0.004 A 
ATOM      5  C   UNL     1      19.124  28.064  32.384  1.00  0.00     0.050 A 
ATOM      6  C   UNL     1      18.197  29.111  32.261  1.00  0.00     0.157 A 
ENDROOT
BRANCH   1   7
ATOM      7  O   UNL     1      16.678  30.707  33.243  1.00  0.00    -0.493 OA
ATOM      8  C   UNL     1      16.922  32.060  33.618  1.00  0.00     0.278 C 
ENDBRANCH   1   7
BRANCH   6   9
ATOM      9  O   UNL     1      17.867  29.611  31.002  1.00  0.00    -0.504 OA
ATOM     10  H   UNL     1      18.188  30.519  30.691  1.00  0.00     0.293 HD
ENDBRANCH   6   9
TORSDOF 2
ENDMDL
MODEL 3
REMARK VINA RESULT:    -3.611      1.472      2.591
REMARK INTER + INTRA:          -3.973
REMARK INTER:                  -3.942
REMARK INTRA:                  -0.031
REMARK UNBOUND:                -0.046
REMARK SMILES COc1ccccc1O
REMARK SMILES IDX 3 1 4 2 5 3 6 4 7 5 8 6 2 7 1 8 9 9
REMARK H PARENT 9 10
REMARK Flexibility Score: inf
ROOT
ATOM      1  C   UNL     1      18.308  29.120  28.885  1.00  0.00     0.160 A 
ATOM      2  C   UNL     1      18.134  28.317  30.029  1.00  0.00     0.050 A 
ATOM      3  C   UNL     1      18.101  28.898  31.300  1.00  0.00     0.004 A 
ATOM      4  C   UNL     1      18.241  30.280  31.442  1.00  0.00     0.004 A 
ATOM      5  C   UNL     1      18.414  31.084  30.314  1.00  0.00     0.050 A 
ATOM      6  C   UNL     1      18.449  30.508  29.035  1.00  0.00     0.157 A 
ENDROOT
BRANCH   1   7
ATOM      7  O   UNL     1      18.347  28.580  27.590  1.00  0.00    -0.493 OA
ATOM      8  C   UNL     1      17.575  27.462  27.160  1.00  0.00     0.278 C 
ENDBRANCH   1   7
BRANCH   6   9
ATOM      9  O   UNL     1      18.622  31.311  27.909  1.00  0.00    -0.504 OA
ATOM     10  H   UNL     1      18.665  30.915  26.977  1.00  0.00     0.293 HD
ENDBRANCH   6   9
TORSDOF 2
ENDMDL
MODEL 4
REMARK VINA RESULT:    -3.607      0.998      2.495
REMARK INTER + INTRA:          -3.969
REMARK INTER:                  -3.928
REMARK INTRA:                  -0.041
REMARK UNBOUND:                -0.046
REMARK SMILES COc1ccccc1O
REMARK SMILES IDX 3 1 4 2 5 3 6 4 7 5 8 6 2 7 1 8 9 9
REMARK H PARENT 9 10
REMARK Flexibility Score: inf
ROOT
ATOM      1  C   UNL     1      18.262  27.555  28.966  1.00  0.00     0.160 A 
ATOM      2  C   UNL     1      18.184  28.145  30.243  1.00  0.00     0.050 A 
ATOM      3  C   UNL     1      18.220  29.536  30.381  1.00  0.00     0.004 A 
ATOM      4  C   UNL     1      18.332  30.349  29.252  1.00  0.00     0.004 A 
ATOM      5  C   UNL     1      18.410  29.774  27.982  1.00  0.00     0.050 A 
ATOM      6  C   UNL     1      18.376  28.380  27.835  1.00  0.00     0.157 A 
ENDROOT
BRANCH   1   7
ATOM      7  O   UNL     1      18.230  26.164  28.780  1.00  0.00    -0.493 OA
ATOM      8  C   UNL     1      19.367  25.312  28.884  1.00  0.00     0.278 C 
ENDBRANCH   1   7
BRANCH   6   9
ATOM      9  O   UNL     1      18.453  27.805  26.568  1.00  0.00    -0.504 OA
ATOM     10  H   UNL     1      18.843  28.308  25.780  1.00  0.00     0.293 HD
ENDBRANCH   6   9
TORSDOF 2
ENDMDL
MODEL 5
REMARK VINA RESULT:    -3.600      3.699      4.852
REMARK INTER + INTRA:          -3.961
REMARK INTER:                  -3.935
REMARK INTRA:                  -0.027
REMARK UNBOUND:                -0.046
REMARK SMILES COc1ccccc1O
REMARK SMILES IDX 3 1 4 2 5 3 6 4 7 5 8 6 2 7 1 8 9 9
REMARK H PARENT 9 10
REMARK Flexibility Score: inf
ROOT
ATOM      1  C   UNL     1      18.360  28.942  32.325  1.00  0.00     0.160 A 
ATOM      2  C   UNL     1      19.239  27.841  32.336  1.00  0.00     0.050 A 
ATOM      3  C   UNL     1      19.623  27.256  33.546  1.00  0.00     0.004 A 
ATOM      4  C   UNL     1      19.136  27.761  34.754  1.00  0.00     0.004 A 
ATOM      5  C   UNL     1      18.264  28.852  34.754  1.00  0.00     0.050 A 
ATOM      6  C   UNL     1      17.875  29.445  33.543  1.00  0.00     0.157 A 
ENDROOT
BRANCH   1   7
ATOM      7  O   UNL     1      17.948  29.560  31.134  1.00  0.00    -0.493 OA
ATOM      8  C   UNL     1      18.330  29.131  29.831  1.00  0.00     0.278 C 
ENDBRANCH   1   7
BRANCH   6   9
ATOM      9  O   UNL     1      17.005  30.534  33.542  1.00  0.00    -0.504 OA
ATOM     10  H   UNL     1      16.447  30.767  34.355  1.00  0.00     0.293 HD
ENDBRANCH   6   9
TORSDOF 2
ENDMDL
MODEL 6
REMARK VINA RESULT:    -3.582      1.890      3.187
REMARK INTER + INTRA:          -3.942
REMARK INTER:                  -3.910
REMARK INTRA:                  -0.032
REMARK UNBOUND:                -0.046
REMARK SMILES COc1ccccc1O
REMARK SMILES IDX 3 1 4 2 5 3 6 4 7 5 8 6 2 7 1 8 9 9
REMARK H PARENT 9 10
REMARK Flexibility Score: inf
ROOT
ATOM      1  C   UNL     1      18.324  28.383  28.627  1.00  0.00     0.160 A 
ATOM      2  C   UNL     1      17.943  28.115  27.297  1.00  0.00     0.050 A 
ATOM      3  C   UNL     1      18.039  26.819  26.783  1.00  0.00     0.004 A 
ATOM      4  C   UNL     1      18.513  25.780  27.587  1.00  0.00     0.004 A 
ATOM      5  C   UNL     1      18.893  26.035  28.906  1.00  0.00     0.050 A 
ATOM      6  C   UNL     1      18.801  27.334  29.429  1.00  0.00     0.157 A 
ENDROOT
BRANCH   1   7
ATOM      7  O   UNL     1      18.245  29.669  29.184  1.00  0.00    -0.493 OA
ATOM      8  C   UNL     1      18.559  30.870  28.485  1.00  0.00     0.278 C 
ENDBRANCH   1   7
BRANCH   6   9
ATOM      9  O   UNL     1      19.180  27.589  30.745  1.00  0.00    -0.504 OA
ATOM     10  H   UNL     1      18.874  26.999  31.510  1.00  0.00     0.293 HD
ENDBRANCH   6   9
TORSDOF 2
ENDMDL
MODEL 7
REMARK VINA RESULT:    -3.563      1.447      2.159
REMARK INTER + INTRA:          -3.921
REMARK INTER:                  -3.894
REMARK INTRA:                  -0.027
REMARK UNBOUND:                -0.046
REMARK SMILES COc1ccccc1O
REMARK SMILES IDX 3 1 4 2 5 3 6 4 7 5 8 6 2 7 1 8 9 9
REMARK H PARENT 9 10
REMARK Flexibility Score: inf
ROOT
ATOM      1  C   UNL     1      18.346  28.701  29.174  1.00  0.00     0.160 A 
ATOM      2  C   UNL     1      18.451  29.513  28.028  1.00  0.00     0.050 A 
ATOM      3  C   UNL     1      18.510  30.904  28.152  1.00  0.00     0.004 A 
ATOM      4  C   UNL     1      18.465  31.497  29.415  1.00  0.00     0.004 A 
ATOM      5  C   UNL     1      18.361  30.701  30.557  1.00  0.00     0.050 A 
ATOM      6  C   UNL     1      18.301  29.304  30.441  1.00  0.00     0.157 A 
ENDROOT
BRANCH   1   7
ATOM      7  O   UNL     1      18.284  27.301  29.097  1.00  0.00    -0.493 OA
ATOM      8  C   UNL     1      18.508  26.549  27.908  1.00  0.00     0.278 C 
ENDBRANCH   1   7
BRANCH   6   9
ATOM      9  O   UNL     1      18.196  28.509  31.580  1.00  0.00    -0.504 OA
ATOM     10  H   UNL     1      17.609  27.683  31.599  1.00  0.00     0.293 HD
ENDBRANCH   6   9
TORSDOF 2
ENDMDL
MODEL 8
REMARK VINA RESULT:    -3.548      2.143      3.894
REMARK INTER + INTRA:          -3.904
REMARK INTER:                  -3.860
REMARK INTRA:                  -0.044
REMARK UNBOUND:                -0.046
REMARK SMILES COc1ccccc1O
REMARK SMILES IDX 3 1 4 2 5 3 6 4 7 5 8 6 2 7 1 8 9 9
REMARK H PARENT 9 10
REMARK Flexibility Score: inf
ROOT
ATOM      1  C   UNL     1      18.228  28.573  30.240  1.00  0.00     0.160 A 
ATOM      2  C   UNL     1      18.080  27.437  29.420  1.00  0.00     0.050 A 
ATOM      3  C   UNL     1      18.076  27.567  28.029  1.00  0.00     0.004 A 
ATOM      4  C   UNL     1      18.220  28.826  27.442  1.00  0.00     0.004 A 
ATOM      5  C   UNL     1      18.368  29.958  28.246  1.00  0.00     0.050 A 
ATOM      6  C   UNL     1      18.371  29.835  29.644  1.00  0.00     0.157 A 
ENDROOT
BRANCH   1   7
ATOM      7  O   UNL     1      18.237  28.489  31.641  1.00  0.00    -0.493 OA
ATOM      8  C   UNL     1      19.252  27.842  32.403  1.00  0.00     0.278 C 
ENDBRANCH   1   7
BRANCH   6   9
ATOM      9  O   UNL     1      18.518  30.965  30.447  1.00  0.00    -0.504 OA
ATOM     10  H   UNL     1      17.917  31.773  30.341  1.00  0.00     0.293 HD
ENDBRANCH   6   9
TORSDOF 2
ENDMDL
MODEL 9
REMARK VINA RESULT:    -3.528      3.272      4.336
REMARK INTER + INTRA:          -3.883
REMARK INTER:                  -3.856
REMARK INTRA:                  -0.027
REMARK UNBOUND:                -0.046
REMARK SMILES COc1ccccc1O
REMARK SMILES IDX 3 1 4 2 5 3 6 4 7 5 8 6 2 7 1 8 9 9
REMARK H PARENT 9 10
REMARK Flexibility Score: inf
ROOT
ATOM      1  C   UNL     1      18.359  28.916  32.264  1.00  0.00     0.160 A 
ATOM      2  C   UNL     1      17.448  29.973  32.462  1.00  0.00     0.050 A 
ATOM      3  C   UNL     1      16.993  30.280  33.747  1.00  0.00     0.004 A 
ATOM      4  C   UNL     1      17.439  29.541  34.844  1.00  0.00     0.004 A 
ATOM      5  C   UNL     1      18.341  28.492  34.659  1.00  0.00     0.050 A 
ATOM      6  C   UNL     1      18.802  28.176  33.372  1.00  0.00     0.157 A 
ENDROOT
BRANCH   1   7
ATOM      7  O   UNL     1      18.842  28.571  30.992  1.00  0.00    -0.493 OA
ATOM      8  C   UNL     1      18.383  29.148  29.773  1.00  0.00     0.278 C 
ENDBRANCH   1   7
BRANCH   6   9
ATOM      9  O   UNL     1      19.703  27.129  33.186  1.00  0.00    -0.504 OA
ATOM     10  H   UNL     1      20.704  27.273  33.243  1.00  0.00     0.293 HD
ENDBRANCH   6   9
TORSDOF 2
ENDMDL
