MODEL 1
REMARK VINA RESULT:    -7.237      0.000      0.000
REMARK INTER + INTRA:          -9.027
REMARK INTER:                  -8.718
REMARK INTRA:                  -0.310
REMARK UNBOUND:                -0.310
REMARK SMILES O=c1c(O)c(-c2ccc(O)c(O)c2)oc2cc(O)cc(O)c12
REMARK SMILES IDX 5 1 3 2 2 3 1 4 22 5 20 6 19 7 17 8 16 9 15 10 14 11 6 12
REMARK SMILES IDX 7 13 8 14 9 15 13 16 11 17 10 18 12 20 4 22 21 24 18 26
REMARK H PARENT 10 19 12 21 4 23 21 25 18 27
REMARK Flexibility Score: inf
ROOT
ATOM      1  C   UNL     1     -37.927   4.798  79.564  1.00  0.00     0.180 A 
ATOM      2  C   UNL     1     -38.440   4.774  80.873  1.00  0.00     0.208 A 
ATOM      3  C   UNL     1     -39.746   4.303  81.082  1.00  0.00     0.238 A 
ATOM      4  O   UNL     1     -40.180   4.232  82.261  1.00  0.00    -0.285 OA
ATOM      5  C   UNL     1     -40.527   3.878  79.981  1.00  0.00     0.111 A 
ATOM      6  C   UNL     1     -41.876   3.420  80.073  1.00  0.00     0.134 A 
ATOM      7  C   UNL     1     -42.508   2.901  78.937  1.00  0.00     0.093 A 
ATOM      8  C   UNL     1     -41.865   2.884  77.699  1.00  0.00     0.123 A 
ATOM      9  C   UNL     1     -40.567   3.384  77.585  1.00  0.00     0.094 A 
ATOM     10  C   UNL     1     -39.898   3.874  78.709  1.00  0.00     0.146 A 
ATOM     11  O   UNL     1     -38.661   4.332  78.561  1.00  0.00    -0.452 OA
ENDROOT
BRANCH   1  12
ATOM     12  C   UNL     1     -36.568   5.305  79.260  1.00  0.00     0.025 A 
ATOM     13  C   UNL     1     -36.400   6.649  78.890  1.00  0.00     0.016 A 
ATOM     14  C   UNL     1     -35.126   7.155  78.620  1.00  0.00     0.051 A 
ATOM     15  C   UNL     1     -34.001   6.328  78.731  1.00  0.00     0.157 A 
ATOM     16  C   UNL     1     -35.434   4.484  79.391  1.00  0.00     0.062 A 
ATOM     17  C   UNL     1     -34.154   4.993  79.121  1.00  0.00     0.158 A 
BRANCH  15  18
ATOM     18  O   UNL     1     -32.728   6.828  78.460  1.00  0.00    -0.504 OA
ATOM     19  H   UNL     1     -31.971   6.221  78.172  1.00  0.00     0.293 HD
ENDBRANCH  15  18
BRANCH  17  20
ATOM     20  O   UNL     1     -33.031   4.175  79.244  1.00  0.00    -0.504 OA
ATOM     21  H   UNL     1     -33.108   3.165  79.252  1.00  0.00     0.293 HD
ENDBRANCH  17  20
ENDBRANCH   1  12
BRANCH   2  22
ATOM     22  O   UNL     1     -37.644   5.177  81.947  1.00  0.00    -0.502 OA
ATOM     23  H   UNL     1     -38.034   5.452  82.840  1.00  0.00     0.293 HD
ENDBRANCH   2  22
BRANCH   6  24
ATOM     24  O   UNL     1     -42.642   3.478  81.241  1.00  0.00    -0.507 OA
ATOM     25  H   UNL     1     -43.183   4.278  81.535  1.00  0.00     0.293 HD
ENDBRANCH   6  24
BRANCH   8  26
ATOM     26  O   UNL     1     -42.530   2.375  76.586  1.00  0.00    -0.508 OA
ATOM     27  H   UNL     1     -43.066   2.974  75.969  1.00  0.00     0.293 HD
ENDBRANCH   8  26
TORSDOF 6
ENDMDL
MODEL 2
REMARK VINA RESULT:    -6.486      1.572      6.829
REMARK INTER + INTRA:          -8.123
REMARK INTER:                  -8.376
REMARK INTRA:                   0.253
REMARK UNBOUND:                -0.310
REMARK SMILES O=c1c(O)c(-c2ccc(O)c(O)c2)oc2cc(O)cc(O)c12
REMARK SMILES IDX 5 1 3 2 2 3 1 4 22 5 20 6 19 7 17 8 16 9 15 10 14 11 6 12
REMARK SMILES IDX 7 13 8 14 9 15 13 16 11 17 10 18 12 20 4 22 21 24 18 26
REMARK H PARENT 10 19 12 21 4 23 21 25 18 27
REMARK Flexibility Score: inf
ROOT
ATOM      1  C   UNL     1     -38.058   3.818  80.098  1.00  0.00     0.180 A 
ATOM      2  C   UNL     1     -37.736   3.428  81.410  1.00  0.00     0.208 A 
ATOM      3  C   UNL     1     -36.437   3.658  81.889  1.00  0.00     0.238 A 
ATOM      4  O   UNL     1     -36.171   3.356  83.081  1.00  0.00    -0.285 OA
ATOM      5  C   UNL     1     -35.471   4.259  81.046  1.00  0.00     0.111 A 
ATOM      6  C   UNL     1     -34.113   4.502  81.414  1.00  0.00     0.134 A 
ATOM      7  C   UNL     1     -33.281   5.221  80.548  1.00  0.00     0.093 A 
ATOM      8  C   UNL     1     -33.737   5.648  79.301  1.00  0.00     0.123 A 
ATOM      9  C   UNL     1     -35.045   5.364  78.906  1.00  0.00     0.094 A 
ATOM     10  C   UNL     1     -35.910   4.680  79.764  1.00  0.00     0.146 A 
ATOM     11  O   UNL     1     -37.149   4.438  79.355  1.00  0.00    -0.452 OA
ENDROOT
BRANCH   1  12
ATOM     12  C   UNL     1     -39.399   3.586  79.514  1.00  0.00     0.025 A 
ATOM     13  C   UNL     1     -39.512   3.263  78.151  1.00  0.00     0.016 A 
ATOM     14  C   UNL     1     -40.765   3.019  77.584  1.00  0.00     0.051 A 
ATOM     15  C   UNL     1     -41.921   3.079  78.372  1.00  0.00     0.157 A 
ATOM     16  C   UNL     1     -40.560   3.624  80.306  1.00  0.00     0.062 A 
ATOM     17  C   UNL     1     -41.818   3.377  79.736  1.00  0.00     0.158 A 
BRANCH  15  18
ATOM     18  O   UNL     1     -43.173   2.838  77.809  1.00  0.00    -0.504 OA
ATOM     19  H   UNL     1     -43.358   2.001  77.269  1.00  0.00     0.293 HD
ENDBRANCH  15  18
BRANCH  17  20
ATOM     20  O   UNL     1     -42.969   3.422  80.522  1.00  0.00    -0.504 OA
ATOM     21  H   UNL     1     -43.894   3.368  80.113  1.00  0.00     0.293 HD
ENDBRANCH  17  20
ENDBRANCH   1  12
BRANCH   2  22
ATOM     22  O   UNL     1     -38.711   2.856  82.232  1.00  0.00    -0.502 OA
ATOM     23  H   UNL     1     -38.928   1.867  82.211  1.00  0.00     0.293 HD
ENDBRANCH   2  22
BRANCH   6  24
ATOM     24  O   UNL     1     -33.531   4.039  82.597  1.00  0.00    -0.507 OA
ATOM     25  H   UNL     1     -32.558   3.791  82.700  1.00  0.00     0.293 HD
ENDBRANCH   6  24
BRANCH   8  26
ATOM     26  O   UNL     1     -32.877   6.347  78.457  1.00  0.00    -0.508 OA
ATOM     27  H   UNL     1     -32.311   7.116  78.795  1.00  0.00     0.293 HD
ENDBRANCH   8  26
TORSDOF 6
ENDMDL
MODEL 3
REMARK VINA RESULT:    -6.455      2.231      7.305
REMARK INTER + INTRA:          -8.086
REMARK INTER:                  -7.763
REMARK INTRA:                  -0.323
REMARK UNBOUND:                -0.310
REMARK SMILES O=c1c(O)c(-c2ccc(O)c(O)c2)oc2cc(O)cc(O)c12
REMARK SMILES IDX 5 1 3 2 2 3 1 4 22 5 20 6 19 7 17 8 16 9 15 10 14 11 6 12
REMARK SMILES IDX 7 13 8 14 9 15 13 16 11 17 10 18 12 20 4 22 21 24 18 26
REMARK H PARENT 10 19 12 21 4 23 21 25 18 27
REMARK Flexibility Score: inf
ROOT
ATOM      1  C   UNL     1     -38.333   6.115  78.211  1.00  0.00     0.180 A 
ATOM      2  C   UNL     1     -38.632   7.326  77.562  1.00  0.00     0.208 A 
ATOM      3  C   UNL     1     -37.592   8.230  77.295  1.00  0.00     0.238 A 
ATOM      4  O   UNL     1     -37.858   9.287  76.667  1.00  0.00    -0.285 OA
ATOM      5  C   UNL     1     -36.270   7.920  77.693  1.00  0.00     0.111 A 
ATOM      6  C   UNL     1     -35.145   8.781  77.510  1.00  0.00     0.134 A 
ATOM      7  C   UNL     1     -33.862   8.317  77.824  1.00  0.00     0.093 A 
ATOM      8  C   UNL     1     -33.669   7.051  78.376  1.00  0.00     0.123 A 
ATOM      9  C   UNL     1     -34.767   6.224  78.615  1.00  0.00     0.094 A 
ATOM     10  C   UNL     1     -36.056   6.645  78.278  1.00  0.00     0.146 A 
ATOM     11  O   UNL     1     -37.073   5.825  78.513  1.00  0.00    -0.452 OA
ENDROOT
BRANCH   1  12
ATOM     12  C   UNL     1     -39.380   5.123  78.549  1.00  0.00     0.025 A 
ATOM     13  C   UNL     1     -39.723   4.135  77.612  1.00  0.00     0.016 A 
ATOM     14  C   UNL     1     -40.692   3.176  77.918  1.00  0.00     0.051 A 
ATOM     15  C   UNL     1     -41.321   3.183  79.169  1.00  0.00     0.157 A 
ATOM     16  C   UNL     1     -39.998   5.112  79.812  1.00  0.00     0.062 A 
ATOM     17  C   UNL     1     -40.971   4.149  80.119  1.00  0.00     0.158 A 
BRANCH  15  18
ATOM     18  O   UNL     1     -42.291   2.229  79.477  1.00  0.00    -0.504 OA
ATOM     19  H   UNL     1     -42.420   1.402  78.907  1.00  0.00     0.293 HD
ENDBRANCH  15  18
BRANCH  17  20
ATOM     20  O   UNL     1     -41.587   4.144  81.369  1.00  0.00    -0.504 OA
ATOM     21  H   UNL     1     -41.068   4.333  82.218  1.00  0.00     0.293 HD
ENDBRANCH  17  20
ENDBRANCH   1  12
BRANCH   2  22
ATOM     22  O   UNL     1     -39.941   7.602  77.158  1.00  0.00    -0.502 OA
ATOM     23  H   UNL     1     -40.683   6.915  77.212  1.00  0.00     0.293 HD
ENDBRANCH   2  22
BRANCH   6  24
ATOM     24  O   UNL     1     -35.237  10.098  77.051  1.00  0.00    -0.507 OA
ATOM     25  H   UNL     1     -34.638  10.505  76.349  1.00  0.00     0.293 HD
ENDBRANCH   6  24
BRANCH   8  26
ATOM     26  O   UNL     1     -32.380   6.628  78.692  1.00  0.00    -0.508 OA
ATOM     27  H   UNL     1     -31.946   5.847  78.214  1.00  0.00     0.293 HD
ENDBRANCH   8  26
TORSDOF 6
ENDMDL
MODEL 4
REMARK VINA RESULT:    -6.307      1.665      3.510
REMARK INTER + INTRA:          -7.907
REMARK INTER:                  -7.603
REMARK INTRA:                  -0.304
REMARK UNBOUND:                -0.310
REMARK SMILES O=c1c(O)c(-c2ccc(O)c(O)c2)oc2cc(O)cc(O)c12
REMARK SMILES IDX 5 1 3 2 2 3 1 4 22 5 20 6 19 7 17 8 16 9 15 10 14 11 6 12
REMARK SMILES IDX 7 13 8 14 9 15 13 16 11 17 10 18 12 20 4 22 21 24 18 26
REMARK H PARENT 10 19 12 21 4 23 21 25 18 27
REMARK Flexibility Score: inf
ROOT
ATOM      1  C   UNL     1     -37.636   5.080  80.152  1.00  0.00     0.180 A 
ATOM      2  C   UNL     1     -38.661   4.999  79.193  1.00  0.00     0.208 A 
ATOM      3  C   UNL     1     -39.933   4.558  79.593  1.00  0.00     0.238 A 
ATOM      4  O   UNL     1     -40.860   4.539  78.742  1.00  0.00    -0.285 OA
ATOM      5  C   UNL     1     -40.159   4.189  80.940  1.00  0.00     0.111 A 
ATOM      6  C   UNL     1     -41.397   3.690  81.447  1.00  0.00     0.134 A 
ATOM      7  C   UNL     1     -41.546   3.481  82.823  1.00  0.00     0.093 A 
ATOM      8  C   UNL     1     -40.484   3.689  83.702  1.00  0.00     0.123 A 
ATOM      9  C   UNL     1     -39.251   4.119  83.210  1.00  0.00     0.094 A 
ATOM     10  C   UNL     1     -39.083   4.372  81.847  1.00  0.00     0.146 A 
ATOM     11  O   UNL     1     -37.897   4.789  81.420  1.00  0.00    -0.452 OA
ENDROOT
BRANCH   1  12
ATOM     12  C   UNL     1     -36.262   5.511  79.801  1.00  0.00     0.025 A 
ATOM     13  C   UNL     1     -35.289   4.542  79.506  1.00  0.00     0.016 A 
ATOM     14  C   UNL     1     -33.994   4.926  79.152  1.00  0.00     0.051 A 
ATOM     15  C   UNL     1     -33.656   6.283  79.074  1.00  0.00     0.157 A 
ATOM     16  C   UNL     1     -35.925   6.873  79.700  1.00  0.00     0.062 A 
ATOM     17  C   UNL     1     -34.624   7.258  79.344  1.00  0.00     0.158 A 
BRANCH  15  18
ATOM     18  O   UNL     1     -32.363   6.670  78.723  1.00  0.00    -0.504 OA
ATOM     19  H   UNL     1     -32.184   7.544  78.244  1.00  0.00     0.293 HD
ENDBRANCH  15  18
BRANCH  17  20
ATOM     20  O   UNL     1     -34.289   8.608  79.251  1.00  0.00    -0.504 OA
ATOM     21  H   UNL     1     -34.288   9.212  80.065  1.00  0.00     0.293 HD
ENDBRANCH  17  20
ENDBRANCH   1  12
BRANCH   2  22
ATOM     22  O   UNL     1     -38.421   5.388  77.873  1.00  0.00    -0.502 OA
ATOM     23  H   UNL     1     -38.218   4.723  77.138  1.00  0.00     0.293 HD
ENDBRANCH   2  22
BRANCH   6  24
ATOM     24  O   UNL     1     -42.493   3.362  80.644  1.00  0.00    -0.507 OA
ATOM     25  H   UNL     1     -42.687   2.439  80.285  1.00  0.00     0.293 HD
ENDBRANCH   6  24
BRANCH   8  26
ATOM     26  O   UNL     1     -40.662   3.455  85.064  1.00  0.00    -0.508 OA
ATOM     27  H   UNL     1     -41.579   3.283  85.457  1.00  0.00     0.293 HD
ENDBRANCH   8  26
TORSDOF 6
ENDMDL
MODEL 5
REMARK VINA RESULT:    -6.228      1.670      7.010
REMARK INTER + INTRA:          -7.812
REMARK INTER:                  -7.553
REMARK INTRA:                  -0.259
REMARK UNBOUND:                -0.310
REMARK SMILES O=c1c(O)c(-c2ccc(O)c(O)c2)oc2cc(O)cc(O)c12
REMARK SMILES IDX 5 1 3 2 2 3 1 4 22 5 20 6 19 7 17 8 16 9 15 10 14 11 6 12
REMARK SMILES IDX 7 13 8 14 9 15 13 16 11 17 10 18 12 20 4 22 21 24 18 26
REMARK H PARENT 10 19 12 21 4 23 21 25 18 27
REMARK Flexibility Score: inf
ROOT
ATOM      1  C   UNL     1     -37.710   5.173  78.914  1.00  0.00     0.180 A 
ATOM      2  C   UNL     1     -36.567   4.566  79.465  1.00  0.00     0.208 A 
ATOM      3  C   UNL     1     -35.316   5.175  79.279  1.00  0.00     0.238 A 
ATOM      4  O   UNL     1     -34.306   4.656  79.820  1.00  0.00    -0.285 OA
ATOM      5  C   UNL     1     -35.221   6.373  78.531  1.00  0.00     0.111 A 
ATOM      6  C   UNL     1     -33.999   7.055  78.246  1.00  0.00     0.134 A 
ATOM      7  C   UNL     1     -34.036   8.301  77.609  1.00  0.00     0.093 A 
ATOM      8  C   UNL     1     -35.243   8.860  77.189  1.00  0.00     0.123 A 
ATOM      9  C   UNL     1     -36.439   8.174  77.410  1.00  0.00     0.094 A 
ATOM     10  C   UNL     1     -36.436   6.946  78.075  1.00  0.00     0.146 A 
ATOM     11  O   UNL     1     -37.596   6.331  78.274  1.00  0.00    -0.452 OA
ENDROOT
BRANCH   1  12
ATOM     12  C   UNL     1     -39.060   4.577  79.047  1.00  0.00     0.025 A 
ATOM     13  C   UNL     1     -39.618   3.885  77.959  1.00  0.00     0.016 A 
ATOM     14  C   UNL     1     -40.880   3.296  78.068  1.00  0.00     0.051 A 
ATOM     15  C   UNL     1     -41.596   3.378  79.269  1.00  0.00     0.157 A 
ATOM     16  C   UNL     1     -39.772   4.638  80.257  1.00  0.00     0.062 A 
ATOM     17  C   UNL     1     -41.040   4.046  80.367  1.00  0.00     0.158 A 
BRANCH  15  18
ATOM     18  O   UNL     1     -42.856   2.794  79.381  1.00  0.00    -0.504 OA
ATOM     19  H   UNL     1     -43.378   2.823  80.249  1.00  0.00     0.293 HD
ENDBRANCH  15  18
BRANCH  17  20
ATOM     20  O   UNL     1     -41.748   4.114  81.566  1.00  0.00    -0.504 OA
ATOM     21  H   UNL     1     -41.277   4.087  82.462  1.00  0.00     0.293 HD
ENDBRANCH  17  20
ENDBRANCH   1  12
BRANCH   2  22
ATOM     22  O   UNL     1     -36.688   3.395  80.218  1.00  0.00    -0.502 OA
ATOM     23  H   UNL     1     -37.585   2.983  80.443  1.00  0.00     0.293 HD
ENDBRANCH   2  22
BRANCH   6  24
ATOM     24  O   UNL     1     -32.733   6.543  78.540  1.00  0.00    -0.507 OA
ATOM     25  H   UNL     1     -32.523   5.941  79.323  1.00  0.00     0.293 HD
ENDBRANCH   6  24
BRANCH   8  26
ATOM     26  O   UNL     1     -35.242  10.095  76.544  1.00  0.00    -0.508 OA
ATOM     27  H   UNL     1     -35.058  10.955  77.046  1.00  0.00     0.293 HD
ENDBRANCH   8  26
TORSDOF 6
ENDMDL
MODEL 6
REMARK VINA RESULT:    -6.165      1.667      7.165
REMARK INTER + INTRA:          -7.736
REMARK INTER:                  -7.717
REMARK INTRA:                  -0.020
REMARK UNBOUND:                -0.310
REMARK SMILES O=c1c(O)c(-c2ccc(O)c(O)c2)oc2cc(O)cc(O)c12
REMARK SMILES IDX 5 1 3 2 2 3 1 4 22 5 20 6 19 7 17 8 16 9 15 10 14 11 6 12
REMARK SMILES IDX 7 13 8 14 9 15 13 16 11 17 10 18 12 20 4 22 21 24 18 26
REMARK H PARENT 10 19 12 21 4 23 21 25 18 27
REMARK Flexibility Score: inf
ROOT
ATOM      1  C   UNL     1     -38.389   4.600  79.206  1.00  0.00     0.180 A 
ATOM      2  C   UNL     1     -37.920   5.534  78.265  1.00  0.00     0.208 A 
ATOM      3  C   UNL     1     -36.606   6.015  78.381  1.00  0.00     0.238 A 
ATOM      4  O   UNL     1     -36.175   6.808  77.504  1.00  0.00    -0.285 OA
ATOM      5  C   UNL     1     -35.785   5.571  79.444  1.00  0.00     0.111 A 
ATOM      6  C   UNL     1     -34.451   6.023  79.681  1.00  0.00     0.134 A 
ATOM      7  C   UNL     1     -33.686   5.419  80.685  1.00  0.00     0.093 A 
ATOM      8  C   UNL     1     -34.225   4.427  81.504  1.00  0.00     0.123 A 
ATOM      9  C   UNL     1     -35.547   4.019  81.320  1.00  0.00     0.094 A 
ATOM     10  C   UNL     1     -36.323   4.577  80.302  1.00  0.00     0.146 A 
ATOM     11  O   UNL     1     -37.573   4.155  80.153  1.00  0.00    -0.452 OA
ENDROOT
BRANCH   1  12
ATOM     12  C   UNL     1     -39.771   4.067  79.165  1.00  0.00     0.025 A 
ATOM     13  C   UNL     1     -40.236   3.448  77.993  1.00  0.00     0.016 A 
ATOM     14  C   UNL     1     -41.528   2.918  77.938  1.00  0.00     0.051 A 
ATOM     15  C   UNL     1     -42.367   2.987  79.057  1.00  0.00     0.157 A 
ATOM     16  C   UNL     1     -40.609   4.115  80.293  1.00  0.00     0.062 A 
ATOM     17  C   UNL     1     -41.906   3.582  80.238  1.00  0.00     0.158 A 
BRANCH  15  18
ATOM     18  O   UNL     1     -43.658   2.462  79.006  1.00  0.00    -0.504 OA
ATOM     19  H   UNL     1     -44.362   2.720  79.687  1.00  0.00     0.293 HD
ENDBRANCH  15  18
BRANCH  17  20
ATOM     20  O   UNL     1     -42.738   3.637  81.355  1.00  0.00    -0.504 OA
ATOM     21  H   UNL     1     -42.364   3.622  82.297  1.00  0.00     0.293 HD
ENDBRANCH  17  20
ENDBRANCH   1  12
BRANCH   2  22
ATOM     22  O   UNL     1     -38.741   5.942  77.210  1.00  0.00    -0.502 OA
ATOM     23  H   UNL     1     -39.370   6.731  77.285  1.00  0.00     0.293 HD
ENDBRANCH   2  22
BRANCH   6  24
ATOM     24  O   UNL     1     -33.847   7.072  78.982  1.00  0.00    -0.507 OA
ATOM     25  H   UNL     1     -34.151   8.034  79.013  1.00  0.00     0.293 HD
ENDBRANCH   6  24
BRANCH   8  26
ATOM     26  O   UNL     1     -33.439   3.858  82.504  1.00  0.00    -0.508 OA
ATOM     27  H   UNL     1     -33.499   2.873  82.730  1.00  0.00     0.293 HD
ENDBRANCH   8  26
TORSDOF 6
ENDMDL
MODEL 7
REMARK VINA RESULT:    -6.112      9.016     10.817
REMARK INTER + INTRA:          -7.672
REMARK INTER:                  -7.360
REMARK INTRA:                  -0.312
REMARK UNBOUND:                -0.310
REMARK SMILES O=c1c(O)c(-c2ccc(O)c(O)c2)oc2cc(O)cc(O)c12
REMARK SMILES IDX 5 1 3 2 2 3 1 4 22 5 20 6 19 7 17 8 16 9 15 10 14 11 6 12
REMARK SMILES IDX 7 13 8 14 9 15 13 16 11 17 10 18 12 20 4 22 21 24 18 26
REMARK H PARENT 10 19 12 21 4 23 21 25 18 27
REMARK Flexibility Score: inf
ROOT
ATOM      1  C   UNL     1     -41.847  -4.683  82.586  1.00  0.00     0.180 A 
ATOM      2  C   UNL     1     -42.396  -5.562  83.536  1.00  0.00     0.208 A 
ATOM      3  C   UNL     1     -43.272  -6.570  83.103  1.00  0.00     0.238 A 
ATOM      4  O   UNL     1     -43.717  -7.388  83.950  1.00  0.00    -0.285 OA
ATOM      5  C   UNL     1     -43.601  -6.676  81.731  1.00  0.00     0.111 A 
ATOM      6  C   UNL     1     -44.509  -7.634  81.187  1.00  0.00     0.134 A 
ATOM      7  C   UNL     1     -44.660  -7.732  79.798  1.00  0.00     0.093 A 
ATOM      8  C   UNL     1     -43.986  -6.865  78.938  1.00  0.00     0.123 A 
ATOM      9  C   UNL     1     -43.141  -5.885  79.462  1.00  0.00     0.094 A 
ATOM     10  C   UNL     1     -42.943  -5.787  80.841  1.00  0.00     0.146 A 
ATOM     11  O   UNL     1     -42.124  -4.849  81.299  1.00  0.00    -0.452 OA
ENDROOT
BRANCH   1  12
ATOM     12  C   UNL     1     -40.936  -3.579  82.970  1.00  0.00     0.025 A 
ATOM     13  C   UNL     1     -41.466  -2.304  83.225  1.00  0.00     0.016 A 
ATOM     14  C   UNL     1     -40.628  -1.253  83.608  1.00  0.00     0.051 A 
ATOM     15  C   UNL     1     -39.252  -1.466  83.756  1.00  0.00     0.157 A 
ATOM     16  C   UNL     1     -39.556  -3.793  83.140  1.00  0.00     0.062 A 
ATOM     17  C   UNL     1     -38.716  -2.738  83.527  1.00  0.00     0.158 A 
BRANCH  15  18
ATOM     18  O   UNL     1     -38.413  -0.420  84.137  1.00  0.00    -0.504 OA
ATOM     19  H   UNL     1     -38.579   0.111  84.983  1.00  0.00     0.293 HD
ENDBRANCH  15  18
BRANCH  17  20
ATOM     20  O   UNL     1     -37.348  -2.951  83.689  1.00  0.00    -0.504 OA
ATOM     21  H   UNL     1     -36.662  -2.403  83.183  1.00  0.00     0.293 HD
ENDBRANCH  17  20
ENDBRANCH   1  12
BRANCH   2  22
ATOM     22  O   UNL     1     -42.040  -5.454  84.883  1.00  0.00    -0.502 OA
ATOM     23  H   UNL     1     -41.076  -5.398  85.188  1.00  0.00     0.293 HD
ENDBRANCH   2  22
BRANCH   6  24
ATOM     24  O   UNL     1     -45.301  -8.486  81.961  1.00  0.00    -0.507 OA
ATOM     25  H   UNL     1     -45.068  -9.443  82.184  1.00  0.00     0.293 HD
ENDBRANCH   6  24
BRANCH   8  26
ATOM     26  O   UNL     1     -44.172  -6.980  77.562  1.00  0.00    -0.508 OA
ATOM     27  H   UNL     1     -43.643  -6.417  76.907  1.00  0.00     0.293 HD
ENDBRANCH   8  26
TORSDOF 6
ENDMDL
MODEL 8
REMARK VINA RESULT:    -5.957      9.738     12.442
REMARK INTER + INTRA:          -7.485
REMARK INTER:                  -7.656
REMARK INTRA:                   0.170
REMARK UNBOUND:                -0.310
REMARK SMILES O=c1c(O)c(-c2ccc(O)c(O)c2)oc2cc(O)cc(O)c12
REMARK SMILES IDX 5 1 3 2 2 3 1 4 22 5 20 6 19 7 17 8 16 9 15 10 14 11 6 12
REMARK SMILES IDX 7 13 8 14 9 15 13 16 11 17 10 18 12 20 4 22 21 24 18 26
REMARK H PARENT 10 19 12 21 4 23 21 25 18 27
REMARK Flexibility Score: inf
ROOT
ATOM      1  C   UNL     1     -46.707   3.150  72.203  1.00  0.00     0.180 A 
ATOM      2  C   UNL     1     -47.350   3.160  70.952  1.00  0.00     0.208 A 
ATOM      3  C   UNL     1     -47.537   4.385  70.293  1.00  0.00     0.238 A 
ATOM      4  O   UNL     1     -48.063   4.382  69.150  1.00  0.00    -0.285 OA
ATOM      5  C   UNL     1     -47.095   5.586  70.899  1.00  0.00     0.111 A 
ATOM      6  C   UNL     1     -47.269   6.888  70.339  1.00  0.00     0.134 A 
ATOM      7  C   UNL     1     -46.677   7.992  70.963  1.00  0.00     0.093 A 
ATOM      8  C   UNL     1     -45.973   7.852  72.159  1.00  0.00     0.123 A 
ATOM      9  C   UNL     1     -45.847   6.593  72.746  1.00  0.00     0.094 A 
ATOM     10  C   UNL     1     -46.396   5.467  72.128  1.00  0.00     0.146 A 
ATOM     11  O   UNL     1     -46.247   4.285  72.714  1.00  0.00    -0.452 OA
ENDROOT
BRANCH   1  12
ATOM     12  C   UNL     1     -46.497   1.900  72.970  1.00  0.00     0.025 A 
ATOM     13  C   UNL     1     -47.508   0.925  72.991  1.00  0.00     0.016 A 
ATOM     14  C   UNL     1     -47.323  -0.270  73.690  1.00  0.00     0.051 A 
ATOM     15  C   UNL     1     -46.120  -0.514  74.366  1.00  0.00     0.157 A 
ATOM     16  C   UNL     1     -45.283   1.642  73.631  1.00  0.00     0.062 A 
ATOM     17  C   UNL     1     -45.097   0.441  74.333  1.00  0.00     0.158 A 
BRANCH  15  18
ATOM     18  O   UNL     1     -45.933  -1.704  75.066  1.00  0.00    -0.504 OA
ATOM     19  H   UNL     1     -45.151  -1.830  75.698  1.00  0.00     0.293 HD
ENDBRANCH  15  18
BRANCH  17  20
ATOM     20  O   UNL     1     -43.896   0.190  74.993  1.00  0.00    -0.504 OA
ATOM     21  H   UNL     1     -43.053  -0.058  74.488  1.00  0.00     0.293 HD
ENDBRANCH  17  20
ENDBRANCH   1  12
BRANCH   2  22
ATOM     22  O   UNL     1     -47.758   1.961  70.362  1.00  0.00    -0.502 OA
ATOM     23  H   UNL     1     -48.682   1.572  70.505  1.00  0.00     0.293 HD
ENDBRANCH   2  22
BRANCH   6  24
ATOM     24  O   UNL     1     -48.031   7.151  69.197  1.00  0.00    -0.507 OA
ATOM     25  H   UNL     1     -48.852   6.633  68.922  1.00  0.00     0.293 HD
ENDBRANCH   6  24
BRANCH   8  26
ATOM     26  O   UNL     1     -45.410   8.976  72.761  1.00  0.00    -0.508 OA
ATOM     27  H   UNL     1     -45.275   9.839  72.250  1.00  0.00     0.293 HD
ENDBRANCH   8  26
TORSDOF 6
ENDMDL
MODEL 9
REMARK VINA RESULT:    -5.953      2.150      3.173
REMARK INTER + INTRA:          -7.480
REMARK INTER:                  -7.146
REMARK INTRA:                  -0.335
REMARK UNBOUND:                -0.310
REMARK SMILES O=c1c(O)c(-c2ccc(O)c(O)c2)oc2cc(O)cc(O)c12
REMARK SMILES IDX 5 1 3 2 2 3 1 4 22 5 20 6 19 7 17 8 16 9 15 10 14 11 6 12
REMARK SMILES IDX 7 13 8 14 9 15 13 16 11 17 10 18 12 20 4 22 21 24 18 26
REMARK H PARENT 10 19 12 21 4 23 21 25 18 27
REMARK Flexibility Score: inf
ROOT
ATOM      1  C   UNL     1     -36.812   4.914  81.697  1.00  0.00     0.180 A 
ATOM      2  C   UNL     1     -36.734   4.641  83.074  1.00  0.00     0.208 A 
ATOM      3  C   UNL     1     -37.884   4.194  83.745  1.00  0.00     0.238 A 
ATOM      4  O   UNL     1     -37.795   3.900  84.965  1.00  0.00    -0.285 OA
ATOM      5  C   UNL     1     -39.099   4.042  83.036  1.00  0.00     0.111 A 
ATOM      6  C   UNL     1     -40.335   3.634  83.623  1.00  0.00     0.134 A 
ATOM      7  C   UNL     1     -41.443   3.391  82.802  1.00  0.00     0.093 A 
ATOM      8  C   UNL     1     -41.379   3.603  81.426  1.00  0.00     0.123 A 
ATOM      9  C   UNL     1     -40.194   4.058  80.848  1.00  0.00     0.094 A 
ATOM     10  C   UNL     1     -39.061   4.275  81.636  1.00  0.00     0.146 A 
ATOM     11  O   UNL     1     -37.950   4.699  81.047  1.00  0.00    -0.452 OA
ENDROOT
BRANCH   1  12
ATOM     12  C   UNL     1     -35.649   5.413  80.926  1.00  0.00     0.025 A 
ATOM     13  C   UNL     1     -34.824   4.498  80.252  1.00  0.00     0.016 A 
ATOM     14  C   UNL     1     -33.735   4.948  79.502  1.00  0.00     0.051 A 
ATOM     15  C   UNL     1     -33.463   6.318  79.403  1.00  0.00     0.157 A 
ATOM     16  C   UNL     1     -35.386   6.789  80.807  1.00  0.00     0.062 A 
ATOM     17  C   UNL     1     -34.292   7.240  80.052  1.00  0.00     0.158 A 
BRANCH  15  18
ATOM     18  O   UNL     1     -32.376   6.770  78.657  1.00  0.00    -0.504 OA
ATOM     19  H   UNL     1     -31.839   6.143  78.071  1.00  0.00     0.293 HD
ENDBRANCH  15  18
BRANCH  17  20
ATOM     20  O   UNL     1     -34.029   8.605  79.941  1.00  0.00    -0.504 OA
ATOM     21  H   UNL     1     -33.209   8.949  79.454  1.00  0.00     0.293 HD
ENDBRANCH  17  20
ENDBRANCH   1  12
BRANCH   2  22
ATOM     22  O   UNL     1     -35.519   4.777  83.750  1.00  0.00    -0.502 OA
ATOM     23  H   UNL     1     -35.468   4.986  84.740  1.00  0.00     0.293 HD
ENDBRANCH   2  22
BRANCH   6  24
ATOM     24  O   UNL     1     -40.532   3.482  84.998  1.00  0.00    -0.507 OA
ATOM     25  H   UNL     1     -40.726   4.238  85.639  1.00  0.00     0.293 HD
ENDBRANCH   6  24
BRANCH   8  26
ATOM     26  O   UNL     1     -42.506   3.366  80.641  1.00  0.00    -0.508 OA
ATOM     27  H   UNL     1     -42.773   2.428  80.366  1.00  0.00     0.293 HD
ENDBRANCH   8  26
TORSDOF 6
ENDMDL
