MODEL 1
REMARK VINA RESULT:    34.734      0.000      0.000
REMARK INTER + INTRA:          40.683
REMARK INTER:                  40.826
REMARK INTRA:                  -0.142
REMARK UNBOUND:                -0.142
REMARK SMILES O=c1c(O)c(-c2ccc(O)cc2)oc2cc(O)cc(O)c12
REMARK SMILES IDX 5 1 3 2 2 3 1 4 21 5 19 6 18 7 16 8 15 9 14 10 13 11 6 12
REMARK SMILES IDX 7 13 8 14 9 15 12 16 11 17 10 18 4 20 20 22 17 24
REMARK H PARENT 10 19 4 21 20 23 17 25
REMARK Flexibility Score: inf
ROOT
ATOM      1  C   UNL     1       9.224  67.727   6.747  1.00  0.00     0.180 A 
ATOM      2  C   UNL     1       9.231  68.899   7.520  1.00  0.00     0.208 A 
ATOM      3  C   UNL     1       9.311  70.142   6.873  1.00  0.00     0.238 A 
ATOM      4  O   UNL     1       9.240  71.190   7.566  1.00  0.00    -0.285 OA
ATOM      5  C   UNL     1       9.440  70.196   5.463  1.00  0.00     0.111 A 
ATOM      6  C   UNL     1       9.573  71.398   4.704  1.00  0.00     0.134 A 
ATOM      7  C   UNL     1       9.587  71.334   3.306  1.00  0.00     0.093 A 
ATOM      8  C   UNL     1       9.537  70.111   2.639  1.00  0.00     0.123 A 
ATOM      9  C   UNL     1       9.462  68.926   3.372  1.00  0.00     0.094 A 
ATOM     10  C   UNL     1       9.407  68.958   4.768  1.00  0.00     0.146 A 
ATOM     11  O   UNL     1       9.314  67.809   5.425  1.00  0.00    -0.452 OA
ENDROOT
BRANCH   1  12
ATOM     12  C   UNL     1       9.128  66.381   7.356  1.00  0.00     0.021 A 
ATOM     13  C   UNL     1      10.193  65.897   8.134  1.00  0.00     0.016 A 
ATOM     14  C   UNL     1      10.134  64.619   8.701  1.00  0.00     0.047 A 
ATOM     15  C   UNL     1       9.018  63.805   8.484  1.00  0.00     0.115 A 
ATOM     16  C   UNL     1       8.017  65.548   7.126  1.00  0.00     0.016 A 
ATOM     17  C   UNL     1       7.961  64.271   7.693  1.00  0.00     0.047 A 
BRANCH  15  18
ATOM     18  O   UNL     1       8.973  62.535   9.055  1.00  0.00    -0.508 OA
ATOM     19  H   UNL     1       8.368  62.331   9.843  1.00  0.00     0.293 HD
ENDBRANCH  15  18
ENDBRANCH   1  12
BRANCH   2  20
ATOM     20  O   UNL     1       9.179  68.823   8.916  1.00  0.00    -0.502 OA
ATOM     21  H   UNL     1       9.850  69.292   9.511  1.00  0.00     0.293 HD
ENDBRANCH   2  20
BRANCH   6  22
ATOM     22  O   UNL     1       9.721  72.668   5.270  1.00  0.00    -0.507 OA
ATOM     23  H   UNL     1       9.809  73.527   4.749  1.00  0.00     0.293 HD
ENDBRANCH   6  22
BRANCH   8  24
ATOM     24  O   UNL     1       9.571  70.084   1.247  1.00  0.00    -0.508 OA
ATOM     25  H   UNL     1       9.828  69.246   0.740  1.00  0.00     0.293 HD
ENDBRANCH   8  24
TORSDOF 5
ENDMDL
