MODEL 1
REMARK VINA RESULT:    -7.793      0.000      0.000
REMARK INTER + INTRA:          -9.476
REMARK INTER:                  -9.160
REMARK INTRA:                  -0.316
REMARK UNBOUND:                -0.316
REMARK SMILES O=c1cc(-c2ccc(O)c(O)c2)oc2cc(O)cc(O)c12
REMARK SMILES IDX 4 1 3 2 2 3 1 4 21 5 19 6 18 7 16 8 15 9 14 10 13 11 5 12
REMARK SMILES IDX 6 13 7 14 8 15 12 16 10 17 9 18 11 20 20 22 17 24
REMARK H PARENT 9 19 11 21 20 23 17 25
REMARK Flexibility Score: inf
ROOT
ATOM      1  C   UNL     1     168.950 145.513 153.595  1.00  0.00     0.138 A 
ATOM      2  C   UNL     1     169.933 145.617 152.602  1.00  0.00     0.100 A 
ATOM      3  C   UNL     1     169.598 146.139 151.352  1.00  0.00     0.197 A 
ATOM      4  O   UNL     1     170.515 146.277 150.501  1.00  0.00    -0.289 OA
ATOM      5  C   UNL     1     168.264 146.531 151.087  1.00  0.00     0.107 A 
ATOM      6  C   UNL     1     167.799 147.039 149.838  1.00  0.00     0.134 A 
ATOM      7  C   UNL     1     166.482 147.504 149.729  1.00  0.00     0.093 A 
ATOM      8  C   UNL     1     165.598 147.423 150.804  1.00  0.00     0.123 A 
ATOM      9  C   UNL     1     166.027 146.878 152.015  1.00  0.00     0.094 A 
ATOM     10  C   UNL     1     167.344 146.438 152.165  1.00  0.00     0.146 A 
ATOM     11  O   UNL     1     167.717 145.939 153.339  1.00  0.00    -0.456 OA
ENDROOT
BRANCH   1  12
ATOM     12  C   UNL     1     169.251 144.963 154.941  1.00  0.00     0.021 A 
ATOM     13  C   UNL     1     170.588 144.792 155.334  1.00  0.00     0.016 A 
ATOM     14  C   UNL     1     170.896 144.283 156.597  1.00  0.00     0.051 A 
ATOM     15  C   UNL     1     169.882 143.944 157.498  1.00  0.00     0.157 A 
ATOM     16  C   UNL     1     168.230 144.636 155.852  1.00  0.00     0.062 A 
ATOM     17  C   UNL     1     168.531 144.128 157.123  1.00  0.00     0.158 A 
BRANCH  15  18
ATOM     18  O   UNL     1     170.259 143.434 158.743  1.00  0.00    -0.504 OA
ATOM     19  H   UNL     1     170.771 142.573 158.869  1.00  0.00     0.293 HD
ENDBRANCH  15  18
BRANCH  17  20
ATOM     20  O   UNL     1     167.465 143.828 157.974  1.00  0.00    -0.504 OA
ATOM     21  H   UNL     1     166.528 144.185 157.854  1.00  0.00     0.293 HD
ENDBRANCH  17  20
ENDBRANCH   1  12
BRANCH   6  22
ATOM     22  O   UNL     1     168.575 147.085 148.676  1.00  0.00    -0.507 OA
ATOM     23  H   UNL     1     168.353 147.627 147.855  1.00  0.00     0.293 HD
ENDBRANCH   6  22
BRANCH   8  24
ATOM     24  O   UNL     1     164.291 147.881 150.654  1.00  0.00    -0.508 OA
ATOM     25  H   UNL     1     163.496 147.309 150.914  1.00  0.00     0.293 HD
ENDBRANCH   8  24
TORSDOF 5
ENDMDL
MODEL 2
REMARK VINA RESULT:    -7.422      1.218      2.701
REMARK INTER + INTRA:          -9.040
REMARK INTER:                  -8.750
REMARK INTRA:                  -0.290
REMARK UNBOUND:                -0.316
REMARK SMILES O=c1cc(-c2ccc(O)c(O)c2)oc2cc(O)cc(O)c12
REMARK SMILES IDX 4 1 3 2 2 3 1 4 21 5 19 6 18 7 16 8 15 9 14 10 13 11 5 12
REMARK SMILES IDX 6 13 7 14 8 15 12 16 10 17 9 18 11 20 20 22 17 24
REMARK H PARENT 9 19 11 21 20 23 17 25
REMARK Flexibility Score: inf
ROOT
ATOM      1  C   UNL     1     168.608 145.523 153.616  1.00  0.00     0.138 A 
ATOM      2  C   UNL     1     167.294 145.981 153.451  1.00  0.00     0.100 A 
ATOM      3  C   UNL     1     166.878 146.453 152.205  1.00  0.00     0.197 A 
ATOM      4  O   UNL     1     165.676 146.799 152.072  1.00  0.00    -0.289 OA
ATOM      5  C   UNL     1     167.794 146.494 151.127  1.00  0.00     0.107 A 
ATOM      6  C   UNL     1     167.494 146.992 149.824  1.00  0.00     0.134 A 
ATOM      7  C   UNL     1     168.447 146.875 148.804  1.00  0.00     0.093 A 
ATOM      8  C   UNL     1     169.707 146.334 149.054  1.00  0.00     0.123 A 
ATOM      9  C   UNL     1     170.031 145.893 150.338  1.00  0.00     0.094 A 
ATOM     10  C   UNL     1     169.090 145.965 151.368  1.00  0.00     0.146 A 
ATOM     11  O   UNL     1     169.433 145.521 152.573  1.00  0.00    -0.456 OA
ENDROOT
BRANCH   1  12
ATOM     12  C   UNL     1     169.102 145.012 154.919  1.00  0.00     0.021 A 
ATOM     13  C   UNL     1     170.474 145.082 155.213  1.00  0.00     0.016 A 
ATOM     14  C   UNL     1     170.962 144.614 156.433  1.00  0.00     0.051 A 
ATOM     15  C   UNL     1     170.096 144.077 157.391  1.00  0.00     0.157 A 
ATOM     16  C   UNL     1     168.228 144.485 155.888  1.00  0.00     0.062 A 
ATOM     17  C   UNL     1     168.710 144.018 157.117  1.00  0.00     0.158 A 
BRANCH  15  18
ATOM     18  O   UNL     1     170.650 143.622 158.590  1.00  0.00    -0.504 OA
ATOM     19  H   UNL     1     171.630 143.416 158.717  1.00  0.00     0.293 HD
ENDBRANCH  15  18
BRANCH  17  20
ATOM     20  O   UNL     1     167.783 143.511 158.030  1.00  0.00    -0.504 OA
ATOM     21  H   UNL     1     167.309 142.625 157.922  1.00  0.00     0.293 HD
ENDBRANCH  17  20
ENDBRANCH   1  12
BRANCH   6  22
ATOM     22  O   UNL     1     166.296 147.628 149.488  1.00  0.00    -0.507 OA
ATOM     23  H   UNL     1     165.560 147.856 150.140  1.00  0.00     0.293 HD
ENDBRANCH   6  22
BRANCH   8  24
ATOM     24  O   UNL     1     170.635 146.247 148.018  1.00  0.00    -0.508 OA
ATOM     25  H   UNL     1     171.598 145.984 148.191  1.00  0.00     0.293 HD
ENDBRANCH   8  24
TORSDOF 5
ENDMDL
MODEL 3
REMARK VINA RESULT:    -7.341      1.709      3.217
REMARK INTER + INTRA:          -8.944
REMARK INTER:                  -8.659
REMARK INTRA:                  -0.284
REMARK UNBOUND:                -0.316
REMARK SMILES O=c1cc(-c2ccc(O)c(O)c2)oc2cc(O)cc(O)c12
REMARK SMILES IDX 4 1 3 2 2 3 1 4 21 5 19 6 18 7 16 8 15 9 14 10 13 11 5 12
REMARK SMILES IDX 6 13 7 14 8 15 12 16 10 17 9 18 11 20 20 22 17 24
REMARK H PARENT 9 19 11 21 20 23 17 25
REMARK Flexibility Score: inf
ROOT
ATOM      1  C   UNL     1     169.066 145.952 153.699  1.00  0.00     0.138 A 
ATOM      2  C   UNL     1     167.677 146.132 153.643  1.00  0.00     0.100 A 
ATOM      3  C   UNL     1     167.067 146.417 152.421  1.00  0.00     0.197 A 
ATOM      4  O   UNL     1     165.813 146.511 152.391  1.00  0.00    -0.289 OA
ATOM      5  C   UNL     1     167.858 146.554 151.255  1.00  0.00     0.107 A 
ATOM      6  C   UNL     1     167.350 146.884 149.963  1.00  0.00     0.134 A 
ATOM      7  C   UNL     1     168.214 146.878 148.860  1.00  0.00     0.093 A 
ATOM      8  C   UNL     1     169.574 146.614 149.011  1.00  0.00     0.123 A 
ATOM      9  C   UNL     1     170.092 146.343 150.279  1.00  0.00     0.094 A 
ATOM     10  C   UNL     1     169.250 146.308 151.393  1.00  0.00     0.146 A 
ATOM     11  O   UNL     1     169.780 146.033 152.580  1.00  0.00    -0.456 OA
ENDROOT
BRANCH   1  12
ATOM     12  C   UNL     1     169.766 145.649 154.973  1.00  0.00     0.021 A 
ATOM     13  C   UNL     1     169.336 144.566 155.756  1.00  0.00     0.016 A 
ATOM     14  C   UNL     1     169.982 144.256 156.954  1.00  0.00     0.051 A 
ATOM     15  C   UNL     1     171.074 145.011 157.393  1.00  0.00     0.157 A 
ATOM     16  C   UNL     1     170.874 146.400 155.406  1.00  0.00     0.062 A 
ATOM     17  C   UNL     1     171.530 146.094 156.605  1.00  0.00     0.158 A 
BRANCH  15  18
ATOM     18  O   UNL     1     171.673 144.652 158.603  1.00  0.00    -0.504 OA
ATOM     19  H   UNL     1     172.487 144.060 158.676  1.00  0.00     0.293 HD
ENDBRANCH  15  18
BRANCH  17  20
ATOM     20  O   UNL     1     172.624 146.882 156.969  1.00  0.00    -0.504 OA
ATOM     21  H   UNL     1     172.558 147.857 157.226  1.00  0.00     0.293 HD
ENDBRANCH  17  20
ENDBRANCH   1  12
BRANCH   6  22
ATOM     22  O   UNL     1     166.023 147.246 149.714  1.00  0.00    -0.507 OA
ATOM     23  H   UNL     1     165.686 148.195 149.649  1.00  0.00     0.293 HD
ENDBRANCH   6  22
BRANCH   8  24
ATOM     24  O   UNL     1     170.405 146.632 147.894  1.00  0.00    -0.508 OA
ATOM     25  H   UNL     1     171.319 146.194 147.906  1.00  0.00     0.293 HD
ENDBRANCH   8  24
TORSDOF 5
ENDMDL
MODEL 4
REMARK VINA RESULT:    -7.307      2.307      6.650
REMARK INTER + INTRA:          -8.904
REMARK INTER:                  -8.614
REMARK INTRA:                  -0.290
REMARK UNBOUND:                -0.316
REMARK SMILES O=c1cc(-c2ccc(O)c(O)c2)oc2cc(O)cc(O)c12
REMARK SMILES IDX 4 1 3 2 2 3 1 4 21 5 19 6 18 7 16 8 15 9 14 10 13 11 5 12
REMARK SMILES IDX 6 13 7 14 8 15 12 16 10 17 9 18 11 20 20 22 17 24
REMARK H PARENT 9 19 11 21 20 23 17 25
REMARK Flexibility Score: inf
ROOT
ATOM      1  C   UNL     1     168.512 146.105 152.095  1.00  0.00     0.138 A 
ATOM      2  C   UNL     1     169.329 145.099 151.563  1.00  0.00     0.100 A 
ATOM      3  C   UNL     1     170.410 144.622 152.306  1.00  0.00     0.197 A 
ATOM      4  O   UNL     1     171.088 143.675 151.829  1.00  0.00    -0.289 OA
ATOM      5  C   UNL     1     170.692 145.180 153.576  1.00  0.00     0.107 A 
ATOM      6  C   UNL     1     171.790 144.803 154.404  1.00  0.00     0.134 A 
ATOM      7  C   UNL     1     171.901 145.342 155.692  1.00  0.00     0.093 A 
ATOM      8  C   UNL     1     170.990 146.289 156.158  1.00  0.00     0.123 A 
ATOM      9  C   UNL     1     169.942 146.707 155.335  1.00  0.00     0.094 A 
ATOM     10  C   UNL     1     169.785 146.161 154.059  1.00  0.00     0.146 A 
ATOM     11  O   UNL     1     168.766 146.575 153.313  1.00  0.00    -0.456 OA
ENDROOT
BRANCH   1  12
ATOM     12  C   UNL     1     167.351 146.649 151.347  1.00  0.00     0.021 A 
ATOM     13  C   UNL     1     167.507 147.019 150.002  1.00  0.00     0.016 A 
ATOM     14  C   UNL     1     166.429 147.526 149.275  1.00  0.00     0.051 A 
ATOM     15  C   UNL     1     165.171 147.668 149.869  1.00  0.00     0.157 A 
ATOM     16  C   UNL     1     166.082 146.777 151.941  1.00  0.00     0.062 A 
ATOM     17  C   UNL     1     164.994 147.282 151.219  1.00  0.00     0.158 A 
BRANCH  15  18
ATOM     18  O   UNL     1     164.135 148.187 149.089  1.00  0.00    -0.504 OA
ATOM     19  H   UNL     1     163.804 149.139 149.152  1.00  0.00     0.293 HD
ENDBRANCH  15  18
BRANCH  17  20
ATOM     20  O   UNL     1     163.764 147.379 151.874  1.00  0.00    -0.504 OA
ATOM     21  H   UNL     1     163.113 148.140 151.745  1.00  0.00     0.293 HD
ENDBRANCH  17  20
ENDBRANCH   1  12
BRANCH   6  22
ATOM     22  O   UNL     1     172.805 143.928 154.005  1.00  0.00    -0.507 OA
ATOM     23  H   UNL     1     172.930 143.578 153.067  1.00  0.00     0.293 HD
ENDBRANCH   6  22
BRANCH   8  24
ATOM     24  O   UNL     1     171.140 146.816 157.438  1.00  0.00    -0.508 OA
ATOM     25  H   UNL     1     171.258 147.811 157.592  1.00  0.00     0.293 HD
ENDBRANCH   8  24
TORSDOF 5
ENDMDL
MODEL 5
REMARK VINA RESULT:    -7.249      1.523      7.080
REMARK INTER + INTRA:          -8.837
REMARK INTER:                  -8.553
REMARK INTRA:                  -0.284
REMARK UNBOUND:                -0.316
REMARK SMILES O=c1cc(-c2ccc(O)c(O)c2)oc2cc(O)cc(O)c12
REMARK SMILES IDX 4 1 3 2 2 3 1 4 21 5 19 6 18 7 16 8 15 9 14 10 13 11 5 12
REMARK SMILES IDX 6 13 7 14 8 15 12 16 10 17 9 18 11 20 20 22 17 24
REMARK H PARENT 9 19 11 21 20 23 17 25
REMARK Flexibility Score: inf
ROOT
ATOM      1  C   UNL     1     168.862 145.681 153.937  1.00  0.00     0.138 A 
ATOM      2  C   UNL     1     170.182 146.068 154.202  1.00  0.00     0.100 A 
ATOM      3  C   UNL     1     170.825 145.592 155.345  1.00  0.00     0.197 A 
ATOM      4  O   UNL     1     172.030 145.907 155.524  1.00  0.00    -0.289 OA
ATOM      5  C   UNL     1     170.130 144.747 156.243  1.00  0.00     0.107 A 
ATOM      6  C   UNL     1     170.670 144.234 157.460  1.00  0.00     0.134 A 
ATOM      7  C   UNL     1     169.927 143.313 158.210  1.00  0.00     0.093 A 
ATOM      8  C   UNL     1     168.644 142.933 157.820  1.00  0.00     0.123 A 
ATOM      9  C   UNL     1     168.084 143.471 156.660  1.00  0.00     0.094 A 
ATOM     10  C   UNL     1     168.812 144.365 155.872  1.00  0.00     0.146 A 
ATOM     11  O   UNL     1     168.249 144.843 154.767  1.00  0.00    -0.456 OA
ENDROOT
BRANCH   1  12
ATOM     12  C   UNL     1     168.131 146.159 152.736  1.00  0.00     0.021 A 
ATOM     13  C   UNL     1     166.756 146.428 152.827  1.00  0.00     0.016 A 
ATOM     14  C   UNL     1     166.047 146.884 151.714  1.00  0.00     0.051 A 
ATOM     15  C   UNL     1     166.694 147.092 150.492  1.00  0.00     0.157 A 
ATOM     16  C   UNL     1     168.785 146.382 151.511  1.00  0.00     0.062 A 
ATOM     17  C   UNL     1     168.083 146.844 150.390  1.00  0.00     0.158 A 
BRANCH  15  18
ATOM     18  O   UNL     1     165.927 147.545 149.416  1.00  0.00    -0.504 OA
ATOM     19  H   UNL     1     164.926 147.427 149.347  1.00  0.00     0.293 HD
ENDBRANCH  15  18
BRANCH  17  20
ATOM     20  O   UNL     1     168.800 147.044 149.209  1.00  0.00    -0.504 OA
ATOM     21  H   UNL     1     169.149 146.296 148.626  1.00  0.00     0.293 HD
ENDBRANCH  17  20
ENDBRANCH   1  12
BRANCH   6  22
ATOM     22  O   UNL     1     171.908 144.612 157.985  1.00  0.00    -0.507 OA
ATOM     23  H   UNL     1     172.510 145.321 157.593  1.00  0.00     0.293 HD
ENDBRANCH   6  22
BRANCH   8  24
ATOM     24  O   UNL     1     167.929 142.027 158.599  1.00  0.00    -0.508 OA
ATOM     25  H   UNL     1     168.394 141.282 159.107  1.00  0.00     0.293 HD
ENDBRANCH   8  24
TORSDOF 5
ENDMDL
MODEL 6
REMARK VINA RESULT:    -7.048      1.810      7.212
REMARK INTER + INTRA:          -8.600
REMARK INTER:                  -8.328
REMARK INTRA:                  -0.273
REMARK UNBOUND:                -0.316
REMARK SMILES O=c1cc(-c2ccc(O)c(O)c2)oc2cc(O)cc(O)c12
REMARK SMILES IDX 4 1 3 2 2 3 1 4 21 5 19 6 18 7 16 8 15 9 14 10 13 11 5 12
REMARK SMILES IDX 6 13 7 14 8 15 12 16 10 17 9 18 11 20 20 22 17 24
REMARK H PARENT 9 19 11 21 20 23 17 25
REMARK Flexibility Score: inf
ROOT
ATOM      1  C   UNL     1     168.768 145.695 154.173  1.00  0.00     0.138 A 
ATOM      2  C   UNL     1     168.228 144.678 154.971  1.00  0.00     0.100 A 
ATOM      3  C   UNL     1     168.868 144.318 156.158  1.00  0.00     0.197 A 
ATOM      4  O   UNL     1     168.326 143.444 156.883  1.00  0.00    -0.289 OA
ATOM      5  C   UNL     1     170.073 144.960 156.531  1.00  0.00     0.107 A 
ATOM      6  C   UNL     1     170.833 144.648 157.696  1.00  0.00     0.134 A 
ATOM      7  C   UNL     1     171.948 145.431 158.024  1.00  0.00     0.093 A 
ATOM      8  C   UNL     1     172.364 146.474 157.197  1.00  0.00     0.123 A 
ATOM      9  C   UNL     1     171.659 146.754 156.025  1.00  0.00     0.094 A 
ATOM     10  C   UNL     1     170.523 146.013 155.690  1.00  0.00     0.146 A 
ATOM     11  O   UNL     1     169.871 146.321 154.573  1.00  0.00    -0.456 OA
ENDROOT
BRANCH   1  12
ATOM     12  C   UNL     1     168.130 146.116 152.901  1.00  0.00     0.021 A 
ATOM     13  C   UNL     1     168.897 146.168 151.726  1.00  0.00     0.016 A 
ATOM     14  C   UNL     1     168.318 146.554 150.517  1.00  0.00     0.051 A 
ATOM     15  C   UNL     1     166.962 146.888 150.449  1.00  0.00     0.157 A 
ATOM     16  C   UNL     1     166.762 146.438 152.831  1.00  0.00     0.062 A 
ATOM     17  C   UNL     1     166.172 146.824 151.620  1.00  0.00     0.158 A 
BRANCH  15  18
ATOM     18  O   UNL     1     166.446 147.272 149.209  1.00  0.00    -0.504 OA
ATOM     19  H   UNL     1     165.469 147.463 149.039  1.00  0.00     0.293 HD
ENDBRANCH  15  18
BRANCH  17  20
ATOM     20  O   UNL     1     164.808 147.126 151.627  1.00  0.00    -0.504 OA
ATOM     21  H   UNL     1     164.416 147.960 152.041  1.00  0.00     0.293 HD
ENDBRANCH  17  20
ENDBRANCH   1  12
BRANCH   6  22
ATOM     22  O   UNL     1     170.555 143.574 158.546  1.00  0.00    -0.507 OA
ATOM     23  H   UNL     1     170.460 142.614 158.251  1.00  0.00     0.293 HD
ENDBRANCH   6  22
BRANCH   8  24
ATOM     24  O   UNL     1     173.486 147.221 157.546  1.00  0.00    -0.508 OA
ATOM     25  H   UNL     1     173.412 148.050 158.125  1.00  0.00     0.293 HD
ENDBRANCH   8  24
TORSDOF 5
ENDMDL
MODEL 7
REMARK VINA RESULT:    -7.048      2.436      6.832
REMARK INTER + INTRA:          -8.600
REMARK INTER:                  -8.324
REMARK INTRA:                  -0.276
REMARK UNBOUND:                -0.316
REMARK SMILES O=c1cc(-c2ccc(O)c(O)c2)oc2cc(O)cc(O)c12
REMARK SMILES IDX 4 1 3 2 2 3 1 4 21 5 19 6 18 7 16 8 15 9 14 10 13 11 5 12
REMARK SMILES IDX 6 13 7 14 8 15 12 16 10 17 9 18 11 20 20 22 17 24
REMARK H PARENT 9 19 11 21 20 23 17 25
REMARK Flexibility Score: inf
ROOT
ATOM      1  C   UNL     1     168.997 145.861 152.183  1.00  0.00     0.138 A 
ATOM      2  C   UNL     1     169.336 146.173 153.507  1.00  0.00     0.100 A 
ATOM      3  C   UNL     1     170.456 145.582 154.091  1.00  0.00     0.197 A 
ATOM      4  O   UNL     1     170.770 145.928 155.259  1.00  0.00    -0.289 OA
ATOM      5  C   UNL     1     171.224 144.648 153.354  1.00  0.00     0.107 A 
ATOM      6  C   UNL     1     172.362 143.952 153.859  1.00  0.00     0.134 A 
ATOM      7  C   UNL     1     173.112 143.139 152.999  1.00  0.00     0.093 A 
ATOM      8  C   UNL     1     172.731 142.950 151.671  1.00  0.00     0.123 A 
ATOM      9  C   UNL     1     171.588 143.584 151.181  1.00  0.00     0.094 A 
ATOM     10  C   UNL     1     170.839 144.428 152.004  1.00  0.00     0.146 A 
ATOM     11  O   UNL     1     169.766 145.023 151.494  1.00  0.00    -0.456 OA
ENDROOT
BRANCH   1  12
ATOM     12  C   UNL     1     167.815 146.461 151.514  1.00  0.00     0.021 A 
ATOM     13  C   UNL     1     167.951 147.002 150.226  1.00  0.00     0.016 A 
ATOM     14  C   UNL     1     166.854 147.565 149.573  1.00  0.00     0.051 A 
ATOM     15  C   UNL     1     165.597 147.593 150.184  1.00  0.00     0.157 A 
ATOM     16  C   UNL     1     166.548 146.475 152.124  1.00  0.00     0.062 A 
ATOM     17  C   UNL     1     165.440 147.035 151.475  1.00  0.00     0.158 A 
BRANCH  15  18
ATOM     18  O   UNL     1     164.541 148.176 149.480  1.00  0.00    -0.504 OA
ATOM     19  H   UNL     1     164.315 147.958 148.520  1.00  0.00     0.293 HD
ENDBRANCH  15  18
BRANCH  17  20
ATOM     20  O   UNL     1     164.213 147.012 152.142  1.00  0.00    -0.504 OA
ATOM     21  H   UNL     1     163.479 147.691 152.000  1.00  0.00     0.293 HD
ENDBRANCH  17  20
ENDBRANCH   1  12
BRANCH   6  22
ATOM     22  O   UNL     1     172.781 144.004 155.191  1.00  0.00    -0.507 OA
ATOM     23  H   UNL     1     173.435 143.365 155.616  1.00  0.00     0.293 HD
ENDBRANCH   6  22
BRANCH   8  24
ATOM     24  O   UNL     1     173.493 142.123 150.850  1.00  0.00    -0.508 OA
ATOM     25  H   UNL     1     173.845 142.443 149.955  1.00  0.00     0.293 HD
ENDBRANCH   8  24
TORSDOF 5
ENDMDL
MODEL 8
REMARK VINA RESULT:    -7.020      3.933      7.217
REMARK INTER + INTRA:          -8.567
REMARK INTER:                  -8.254
REMARK INTRA:                  -0.314
REMARK UNBOUND:                -0.316
REMARK SMILES O=c1cc(-c2ccc(O)c(O)c2)oc2cc(O)cc(O)c12
REMARK SMILES IDX 4 1 3 2 2 3 1 4 21 5 19 6 18 7 16 8 15 9 14 10 13 11 5 12
REMARK SMILES IDX 6 13 7 14 8 15 12 16 10 17 9 18 11 20 20 22 17 24
REMARK H PARENT 9 19 11 21 20 23 17 25
REMARK Flexibility Score: inf
ROOT
ATOM      1  C   UNL     1     170.579 144.359 151.588  1.00  0.00     0.138 A 
ATOM      2  C   UNL     1     171.240 144.112 152.799  1.00  0.00     0.100 A 
ATOM      3  C   UNL     1     172.416 143.362 152.804  1.00  0.00     0.197 A 
ATOM      4  O   UNL     1     173.020 143.210 153.897  1.00  0.00    -0.289 OA
ATOM      5  C   UNL     1     172.916 142.828 151.591  1.00  0.00     0.107 A 
ATOM      6  C   UNL     1     174.082 142.015 151.480  1.00  0.00     0.134 A 
ATOM      7  C   UNL     1     174.545 141.641 150.212  1.00  0.00     0.093 A 
ATOM      8  C   UNL     1     173.852 142.000 149.057  1.00  0.00     0.123 A 
ATOM      9  C   UNL     1     172.679 142.751 149.157  1.00  0.00     0.094 A 
ATOM     10  C   UNL     1     172.211 143.168 150.405  1.00  0.00     0.146 A 
ATOM     11  O   UNL     1     171.098 143.893 150.456  1.00  0.00    -0.456 OA
ENDROOT
BRANCH   1  12
ATOM     12  C   UNL     1     169.324 145.150 151.526  1.00  0.00     0.021 A 
ATOM     13  C   UNL     1     168.578 145.354 152.698  1.00  0.00     0.016 A 
ATOM     14  C   UNL     1     167.399 146.099 152.667  1.00  0.00     0.051 A 
ATOM     15  C   UNL     1     166.942 146.665 151.472  1.00  0.00     0.157 A 
ATOM     16  C   UNL     1     168.874 145.730 150.326  1.00  0.00     0.062 A 
ATOM     17  C   UNL     1     167.693 146.483 150.287  1.00  0.00     0.158 A 
BRANCH  15  18
ATOM     18  O   UNL     1     165.752 147.395 151.508  1.00  0.00    -0.504 OA
ATOM     19  H   UNL     1     165.377 147.822 152.343  1.00  0.00     0.293 HD
ENDBRANCH  15  18
BRANCH  17  20
ATOM     20  O   UNL     1     167.309 147.030 149.061  1.00  0.00    -0.504 OA
ATOM     21  H   UNL     1     167.632 146.692 148.165  1.00  0.00     0.293 HD
ENDBRANCH  17  20
ENDBRANCH   1  12
BRANCH   6  22
ATOM     22  O   UNL     1     174.802 141.529 152.575  1.00  0.00    -0.507 OA
ATOM     23  H   UNL     1     175.683 141.041 152.516  1.00  0.00     0.293 HD
ENDBRANCH   6  22
BRANCH   8  24
ATOM     24  O   UNL     1     174.334 141.598 147.814  1.00  0.00    -0.508 OA
ATOM     25  H   UNL     1     174.761 140.689 147.680  1.00  0.00     0.293 HD
ENDBRANCH   8  24
TORSDOF 5
ENDMDL
MODEL 9
REMARK VINA RESULT:    -6.895      2.414      7.341
REMARK INTER + INTRA:          -8.420
REMARK INTER:                  -8.156
REMARK INTRA:                  -0.265
REMARK UNBOUND:                -0.316
REMARK SMILES O=c1cc(-c2ccc(O)c(O)c2)oc2cc(O)cc(O)c12
REMARK SMILES IDX 4 1 3 2 2 3 1 4 21 5 19 6 18 7 16 8 15 9 14 10 13 11 5 12
REMARK SMILES IDX 6 13 7 14 8 15 12 16 10 17 9 18 11 20 20 22 17 24
REMARK H PARENT 9 19 11 21 20 23 17 25
REMARK Flexibility Score: inf
ROOT
ATOM      1  C   UNL     1     169.679 145.236 151.656  1.00  0.00     0.138 A 
ATOM      2  C   UNL     1     168.420 145.621 152.137  1.00  0.00     0.100 A 
ATOM      3  C   UNL     1     168.229 145.796 153.508  1.00  0.00     0.197 A 
ATOM      4  O   UNL     1     167.106 146.202 153.904  1.00  0.00    -0.289 OA
ATOM      5  C   UNL     1     169.298 145.554 154.404  1.00  0.00     0.107 A 
ATOM      6  C   UNL     1     169.209 145.661 155.824  1.00  0.00     0.134 A 
ATOM      7  C   UNL     1     170.364 145.511 156.601  1.00  0.00     0.093 A 
ATOM      8  C   UNL     1     171.591 145.199 156.017  1.00  0.00     0.123 A 
ATOM      9  C   UNL     1     171.679 145.039 154.633  1.00  0.00     0.094 A 
ATOM     10  C   UNL     1     170.552 145.216 153.828  1.00  0.00     0.146 A 
ATOM     11  O   UNL     1     170.681 145.069 152.513  1.00  0.00    -0.456 OA
ENDROOT
BRANCH   1  12
ATOM     12  C   UNL     1     169.936 145.034 150.207  1.00  0.00     0.021 A 
ATOM     13  C   UNL     1     170.144 143.735 149.717  1.00  0.00     0.016 A 
ATOM     14  C   UNL     1     170.381 143.519 148.359  1.00  0.00     0.051 A 
ATOM     15  C   UNL     1     170.408 144.589 147.459  1.00  0.00     0.157 A 
ATOM     16  C   UNL     1     169.948 146.110 149.301  1.00  0.00     0.062 A 
ATOM     17  C   UNL     1     170.182 145.902 147.935  1.00  0.00     0.158 A 
BRANCH  15  18
ATOM     18  O   UNL     1     170.656 144.305 146.114  1.00  0.00    -0.504 OA
ATOM     19  H   UNL     1     170.079 144.633 145.353  1.00  0.00     0.293 HD
ENDBRANCH  15  18
BRANCH  17  20
ATOM     20  O   UNL     1     170.177 147.017 147.095  1.00  0.00    -0.504 OA
ATOM     21  H   UNL     1     169.466 147.198 146.401  1.00  0.00     0.293 HD
ENDBRANCH  17  20
ENDBRANCH   1  12
BRANCH   6  22
ATOM     22  O   UNL     1     168.016 145.887 156.516  1.00  0.00    -0.507 OA
ATOM     23  H   UNL     1     167.932 146.433 157.360  1.00  0.00     0.293 HD
ENDBRANCH   6  22
BRANCH   8  24
ATOM     24  O   UNL     1     172.716 145.042 156.823  1.00  0.00    -0.508 OA
ATOM     25  H   UNL     1     173.653 145.122 156.446  1.00  0.00     0.293 HD
ENDBRANCH   8  24
TORSDOF 5
ENDMDL
