MODEL 1
REMARK VINA RESULT:    -5.769      0.000      0.000
REMARK INTER + INTRA:          -8.719
REMARK INTER:                  -7.793
REMARK INTRA:                  -0.926
REMARK UNBOUND:                -0.926
REMARK SMILES CC(=O)CCC=C(C)CCC=C(C)C
REMARK SMILES IDX 7 1 6 2 8 3 9 4 10 5 11 6 13 7 12 8 14 9 5 10 4 11 2 12 3 13
REMARK SMILES IDX 1 14
REMARK H PARENT
REMARK Flexibility Score: inf
ROOT
ATOM      1  C   UNL     1     -12.874 -19.652  29.458  1.00  0.00    -0.077 C 
ATOM      2  C   UNL     1     -12.015 -18.705  29.018  1.00  0.00    -0.028 C 
ATOM      3  C   UNL     1     -13.993 -20.177  28.589  1.00  0.00     0.039 C 
ENDROOT
BRANCH   1   4
ATOM      4  C   UNL     1     -12.702 -20.208  30.855  1.00  0.00     0.034 C 
BRANCH   4   5
ATOM      5  C   UNL     1     -12.258 -19.112  31.830  1.00  0.00     0.032 C 
BRANCH   5   6
ATOM      6  C   UNL     1     -13.333 -18.065  32.004  1.00  0.00    -0.028 C 
ATOM      7  C   UNL     1     -14.212 -15.814  32.456  1.00  0.00     0.039 C 
ATOM      8  C   UNL     1     -13.064 -16.778  32.307  1.00  0.00    -0.080 C 
ATOM      9  C   UNL     1     -11.647 -16.290  32.497  1.00  0.00     0.039 C 
ENDBRANCH   5   6
ENDBRANCH   4   5
ENDBRANCH   1   4
BRANCH   2  10
ATOM     10  C   UNL     1     -12.095 -18.038  27.668  1.00  0.00     0.035 C 
BRANCH  10  11
ATOM     11  C   UNL     1     -11.109 -16.869  27.580  1.00  0.00     0.079 C 
BRANCH  11  12
ATOM     12  C   UNL     1     -11.412 -15.837  28.631  1.00  0.00     0.130 C 
ATOM     13  O   UNL     1     -10.516 -15.422  29.350  1.00  0.00    -0.300 OA
ATOM     14  C   UNL     1     -12.810 -15.330  28.816  1.00  0.00     0.087 C 
ENDBRANCH  11  12
ENDBRANCH  10  11
ENDBRANCH   2  10
TORSDOF 6
ENDMDL
MODEL 2
REMARK VINA RESULT:    -5.649      1.955      3.927
REMARK INTER + INTRA:          -8.556
REMARK INTER:                  -7.921
REMARK INTRA:                  -0.635
REMARK UNBOUND:                -0.926
REMARK SMILES CC(=O)CCC=C(C)CCC=C(C)C
REMARK SMILES IDX 7 1 6 2 8 3 9 4 10 5 11 6 13 7 12 8 14 9 5 10 4 11 2 12 3 13
REMARK SMILES IDX 1 14
REMARK H PARENT
REMARK Flexibility Score: inf
ROOT
ATOM      1  C   UNL     1     -12.728 -17.243  27.716  1.00  0.00    -0.077 C 
ATOM      2  C   UNL     1     -13.418 -18.233  28.327  1.00  0.00    -0.028 C 
ATOM      3  C   UNL     1     -11.313 -17.444  27.225  1.00  0.00     0.039 C 
ENDROOT
BRANCH   1   4
ATOM      4  C   UNL     1     -13.397 -15.902  27.509  1.00  0.00     0.034 C 
BRANCH   4   5
ATOM      5  C   UNL     1     -13.236 -15.013  28.747  1.00  0.00     0.032 C 
BRANCH   5   6
ATOM      6  C   UNL     1     -12.912 -15.833  29.972  1.00  0.00    -0.028 C 
ATOM      7  C   UNL     1     -13.121 -16.524  32.323  1.00  0.00     0.039 C 
ATOM      8  C   UNL     1     -13.519 -15.648  31.163  1.00  0.00    -0.080 C 
ATOM      9  C   UNL     1     -14.580 -14.590  31.354  1.00  0.00     0.039 C 
ENDBRANCH   5   6
ENDBRANCH   4   5
ENDBRANCH   1   4
BRANCH   2  10
ATOM     10  C   UNL     1     -12.860 -19.601  28.632  1.00  0.00     0.035 C 
BRANCH  10  11
ATOM     11  C   UNL     1     -13.254 -20.045  30.044  1.00  0.00     0.079 C 
BRANCH  11  12
ATOM     12  C   UNL     1     -12.092 -19.906  30.989  1.00  0.00     0.130 C 
ATOM     13  O   UNL     1     -12.149 -20.412  32.099  1.00  0.00    -0.300 OA
ATOM     14  C   UNL     1     -10.874 -19.132  30.586  1.00  0.00     0.087 C 
ENDBRANCH  11  12
ENDBRANCH  10  11
ENDBRANCH   2  10
TORSDOF 6
ENDMDL
MODEL 3
REMARK VINA RESULT:    -5.625      1.634      3.398
REMARK INTER + INTRA:          -8.525
REMARK INTER:                  -7.645
REMARK INTRA:                  -0.880
REMARK UNBOUND:                -0.926
REMARK SMILES CC(=O)CCC=C(C)CCC=C(C)C
REMARK SMILES IDX 7 1 6 2 8 3 9 4 10 5 11 6 13 7 12 8 14 9 5 10 4 11 2 12 3 13
REMARK SMILES IDX 1 14
REMARK H PARENT
REMARK Flexibility Score: inf
ROOT
ATOM      1  C   UNL     1     -12.808 -15.537  30.076  1.00  0.00    -0.077 C 
ATOM      2  C   UNL     1     -11.498 -15.871  30.126  1.00  0.00    -0.028 C 
ATOM      3  C   UNL     1     -13.464 -15.076  28.794  1.00  0.00     0.039 C 
ENDROOT
BRANCH   1   4
ATOM      4  C   UNL     1     -13.641 -15.639  31.335  1.00  0.00     0.034 C 
BRANCH   4   5
ATOM      5  C   UNL     1     -13.028 -16.645  32.317  1.00  0.00     0.032 C 
BRANCH   5   6
ATOM      6  C   UNL     1     -13.263 -18.065  31.863  1.00  0.00    -0.028 C 
ATOM      7  C   UNL     1     -12.616 -20.366  31.283  1.00  0.00     0.039 C 
ATOM      8  C   UNL     1     -12.271 -18.973  31.743  1.00  0.00    -0.080 C 
ATOM      9  C   UNL     1     -10.836 -18.621  32.058  1.00  0.00     0.039 C 
ENDBRANCH   5   6
ENDBRANCH   4   5
ENDBRANCH   1   4
BRANCH   2  10
ATOM     10  C   UNL     1     -10.547 -15.778  28.959  1.00  0.00     0.035 C 
BRANCH  10  11
ATOM     11  C   UNL     1     -10.224 -17.171  28.410  1.00  0.00     0.079 C 
BRANCH  11  12
ATOM     12  C   UNL     1     -11.302 -17.637  27.471  1.00  0.00     0.130 C 
ATOM     13  O   UNL     1     -12.218 -18.327  27.891  1.00  0.00    -0.300 OA
ATOM     14  C   UNL     1     -11.249 -17.277  26.017  1.00  0.00     0.087 C 
ENDBRANCH  11  12
ENDBRANCH  10  11
ENDBRANCH   2  10
TORSDOF 6
ENDMDL
MODEL 4
REMARK VINA RESULT:    -5.588      1.783      4.085
REMARK INTER + INTRA:          -8.475
REMARK INTER:                  -7.610
REMARK INTRA:                  -0.865
REMARK UNBOUND:                -0.926
REMARK SMILES CC(=O)CCC=C(C)CCC=C(C)C
REMARK SMILES IDX 7 1 6 2 8 3 9 4 10 5 11 6 13 7 12 8 14 9 5 10 4 11 2 12 3 13
REMARK SMILES IDX 1 14
REMARK H PARENT
REMARK Flexibility Score: inf
ROOT
ATOM      1  C   UNL     1     -12.729 -19.191  30.649  1.00  0.00    -0.077 C 
ATOM      2  C   UNL     1     -13.391 -18.059  30.981  1.00  0.00    -0.028 C 
ATOM      3  C   UNL     1     -12.097 -20.080  31.695  1.00  0.00     0.039 C 
ENDROOT
BRANCH   1   4
ATOM      4  C   UNL     1     -12.628 -19.582  29.191  1.00  0.00     0.034 C 
BRANCH   4   5
ATOM      5  C   UNL     1     -12.435 -18.346  28.304  1.00  0.00     0.032 C 
BRANCH   5   6
ATOM      6  C   UNL     1     -11.215 -17.559  28.719  1.00  0.00    -0.028 C 
ATOM      7  C   UNL     1      -9.955 -15.536  29.325  1.00  0.00     0.039 C 
ATOM      8  C   UNL     1     -11.230 -16.223  28.910  1.00  0.00    -0.080 C 
ATOM      9  C   UNL     1     -12.490 -15.412  28.716  1.00  0.00     0.039 C 
ENDBRANCH   5   6
ENDBRANCH   4   5
ENDBRANCH   1   4
BRANCH   2  10
ATOM     10  C   UNL     1     -13.532 -17.533  32.387  1.00  0.00     0.035 C 
BRANCH  10  11
ATOM     11  C   UNL     1     -12.780 -16.208  32.550  1.00  0.00     0.079 C 
BRANCH  11  12
ATOM     12  C   UNL     1     -13.734 -15.089  32.862  1.00  0.00     0.130 C 
ATOM     13  O   UNL     1     -13.682 -14.532  33.948  1.00  0.00    -0.300 OA
ATOM     14  C   UNL     1     -14.762 -14.666  31.857  1.00  0.00     0.087 C 
ENDBRANCH  11  12
ENDBRANCH  10  11
ENDBRANCH   2  10
TORSDOF 6
ENDMDL
MODEL 5
REMARK VINA RESULT:    -5.470      1.726      2.615
REMARK INTER + INTRA:          -8.315
REMARK INTER:                  -7.212
REMARK INTRA:                  -1.102
REMARK UNBOUND:                -0.926
REMARK SMILES CC(=O)CCC=C(C)CCC=C(C)C
REMARK SMILES IDX 7 1 6 2 8 3 9 4 10 5 11 6 13 7 12 8 14 9 5 10 4 11 2 12 3 13
REMARK SMILES IDX 1 14
REMARK H PARENT
REMARK Flexibility Score: inf
ROOT
ATOM      1  C   UNL     1     -11.816 -18.487  31.188  1.00  0.00    -0.077 C 
ATOM      2  C   UNL     1     -11.463 -18.239  29.906  1.00  0.00    -0.028 C 
ATOM      3  C   UNL     1     -12.905 -19.475  31.537  1.00  0.00     0.039 C 
ENDROOT
BRANCH   1   4
ATOM      4  C   UNL     1     -11.093 -17.763  32.303  1.00  0.00     0.034 C 
BRANCH   4   5
ATOM      5  C   UNL     1     -11.328 -16.250  32.215  1.00  0.00     0.032 C 
BRANCH   5   6
ATOM      6  C   UNL     1     -12.658 -15.867  32.817  1.00  0.00    -0.028 C 
ATOM      7  C   UNL     1     -14.987 -15.078  32.782  1.00  0.00     0.039 C 
ATOM      8  C   UNL     1     -13.702 -15.433  32.080  1.00  0.00    -0.080 C 
ATOM      9  C   UNL     1     -13.606 -15.298  30.578  1.00  0.00     0.039 C 
ENDBRANCH   5   6
ENDBRANCH   4   5
ENDBRANCH   1   4
BRANCH   2  10
ATOM     10  C   UNL     1     -12.126 -18.859  28.702  1.00  0.00     0.035 C 
BRANCH  10  11
ATOM     11  C   UNL     1     -13.275 -17.979  28.201  1.00  0.00     0.079 C 
BRANCH  11  12
ATOM     12  C   UNL     1     -12.799 -17.043  27.125  1.00  0.00     0.130 C 
ATOM     13  O   UNL     1     -13.495 -16.096  26.793  1.00  0.00    -0.300 OA
ATOM     14  C   UNL     1     -11.486 -17.276  26.443  1.00  0.00     0.087 C 
ENDBRANCH  11  12
ENDBRANCH  10  11
ENDBRANCH   2  10
TORSDOF 6
ENDMDL
MODEL 6
REMARK VINA RESULT:    -5.385      2.126      4.393
REMARK INTER + INTRA:          -8.200
REMARK INTER:                  -7.289
REMARK INTRA:                  -0.911
REMARK UNBOUND:                -0.926
REMARK SMILES CC(=O)CCC=C(C)CCC=C(C)C
REMARK SMILES IDX 7 1 6 2 8 3 9 4 10 5 11 6 13 7 12 8 14 9 5 10 4 11 2 12 3 13
REMARK SMILES IDX 1 14
REMARK H PARENT
REMARK Flexibility Score: inf
ROOT
ATOM      1  C   UNL     1     -11.948 -18.592  30.654  1.00  0.00    -0.077 C 
ATOM      2  C   UNL     1     -12.123 -17.447  31.353  1.00  0.00    -0.028 C 
ATOM      3  C   UNL     1     -12.896 -19.760  30.789  1.00  0.00     0.039 C 
ENDROOT
BRANCH   1   4
ATOM      4  C   UNL     1     -10.776 -18.699  29.703  1.00  0.00     0.034 C 
BRANCH   4   5
ATOM      5  C   UNL     1     -10.628 -17.421  28.870  1.00  0.00     0.032 C 
BRANCH   5   6
ATOM      6  C   UNL     1     -11.613 -17.394  27.727  1.00  0.00    -0.028 C 
ATOM      7  C   UNL     1     -13.504 -16.518  26.421  1.00  0.00     0.039 C 
ATOM      8  C   UNL     1     -12.572 -16.452  27.603  1.00  0.00    -0.080 C 
ATOM      9  C   UNL     1     -12.726 -15.343  28.618  1.00  0.00     0.039 C 
ENDBRANCH   5   6
ENDBRANCH   4   5
ENDBRANCH   1   4
BRANCH   2  10
ATOM     10  C   UNL     1     -13.222 -17.221  32.361  1.00  0.00     0.035 C 
BRANCH  10  11
ATOM     11  C   UNL     1     -13.295 -15.745  32.762  1.00  0.00     0.079 C 
BRANCH  11  12
ATOM     12  C   UNL     1     -14.641 -15.166  32.422  1.00  0.00     0.130 C 
ATOM     13  O   UNL     1     -15.615 -15.455  33.100  1.00  0.00    -0.300 OA
ATOM     14  C   UNL     1     -14.799 -14.254  31.244  1.00  0.00     0.087 C 
ENDBRANCH  11  12
ENDBRANCH  10  11
ENDBRANCH   2  10
TORSDOF 6
ENDMDL
MODEL 7
REMARK VINA RESULT:    -5.368      1.681      3.749
REMARK INTER + INTRA:          -8.178
REMARK INTER:                  -6.922
REMARK INTRA:                  -1.255
REMARK UNBOUND:                -0.926
REMARK SMILES CC(=O)CCC=C(C)CCC=C(C)C
REMARK SMILES IDX 7 1 6 2 8 3 9 4 10 5 11 6 13 7 12 8 14 9 5 10 4 11 2 12 3 13
REMARK SMILES IDX 1 14
REMARK H PARENT
REMARK Flexibility Score: inf
ROOT
ATOM      1  C   UNL     1     -12.157 -19.159  30.541  1.00  0.00    -0.077 C 
ATOM      2  C   UNL     1     -10.915 -18.700  30.815  1.00  0.00    -0.028 C 
ATOM      3  C   UNL     1     -13.197 -19.340  31.623  1.00  0.00     0.039 C 
ENDROOT
BRANCH   1   4
ATOM      4  C   UNL     1     -12.519 -19.490  29.109  1.00  0.00     0.034 C 
BRANCH   4   5
ATOM      5  C   UNL     1     -12.032 -18.393  28.155  1.00  0.00     0.032 C 
BRANCH   5   6
ATOM      6  C   UNL     1     -12.929 -17.180  28.211  1.00  0.00    -0.028 C 
ATOM      7  C   UNL     1     -13.470 -14.812  28.592  1.00  0.00     0.039 C 
ATOM      8  C   UNL     1     -12.490 -15.956  28.571  1.00  0.00    -0.080 C 
ATOM      9  C   UNL     1     -11.047 -15.714  28.949  1.00  0.00     0.039 C 
ENDBRANCH   5   6
ENDBRANCH   4   5
ENDBRANCH   1   4
BRANCH   2  10
ATOM     10  C   UNL     1     -10.412 -18.370  32.198  1.00  0.00     0.035 C 
BRANCH  10  11
ATOM     11  C   UNL     1      -9.891 -16.931  32.258  1.00  0.00     0.079 C 
BRANCH  11  12
ATOM     12  C   UNL     1     -10.859 -16.044  32.990  1.00  0.00     0.130 C 
ATOM     13  O   UNL     1     -10.475 -15.377  33.938  1.00  0.00    -0.300 OA
ATOM     14  C   UNL     1     -12.299 -15.990  32.578  1.00  0.00     0.087 C 
ENDBRANCH  11  12
ENDBRANCH  10  11
ENDBRANCH   2  10
TORSDOF 6
ENDMDL
MODEL 8
REMARK VINA RESULT:    -5.234      2.014      2.932
REMARK INTER + INTRA:          -7.997
REMARK INTER:                  -6.953
REMARK INTRA:                  -1.044
REMARK UNBOUND:                -0.926
REMARK SMILES CC(=O)CCC=C(C)CCC=C(C)C
REMARK SMILES IDX 7 1 6 2 8 3 9 4 10 5 11 6 13 7 12 8 14 9 5 10 4 11 2 12 3 13
REMARK SMILES IDX 1 14
REMARK H PARENT
REMARK Flexibility Score: inf
ROOT
ATOM      1  C   UNL     1     -10.213 -17.035  30.435  1.00  0.00    -0.077 C 
ATOM      2  C   UNL     1     -10.560 -16.380  29.303  1.00  0.00    -0.028 C 
ATOM      3  C   UNL     1     -10.142 -18.544  30.491  1.00  0.00     0.039 C 
ENDROOT
BRANCH   1   4
ATOM      4  C   UNL     1      -9.875 -16.234  31.673  1.00  0.00     0.034 C 
BRANCH   4   5
ATOM      5  C   UNL     1     -10.833 -16.573  32.822  1.00  0.00     0.032 C 
BRANCH   5   6
ATOM      6  C   UNL     1     -12.088 -15.737  32.753  1.00  0.00    -0.028 C 
ATOM      7  C   UNL     1     -14.476 -15.314  32.346  1.00  0.00     0.039 C 
ATOM      8  C   UNL     1     -13.285 -16.236  32.380  1.00  0.00    -0.080 C 
ATOM      9  C   UNL     1     -13.451 -17.689  31.998  1.00  0.00     0.039 C 
ENDBRANCH   5   6
ENDBRANCH   4   5
ENDBRANCH   1   4
BRANCH   2  10
ATOM     10  C   UNL     1     -10.957 -17.053  28.013  1.00  0.00     0.035 C 
BRANCH  10  11
ATOM     11  C   UNL     1     -12.460 -17.350  27.996  1.00  0.00     0.079 C 
BRANCH  11  12
ATOM     12  C   UNL     1     -13.234 -16.151  27.523  1.00  0.00     0.130 C 
ATOM     13  O   UNL     1     -13.664 -16.118  26.380  1.00  0.00    -0.300 OA
ATOM     14  C   UNL     1     -13.463 -14.986  28.437  1.00  0.00     0.087 C 
ENDBRANCH  11  12
ENDBRANCH  10  11
ENDBRANCH   2  10
TORSDOF 6
ENDMDL
