MODEL 1
REMARK VINA RESULT:    -5.428      0.000      0.000
REMARK INTER + INTRA:          -5.428
REMARK INTER:                  -5.428
REMARK INTRA:                   0.000
REMARK UNBOUND:                 0.000
REMARK SMILES CC(C)=C1CC[C@H](C)CC1=O
REMARK SMILES IDX 8 1 7 2 6 3 5 4 4 5 2 6 1 7 3 8 10 9 11 10 9 11
REMARK H PARENT
REMARK Flexibility Score: inf
ROOT
ATOM      1  C   UNL     1     -12.410 -20.915  31.498  1.00  0.00     0.008 C 
ATOM      2  C   UNL     1     -12.077 -19.811  30.488  1.00  0.00    -0.006 C 
ATOM      3  C   UNL     1     -12.978 -19.924  29.247  1.00  0.00     0.008 C 
ATOM      4  C   UNL     1     -12.591 -18.890  28.182  1.00  0.00     0.039 C 
ATOM      5  C   UNL     1     -12.535 -17.473  28.736  1.00  0.00    -0.006 C 
ATOM      6  C   UNL     1     -12.847 -16.395  27.959  1.00  0.00    -0.070 C 
ATOM      7  C   UNL     1     -13.244 -16.561  26.510  1.00  0.00     0.039 C 
ATOM      8  C   UNL     1     -12.849 -14.988  28.513  1.00  0.00     0.039 C 
ATOM      9  C   UNL     1     -12.010 -17.334  30.127  1.00  0.00     0.159 C 
ATOM     10  O   UNL     1     -11.365 -16.312  30.485  1.00  0.00    -0.295 OA
ATOM     11  C   UNL     1     -12.242 -18.426  31.131  1.00  0.00     0.084 C 
ENDROOT
TORSDOF 0
ENDMDL
MODEL 2
REMARK VINA RESULT:    -5.412      1.811      4.545
REMARK INTER + INTRA:          -5.412
REMARK INTER:                  -5.412
REMARK INTRA:                   0.000
REMARK UNBOUND:                 0.000
REMARK SMILES CC(C)=C1CC[C@H](C)CC1=O
REMARK SMILES IDX 8 1 7 2 6 3 5 4 4 5 2 6 1 7 3 8 10 9 11 10 9 11
REMARK H PARENT
REMARK Flexibility Score: inf
ROOT
ATOM      1  C   UNL     1     -13.433 -16.511  26.391  1.00  0.00     0.008 C 
ATOM      2  C   UNL     1     -12.632 -17.429  27.323  1.00  0.00    -0.006 C 
ATOM      3  C   UNL     1     -11.975 -16.615  28.449  1.00  0.00     0.008 C 
ATOM      4  C   UNL     1     -11.087 -17.502  29.332  1.00  0.00     0.039 C 
ATOM      5  C   UNL     1     -11.822 -18.730  29.851  1.00  0.00    -0.006 C 
ATOM      6  C   UNL     1     -11.522 -19.274  31.067  1.00  0.00    -0.070 C 
ATOM      7  C   UNL     1     -10.435 -18.691  31.941  1.00  0.00     0.039 C 
ATOM      8  C   UNL     1     -12.282 -20.460  31.618  1.00  0.00     0.039 C 
ATOM      9  C   UNL     1     -12.793 -19.361  28.908  1.00  0.00     0.159 C 
ATOM     10  O   UNL     1     -13.000 -20.604  28.915  1.00  0.00    -0.295 OA
ATOM     11  C   UNL     1     -13.542 -18.513  27.922  1.00  0.00     0.084 C 
ENDROOT
TORSDOF 0
ENDMDL
MODEL 3
REMARK VINA RESULT:    -5.333      2.683      3.174
REMARK INTER + INTRA:          -5.333
REMARK INTER:                  -5.333
REMARK INTRA:                   0.000
REMARK UNBOUND:                 0.000
REMARK SMILES CC(C)=C1CC[C@H](C)CC1=O
REMARK SMILES IDX 8 1 7 2 6 3 5 4 4 5 2 6 1 7 3 8 10 9 11 10 9 11
REMARK H PARENT
REMARK Flexibility Score: inf
ROOT
ATOM      1  C   UNL     1     -10.245 -16.099  32.429  1.00  0.00     0.008 C 
ATOM      2  C   UNL     1     -10.540 -15.892  30.938  1.00  0.00    -0.006 C 
ATOM      3  C   UNL     1      -9.907 -17.015  30.101  1.00  0.00     0.008 C 
ATOM      4  C   UNL     1     -10.105 -16.769  28.599  1.00  0.00     0.039 C 
ATOM      5  C   UNL     1     -11.562 -16.518  28.235  1.00  0.00    -0.006 C 
ATOM      6  C   UNL     1     -12.066 -16.901  27.025  1.00  0.00    -0.070 C 
ATOM      7  C   UNL     1     -11.195 -17.573  25.989  1.00  0.00     0.039 C 
ATOM      8  C   UNL     1     -13.525 -16.708  26.674  1.00  0.00     0.039 C 
ATOM      9  C   UNL     1     -12.360 -15.734  29.225  1.00  0.00     0.159 C 
ATOM     10  O   UNL     1     -13.291 -14.969  28.857  1.00  0.00    -0.295 OA
ATOM     11  C   UNL     1     -12.055 -15.843  30.691  1.00  0.00     0.084 C 
ENDROOT
TORSDOF 0
ENDMDL
MODEL 4
REMARK VINA RESULT:    -5.151      1.532      2.428
REMARK INTER + INTRA:          -5.151
REMARK INTER:                  -5.151
REMARK INTRA:                   0.000
REMARK UNBOUND:                 0.000
REMARK SMILES CC(C)=C1CC[C@H](C)CC1=O
REMARK SMILES IDX 8 1 7 2 6 3 5 4 4 5 2 6 1 7 3 8 10 9 11 10 9 11
REMARK H PARENT
REMARK Flexibility Score: inf
ROOT
ATOM      1  C   UNL     1     -12.338 -20.968  31.668  1.00  0.00     0.008 C 
ATOM      2  C   UNL     1     -12.897 -19.777  30.881  1.00  0.00    -0.006 C 
ATOM      3  C   UNL     1     -12.107 -18.498  31.203  1.00  0.00     0.008 C 
ATOM      4  C   UNL     1     -12.717 -17.276  30.503  1.00  0.00     0.039 C 
ATOM      5  C   UNL     1     -12.897 -17.490  29.007  1.00  0.00    -0.006 C 
ATOM      6  C   UNL     1     -12.794 -16.452  28.125  1.00  0.00    -0.070 C 
ATOM      7  C   UNL     1     -12.515 -15.045  28.599  1.00  0.00     0.039 C 
ATOM      8  C   UNL     1     -12.915 -16.662  26.632  1.00  0.00     0.039 C 
ATOM      9  C   UNL     1     -13.303 -18.864  28.585  1.00  0.00     0.159 C 
ATOM     10  O   UNL     1     -14.034 -19.049  27.575  1.00  0.00    -0.295 OA
ATOM     11  C   UNL     1     -12.846 -20.058  29.371  1.00  0.00     0.084 C 
ENDROOT
TORSDOF 0
ENDMDL
MODEL 5
REMARK VINA RESULT:    -5.077      1.796      2.875
REMARK INTER + INTRA:          -5.077
REMARK INTER:                  -5.077
REMARK INTRA:                   0.000
REMARK UNBOUND:                 0.000
REMARK SMILES CC(C)=C1CC[C@H](C)CC1=O
REMARK SMILES IDX 8 1 7 2 6 3 5 4 4 5 2 6 1 7 3 8 10 9 11 10 9 11
REMARK H PARENT
REMARK Flexibility Score: inf
ROOT
ATOM      1  C   UNL     1     -14.000 -20.465  28.624  1.00  0.00     0.008 C 
ATOM      2  C   UNL     1     -12.730 -19.691  28.999  1.00  0.00    -0.006 C 
ATOM      3  C   UNL     1     -12.649 -18.372  28.212  1.00  0.00     0.008 C 
ATOM      4  C   UNL     1     -11.335 -17.633  28.499  1.00  0.00     0.039 C 
ATOM      5  C   UNL     1     -11.087 -17.441  29.989  1.00  0.00    -0.006 C 
ATOM      6  C   UNL     1     -10.417 -16.349  30.461  1.00  0.00    -0.070 C 
ATOM      7  C   UNL     1      -9.879 -15.293  29.523  1.00  0.00     0.039 C 
ATOM      8  C   UNL     1     -10.212 -16.119  31.941  1.00  0.00     0.039 C 
ATOM      9  C   UNL     1     -11.511 -18.566  30.875  1.00  0.00     0.159 C 
ATOM     10  O   UNL     1     -10.885 -18.837  31.934  1.00  0.00    -0.295 OA
ATOM     11  C   UNL     1     -12.701 -19.404  30.508  1.00  0.00     0.084 C 
ENDROOT
TORSDOF 0
ENDMDL
MODEL 6
REMARK VINA RESULT:    -5.074      1.912      4.324
REMARK INTER + INTRA:          -5.074
REMARK INTER:                  -5.074
REMARK INTRA:                   0.000
REMARK UNBOUND:                 0.000
REMARK SMILES CC(C)=C1CC[C@H](C)CC1=O
REMARK SMILES IDX 8 1 7 2 6 3 5 4 4 5 2 6 1 7 3 8 10 9 11 10 9 11
REMARK H PARENT
REMARK Flexibility Score: inf
ROOT
ATOM      1  C   UNL     1      -9.876 -14.923  29.760  1.00  0.00     0.008 C 
ATOM      2  C   UNL     1     -10.238 -16.401  29.575  1.00  0.00    -0.006 C 
ATOM      3  C   UNL     1     -10.446 -17.081  30.938  1.00  0.00     0.008 C 
ATOM      4  C   UNL     1     -10.709 -18.584  30.776  1.00  0.00     0.039 C 
ATOM      5  C   UNL     1     -11.839 -18.877  29.798  1.00  0.00    -0.006 C 
ATOM      6  C   UNL     1     -12.649 -19.965  29.956  1.00  0.00    -0.070 C 
ATOM      7  C   UNL     1     -12.447 -20.934  31.098  1.00  0.00     0.039 C 
ATOM      8  C   UNL     1     -13.809 -20.236  29.024  1.00  0.00     0.039 C 
ATOM      9  C   UNL     1     -11.926 -17.978  28.609  1.00  0.00     0.159 C 
ATOM     10  O   UNL     1     -12.344 -18.401  27.498  1.00  0.00    -0.295 OA
ATOM     11  C   UNL     1     -11.506 -16.542  28.720  1.00  0.00     0.084 C 
ENDROOT
TORSDOF 0
ENDMDL
MODEL 7
REMARK VINA RESULT:    -5.047      1.552      4.574
REMARK INTER + INTRA:          -5.047
REMARK INTER:                  -5.047
REMARK INTRA:                   0.000
REMARK UNBOUND:                 0.000
REMARK SMILES CC(C)=C1CC[C@H](C)CC1=O
REMARK SMILES IDX 8 1 7 2 6 3 5 4 4 5 2 6 1 7 3 8 10 9 11 10 9 11
REMARK H PARENT
REMARK Flexibility Score: inf
ROOT
ATOM      1  C   UNL     1     -13.721 -13.929  28.517  1.00  0.00     0.008 C 
ATOM      2  C   UNL     1     -13.037 -15.248  28.899  1.00  0.00    -0.006 C 
ATOM      3  C   UNL     1     -13.473 -15.696  30.303  1.00  0.00     0.008 C 
ATOM      4  C   UNL     1     -12.722 -16.959  30.743  1.00  0.00     0.039 C 
ATOM      5  C   UNL     1     -12.813 -18.080  29.717  1.00  0.00    -0.006 C 
ATOM      6  C   UNL     1     -12.815 -19.391  30.098  1.00  0.00    -0.070 C 
ATOM      7  C   UNL     1     -12.709 -19.785  31.554  1.00  0.00     0.039 C 
ATOM      8  C   UNL     1     -12.962 -20.512  29.093  1.00  0.00     0.039 C 
ATOM      9  C   UNL     1     -12.781 -17.662  28.284  1.00  0.00     0.159 C 
ATOM     10  O   UNL     1     -12.264 -18.395  27.399  1.00  0.00    -0.295 OA
ATOM     11  C   UNL     1     -13.367 -16.342  27.873  1.00  0.00     0.084 C 
ENDROOT
TORSDOF 0
ENDMDL
MODEL 8
REMARK VINA RESULT:    -5.030      1.626      3.093
REMARK INTER + INTRA:          -5.030
REMARK INTER:                  -5.030
REMARK INTRA:                   0.000
REMARK UNBOUND:                 0.000
REMARK SMILES CC(C)=C1CC[C@H](C)CC1=O
REMARK SMILES IDX 8 1 7 2 6 3 5 4 4 5 2 6 1 7 3 8 10 9 11 10 9 11
REMARK H PARENT
REMARK Flexibility Score: inf
ROOT
ATOM      1  C   UNL     1     -13.953 -20.643  28.306  1.00  0.00     0.008 C 
ATOM      2  C   UNL     1     -13.485 -19.356  28.995  1.00  0.00    -0.006 C 
ATOM      3  C   UNL     1     -12.496 -19.678  30.127  1.00  0.00     0.008 C 
ATOM      4  C   UNL     1     -12.095 -18.411  30.894  1.00  0.00     0.039 C 
ATOM      5  C   UNL     1     -11.592 -17.307  29.974  1.00  0.00    -0.006 C 
ATOM      6  C   UNL     1     -10.639 -16.420  30.388  1.00  0.00    -0.070 C 
ATOM      7  C   UNL     1     -10.058 -16.485  31.781  1.00  0.00     0.039 C 
ATOM      8  C   UNL     1     -10.091 -15.354  29.465  1.00  0.00     0.039 C 
ATOM      9  C   UNL     1     -12.281 -17.187  28.655  1.00  0.00     0.159 C 
ATOM     10  O   UNL     1     -12.422 -16.070  28.089  1.00  0.00    -0.295 OA
ATOM     11  C   UNL     1     -12.828 -18.410  27.979  1.00  0.00     0.084 C 
ENDROOT
TORSDOF 0
ENDMDL
MODEL 9
REMARK VINA RESULT:    -4.995      1.431      4.089
REMARK INTER + INTRA:          -4.995
REMARK INTER:                  -4.995
REMARK INTRA:                   0.000
REMARK UNBOUND:                 0.000
REMARK SMILES CC(C)=C1CC[C@H](C)CC1=O
REMARK SMILES IDX 8 1 7 2 6 3 5 4 4 5 2 6 1 7 3 8 10 9 11 10 9 11
REMARK H PARENT
REMARK Flexibility Score: inf
ROOT
ATOM      1  C   UNL     1     -11.728 -17.233  26.002  1.00  0.00     0.008 C 
ATOM      2  C   UNL     1     -11.934 -17.363  27.516  1.00  0.00    -0.006 C 
ATOM      3  C   UNL     1     -12.505 -18.746  27.867  1.00  0.00     0.008 C 
ATOM      4  C   UNL     1     -12.813 -18.857  29.366  1.00  0.00     0.039 C 
ATOM      5  C   UNL     1     -11.623 -18.478  30.236  1.00  0.00    -0.006 C 
ATOM      6  C   UNL     1     -11.417 -19.067  31.451  1.00  0.00    -0.070 C 
ATOM      7  C   UNL     1     -12.372 -20.108  31.990  1.00  0.00     0.039 C 
ATOM      8  C   UNL     1     -10.209 -18.740  32.299  1.00  0.00     0.039 C 
ATOM      9  C   UNL     1     -10.776 -17.354  29.737  1.00  0.00     0.159 C 
ATOM     10  O   UNL     1     -10.195 -16.569  30.532  1.00  0.00    -0.295 OA
ATOM     11  C   UNL     1     -10.609 -17.138  28.261  1.00  0.00     0.084 C 
ENDROOT
TORSDOF 0
ENDMDL
