MODEL 1
REMARK VINA RESULT:    -6.859      0.000      0.000
REMARK INTER + INTRA:         -12.196
REMARK INTER:                 -10.468
REMARK INTRA:                  -1.728
REMARK UNBOUND:                -1.728
REMARK SMILES CC(=O)CCC=C(C)CCC=C(C)CCC=C(C)C
REMARK SMILES IDX 10 1 11 2 12 3 13 4 14 5 15 6 16 7 18 8 17 9 19 10 9 11 7 12
REMARK SMILES IDX 6 13 8 14 5 15 4 16 2 17 3 18 1 19
REMARK H PARENT
REMARK Flexibility Score: inf
ROOT
ATOM      1  C   UNL     1      -3.277  10.218 -28.532  1.00  0.00     0.032 C 
ENDROOT
BRANCH   1   2
ATOM      2  C   UNL     1      -3.621  11.602 -28.030  1.00  0.00    -0.028 C 
ATOM      3  C   UNL     1      -3.416  12.038 -26.765  1.00  0.00    -0.077 C 
ATOM      4  C   UNL     1      -2.763  11.171 -25.715  1.00  0.00     0.039 C 
BRANCH   3   5
ATOM      5  C   UNL     1      -3.844  13.441 -26.397  1.00  0.00     0.034 C 
BRANCH   5   6
ATOM      6  C   UNL     1      -4.200  14.251 -27.648  1.00  0.00     0.032 C 
BRANCH   6   7
ATOM      7  C   UNL     1      -5.675  14.561 -27.685  1.00  0.00    -0.028 C 
ATOM      8  C   UNL     1      -7.841  15.133 -28.695  1.00  0.00     0.039 C 
ATOM      9  C   UNL     1      -6.377  14.798 -28.816  1.00  0.00    -0.080 C 
ATOM     10  C   UNL     1      -5.741  14.718 -30.183  1.00  0.00     0.039 C 
ENDBRANCH   6   7
ENDBRANCH   5   6
ENDBRANCH   3   5
ENDBRANCH   1   2
BRANCH   1  11
ATOM     11  C   UNL     1      -2.579  10.275 -29.897  1.00  0.00     0.034 C 
BRANCH  11  12
ATOM     12  C   UNL     1      -3.477  10.863 -30.972  1.00  0.00    -0.077 C 
ATOM     13  C   UNL     1      -3.400  12.154 -31.371  1.00  0.00    -0.028 C 
ATOM     14  C   UNL     1      -4.487   9.970 -31.645  1.00  0.00     0.039 C 
BRANCH  13  15
ATOM     15  C   UNL     1      -2.497  13.195 -30.758  1.00  0.00     0.035 C 
BRANCH  15  16
ATOM     16  C   UNL     1      -1.195  13.317 -31.556  1.00  0.00     0.079 C 
BRANCH  16  17
ATOM     17  C   UNL     1      -0.031  12.784 -30.762  1.00  0.00     0.130 C 
ATOM     18  O   UNL     1       0.934  12.317 -31.349  1.00  0.00    -0.300 OA
ATOM     19  C   UNL     1      -0.035  12.801 -29.262  1.00  0.00     0.087 C 
ENDBRANCH  16  17
ENDBRANCH  15  16
ENDBRANCH  13  15
ENDBRANCH  11  12
ENDBRANCH   1  11
TORSDOF 9
ENDMDL
MODEL 2
REMARK VINA RESULT:    -6.411      2.181      3.645
REMARK INTER + INTRA:         -11.512
REMARK INTER:                  -9.527
REMARK INTRA:                  -1.985
REMARK UNBOUND:                -1.728
REMARK SMILES CC(=O)CCC=C(C)CCC=C(C)CCC=C(C)C
REMARK SMILES IDX 10 1 11 2 12 3 13 4 14 5 15 6 16 7 18 8 17 9 19 10 9 11 7 12
REMARK SMILES IDX 6 13 8 14 5 15 4 16 2 17 3 18 1 19
REMARK H PARENT
REMARK Flexibility Score: inf
ROOT
ATOM      1  C   UNL     1      -0.658  13.512 -28.409  1.00  0.00     0.032 C 
ENDROOT
BRANCH   1   2
ATOM      2  C   UNL     1      -2.010  13.962 -27.905  1.00  0.00    -0.028 C 
ATOM      3  C   UNL     1      -3.096  13.164 -27.790  1.00  0.00    -0.077 C 
ATOM      4  C   UNL     1      -3.046  11.691 -28.122  1.00  0.00     0.039 C 
BRANCH   3   5
ATOM      5  C   UNL     1      -4.397  13.763 -27.302  1.00  0.00     0.034 C 
BRANCH   5   6
ATOM      6  C   UNL     1      -5.431  13.817 -28.432  1.00  0.00     0.032 C 
BRANCH   6   7
ATOM      7  C   UNL     1      -5.687  15.241 -28.857  1.00  0.00    -0.028 C 
ATOM      8  C   UNL     1      -7.019  17.223 -29.437  1.00  0.00     0.039 C 
ATOM      9  C   UNL     1      -6.915  15.796 -28.962  1.00  0.00    -0.080 C 
ATOM     10  C   UNL     1      -8.170  15.037 -28.603  1.00  0.00     0.039 C 
ENDBRANCH   6   7
ENDBRANCH   5   6
ENDBRANCH   3   5
ENDBRANCH   1   2
BRANCH   1  11
ATOM     11  C   UNL     1      -0.347  14.111 -29.788  1.00  0.00     0.034 C 
BRANCH  11  12
ATOM     12  C   UNL     1      -0.542  13.101 -30.905  1.00  0.00    -0.077 C 
ATOM     13  C   UNL     1      -1.702  12.975 -31.591  1.00  0.00    -0.028 C 
ATOM     14  C   UNL     1       0.610  12.209 -31.288  1.00  0.00     0.039 C 
BRANCH  13  15
ATOM     15  C   UNL     1      -2.969  13.738 -31.292  1.00  0.00     0.035 C 
BRANCH  15  16
ATOM     16  C   UNL     1      -4.173  13.068 -31.961  1.00  0.00     0.079 C 
BRANCH  16  17
ATOM     17  C   UNL     1      -4.835  14.011 -32.931  1.00  0.00     0.130 C 
ATOM     18  O   UNL     1      -5.299  13.572 -33.973  1.00  0.00    -0.300 OA
ATOM     19  C   UNL     1      -4.929  15.481 -32.654  1.00  0.00     0.087 C 
ENDBRANCH  16  17
ENDBRANCH  15  16
ENDBRANCH  13  15
ENDBRANCH  11  12
ENDBRANCH   1  11
TORSDOF 9
ENDMDL
MODEL 3
REMARK VINA RESULT:    -6.247      1.206      3.202
REMARK INTER + INTRA:         -11.261
REMARK INTER:                  -8.968
REMARK INTRA:                  -2.293
REMARK UNBOUND:                -1.728
REMARK SMILES CC(=O)CCC=C(C)CCC=C(C)CCC=C(C)C
REMARK SMILES IDX 10 1 11 2 12 3 13 4 14 5 15 6 16 7 18 8 17 9 19 10 9 11 7 12
REMARK SMILES IDX 6 13 8 14 5 15 4 16 2 17 3 18 1 19
REMARK H PARENT
REMARK Flexibility Score: inf
ROOT
ATOM      1  C   UNL     1      -4.124  10.165 -28.481  1.00  0.00     0.032 C 
ENDROOT
BRANCH   1   2
ATOM      2  C   UNL     1      -4.412  11.371 -29.345  1.00  0.00    -0.028 C 
ATOM      3  C   UNL     1      -3.917  11.565 -30.590  1.00  0.00    -0.077 C 
ATOM      4  C   UNL     1      -3.041  10.541 -31.272  1.00  0.00     0.039 C 
BRANCH   3   5
ATOM      5  C   UNL     1      -4.264  12.841 -31.324  1.00  0.00     0.034 C 
BRANCH   5   6
ATOM      6  C   UNL     1      -4.261  14.039 -30.368  1.00  0.00     0.032 C 
BRANCH   6   7
ATOM      7  C   UNL     1      -5.669  14.492 -30.072  1.00  0.00    -0.028 C 
ATOM      8  C   UNL     1      -7.603  15.100 -28.684  1.00  0.00     0.039 C 
ATOM      9  C   UNL     1      -6.162  14.683 -28.828  1.00  0.00    -0.080 C 
ATOM     10  C   UNL     1      -5.310  14.507 -27.594  1.00  0.00     0.039 C 
ENDBRANCH   6   7
ENDBRANCH   5   6
ENDBRANCH   3   5
ENDBRANCH   1   2
BRANCH   1  11
ATOM     11  C   UNL     1      -2.780  10.305 -27.753  1.00  0.00     0.034 C 
BRANCH  11  12
ATOM     12  C   UNL     1      -2.596  11.690 -27.158  1.00  0.00    -0.077 C 
ATOM     13  C   UNL     1      -1.740  12.604 -27.670  1.00  0.00    -0.028 C 
ATOM     14  C   UNL     1      -3.417  12.079 -25.956  1.00  0.00     0.039 C 
BRANCH  13  15
ATOM     15  C   UNL     1      -0.799  12.355 -28.823  1.00  0.00     0.035 C 
BRANCH  15  16
ATOM     16  C   UNL     1      -0.653  13.615 -29.682  1.00  0.00     0.079 C 
BRANCH  16  17
ATOM     17  C   UNL     1      -0.505  13.253 -31.137  1.00  0.00     0.130 C 
ATOM     18  O   UNL     1      -1.187  13.827 -31.972  1.00  0.00    -0.300 OA
ATOM     19  C   UNL     1       0.456  12.192 -31.584  1.00  0.00     0.087 C 
ENDBRANCH  16  17
ENDBRANCH  15  16
ENDBRANCH  13  15
ENDBRANCH  11  12
ENDBRANCH   1  11
TORSDOF 9
ENDMDL
MODEL 4
REMARK VINA RESULT:    -6.240      1.050      1.271
REMARK INTER + INTRA:         -11.252
REMARK INTER:                  -9.648
REMARK INTRA:                  -1.604
REMARK UNBOUND:                -1.728
REMARK SMILES CC(=O)CCC=C(C)CCC=C(C)CCC=C(C)C
REMARK SMILES IDX 10 1 11 2 12 3 13 4 14 5 15 6 16 7 18 8 17 9 19 10 9 11 7 12
REMARK SMILES IDX 6 13 8 14 5 15 4 16 2 17 3 18 1 19
REMARK H PARENT
REMARK Flexibility Score: inf
ROOT
ATOM      1  C   UNL     1      -3.135  10.367 -28.292  1.00  0.00     0.032 C 
ENDROOT
BRANCH   1   2
ATOM      2  C   UNL     1      -3.466  11.779 -27.869  1.00  0.00    -0.028 C 
ATOM      3  C   UNL     1      -3.435  12.232 -26.595  1.00  0.00    -0.077 C 
ATOM      4  C   UNL     1      -3.008  11.353 -25.443  1.00  0.00     0.039 C 
BRANCH   3   5
ATOM      5  C   UNL     1      -3.827  13.666 -26.317  1.00  0.00     0.034 C 
BRANCH   5   6
ATOM      6  C   UNL     1      -4.197  14.392 -27.615  1.00  0.00     0.032 C 
BRANCH   6   7
ATOM      7  C   UNL     1      -5.684  14.633 -27.690  1.00  0.00    -0.028 C 
ATOM      8  C   UNL     1      -7.853  15.068 -28.760  1.00  0.00     0.039 C 
ATOM      9  C   UNL     1      -6.373  14.796 -28.841  1.00  0.00    -0.080 C 
ATOM     10  C   UNL     1      -5.708  14.695 -30.193  1.00  0.00     0.039 C 
ENDBRANCH   6   7
ENDBRANCH   5   6
ENDBRANCH   3   5
ENDBRANCH   1   2
BRANCH   1  11
ATOM     11  C   UNL     1      -1.930  10.334 -29.242  1.00  0.00     0.034 C 
BRANCH  11  12
ATOM     12  C   UNL     1      -2.321  10.669 -30.670  1.00  0.00    -0.077 C 
ATOM     13  C   UNL     1      -1.510  11.345 -31.518  1.00  0.00    -0.028 C 
ATOM     14  C   UNL     1      -3.662  10.212 -31.182  1.00  0.00     0.039 C 
BRANCH  13  15
ATOM     15  C   UNL     1      -0.170  11.929 -31.147  1.00  0.00     0.035 C 
BRANCH  15  16
ATOM     16  C   UNL     1      -0.321  13.390 -30.709  1.00  0.00     0.079 C 
BRANCH  16  17
ATOM     17  C   UNL     1       0.002  13.542 -29.245  1.00  0.00     0.130 C 
ATOM     18  O   UNL     1       0.923  12.901 -28.763  1.00  0.00    -0.300 OA
ATOM     19  C   UNL     1      -0.792  14.456 -28.361  1.00  0.00     0.087 C 
ENDBRANCH  16  17
ENDBRANCH  15  16
ENDBRANCH  13  15
ENDBRANCH  11  12
ENDBRANCH   1  11
TORSDOF 9
ENDMDL
MODEL 5
REMARK VINA RESULT:    -6.145      2.136      4.113
REMARK INTER + INTRA:         -11.106
REMARK INTER:                  -9.169
REMARK INTRA:                  -1.936
REMARK UNBOUND:                -1.728
REMARK SMILES CC(=O)CCC=C(C)CCC=C(C)CCC=C(C)C
REMARK SMILES IDX 10 1 11 2 12 3 13 4 14 5 15 6 16 7 18 8 17 9 19 10 9 11 7 12
REMARK SMILES IDX 6 13 8 14 5 15 4 16 2 17 3 18 1 19
REMARK H PARENT
REMARK Flexibility Score: inf
ROOT
ATOM      1  C   UNL     1      -0.863  10.822 -31.061  1.00  0.00     0.032 C 
ENDROOT
BRANCH   1   2
ATOM      2  C   UNL     1      -1.824  10.696 -29.901  1.00  0.00    -0.028 C 
ATOM      3  C   UNL     1      -3.125  10.340 -30.010  1.00  0.00    -0.077 C 
ATOM      4  C   UNL     1      -3.747   9.978 -31.338  1.00  0.00     0.039 C 
BRANCH   3   5
ATOM      5  C   UNL     1      -3.978  10.292 -28.762  1.00  0.00     0.034 C 
BRANCH   5   6
ATOM      6  C   UNL     1      -3.908  11.620 -28.000  1.00  0.00     0.032 C 
BRANCH   6   7
ATOM      7  C   UNL     1      -4.878  12.620 -28.577  1.00  0.00    -0.028 C 
ATOM      8  C   UNL     1      -6.114  14.738 -28.736  1.00  0.00     0.039 C 
ATOM      9  C   UNL     1      -5.083  13.859 -28.077  1.00  0.00    -0.080 C 
ATOM     10  C   UNL     1      -4.300  14.385 -26.898  1.00  0.00     0.039 C 
ENDBRANCH   6   7
ENDBRANCH   5   6
ENDBRANCH   3   5
ENDBRANCH   1   2
BRANCH   1  11
ATOM     11  C   UNL     1      -0.122  12.165 -31.031  1.00  0.00     0.034 C 
BRANCH  11  12
ATOM     12  C   UNL     1      -0.806  13.174 -30.125  1.00  0.00    -0.077 C 
ATOM     13  C   UNL     1      -1.931  13.838 -30.479  1.00  0.00    -0.028 C 
ATOM     14  C   UNL     1      -0.224  13.436 -28.760  1.00  0.00     0.039 C 
BRANCH  13  15
ATOM     15  C   UNL     1      -2.601  13.744 -31.827  1.00  0.00     0.035 C 
BRANCH  15  16
ATOM     16  C   UNL     1      -4.121  13.638 -31.667  1.00  0.00     0.079 C 
BRANCH  16  17
ATOM     17  C   UNL     1      -4.825  14.370 -32.780  1.00  0.00     0.130 C 
ATOM     18  O   UNL     1      -4.959  15.583 -32.711  1.00  0.00    -0.300 OA
ATOM     19  C   UNL     1      -5.377  13.642 -33.968  1.00  0.00     0.087 C 
ENDBRANCH  16  17
ENDBRANCH  15  16
ENDBRANCH  13  15
ENDBRANCH  11  12
ENDBRANCH   1  11
TORSDOF 9
ENDMDL
MODEL 6
REMARK VINA RESULT:    -6.041      2.558      5.524
REMARK INTER + INTRA:         -10.948
REMARK INTER:                  -9.056
REMARK INTRA:                  -1.892
REMARK UNBOUND:                -1.728
REMARK SMILES CC(=O)CCC=C(C)CCC=C(C)CCC=C(C)C
REMARK SMILES IDX 10 1 11 2 12 3 13 4 14 5 15 6 16 7 18 8 17 9 19 10 9 11 7 12
REMARK SMILES IDX 6 13 8 14 5 15 4 16 2 17 3 18 1 19
REMARK H PARENT
REMARK Flexibility Score: inf
ROOT
ATOM      1  C   UNL     1      -2.318  11.872 -27.335  1.00  0.00     0.032 C 
ENDROOT
BRANCH   1   2
ATOM      2  C   UNL     1      -1.470  12.016 -28.577  1.00  0.00    -0.028 C 
ATOM      3  C   UNL     1      -0.820  13.146 -28.943  1.00  0.00    -0.077 C 
ATOM      4  C   UNL     1      -0.846  14.394 -28.093  1.00  0.00     0.039 C 
BRANCH   3   5
ATOM      5  C   UNL     1      -0.035  13.153 -30.235  1.00  0.00     0.034 C 
BRANCH   5   6
ATOM      6  C   UNL     1      -0.887  12.627 -31.395  1.00  0.00     0.032 C 
BRANCH   6   7
ATOM      7  C   UNL     1      -1.957  13.621 -31.769  1.00  0.00    -0.028 C 
ATOM      8  C   UNL     1      -4.237  14.445 -32.169  1.00  0.00     0.039 C 
ATOM      9  C   UNL     1      -3.283  13.365 -31.730  1.00  0.00    -0.080 C 
ATOM     10  C   UNL     1      -3.829  12.043 -31.244  1.00  0.00     0.039 C 
ENDBRANCH   6   7
ENDBRANCH   5   6
ENDBRANCH   3   5
ENDBRANCH   1   2
BRANCH   1  11
ATOM     11  C   UNL     1      -3.796  12.163 -27.630  1.00  0.00     0.034 C 
BRANCH  11  12
ATOM     12  C   UNL     1      -4.241  13.496 -27.054  1.00  0.00    -0.077 C 
ATOM     13  C   UNL     1      -5.190  14.269 -27.632  1.00  0.00    -0.028 C 
ATOM     14  C   UNL     1      -3.617  13.977 -25.770  1.00  0.00     0.039 C 
BRANCH  13  15
ATOM     15  C   UNL     1      -5.863  13.970 -28.948  1.00  0.00     0.035 C 
BRANCH  15  16
ATOM     16  C   UNL     1      -6.112  15.261 -29.733  1.00  0.00     0.079 C 
BRANCH  16  17
ATOM     17  C   UNL     1      -7.231  16.055 -29.110  1.00  0.00     0.130 C 
ATOM     18  O   UNL     1      -7.113  17.264 -28.985  1.00  0.00    -0.300 OA
ATOM     19  C   UNL     1      -8.487  15.391 -28.629  1.00  0.00     0.087 C 
ENDBRANCH  16  17
ENDBRANCH  15  16
ENDBRANCH  13  15
ENDBRANCH  11  12
ENDBRANCH   1  11
TORSDOF 9
ENDMDL
MODEL 7
REMARK VINA RESULT:    -5.954      2.244      4.161
REMARK INTER + INTRA:         -10.815
REMARK INTER:                  -8.374
REMARK INTRA:                  -2.441
REMARK UNBOUND:                -1.728
REMARK SMILES CC(=O)CCC=C(C)CCC=C(C)CCC=C(C)C
REMARK SMILES IDX 10 1 11 2 12 3 13 4 14 5 15 6 16 7 18 8 17 9 19 10 9 11 7 12
REMARK SMILES IDX 6 13 8 14 5 15 4 16 2 17 3 18 1 19
REMARK H PARENT
REMARK Flexibility Score: inf
ROOT
ATOM      1  C   UNL     1      -1.392   9.936 -30.278  1.00  0.00     0.032 C 
ENDROOT
BRANCH   1   2
ATOM      2  C   UNL     1      -1.124  11.303 -29.689  1.00  0.00    -0.028 C 
ATOM      3  C   UNL     1      -0.452  12.296 -30.316  1.00  0.00    -0.077 C 
ATOM      4  C   UNL     1       0.070  12.143 -31.726  1.00  0.00     0.039 C 
BRANCH   3   5
ATOM      5  C   UNL     1      -0.229  13.602 -29.588  1.00  0.00     0.034 C 
BRANCH   5   6
ATOM      6  C   UNL     1      -0.883  13.573 -28.202  1.00  0.00     0.032 C 
BRANCH   6   7
ATOM      7  C   UNL     1      -2.313  14.046 -28.274  1.00  0.00    -0.028 C 
ATOM      8  C   UNL     1      -4.729  14.018 -27.825  1.00  0.00     0.039 C 
ATOM      9  C   UNL     1      -3.344  13.457 -27.629  1.00  0.00    -0.080 C 
ATOM     10  C   UNL     1      -3.143  12.274 -26.711  1.00  0.00     0.039 C 
ENDBRANCH   6   7
ENDBRANCH   5   6
ENDBRANCH   3   5
ENDBRANCH   1   2
BRANCH   1  11
ATOM     11  C   UNL     1      -2.701   9.918 -31.078  1.00  0.00     0.034 C 
BRANCH  11  12
ATOM     12  C   UNL     1      -3.833  10.608 -30.336  1.00  0.00    -0.077 C 
ATOM     13  C   UNL     1      -4.272  11.849 -30.650  1.00  0.00    -0.028 C 
ATOM     14  C   UNL     1      -4.517   9.875 -29.211  1.00  0.00     0.039 C 
BRANCH  13  15
ATOM     15  C   UNL     1      -3.656  12.742 -31.698  1.00  0.00     0.035 C 
BRANCH  15  16
ATOM     16  C   UNL     1      -4.084  14.198 -31.486  1.00  0.00     0.079 C 
BRANCH  16  17
ATOM     17  C   UNL     1      -4.807  14.723 -32.699  1.00  0.00     0.130 C 
ATOM     18  O   UNL     1      -4.995  15.925 -32.813  1.00  0.00    -0.300 OA
ATOM     19  C   UNL     1      -5.313  13.801 -33.768  1.00  0.00     0.087 C 
ENDBRANCH  16  17
ENDBRANCH  15  16
ENDBRANCH  13  15
ENDBRANCH  11  12
ENDBRANCH   1  11
TORSDOF 9
ENDMDL
MODEL 8
REMARK VINA RESULT:    -5.882      1.247      2.374
REMARK INTER + INTRA:         -10.704
REMARK INTER:                  -9.107
REMARK INTRA:                  -1.597
REMARK UNBOUND:                -1.728
REMARK SMILES CC(=O)CCC=C(C)CCC=C(C)CCC=C(C)C
REMARK SMILES IDX 10 1 11 2 12 3 13 4 14 5 15 6 16 7 18 8 17 9 19 10 9 11 7 12
REMARK SMILES IDX 6 13 8 14 5 15 4 16 2 17 3 18 1 19
REMARK H PARENT
REMARK Flexibility Score: inf
ROOT
ATOM      1  C   UNL     1      -2.474  11.583 -27.177  1.00  0.00     0.032 C 
ENDROOT
BRANCH   1   2
ATOM      2  C   UNL     1      -3.346  12.627 -27.836  1.00  0.00    -0.028 C 
ATOM      3  C   UNL     1      -3.987  13.622 -27.181  1.00  0.00    -0.077 C 
ATOM      4  C   UNL     1      -3.850  13.819 -25.690  1.00  0.00     0.039 C 
BRANCH   3   5
ATOM      5  C   UNL     1      -4.858  14.575 -27.970  1.00  0.00     0.034 C 
BRANCH   5   6
ATOM      6  C   UNL     1      -5.635  13.830 -29.060  1.00  0.00     0.032 C 
BRANCH   6   7
ATOM      7  C   UNL     1      -5.656  14.624 -30.342  1.00  0.00    -0.028 C 
ATOM      8  C   UNL     1      -4.956  15.289 -32.602  1.00  0.00     0.039 C 
ATOM      9  C   UNL     1      -4.848  14.387 -31.399  1.00  0.00    -0.080 C 
ATOM     10  C   UNL     1      -3.864  13.242 -31.413  1.00  0.00     0.039 C 
ENDBRANCH   6   7
ENDBRANCH   5   6
ENDBRANCH   3   5
ENDBRANCH   1   2
BRANCH   1  11
ATOM     11  C   UNL     1      -2.747  10.184 -27.747  1.00  0.00     0.034 C 
BRANCH  11  12
ATOM     12  C   UNL     1      -3.452  10.244 -29.090  1.00  0.00    -0.077 C 
ATOM     13  C   UNL     1      -2.789  10.294 -30.269  1.00  0.00    -0.028 C 
ATOM     14  C   UNL     1      -4.959  10.224 -29.122  1.00  0.00     0.039 C 
BRANCH  13  15
ATOM     15  C   UNL     1      -1.290  10.389 -30.412  1.00  0.00     0.035 C 
BRANCH  15  16
ATOM     16  C   UNL     1      -0.914  11.433 -31.468  1.00  0.00     0.079 C 
BRANCH  16  17
ATOM     17  C   UNL     1       0.156  12.356 -30.947  1.00  0.00     0.130 C 
ATOM     18  O   UNL     1       1.265  12.341 -31.460  1.00  0.00    -0.300 OA
ATOM     19  C   UNL     1      -0.105  13.288 -29.801  1.00  0.00     0.087 C 
ENDBRANCH  16  17
ENDBRANCH  15  16
ENDBRANCH  13  15
ENDBRANCH  11  12
ENDBRANCH   1  11
TORSDOF 9
ENDMDL
MODEL 9
REMARK VINA RESULT:    -5.792      1.149      3.705
REMARK INTER + INTRA:         -10.567
REMARK INTER:                  -8.917
REMARK INTRA:                  -1.650
REMARK UNBOUND:                -1.728
REMARK SMILES CC(=O)CCC=C(C)CCC=C(C)CCC=C(C)C
REMARK SMILES IDX 10 1 11 2 12 3 13 4 14 5 15 6 16 7 18 8 17 9 19 10 9 11 7 12
REMARK SMILES IDX 6 13 8 14 5 15 4 16 2 17 3 18 1 19
REMARK H PARENT
REMARK Flexibility Score: inf
ROOT
ATOM      1  C   UNL     1      -5.352  14.572 -31.287  1.00  0.00     0.032 C 
ENDROOT
BRANCH   1   2
ATOM      2  C   UNL     1      -5.007  14.370 -29.830  1.00  0.00    -0.028 C 
ATOM      3  C   UNL     1      -5.847  14.612 -28.796  1.00  0.00    -0.077 C 
ATOM      4  C   UNL     1      -7.268  15.077 -29.011  1.00  0.00     0.039 C 
BRANCH   3   5
ATOM      5  C   UNL     1      -5.349  14.397 -27.384  1.00  0.00     0.034 C 
BRANCH   5   6
ATOM      6  C   UNL     1      -3.818  14.366 -27.342  1.00  0.00     0.032 C 
BRANCH   6   7
ATOM      7  C   UNL     1      -3.329  13.288 -26.408  1.00  0.00    -0.028 C 
ATOM      8  C   UNL     1      -2.814  11.003 -25.664  1.00  0.00     0.039 C 
ATOM      9  C   UNL     1      -3.293  11.973 -26.714  1.00  0.00    -0.080 C 
ATOM     10  C   UNL     1      -3.699  11.456 -28.074  1.00  0.00     0.039 C 
ENDBRANCH   6   7
ENDBRANCH   5   6
ENDBRANCH   3   5
ENDBRANCH   1   2
BRANCH   1  11
ATOM     11  C   UNL     1      -4.249  14.026 -32.204  1.00  0.00     0.034 C 
BRANCH  11  12
ATOM     12  C   UNL     1      -3.671  12.721 -31.687  1.00  0.00    -0.077 C 
ATOM     13  C   UNL     1      -2.380  12.587 -31.304  1.00  0.00    -0.028 C 
ATOM     14  C   UNL     1      -4.575  11.521 -31.570  1.00  0.00     0.039 C 
BRANCH  13  15
ATOM     15  C   UNL     1      -1.329  13.664 -31.419  1.00  0.00     0.035 C 
BRANCH  15  16
ATOM     16  C   UNL     1      -0.030  13.226 -30.736  1.00  0.00     0.079 C 
BRANCH  16  17
ATOM     17  C   UNL     1      -0.222  13.120 -29.246  1.00  0.00     0.130 C 
ATOM     18  O   UNL     1      -0.428  12.026 -28.743  1.00  0.00    -0.300 OA
ATOM     19  C   UNL     1      -0.176  14.332 -28.364  1.00  0.00     0.087 C 
ENDBRANCH  16  17
ENDBRANCH  15  16
ENDBRANCH  13  15
ENDBRANCH  11  12
ENDBRANCH   1  11
TORSDOF 9
ENDMDL
