MODEL 1
REMARK VINA RESULT:    10.532      0.000      0.000
REMARK INTER + INTRA:          21.398
REMARK INTER:                  22.847
REMARK INTRA:                  -1.449
REMARK UNBOUND:                -1.449
REMARK SMILES CCCCCCCCCCCCCCCCCCCCCC(=O)[O-]
REMARK SMILES IDX 12 1 11 2 10 3 9 4 8 5 7 6 6 7 5 8 4 9 3 10 2 11 1 12 13 13
REMARK SMILES IDX 14 14 15 15 16 16 17 17 18 18 19 19 20 20 21 21 22 22 23 23
REMARK SMILES IDX 24 24
REMARK H PARENT
REMARK Flexibility Score: inf
ROOT
ATOM      1  C   UNL     1      34.951  13.459  42.612  1.00  0.00     0.000 C 
ENDROOT
BRANCH   1   2
ATOM      2  C   UNL     1      36.185  14.047  43.314  1.00  0.00     0.000 C 
BRANCH   2   3
ATOM      3  C   UNL     1      35.815  15.153  44.318  1.00  0.00     0.000 C 
BRANCH   3   4
ATOM      4  C   UNL     1      34.544  15.925  43.900  1.00  0.00    -0.000 C 
BRANCH   4   5
ATOM      5  C   UNL     1      34.829  17.173  43.038  1.00  0.00    -0.000 C 
BRANCH   5   6
ATOM      6  C   UNL     1      33.757  17.491  41.982  1.00  0.00    -0.000 C 
BRANCH   6   7
ATOM      7  C   UNL     1      34.020  16.886  40.588  1.00  0.00    -0.000 C 
BRANCH   7   8
ATOM      8  C   UNL     1      33.956  17.918  39.441  1.00  0.00    -0.000 C 
BRANCH   8   9
ATOM      9  C   UNL     1      32.545  18.504  39.259  1.00  0.00    -0.000 C 
BRANCH   9  10
ATOM     10  C   UNL     1      31.906  18.098  37.922  1.00  0.00    -0.000 C 
BRANCH  10  11
ATOM     11  C   UNL     1      31.164  19.259  37.242  1.00  0.00    -0.003 C 
ATOM     12  C   UNL     1      31.018  20.445  38.192  1.00  0.00     0.004 C 
ENDBRANCH  10  11
ENDBRANCH   9  10
ENDBRANCH   8   9
ENDBRANCH   7   8
ENDBRANCH   6   7
ENDBRANCH   5   6
ENDBRANCH   4   5
ENDBRANCH   3   4
ENDBRANCH   2   3
ENDBRANCH   1   2
BRANCH   1  13
ATOM     13  C   UNL     1      35.220  13.113  41.138  1.00  0.00     0.000 C 
BRANCH  13  14
ATOM     14  C   UNL     1      33.948  13.164  40.273  1.00  0.00     0.000 C 
BRANCH  14  15
ATOM     15  C   UNL     1      33.173  11.833  40.175  1.00  0.00     0.000 C 
BRANCH  15  16
ATOM     16  C   UNL     1      34.050  10.568  40.142  1.00  0.00     0.000 C 
BRANCH  16  17
ATOM     17  C   UNL     1      33.231   9.272  40.225  1.00  0.00     0.000 C 
BRANCH  17  18
ATOM     18  C   UNL     1      31.899   9.504  40.952  1.00  0.00     0.000 C 
BRANCH  18  19
ATOM     19  C   UNL     1      30.750   8.665  40.351  1.00  0.00     0.000 C 
BRANCH  19  20
ATOM     20  C   UNL     1      29.739   8.161  41.399  1.00  0.00     0.006 C 
BRANCH  20  21
ATOM     21  C   UNL     1      29.184   6.758  41.110  1.00  0.00     0.053 C 
BRANCH  21  22
ATOM     22  C   UNL     1      29.629   5.759  42.137  1.00  0.00     0.041 C 
ATOM     23  O   UNL     1      28.802   5.297  42.966  1.00  0.00    -0.550 OA
ATOM     24  O   UNL     1      30.956   5.350  42.187  1.00  0.00    -0.550 OA
ENDBRANCH  21  22
ENDBRANCH  20  21
ENDBRANCH  19  20
ENDBRANCH  18  19
ENDBRANCH  17  18
ENDBRANCH  16  17
ENDBRANCH  15  16
ENDBRANCH  14  15
ENDBRANCH  13  14
ENDBRANCH   1  13
TORSDOF 20
ENDMDL
MODEL 2
REMARK VINA RESULT:    10.790      2.562      5.658
REMARK INTER + INTRA:          21.956
REMARK INTER:                  23.201
REMARK INTRA:                  -1.244
REMARK UNBOUND:                -1.449
REMARK SMILES CCCCCCCCCCCCCCCCCCCCCC(=O)[O-]
REMARK SMILES IDX 12 1 11 2 10 3 9 4 8 5 7 6 6 7 5 8 4 9 3 10 2 11 1 12 13 13
REMARK SMILES IDX 14 14 15 15 16 16 17 17 18 18 19 19 20 20 21 21 22 22 23 23
REMARK SMILES IDX 24 24
REMARK H PARENT
REMARK Flexibility Score: inf
ROOT
ATOM      1  C   UNL     1      33.532  17.813  41.837  1.00  0.00     0.000 C 
ENDROOT
BRANCH   1   2
ATOM      2  C   UNL     1      33.926  17.004  40.591  1.00  0.00     0.000 C 
BRANCH   2   3
ATOM      3  C   UNL     1      33.852  17.841  39.302  1.00  0.00     0.000 C 
BRANCH   3   4
ATOM      4  C   UNL     1      32.534  18.637  39.194  1.00  0.00    -0.000 C 
BRANCH   4   5
ATOM      5  C   UNL     1      31.863  18.545  37.807  1.00  0.00    -0.000 C 
BRANCH   5   6
ATOM      6  C   UNL     1      31.117  19.814  37.361  1.00  0.00    -0.000 C 
BRANCH   6   7
ATOM      7  C   UNL     1      31.417  21.072  38.202  1.00  0.00    -0.000 C 
BRANCH   7   8
ATOM      8  C   UNL     1      31.083  22.396  37.480  1.00  0.00    -0.000 C 
BRANCH   8   9
ATOM      9  C   UNL     1      32.345  23.184  37.087  1.00  0.00    -0.000 C 
BRANCH   9  10
ATOM     10  C   UNL     1      32.107  24.124  35.896  1.00  0.00    -0.000 C 
BRANCH  10  11
ATOM     11  C   UNL     1      32.780  23.630  34.606  1.00  0.00    -0.003 C 
ATOM     12  C   UNL     1      34.251  24.034  34.568  1.00  0.00     0.004 C 
ENDBRANCH  10  11
ENDBRANCH   9  10
ENDBRANCH   8   9
ENDBRANCH   7   8
ENDBRANCH   6   7
ENDBRANCH   5   6
ENDBRANCH   4   5
ENDBRANCH   3   4
ENDBRANCH   2   3
ENDBRANCH   1   2
BRANCH   1  13
ATOM     13  C   UNL     1      33.672  17.001  43.136  1.00  0.00     0.000 C 
BRANCH  13  14
ATOM     14  C   UNL     1      35.130  16.614  43.440  1.00  0.00     0.000 C 
BRANCH  14  15
ATOM     15  C   UNL     1      35.311  15.235  44.109  1.00  0.00     0.000 C 
BRANCH  15  16
ATOM     16  C   UNL     1      36.529  14.429  43.624  1.00  0.00     0.000 C 
BRANCH  16  17
ATOM     17  C   UNL     1      36.203  13.508  42.440  1.00  0.00     0.000 C 
BRANCH  17  18
ATOM     18  C   UNL     1      34.699  13.514  42.131  1.00  0.00     0.000 C 
BRANCH  18  19
ATOM     19  C   UNL     1      34.414  13.601  40.615  1.00  0.00     0.000 C 
BRANCH  19  20
ATOM     20  C   UNL     1      33.816  12.310  40.025  1.00  0.00     0.006 C 
BRANCH  20  21
ATOM     21  C   UNL     1      33.777  11.130  41.007  1.00  0.00     0.053 C 
BRANCH  21  22
ATOM     22  C   UNL     1      33.330   9.863  40.342  1.00  0.00     0.041 C 
ATOM     23  O   UNL     1      34.161   9.146  39.726  1.00  0.00    -0.550 OA
ATOM     24  O   UNL     1      31.994   9.481  40.389  1.00  0.00    -0.550 OA
ENDBRANCH  21  22
ENDBRANCH  20  21
ENDBRANCH  19  20
ENDBRANCH  18  19
ENDBRANCH  17  18
ENDBRANCH  16  17
ENDBRANCH  15  16
ENDBRANCH  14  15
ENDBRANCH  13  14
ENDBRANCH   1  13
TORSDOF 20
ENDMDL
MODEL 3
REMARK VINA RESULT:    11.142      4.164      9.679
REMARK INTER + INTRA:          22.721
REMARK INTER:                  23.917
REMARK INTRA:                  -1.196
REMARK UNBOUND:                -1.449
REMARK SMILES CCCCCCCCCCCCCCCCCCCCCC(=O)[O-]
REMARK SMILES IDX 12 1 11 2 10 3 9 4 8 5 7 6 6 7 5 8 4 9 3 10 2 11 1 12 13 13
REMARK SMILES IDX 14 14 15 15 16 16 17 17 18 18 19 19 20 20 21 21 22 22 23 23
REMARK SMILES IDX 24 24
REMARK H PARENT
REMARK Flexibility Score: inf
ROOT
ATOM      1  C   UNL     1      35.177  13.427  42.432  1.00  0.00     0.000 C 
ENDROOT
BRANCH   1   2
ATOM      2  C   UNL     1      35.396  12.976  40.979  1.00  0.00     0.000 C 
BRANCH   2   3
ATOM      3  C   UNL     1      34.230  13.377  40.059  1.00  0.00     0.000 C 
BRANCH   3   4
ATOM      4  C   UNL     1      33.032  12.409  40.174  1.00  0.00    -0.000 C 
BRANCH   4   5
ATOM      5  C   UNL     1      33.345  11.124  40.968  1.00  0.00    -0.000 C 
BRANCH   5   6
ATOM      6  C   UNL     1      33.758   9.915  40.111  1.00  0.00    -0.000 C 
BRANCH   6   7
ATOM      7  C   UNL     1      32.636   8.888  39.854  1.00  0.00    -0.000 C 
BRANCH   7   8
ATOM      8  C   UNL     1      31.382   9.107  40.729  1.00  0.00    -0.000 C 
BRANCH   8   9
ATOM      9  C   UNL     1      30.218   8.186  40.324  1.00  0.00    -0.000 C 
BRANCH   9  10
ATOM     10  C   UNL     1      29.512   7.559  41.537  1.00  0.00    -0.000 C 
BRANCH  10  11
ATOM     11  C   UNL     1      29.430   6.028  41.450  1.00  0.00    -0.003 C 
ATOM     12  C   UNL     1      28.952   5.431  42.771  1.00  0.00     0.004 C 
ENDBRANCH  10  11
ENDBRANCH   9  10
ENDBRANCH   8   9
ENDBRANCH   7   8
ENDBRANCH   6   7
ENDBRANCH   5   6
ENDBRANCH   4   5
ENDBRANCH   3   4
ENDBRANCH   2   3
ENDBRANCH   1   2
BRANCH   1  13
ATOM     13  C   UNL     1      36.471  13.933  43.093  1.00  0.00     0.000 C 
BRANCH  13  14
ATOM     14  C   UNL     1      36.204  14.942  44.225  1.00  0.00     0.000 C 
BRANCH  14  15
ATOM     15  C   UNL     1      34.805  15.591  44.201  1.00  0.00     0.000 C 
BRANCH  15  16
ATOM     16  C   UNL     1      34.765  17.041  43.688  1.00  0.00     0.000 C 
BRANCH  16  17
ATOM     17  C   UNL     1      33.570  17.315  42.763  1.00  0.00     0.000 C 
BRANCH  17  18
ATOM     18  C   UNL     1      34.016  18.027  41.478  1.00  0.00     0.000 C 
BRANCH  18  19
ATOM     19  C   UNL     1      33.879  17.123  40.232  1.00  0.00     0.000 C 
BRANCH  19  20
ATOM     20  C   UNL     1      33.706  17.907  38.917  1.00  0.00     0.006 C 
BRANCH  20  21
ATOM     21  C   UNL     1      32.567  18.937  38.947  1.00  0.00     0.053 C 
BRANCH  21  22
ATOM     22  C   UNL     1      31.600  18.734  37.818  1.00  0.00     0.041 C 
ATOM     23  O   UNL     1      31.515  17.612  37.254  1.00  0.00    -0.550 OA
ATOM     24  O   UNL     1      30.806  19.786  37.379  1.00  0.00    -0.550 OA
ENDBRANCH  21  22
ENDBRANCH  20  21
ENDBRANCH  19  20
ENDBRANCH  18  19
ENDBRANCH  17  18
ENDBRANCH  16  17
ENDBRANCH  15  16
ENDBRANCH  14  15
ENDBRANCH  13  14
ENDBRANCH   1  13
TORSDOF 20
ENDMDL
MODEL 4
REMARK VINA RESULT:    11.473      4.635      9.914
REMARK INTER + INTRA:          23.438
REMARK INTER:                  24.686
REMARK INTRA:                  -1.249
REMARK UNBOUND:                -1.449
REMARK SMILES CCCCCCCCCCCCCCCCCCCCCC(=O)[O-]
REMARK SMILES IDX 12 1 11 2 10 3 9 4 8 5 7 6 6 7 5 8 4 9 3 10 2 11 1 12 13 13
REMARK SMILES IDX 14 14 15 15 16 16 17 17 18 18 19 19 20 20 21 21 22 22 23 23
REMARK SMILES IDX 24 24
REMARK H PARENT
REMARK Flexibility Score: inf
ROOT
ATOM      1  C   UNL     1      34.758  13.302  40.773  1.00  0.00     0.000 C 
ENDROOT
BRANCH   1   2
ATOM      2  C   UNL     1      33.482  12.662  40.203  1.00  0.00     0.000 C 
BRANCH   2   3
ATOM      3  C   UNL     1      33.090  11.374  40.948  1.00  0.00     0.000 C 
BRANCH   3   4
ATOM      4  C   UNL     1      33.287  10.111  40.080  1.00  0.00    -0.000 C 
BRANCH   4   5
ATOM      5  C   UNL     1      32.005   9.272  39.904  1.00  0.00    -0.000 C 
BRANCH   5   6
ATOM      6  C   UNL     1      31.215   9.557  38.614  1.00  0.00    -0.000 C 
BRANCH   6   7
ATOM      7  C   UNL     1      29.863   8.822  38.505  1.00  0.00    -0.000 C 
BRANCH   7   8
ATOM      8  C   UNL     1      28.908   9.432  37.457  1.00  0.00    -0.000 C 
BRANCH   8   9
ATOM      9  C   UNL     1      27.887   8.409  36.929  1.00  0.00    -0.000 C 
BRANCH   9  10
ATOM     10  C   UNL     1      28.506   7.022  36.700  1.00  0.00    -0.000 C 
BRANCH  10  11
ATOM     11  C   UNL     1      27.462   5.959  36.327  1.00  0.00    -0.003 C 
ATOM     12  C   UNL     1      27.707   4.660  37.090  1.00  0.00     0.004 C 
ENDBRANCH  10  11
ENDBRANCH   9  10
ENDBRANCH   8   9
ENDBRANCH   7   8
ENDBRANCH   6   7
ENDBRANCH   5   6
ENDBRANCH   4   5
ENDBRANCH   3   4
ENDBRANCH   2   3
ENDBRANCH   1   2
BRANCH   1  13
ATOM     13  C   UNL     1      34.735  13.394  42.308  1.00  0.00     0.000 C 
BRANCH  13  14
ATOM     14  C   UNL     1      36.022  14.012  42.885  1.00  0.00     0.000 C 
BRANCH  14  15
ATOM     15  C   UNL     1      35.802  15.026  44.027  1.00  0.00     0.000 C 
BRANCH  15  16
ATOM     16  C   UNL     1      34.527  15.880  43.906  1.00  0.00     0.000 C 
BRANCH  16  17
ATOM     17  C   UNL     1      34.708  17.096  42.987  1.00  0.00     0.000 C 
BRANCH  17  18
ATOM     18  C   UNL     1      33.706  17.067  41.825  1.00  0.00     0.000 C 
BRANCH  18  19
ATOM     19  C   UNL     1      34.315  17.609  40.513  1.00  0.00     0.000 C 
BRANCH  19  20
ATOM     20  C   UNL     1      33.358  17.529  39.309  1.00  0.00     0.006 C 
BRANCH  20  21
ATOM     21  C   UNL     1      32.841  18.892  38.826  1.00  0.00     0.053 C 
BRANCH  21  22
ATOM     22  C   UNL     1      31.650  18.752  37.925  1.00  0.00     0.041 C 
ATOM     23  O   UNL     1      30.806  19.683  37.847  1.00  0.00    -0.550 OA
ATOM     24  O   UNL     1      31.464  17.591  37.185  1.00  0.00    -0.550 OA
ENDBRANCH  21  22
ENDBRANCH  20  21
ENDBRANCH  19  20
ENDBRANCH  18  19
ENDBRANCH  17  18
ENDBRANCH  16  17
ENDBRANCH  15  16
ENDBRANCH  14  15
ENDBRANCH  13  14
ENDBRANCH   1  13
TORSDOF 20
ENDMDL
MODEL 5
REMARK VINA RESULT:    11.521      1.551      2.366
REMARK INTER + INTRA:          23.543
REMARK INTER:                  24.850
REMARK INTRA:                  -1.307
REMARK UNBOUND:                -1.449
REMARK SMILES CCCCCCCCCCCCCCCCCCCCCC(=O)[O-]
REMARK SMILES IDX 12 1 11 2 10 3 9 4 8 5 7 6 6 7 5 8 4 9 3 10 2 11 1 12 13 13
REMARK SMILES IDX 14 14 15 15 16 16 17 17 18 18 19 19 20 20 21 21 22 22 23 23
REMARK SMILES IDX 24 24
REMARK H PARENT
REMARK Flexibility Score: inf
ROOT
ATOM      1  C   UNL     1      34.003  12.668  40.575  1.00  0.00     0.000 C 
ENDROOT
BRANCH   1   2
ATOM      2  C   UNL     1      35.175  13.386  41.262  1.00  0.00     0.000 C 
BRANCH   2   3
ATOM      3  C   UNL     1      34.983  13.497  42.784  1.00  0.00     0.000 C 
BRANCH   3   4
ATOM      4  C   UNL     1      35.651  14.760  43.369  1.00  0.00    -0.000 C 
BRANCH   4   5
ATOM      5  C   UNL     1      34.650  15.857  43.787  1.00  0.00    -0.000 C 
BRANCH   5   6
ATOM      6  C   UNL     1      34.719  17.150  42.956  1.00  0.00    -0.000 C 
BRANCH   6   7
ATOM      7  C   UNL     1      33.604  17.304  41.902  1.00  0.00    -0.000 C 
BRANCH   7   8
ATOM      8  C   UNL     1      34.033  16.888  40.478  1.00  0.00    -0.000 C 
BRANCH   8   9
ATOM      9  C   UNL     1      34.028  18.072  39.495  1.00  0.00    -0.000 C 
BRANCH   9  10
ATOM     10  C   UNL     1      32.624  18.661  39.289  1.00  0.00    -0.000 C 
BRANCH  10  11
ATOM     11  C   UNL     1      32.092  18.444  37.865  1.00  0.00    -0.003 C 
ATOM     12  C   UNL     1      30.928  19.385  37.567  1.00  0.00     0.004 C 
ENDBRANCH  10  11
ENDBRANCH   9  10
ENDBRANCH   8   9
ENDBRANCH   7   8
ENDBRANCH   6   7
ENDBRANCH   5   6
ENDBRANCH   4   5
ENDBRANCH   3   4
ENDBRANCH   2   3
ENDBRANCH   1   2
BRANCH   1  13
ATOM     13  C   UNL     1      33.423  11.531  41.435  1.00  0.00     0.000 C 
BRANCH  13  14
ATOM     14  C   UNL     1      32.927  10.342  40.592  1.00  0.00     0.000 C 
BRANCH  14  15
ATOM     15  C   UNL     1      34.042   9.468  39.981  1.00  0.00     0.000 C 
BRANCH  15  16
ATOM     16  C   UNL     1      33.841   7.950  40.136  1.00  0.00     0.000 C 
BRANCH  16  17
ATOM     17  C   UNL     1      34.976   7.275  40.919  1.00  0.00     0.000 C 
BRANCH  17  18
ATOM     18  C   UNL     1      34.535   5.912  41.470  1.00  0.00     0.000 C 
BRANCH  18  19
ATOM     19  C   UNL     1      33.182   5.453  40.881  1.00  0.00     0.000 C 
BRANCH  19  20
ATOM     20  C   UNL     1      32.052   5.365  41.924  1.00  0.00     0.006 C 
BRANCH  20  21
ATOM     21  C   UNL     1      30.680   5.007  41.334  1.00  0.00     0.053 C 
BRANCH  21  22
ATOM     22  C   UNL     1      29.570   5.762  42.003  1.00  0.00     0.041 C 
ATOM     23  O   UNL     1      28.894   5.214  42.913  1.00  0.00    -0.550 OA
ATOM     24  O   UNL     1      29.272   7.062  41.612  1.00  0.00    -0.550 OA
ENDBRANCH  21  22
ENDBRANCH  20  21
ENDBRANCH  19  20
ENDBRANCH  18  19
ENDBRANCH  17  18
ENDBRANCH  16  17
ENDBRANCH  15  16
ENDBRANCH  14  15
ENDBRANCH  13  14
ENDBRANCH   1  13
TORSDOF 20
ENDMDL
MODEL 6
REMARK VINA RESULT:    11.855      2.294      2.792
REMARK INTER + INTRA:          24.267
REMARK INTER:                  25.210
REMARK INTRA:                  -0.943
REMARK UNBOUND:                -1.449
REMARK SMILES CCCCCCCCCCCCCCCCCCCCCC(=O)[O-]
REMARK SMILES IDX 12 1 11 2 10 3 9 4 8 5 7 6 6 7 5 8 4 9 3 10 2 11 1 12 13 13
REMARK SMILES IDX 14 14 15 15 16 16 17 17 18 18 19 19 20 20 21 21 22 22 23 23
REMARK SMILES IDX 24 24
REMARK H PARENT
REMARK Flexibility Score: inf
ROOT
ATOM      1  C   UNL     1      34.951  13.639  42.582  1.00  0.00     0.000 C 
ENDROOT
BRANCH   1   2
ATOM      2  C   UNL     1      36.217  14.010  43.372  1.00  0.00     0.000 C 
BRANCH   2   3
ATOM      3  C   UNL     1      36.026  15.281  44.218  1.00  0.00     0.000 C 
BRANCH   3   4
ATOM      4  C   UNL     1      34.662  15.957  43.964  1.00  0.00    -0.000 C 
BRANCH   4   5
ATOM      5  C   UNL     1      34.759  17.274  43.166  1.00  0.00    -0.000 C 
BRANCH   5   6
ATOM      6  C   UNL     1      33.732  17.421  42.029  1.00  0.00    -0.000 C 
BRANCH   6   7
ATOM      7  C   UNL     1      34.168  16.816  40.678  1.00  0.00    -0.000 C 
BRANCH   7   8
ATOM      8  C   UNL     1      34.011  17.784  39.485  1.00  0.00    -0.000 C 
BRANCH   8   9
ATOM      9  C   UNL     1      32.568  18.297  39.333  1.00  0.00    -0.000 C 
BRANCH   9  10
ATOM     10  C   UNL     1      32.148  18.449  37.863  1.00  0.00    -0.000 C 
BRANCH  10  11
ATOM     11  C   UNL     1      30.897  19.323  37.691  1.00  0.00    -0.003 C 
ATOM     12  C   UNL     1      31.221  20.795  37.940  1.00  0.00     0.004 C 
ENDBRANCH  10  11
ENDBRANCH   9  10
ENDBRANCH   8   9
ENDBRANCH   7   8
ENDBRANCH   6   7
ENDBRANCH   5   6
ENDBRANCH   4   5
ENDBRANCH   3   4
ENDBRANCH   2   3
ENDBRANCH   1   2
BRANCH   1  13
ATOM     13  C   UNL     1      35.271  12.925  41.258  1.00  0.00     0.000 C 
BRANCH  13  14
ATOM     14  C   UNL     1      34.328  13.344  40.115  1.00  0.00     0.000 C 
BRANCH  14  15
ATOM     15  C   UNL     1      33.047  12.493  39.984  1.00  0.00     0.000 C 
BRANCH  15  16
ATOM     16  C   UNL     1      32.399  12.079  41.318  1.00  0.00     0.000 C 
BRANCH  16  17
ATOM     17  C   UNL     1      32.664  10.610  41.679  1.00  0.00     0.000 C 
BRANCH  17  18
ATOM     18  C   UNL     1      32.721   9.732  40.422  1.00  0.00     0.000 C 
BRANCH  18  19
ATOM     19  C   UNL     1      34.110   9.764  39.748  1.00  0.00     0.000 C 
BRANCH  19  20
ATOM     20  C   UNL     1      35.066   8.666  40.250  1.00  0.00     0.006 C 
BRANCH  20  21
ATOM     21  C   UNL     1      34.365   7.361  40.655  1.00  0.00     0.053 C 
BRANCH  21  22
ATOM     22  C   UNL     1      35.228   6.514  41.542  1.00  0.00     0.041 C 
ATOM     23  O   UNL     1      34.966   5.292  41.697  1.00  0.00    -0.550 OA
ATOM     24  O   UNL     1      36.311   7.074  42.208  1.00  0.00    -0.550 OA
ENDBRANCH  21  22
ENDBRANCH  20  21
ENDBRANCH  19  20
ENDBRANCH  18  19
ENDBRANCH  17  18
ENDBRANCH  16  17
ENDBRANCH  15  16
ENDBRANCH  14  15
ENDBRANCH  13  14
ENDBRANCH   1  13
TORSDOF 20
ENDMDL
MODEL 7
REMARK VINA RESULT:    11.890      4.365     10.345
REMARK INTER + INTRA:          24.344
REMARK INTER:                  25.494
REMARK INTRA:                  -1.150
REMARK UNBOUND:                -1.449
REMARK SMILES CCCCCCCCCCCCCCCCCCCCCC(=O)[O-]
REMARK SMILES IDX 12 1 11 2 10 3 9 4 8 5 7 6 6 7 5 8 4 9 3 10 2 11 1 12 13 13
REMARK SMILES IDX 14 14 15 15 16 16 17 17 18 18 19 19 20 20 21 21 22 22 23 23
REMARK SMILES IDX 24 24
REMARK H PARENT
REMARK Flexibility Score: inf
ROOT
ATOM      1  C   UNL     1      34.376  12.826  40.707  1.00  0.00     0.000 C 
ENDROOT
BRANCH   1   2
ATOM      2  C   UNL     1      34.173  11.387  41.207  1.00  0.00     0.000 C 
BRANCH   2   3
ATOM      3  C   UNL     1      32.801  10.816  40.807  1.00  0.00     0.000 C 
BRANCH   3   4
ATOM      4  C   UNL     1      32.925   9.568  39.906  1.00  0.00    -0.000 C 
BRANCH   4   5
ATOM      5  C   UNL     1      34.239   8.784  40.106  1.00  0.00    -0.000 C 
BRANCH   5   6
ATOM      6  C   UNL     1      34.146   7.276  39.819  1.00  0.00    -0.000 C 
BRANCH   6   7
ATOM      7  C   UNL     1      34.190   6.373  41.069  1.00  0.00    -0.000 C 
BRANCH   7   8
ATOM      8  C   UNL     1      33.136   5.244  41.057  1.00  0.00    -0.000 C 
BRANCH   8   9
ATOM      9  C   UNL     1      31.995   5.498  42.058  1.00  0.00    -0.000 C 
BRANCH   9  10
ATOM     10  C   UNL     1      30.676   4.836  41.630  1.00  0.00    -0.000 C 
BRANCH  10  11
ATOM     11  C   UNL     1      29.444   5.514  42.247  1.00  0.00    -0.003 C 
ATOM     12  C   UNL     1      29.174   6.863  41.585  1.00  0.00     0.004 C 
ENDBRANCH  10  11
ENDBRANCH   9  10
ENDBRANCH   8   9
ENDBRANCH   7   8
ENDBRANCH   6   7
ENDBRANCH   5   6
ENDBRANCH   4   5
ENDBRANCH   3   4
ENDBRANCH   2   3
ENDBRANCH   1   2
BRANCH   1  13
ATOM     13  C   UNL     1      35.495  13.561  41.466  1.00  0.00     0.000 C 
BRANCH  13  14
ATOM     14  C   UNL     1      35.240  13.626  42.983  1.00  0.00     0.000 C 
BRANCH  14  15
ATOM     15  C   UNL     1      35.711  14.927  43.666  1.00  0.00     0.000 C 
BRANCH  15  16
ATOM     16  C   UNL     1      34.607  15.971  43.914  1.00  0.00     0.000 C 
BRANCH  16  17
ATOM     17  C   UNL     1      34.729  17.197  42.998  1.00  0.00     0.000 C 
BRANCH  17  18
ATOM     18  C   UNL     1      33.827  17.059  41.764  1.00  0.00     0.000 C 
BRANCH  18  19
ATOM     19  C   UNL     1      34.215  18.048  40.642  1.00  0.00     0.000 C 
BRANCH  19  20
ATOM     20  C   UNL     1      33.403  17.861  39.346  1.00  0.00     0.006 C 
BRANCH  20  21
ATOM     21  C   UNL     1      32.142  18.734  39.266  1.00  0.00     0.053 C 
BRANCH  21  22
ATOM     22  C   UNL     1      31.586  18.787  37.874  1.00  0.00     0.041 C 
ATOM     23  O   UNL     1      31.210  19.885  37.387  1.00  0.00    -0.550 OA
ATOM     24  O   UNL     1      31.469  17.624  37.122  1.00  0.00    -0.550 OA
ENDBRANCH  21  22
ENDBRANCH  20  21
ENDBRANCH  19  20
ENDBRANCH  18  19
ENDBRANCH  17  18
ENDBRANCH  16  17
ENDBRANCH  15  16
ENDBRANCH  14  15
ENDBRANCH  13  14
ENDBRANCH   1  13
TORSDOF 20
ENDMDL
MODEL 8
REMARK VINA RESULT:    11.964      2.647      4.732
REMARK INTER + INTRA:          24.503
REMARK INTER:                  25.377
REMARK INTRA:                  -0.874
REMARK UNBOUND:                -1.449
REMARK SMILES CCCCCCCCCCCCCCCCCCCCCC(=O)[O-]
REMARK SMILES IDX 12 1 11 2 10 3 9 4 8 5 7 6 6 7 5 8 4 9 3 10 2 11 1 12 13 13
REMARK SMILES IDX 14 14 15 15 16 16 17 17 18 18 19 19 20 20 21 21 22 22 23 23
REMARK SMILES IDX 24 24
REMARK H PARENT
REMARK Flexibility Score: inf
ROOT
ATOM      1  C   UNL     1      34.569  17.594  43.190  1.00  0.00     0.000 C 
ENDROOT
BRANCH   1   2
ATOM      2  C   UNL     1      33.441  17.811  42.168  1.00  0.00     0.000 C 
BRANCH   2   3
ATOM      3  C   UNL     1      33.768  17.197  40.796  1.00  0.00     0.000 C 
BRANCH   3   4
ATOM      4  C   UNL     1      34.406  18.221  39.832  1.00  0.00    -0.000 C 
BRANCH   4   5
ATOM      5  C   UNL     1      33.586  18.463  38.548  1.00  0.00    -0.000 C 
BRANCH   5   6
ATOM      6  C   UNL     1      32.129  17.972  38.607  1.00  0.00    -0.000 C 
BRANCH   6   7
ATOM      7  C   UNL     1      31.272  18.333  37.377  1.00  0.00    -0.000 C 
BRANCH   7   8
ATOM      8  C   UNL     1      31.168  19.852  37.116  1.00  0.00    -0.000 C 
BRANCH   8   9
ATOM      9  C   UNL     1      31.420  20.682  38.387  1.00  0.00    -0.000 C 
BRANCH   9  10
ATOM     10  C   UNL     1      31.048  22.162  38.208  1.00  0.00    -0.000 C 
BRANCH  10  11
ATOM     11  C   UNL     1      32.255  23.038  37.841  1.00  0.00    -0.003 C 
ATOM     12  C   UNL     1      32.040  23.727  36.496  1.00  0.00     0.004 C 
ENDBRANCH  10  11
ENDBRANCH   9  10
ENDBRANCH   8   9
ENDBRANCH   7   8
ENDBRANCH   6   7
ENDBRANCH   5   6
ENDBRANCH   4   5
ENDBRANCH   3   4
ENDBRANCH   2   3
ENDBRANCH   1   2
BRANCH   1  13
ATOM     13  C   UNL     1      34.604  16.155  43.732  1.00  0.00     0.000 C 
BRANCH  13  14
ATOM     14  C   UNL     1      36.031  15.679  44.061  1.00  0.00     0.000 C 
BRANCH  14  15
ATOM     15  C   UNL     1      36.393  14.283  43.514  1.00  0.00     0.000 C 
BRANCH  15  16
ATOM     16  C   UNL     1      35.217  13.489  42.917  1.00  0.00     0.000 C 
BRANCH  16  17
ATOM     17  C   UNL     1      35.541  12.884  41.544  1.00  0.00     0.000 C 
BRANCH  17  18
ATOM     18  C   UNL     1      34.609  13.439  40.459  1.00  0.00     0.000 C 
BRANCH  18  19
ATOM     19  C   UNL     1      33.419  12.496  40.171  1.00  0.00     0.000 C 
BRANCH  19  20
ATOM     20  C   UNL     1      32.843  11.825  41.433  1.00  0.00     0.006 C 
BRANCH  20  21
ATOM     21  C   UNL     1      32.744  10.296  41.339  1.00  0.00     0.053 C 
BRANCH  21  22
ATOM     22  C   UNL     1      33.377   9.769  40.086  1.00  0.00     0.041 C 
ATOM     23  O   UNL     1      34.588   9.424  40.088  1.00  0.00    -0.550 OA
ATOM     24  O   UNL     1      32.637   9.674  38.914  1.00  0.00    -0.550 OA
ENDBRANCH  21  22
ENDBRANCH  20  21
ENDBRANCH  19  20
ENDBRANCH  18  19
ENDBRANCH  17  18
ENDBRANCH  16  17
ENDBRANCH  15  16
ENDBRANCH  14  15
ENDBRANCH  13  14
ENDBRANCH   1  13
TORSDOF 20
ENDMDL
MODEL 9
REMARK VINA RESULT:    12.224      2.399      2.628
REMARK INTER + INTRA:          25.067
REMARK INTER:                  26.511
REMARK INTRA:                  -1.444
REMARK UNBOUND:                -1.449
REMARK SMILES CCCCCCCCCCCCCCCCCCCCCC(=O)[O-]
REMARK SMILES IDX 12 1 11 2 10 3 9 4 8 5 7 6 6 7 5 8 4 9 3 10 2 11 1 12 13 13
REMARK SMILES IDX 14 14 15 15 16 16 17 17 18 18 19 19 20 20 21 21 22 22 23 23
REMARK SMILES IDX 24 24
REMARK H PARENT
REMARK Flexibility Score: inf
ROOT
ATOM      1  C   UNL     1      35.276  13.523  42.816  1.00  0.00     0.000 C 
ENDROOT
BRANCH   1   2
ATOM      2  C   UNL     1      36.393  14.358  43.462  1.00  0.00     0.000 C 
BRANCH   2   3
ATOM      3  C   UNL     1      35.887  15.720  43.969  1.00  0.00     0.000 C 
BRANCH   3   4
ATOM      4  C   UNL     1      34.359  15.733  44.191  1.00  0.00    -0.000 C 
BRANCH   4   5
ATOM      5  C   UNL     1      33.614  16.772  43.328  1.00  0.00    -0.000 C 
BRANCH   5   6
ATOM      6  C   UNL     1      34.438  17.368  42.173  1.00  0.00    -0.000 C 
BRANCH   6   7
ATOM      7  C   UNL     1      33.611  18.101  41.096  1.00  0.00    -0.000 C 
BRANCH   7   8
ATOM      8  C   UNL     1      33.738  17.481  39.688  1.00  0.00    -0.000 C 
BRANCH   8   9
ATOM      9  C   UNL     1      33.153  18.391  38.593  1.00  0.00    -0.000 C 
BRANCH   9  10
ATOM     10  C   UNL     1      31.887  17.803  37.951  1.00  0.00    -0.000 C 
BRANCH  10  11
ATOM     11  C   UNL     1      30.931  18.884  37.427  1.00  0.00    -0.003 C 
ATOM     12  C   UNL     1      31.298  20.257  37.986  1.00  0.00     0.004 C 
ENDBRANCH  10  11
ENDBRANCH   9  10
ENDBRANCH   8   9
ENDBRANCH   7   8
ENDBRANCH   6   7
ENDBRANCH   5   6
ENDBRANCH   4   5
ENDBRANCH   3   4
ENDBRANCH   2   3
ENDBRANCH   1   2
BRANCH   1  13
ATOM     13  C   UNL     1      35.514  13.282  41.315  1.00  0.00     0.000 C 
BRANCH  13  14
ATOM     14  C   UNL     1      34.294  13.654  40.453  1.00  0.00     0.000 C 
BRANCH  14  15
ATOM     15  C   UNL     1      33.467  12.455  39.945  1.00  0.00     0.000 C 
BRANCH  15  16
ATOM     16  C   UNL     1      33.429  11.240  40.890  1.00  0.00     0.000 C 
BRANCH  16  17
ATOM     17  C   UNL     1      34.133  10.007  40.306  1.00  0.00     0.000 C 
BRANCH  17  18
ATOM     18  C   UNL     1      33.124   9.046  39.662  1.00  0.00     0.000 C 
BRANCH  18  19
ATOM     19  C   UNL     1      31.674   9.569  39.758  1.00  0.00     0.000 C 
BRANCH  19  20
ATOM     20  C   UNL     1      30.867   9.393  38.458  1.00  0.00     0.006 C 
BRANCH  20  21
ATOM     21  C   UNL     1      29.572   8.585  38.629  1.00  0.00     0.053 C 
BRANCH  21  22
ATOM     22  C   UNL     1      28.653   8.746  37.455  1.00  0.00     0.041 C 
ATOM     23  O   UNL     1      28.065   9.842  37.259  1.00  0.00    -0.550 OA
ATOM     24  O   UNL     1      28.434   7.684  36.586  1.00  0.00    -0.550 OA
ENDBRANCH  21  22
ENDBRANCH  20  21
ENDBRANCH  19  20
ENDBRANCH  18  19
ENDBRANCH  17  18
ENDBRANCH  16  17
ENDBRANCH  15  16
ENDBRANCH  14  15
ENDBRANCH  13  14
ENDBRANCH   1  13
TORSDOF 20
ENDMDL
