MODEL 1
REMARK VINA RESULT:    -3.695      0.000      0.000
REMARK INTER + INTRA:          -4.965
REMARK INTER:                  -4.775
REMARK INTRA:                  -0.190
REMARK UNBOUND:                -0.190
REMARK SMILES CCO[C@@H]1O[C@H](CO)[C@H](O)[C@@H](O)[C@H]1O
REMARK SMILES IDX 4 1 13 2 11 3 9 4 6 5 5 6 3 7 2 8 1 9 14 10 12 12 7 14 8 15
REMARK SMILES IDX 10 17
REMARK H PARENT 14 11 12 13 8 16 10 18
REMARK Flexibility Score: inf
ROOT
ATOM      1  C   UNL     1      34.384  37.468   0.194  1.00  0.00     0.281 C 
ATOM      2  C   UNL     1      34.053  38.504   1.315  1.00  0.00     0.202 C 
ATOM      3  C   UNL     1      32.635  38.271   1.875  1.00  0.00     0.179 C 
ATOM      4  C   UNL     1      32.426  36.798   2.300  1.00  0.00     0.177 C 
ATOM      5  C   UNL     1      33.224  35.831   1.377  1.00  0.00     0.178 C 
ATOM      6  O   UNL     1      33.426  36.416   0.104  1.00  0.00    -0.341 OA
ENDROOT
BRANCH   1   7
ATOM      7  O   UNL     1      34.573  38.102  -1.063  1.00  0.00    -0.350 OA
BRANCH   7   8
ATOM      8  C   UNL     1      33.374  38.177  -1.812  1.00  0.00     0.160 C 
ATOM      9  C   UNL     1      33.683  38.749  -3.188  1.00  0.00     0.035 C 
ENDBRANCH   7   8
ENDBRANCH   1   7
BRANCH   2  10
ATOM     10  O   UNL     1      34.986  38.384   2.362  1.00  0.00    -0.385 OA
ATOM     11  H   UNL     1      34.609  38.858   3.151  1.00  0.00     0.211 HD
ENDBRANCH   2  10
BRANCH   3  12
ATOM     12  O   UNL     1      32.400  39.113   2.975  1.00  0.00    -0.387 OA
ATOM     13  H   UNL     1      33.272  39.527   3.210  1.00  0.00     0.211 HD
ENDBRANCH   3  12
BRANCH   5  14
ATOM     14  C   UNL     1      32.534  34.471   1.202  1.00  0.00     0.191 C 
BRANCH  14  15
ATOM     15  O   UNL     1      33.286  33.475   1.840  1.00  0.00    -0.394 OA
ATOM     16  H   UNL     1      32.765  33.209   2.643  1.00  0.00     0.210 HD
ENDBRANCH  14  15
ENDBRANCH   5  14
BRANCH   4  17
ATOM     17  O   UNL     1      31.052  36.503   2.275  1.00  0.00    -0.387 OA
ATOM     18  H   UNL     1      30.965  35.560   1.976  1.00  0.00     0.211 HD
ENDBRANCH   4  17
TORSDOF 7
ENDMDL
MODEL 2
REMARK VINA RESULT:    -2.613      2.342      4.795
REMARK INTER + INTRA:          -3.567
REMARK INTER:                  -3.200
REMARK INTRA:                  -0.367
REMARK UNBOUND:                -0.190
REMARK SMILES CCO[C@@H]1O[C@H](CO)[C@H](O)[C@@H](O)[C@H]1O
REMARK SMILES IDX 4 1 13 2 11 3 9 4 6 5 5 6 3 7 2 8 1 9 14 10 12 12 7 14 8 15
REMARK SMILES IDX 10 17
REMARK H PARENT 14 11 12 13 8 16 10 18
REMARK Flexibility Score: inf
ROOT
ATOM      1  C   UNL     1      34.414  37.821   3.196  1.00  0.00     0.281 C 
ATOM      2  C   UNL     1      34.524  36.505   2.362  1.00  0.00     0.202 C 
ATOM      3  C   UNL     1      33.142  35.844   2.197  1.00  0.00     0.179 C 
ATOM      4  C   UNL     1      32.093  36.844   1.656  1.00  0.00     0.177 C 
ATOM      5  C   UNL     1      32.370  38.283   2.180  1.00  0.00     0.178 C 
ATOM      6  O   UNL     1      33.068  38.236   3.411  1.00  0.00    -0.341 OA
ENDROOT
BRANCH   1   7
ATOM      7  O   UNL     1      35.125  37.722   4.422  1.00  0.00    -0.350 OA
BRANCH   7   8
ATOM      8  C   UNL     1      34.592  38.570   5.423  1.00  0.00     0.160 C 
ATOM      9  C   UNL     1      35.047  38.075   6.787  1.00  0.00     0.035 C 
ENDBRANCH   7   8
ENDBRANCH   1   7
BRANCH   2  10
ATOM     10  O   UNL     1      35.050  36.794   1.088  1.00  0.00    -0.385 OA
ATOM     11  H   UNL     1      34.978  35.966   0.543  1.00  0.00     0.211 HD
ENDBRANCH   2  10
BRANCH   3  12
ATOM     12  O   UNL     1      33.228  34.741   1.330  1.00  0.00    -0.387 OA
ATOM     13  H   UNL     1      34.181  34.661   1.062  1.00  0.00     0.211 HD
ENDBRANCH   3  12
BRANCH   5  14
ATOM     14  C   UNL     1      31.089  39.108   2.359  1.00  0.00     0.191 C 
BRANCH  14  15
ATOM     15  O   UNL     1      30.364  39.122   1.159  1.00  0.00    -0.394 OA
ATOM     16  H   UNL     1      30.557  38.256   0.712  1.00  0.00     0.210 HD
ENDBRANCH  14  15
ENDBRANCH   5  14
BRANCH   4  17
ATOM     17  O   UNL     1      30.808  36.409   2.026  1.00  0.00    -0.387 OA
ATOM     18  H   UNL     1      30.167  37.089   1.692  1.00  0.00     0.211 HD
ENDBRANCH   4  17
TORSDOF 7
ENDMDL
MODEL 3
REMARK VINA RESULT:    -1.614      1.459      4.212
REMARK INTER + INTRA:          -2.276
REMARK INTER:                  -2.206
REMARK INTRA:                  -0.070
REMARK UNBOUND:                -0.190
REMARK SMILES CCO[C@@H]1O[C@H](CO)[C@H](O)[C@@H](O)[C@H]1O
REMARK SMILES IDX 4 1 13 2 11 3 9 4 6 5 5 6 3 7 2 8 1 9 14 10 12 12 7 14 8 15
REMARK SMILES IDX 10 17
REMARK H PARENT 14 11 12 13 8 16 10 18
REMARK Flexibility Score: inf
ROOT
ATOM      1  C   UNL     1      32.437  35.999   0.997  1.00  0.00     0.281 C 
ATOM      2  C   UNL     1      32.842  37.056   2.072  1.00  0.00     0.202 C 
ATOM      3  C   UNL     1      34.065  37.871   1.606  1.00  0.00     0.179 C 
ATOM      4  C   UNL     1      33.850  38.463   0.193  1.00  0.00     0.177 C 
ATOM      5  C   UNL     1      32.986  37.513  -0.686  1.00  0.00     0.178 C 
ATOM      6  O   UNL     1      33.116  36.174  -0.244  1.00  0.00    -0.341 OA
ENDROOT
BRANCH   1   7
ATOM      7  O   UNL     1      32.591  34.673   1.485  1.00  0.00    -0.350 OA
BRANCH   7   8
ATOM      8  C   UNL     1      33.853  34.467   2.092  1.00  0.00     0.160 C 
ATOM      9  C   UNL     1      33.967  33.011   2.519  1.00  0.00     0.035 C 
ENDBRANCH   7   8
ENDBRANCH   1   7
BRANCH   2  10
ATOM     10  O   UNL     1      31.766  37.934   2.302  1.00  0.00    -0.385 OA
ATOM     11  H   UNL     1      31.497  38.311   1.422  1.00  0.00     0.211 HD
ENDBRANCH   2  10
BRANCH   3  12
ATOM     12  O   UNL     1      34.334  38.910   2.513  1.00  0.00    -0.387 OA
ATOM     13  H   UNL     1      34.393  39.747   1.980  1.00  0.00     0.211 HD
ENDBRANCH   3  12
BRANCH   5  14
ATOM     14  C   UNL     1      33.345  37.589  -2.175  1.00  0.00     0.191 C 
BRANCH  14  15
ATOM     15  O   UNL     1      32.286  37.087  -2.944  1.00  0.00    -0.394 OA
ATOM     16  H   UNL     1      31.468  37.203  -2.392  1.00  0.00     0.210 HD
ENDBRANCH  14  15
ENDBRANCH   5  14
BRANCH   4  17
ATOM     17  O   UNL     1      35.101  38.703  -0.401  1.00  0.00    -0.387 OA
ATOM     18  H   UNL     1      35.474  39.515   0.033  1.00  0.00     0.211 HD
ENDBRANCH   4  17
TORSDOF 7
ENDMDL
