MODEL 1
REMARK VINA RESULT:    -3.460      0.000      0.000
REMARK INTER + INTRA:          -4.803
REMARK INTER:                  -4.572
REMARK INTRA:                  -0.230
REMARK UNBOUND:                -0.230
REMARK SMILES C=C[C@@H](O)CCCCC
REMARK SMILES IDX 6 1 7 2 8 3 9 4 5 5 3 6 2 7 1 8 4 9
REMARK H PARENT 4 10
REMARK Flexibility Score: inf
ROOT
ATOM      1  C   UNL     1     136.058 136.631 143.991  1.00  0.00     0.003 C 
ENDROOT
BRANCH   1   2
ATOM      2  C   UNL     1     135.311 135.909 142.858  1.00  0.00    -0.000 C 
BRANCH   2   3
ATOM      3  C   UNL     1     135.650 136.480 141.472  1.00  0.00    -0.003 C 
ATOM      4  C   UNL     1     134.425 137.029 140.740  1.00  0.00     0.004 C 
ENDBRANCH   2   3
ENDBRANCH   1   2
BRANCH   1   5
ATOM      5  C   UNL     1     137.039 137.702 143.481  1.00  0.00     0.036 C 
BRANCH   5   6
ATOM      6  C   UNL     1     138.524 137.277 143.572  1.00  0.00     0.136 C 
BRANCH   6   7
ATOM      7  C   UNL     1     139.318 137.772 142.384  1.00  0.00    -0.004 C 
ATOM      8  C   UNL     1     140.638 137.982 142.435  1.00  0.00     0.007 C 
ENDBRANCH   6   7
BRANCH   6   9
ATOM      9  O   UNL     1     139.123 137.703 144.770  1.00  0.00    -0.389 OA
ATOM     10  H   UNL     1     139.875 137.088 144.975  1.00  0.00     0.211 HD
ENDBRANCH   6   9
ENDBRANCH   5   6
ENDBRANCH   1   5
TORSDOF 6
ENDMDL
MODEL 2
REMARK VINA RESULT:    -3.401      1.445      4.793
REMARK INTER + INTRA:          -4.724
REMARK INTER:                  -4.432
REMARK INTRA:                  -0.293
REMARK UNBOUND:                -0.230
REMARK SMILES C=C[C@@H](O)CCCCC
REMARK SMILES IDX 6 1 7 2 8 3 9 4 5 5 3 6 2 7 1 8 4 9
REMARK H PARENT 4 10
REMARK Flexibility Score: inf
ROOT
ATOM      1  C   UNL     1     140.019 136.912 141.957  1.00  0.00     0.003 C 
ENDROOT
BRANCH   1   2
ATOM      2  C   UNL     1     140.709 138.261 142.219  1.00  0.00    -0.000 C 
BRANCH   2   3
ATOM      3  C   UNL     1     142.235 138.128 142.339  1.00  0.00    -0.003 C 
ATOM      4  C   UNL     1     142.913 137.835 141.001  1.00  0.00     0.004 C 
ENDBRANCH   2   3
ENDBRANCH   1   2
BRANCH   1   5
ATOM      5  C   UNL     1     139.153 136.438 143.138  1.00  0.00     0.036 C 
BRANCH   5   6
ATOM      6  C   UNL     1     138.622 137.593 144.021  1.00  0.00     0.136 C 
BRANCH   6   7
ATOM      7  C   UNL     1     137.175 137.908 143.713  1.00  0.00    -0.004 C 
ATOM      8  C   UNL     1     136.427 137.149 142.905  1.00  0.00     0.007 C 
ENDBRANCH   6   7
BRANCH   6   9
ATOM      9  O   UNL     1     138.782 137.327 145.392  1.00  0.00    -0.389 OA
ATOM     10  H   UNL     1     139.336 138.051 145.784  1.00  0.00     0.211 HD
ENDBRANCH   6   9
ENDBRANCH   5   6
ENDBRANCH   1   5
TORSDOF 6
ENDMDL
MODEL 3
REMARK VINA RESULT:    -3.382     10.911     12.483
REMARK INTER + INTRA:          -4.700
REMARK INTER:                  -4.105
REMARK INTRA:                  -0.595
REMARK UNBOUND:                -0.230
REMARK SMILES C=C[C@@H](O)CCCCC
REMARK SMILES IDX 6 1 7 2 8 3 9 4 5 5 3 6 2 7 1 8 4 9
REMARK H PARENT 4 10
REMARK Flexibility Score: inf
ROOT
ATOM      1  C   UNL     1     125.097 135.684 147.598  1.00  0.00     0.003 C 
ENDROOT
BRANCH   1   2
ATOM      2  C   UNL     1     124.363 136.860 148.264  1.00  0.00    -0.000 C 
BRANCH   2   3
ATOM      3  C   UNL     1     125.320 137.812 148.997  1.00  0.00    -0.003 C 
ATOM      4  C   UNL     1     125.475 139.159 148.291  1.00  0.00     0.004 C 
ENDBRANCH   2   3
ENDBRANCH   1   2
BRANCH   1   5
ATOM      5  C   UNL     1     125.015 135.714 146.062  1.00  0.00     0.036 C 
BRANCH   5   6
ATOM      6  C   UNL     1     126.067 136.638 145.401  1.00  0.00     0.136 C 
BRANCH   6   7
ATOM      7  C   UNL     1     127.446 136.410 145.979  1.00  0.00    -0.004 C 
ATOM      8  C   UNL     1     128.229 137.412 146.395  1.00  0.00     0.007 C 
ENDBRANCH   6   7
BRANCH   6   9
ATOM      9  O   UNL     1     126.094 136.494 144.003  1.00  0.00    -0.389 OA
ATOM     10  H   UNL     1     126.895 136.971 143.661  1.00  0.00     0.211 HD
ENDBRANCH   6   9
ENDBRANCH   5   6
ENDBRANCH   1   5
TORSDOF 6
ENDMDL
MODEL 4
REMARK VINA RESULT:    -3.344      1.577      2.336
REMARK INTER + INTRA:          -4.649
REMARK INTER:                  -4.282
REMARK INTRA:                  -0.367
REMARK UNBOUND:                -0.230
REMARK SMILES C=C[C@@H](O)CCCCC
REMARK SMILES IDX 6 1 7 2 8 3 9 4 5 5 3 6 2 7 1 8 4 9
REMARK H PARENT 4 10
REMARK Flexibility Score: inf
ROOT
ATOM      1  C   UNL     1     138.231 137.517 144.368  1.00  0.00     0.003 C 
ENDROOT
BRANCH   1   2
ATOM      2  C   UNL     1     137.051 137.875 143.451  1.00  0.00    -0.000 C 
BRANCH   2   3
ATOM      3  C   UNL     1     136.181 136.656 143.107  1.00  0.00    -0.003 C 
ATOM      4  C   UNL     1     136.156 136.348 141.609  1.00  0.00     0.004 C 
ENDBRANCH   2   3
ENDBRANCH   1   2
BRANCH   1   5
ATOM      5  C   UNL     1     139.426 136.918 143.607  1.00  0.00     0.036 C 
BRANCH   5   6
ATOM      6  C   UNL     1     139.660 137.556 142.216  1.00  0.00     0.136 C 
BRANCH   6   7
ATOM      7  C   UNL     1     140.899 138.423 142.203  1.00  0.00    -0.004 C 
ATOM      8  C   UNL     1     142.081 138.000 142.664  1.00  0.00     0.007 C 
ENDBRANCH   6   7
BRANCH   6   9
ATOM      9  O   UNL     1     139.729 136.591 141.196  1.00  0.00    -0.389 OA
ATOM     10  H   UNL     1     140.677 136.512 140.912  1.00  0.00     0.211 HD
ENDBRANCH   6   9
ENDBRANCH   5   6
ENDBRANCH   1   5
TORSDOF 6
ENDMDL
MODEL 5
REMARK VINA RESULT:    -3.283      1.537      2.673
REMARK INTER + INTRA:          -4.569
REMARK INTER:                  -4.107
REMARK INTRA:                  -0.461
REMARK UNBOUND:                -0.230
REMARK SMILES C=C[C@@H](O)CCCCC
REMARK SMILES IDX 6 1 7 2 8 3 9 4 5 5 3 6 2 7 1 8 4 9
REMARK H PARENT 4 10
REMARK Flexibility Score: inf
ROOT
ATOM      1  C   UNL     1     137.709 136.513 142.183  1.00  0.00     0.003 C 
ENDROOT
BRANCH   1   2
ATOM      2  C   UNL     1     136.622 136.077 141.187  1.00  0.00    -0.000 C 
BRANCH   2   3
ATOM      3  C   UNL     1     135.203 136.368 141.699  1.00  0.00    -0.003 C 
ATOM      4  C   UNL     1     134.337 137.097 140.671  1.00  0.00     0.004 C 
ENDBRANCH   2   3
ENDBRANCH   1   2
BRANCH   1   5
ATOM      5  C   UNL     1     137.291 137.718 143.043  1.00  0.00     0.036 C 
BRANCH   5   6
ATOM      6  C   UNL     1     137.615 137.551 144.547  1.00  0.00     0.136 C 
BRANCH   6   7
ATOM      7  C   UNL     1     137.003 136.287 145.110  1.00  0.00    -0.004 C 
ATOM      8  C   UNL     1     135.699 136.176 145.383  1.00  0.00     0.007 C 
ENDBRANCH   6   7
BRANCH   6   9
ATOM      9  O   UNL     1     138.998 137.576 144.796  1.00  0.00    -0.389 OA
ATOM     10  H   UNL     1     139.352 138.447 144.478  1.00  0.00     0.211 HD
ENDBRANCH   6   9
ENDBRANCH   5   6
ENDBRANCH   1   5
TORSDOF 6
ENDMDL
MODEL 6
REMARK VINA RESULT:    -3.148      1.138      2.006
REMARK INTER + INTRA:          -4.390
REMARK INTER:                  -4.168
REMARK INTRA:                  -0.222
REMARK UNBOUND:                -0.230
REMARK SMILES C=C[C@@H](O)CCCCC
REMARK SMILES IDX 6 1 7 2 8 3 9 4 5 5 3 6 2 7 1 8 4 9
REMARK H PARENT 4 10
REMARK Flexibility Score: inf
ROOT
ATOM      1  C   UNL     1     136.192 137.072 142.681  1.00  0.00     0.003 C 
ENDROOT
BRANCH   1   2
ATOM      2  C   UNL     1     136.122 135.727 143.422  1.00  0.00    -0.000 C 
BRANCH   2   3
ATOM      3  C   UNL     1     134.769 135.508 144.117  1.00  0.00    -0.003 C 
ATOM      4  C   UNL     1     134.734 136.066 145.540  1.00  0.00     0.004 C 
ENDBRANCH   2   3
ENDBRANCH   1   2
BRANCH   1   5
ATOM      5  C   UNL     1     137.280 138.009 143.235  1.00  0.00     0.036 C 
BRANCH   5   6
ATOM      6  C   UNL     1     138.653 137.320 143.429  1.00  0.00     0.136 C 
BRANCH   6   7
ATOM      7  C   UNL     1     139.576 137.583 142.260  1.00  0.00    -0.004 C 
ATOM      8  C   UNL     1     140.721 138.263 142.382  1.00  0.00     0.007 C 
ENDBRANCH   6   7
BRANCH   6   9
ATOM      9  O   UNL     1     139.271 137.701 144.632  1.00  0.00    -0.389 OA
ATOM     10  H   UNL     1     139.786 138.533 144.465  1.00  0.00     0.211 HD
ENDBRANCH   6   9
ENDBRANCH   5   6
ENDBRANCH   1   5
TORSDOF 6
ENDMDL
MODEL 7
REMARK VINA RESULT:    -3.137      1.516      4.280
REMARK INTER + INTRA:          -4.376
REMARK INTER:                  -4.017
REMARK INTRA:                  -0.359
REMARK UNBOUND:                -0.230
REMARK SMILES C=C[C@@H](O)CCCCC
REMARK SMILES IDX 6 1 7 2 8 3 9 4 5 5 3 6 2 7 1 8 4 9
REMARK H PARENT 4 10
REMARK Flexibility Score: inf
ROOT
ATOM      1  C   UNL     1     137.094 137.869 143.320  1.00  0.00     0.003 C 
ENDROOT
BRANCH   1   2
ATOM      2  C   UNL     1     138.597 137.650 143.554  1.00  0.00    -0.000 C 
BRANCH   2   3
ATOM      3  C   UNL     1     139.381 137.489 142.243  1.00  0.00    -0.003 C 
ATOM      4  C   UNL     1     140.723 138.221 142.258  1.00  0.00     0.004 C 
ENDBRANCH   2   3
ENDBRANCH   1   2
BRANCH   1   5
ATOM      5  C   UNL     1     136.241 136.641 143.684  1.00  0.00     0.036 C 
BRANCH   5   6
ATOM      6  C   UNL     1     135.952 135.708 142.483  1.00  0.00     0.136 C 
BRANCH   6   7
ATOM      7  C   UNL     1     135.725 136.494 141.210  1.00  0.00    -0.004 C 
ATOM      8  C   UNL     1     134.517 136.928 140.835  1.00  0.00     0.007 C 
ENDBRANCH   6   7
BRANCH   6   9
ATOM      9  O   UNL     1     136.970 134.757 142.294  1.00  0.00    -0.389 OA
ATOM     10  H   UNL     1     137.470 134.668 143.146  1.00  0.00     0.211 HD
ENDBRANCH   6   9
ENDBRANCH   5   6
ENDBRANCH   1   5
TORSDOF 6
ENDMDL
MODEL 8
REMARK VINA RESULT:    -3.113     11.051     12.709
REMARK INTER + INTRA:          -4.345
REMARK INTER:                  -3.931
REMARK INTRA:                  -0.414
REMARK UNBOUND:                -0.230
REMARK SMILES C=C[C@@H](O)CCCCC
REMARK SMILES IDX 6 1 7 2 8 3 9 4 5 5 3 6 2 7 1 8 4 9
REMARK H PARENT 4 10
REMARK Flexibility Score: inf
ROOT
ATOM      1  C   UNL     1     124.726 136.544 147.810  1.00  0.00     0.003 C 
ENDROOT
BRANCH   1   2
ATOM      2  C   UNL     1     125.091 135.513 148.891  1.00  0.00    -0.000 C 
BRANCH   2   3
ATOM      3  C   UNL     1     125.372 134.121 148.306  1.00  0.00    -0.003 C 
ATOM      4  C   UNL     1     125.071 132.990 149.290  1.00  0.00     0.004 C 
ENDBRANCH   2   3
ENDBRANCH   1   2
BRANCH   1   5
ATOM      5  C   UNL     1     124.971 136.031 146.380  1.00  0.00     0.036 C 
BRANCH   5   6
ATOM      6  C   UNL     1     125.796 137.005 145.505  1.00  0.00     0.136 C 
BRANCH   6   7
ATOM      7  C   UNL     1     127.150 137.291 146.116  1.00  0.00    -0.004 C 
ATOM      8  C   UNL     1     128.092 136.353 146.257  1.00  0.00     0.007 C 
ENDBRANCH   6   7
BRANCH   6   9
ATOM      9  O   UNL     1     125.946 136.535 144.188  1.00  0.00    -0.389 OA
ATOM     10  H   UNL     1     125.855 135.547 144.202  1.00  0.00     0.211 HD
ENDBRANCH   6   9
ENDBRANCH   5   6
ENDBRANCH   1   5
TORSDOF 6
ENDMDL
MODEL 9
REMARK VINA RESULT:    -3.085      2.666      4.749
REMARK INTER + INTRA:          -4.307
REMARK INTER:                  -4.004
REMARK INTRA:                  -0.303
REMARK UNBOUND:                -0.230
REMARK SMILES C=C[C@@H](O)CCCCC
REMARK SMILES IDX 6 1 7 2 8 3 9 4 5 5 3 6 2 7 1 8 4 9
REMARK H PARENT 4 10
REMARK Flexibility Score: inf
ROOT
ATOM      1  C   UNL     1     139.670 137.279 142.282  1.00  0.00     0.003 C 
ENDROOT
BRANCH   1   2
ATOM      2  C   UNL     1     140.694 138.420 142.162  1.00  0.00    -0.000 C 
BRANCH   2   3
ATOM      3  C   UNL     1     142.141 137.934 142.342  1.00  0.00    -0.003 C 
ATOM      4  C   UNL     1     142.902 137.833 141.020  1.00  0.00     0.004 C 
ENDBRANCH   2   3
ENDBRANCH   1   2
BRANCH   1   5
ATOM      5  C   UNL     1     138.608 137.533 143.365  1.00  0.00     0.036 C 
BRANCH   5   6
ATOM      6  C   UNL     1     138.757 136.620 144.607  1.00  0.00     0.136 C 
BRANCH   6   7
ATOM      7  C   UNL     1     139.896 135.639 144.442  1.00  0.00    -0.004 C 
ATOM      8  C   UNL     1     140.327 134.859 145.439  1.00  0.00     0.007 C 
ENDBRANCH   6   7
BRANCH   6   9
ATOM      9  O   UNL     1     138.920 137.360 145.791  1.00  0.00    -0.389 OA
ATOM     10  H   UNL     1     138.054 137.356 146.277  1.00  0.00     0.211 HD
ENDBRANCH   6   9
ENDBRANCH   5   6
ENDBRANCH   1   5
TORSDOF 6
ENDMDL
