MODEL 1
REMARK VINA RESULT:    -4.735      0.000      0.000
REMARK INTER + INTRA:          -4.874
REMARK INTER:                  -4.874
REMARK INTRA:                   0.000
REMARK UNBOUND:                 0.000
REMARK SMILES Nc1ncnc2nc[nH]c12
REMARK SMILES IDX 8 1 7 2 6 3 5 4 4 5 3 6 2 7 10 8 9 9 1 11
REMARK H PARENT 9 10 1 12 1 13
REMARK Flexibility Score: inf
ROOT
ATOM      1  C   UNL     1      43.422   9.489   5.153  1.00  0.00     0.199 A 
ATOM      2  N   UNL     1      44.501  10.097   5.719  1.00  0.00    -0.217 NA
ATOM      3  C   UNL     1      45.331   9.064   5.933  1.00  0.00     0.182 A 
ATOM      4  N   UNL     1      46.566   9.121   6.486  1.00  0.00    -0.215 NA
ATOM      5  C   UNL     1      47.266   7.955   6.624  1.00  0.00     0.226 A 
ATOM      6  N   UNL     1      46.725   6.765   6.209  1.00  0.00    -0.217 NA
ATOM      7  C   UNL     1      45.478   6.705   5.651  1.00  0.00     0.152 A 
ATOM      8  C   UNL     1      44.779   7.901   5.518  1.00  0.00     0.127 A 
ATOM      9  N   UNL     1      43.562   8.147   5.017  1.00  0.00    -0.340 N 
ATOM     10  H   UNL     1      42.873   7.474   4.614  1.00  0.00     0.168 HD
ENDROOT
BRANCH   7  11
ATOM     11  N   UNL     1      44.935   5.454   5.227  1.00  0.00    -0.382 N 
ATOM     12  H   UNL     1      45.366   4.943   4.425  1.00  0.00     0.158 HD
ATOM     13  H   UNL     1      44.108   5.031   5.702  1.00  0.00     0.158 HD
ENDBRANCH   7  11
TORSDOF 1
ENDMDL
MODEL 2
REMARK VINA RESULT:    -4.531      2.403      3.014
REMARK INTER + INTRA:          -4.663
REMARK INTER:                  -4.663
REMARK INTRA:                   0.000
REMARK UNBOUND:                 0.000
REMARK SMILES Nc1ncnc2nc[nH]c12
REMARK SMILES IDX 8 1 7 2 6 3 5 4 4 5 3 6 2 7 10 8 9 9 1 11
REMARK H PARENT 9 10 1 12 1 13
REMARK Flexibility Score: inf
ROOT
ATOM      1  C   UNL     1      44.638   6.795   5.481  1.00  0.00     0.199 A 
ATOM      2  N   UNL     1      44.904   7.819   4.626  1.00  0.00    -0.217 NA
ATOM      3  C   UNL     1      46.166   7.557   4.251  1.00  0.00     0.182 A 
ATOM      4  N   UNL     1      46.922   8.283   3.391  1.00  0.00    -0.215 NA
ATOM      5  C   UNL     1      48.194   7.856   3.131  1.00  0.00     0.226 A 
ATOM      6  N   UNL     1      48.684   6.722   3.729  1.00  0.00    -0.217 NA
ATOM      7  C   UNL     1      47.924   5.989   4.596  1.00  0.00     0.152 A 
ATOM      8  C   UNL     1      46.630   6.437   4.850  1.00  0.00     0.127 A 
ATOM      9  N   UNL     1      45.674   5.933   5.640  1.00  0.00    -0.340 N 
ATOM     10  H   UNL     1      45.705   5.080   6.240  1.00  0.00     0.168 HD
ENDROOT
BRANCH   7  11
ATOM     11  N   UNL     1      48.455   4.811   5.207  1.00  0.00    -0.382 N 
ATOM     12  H   UNL     1      48.132   3.870   4.892  1.00  0.00     0.158 HD
ATOM     13  H   UNL     1      49.166   4.867   5.968  1.00  0.00     0.158 HD
ENDBRANCH   7  11
TORSDOF 1
ENDMDL
MODEL 3
REMARK VINA RESULT:    -4.478      1.934      3.641
REMARK INTER + INTRA:          -4.609
REMARK INTER:                  -4.609
REMARK INTRA:                   0.000
REMARK UNBOUND:                 0.000
REMARK SMILES Nc1ncnc2nc[nH]c12
REMARK SMILES IDX 8 1 7 2 6 3 5 4 4 5 3 6 2 7 10 8 9 9 1 11
REMARK H PARENT 9 10 1 12 1 13
REMARK Flexibility Score: inf
ROOT
ATOM      1  C   UNL     1      48.998   5.517   4.762  1.00  0.00     0.199 A 
ATOM      2  N   UNL     1      49.218   6.831   5.039  1.00  0.00    -0.217 NA
ATOM      3  C   UNL     1      47.983   7.274   5.322  1.00  0.00     0.182 A 
ATOM      4  N   UNL     1      47.637   8.538   5.669  1.00  0.00    -0.215 NA
ATOM      5  C   UNL     1      46.320   8.799   5.922  1.00  0.00     0.226 A 
ATOM      6  N   UNL     1      45.380   7.804   5.824  1.00  0.00    -0.217 NA
ATOM      7  C   UNL     1      45.727   6.529   5.474  1.00  0.00     0.152 A 
ATOM      8  C   UNL     1      47.073   6.279   5.220  1.00  0.00     0.127 A 
ATOM      9  N   UNL     1      47.696   5.149   4.864  1.00  0.00    -0.340 N 
ATOM     10  H   UNL     1      47.289   4.202   4.701  1.00  0.00     0.168 HD
ENDROOT
BRANCH   7  11
ATOM     11  N   UNL     1      44.732   5.509   5.379  1.00  0.00    -0.382 N 
ATOM     12  H   UNL     1      44.777   4.676   6.007  1.00  0.00     0.158 HD
ATOM     13  H   UNL     1      43.951   5.573   4.689  1.00  0.00     0.158 HD
ENDBRANCH   7  11
TORSDOF 1
ENDMDL
MODEL 4
REMARK VINA RESULT:    -4.469      1.997      3.089
REMARK INTER + INTRA:          -4.600
REMARK INTER:                  -4.600
REMARK INTRA:                   0.000
REMARK UNBOUND:                 0.000
REMARK SMILES Nc1ncnc2nc[nH]c12
REMARK SMILES IDX 8 1 7 2 6 3 5 4 4 5 3 6 2 7 10 8 9 9 1 11
REMARK H PARENT 9 10 1 12 1 13
REMARK Flexibility Score: inf
ROOT
ATOM      1  C   UNL     1      47.859   7.596   3.248  1.00  0.00     0.199 A 
ATOM      2  N   UNL     1      47.345   8.854   3.326  1.00  0.00    -0.217 NA
ATOM      3  C   UNL     1      46.216   8.658   4.025  1.00  0.00     0.182 A 
ATOM      4  N   UNL     1      45.314   9.603   4.387  1.00  0.00    -0.215 NA
ATOM      5  C   UNL     1      44.218   9.209   5.102  1.00  0.00     0.226 A 
ATOM      6  N   UNL     1      44.043   7.890   5.440  1.00  0.00    -0.217 NA
ATOM      7  C   UNL     1      44.951   6.936   5.075  1.00  0.00     0.152 A 
ATOM      8  C   UNL     1      46.062   7.353   4.348  1.00  0.00     0.127 A 
ATOM      9  N   UNL     1      47.098   6.656   3.862  1.00  0.00    -0.340 N 
ATOM     10  H   UNL     1      47.286   5.632   3.934  1.00  0.00     0.168 HD
ENDROOT
BRANCH   7  11
ATOM     11  N   UNL     1      44.749   5.568   5.438  1.00  0.00    -0.382 N 
ATOM     12  H   UNL     1      44.602   4.848   4.696  1.00  0.00     0.158 HD
ATOM     13  H   UNL     1      44.743   5.266   6.436  1.00  0.00     0.158 HD
ENDBRANCH   7  11
TORSDOF 1
ENDMDL
MODEL 5
REMARK VINA RESULT:    -4.397      1.785      3.452
REMARK INTER + INTRA:          -4.526
REMARK INTER:                  -4.526
REMARK INTRA:                   0.000
REMARK UNBOUND:                 0.000
REMARK SMILES Nc1ncnc2nc[nH]c12
REMARK SMILES IDX 8 1 7 2 6 3 5 4 4 5 3 6 2 7 10 8 9 9 1 11
REMARK H PARENT 9 10 1 12 1 13
REMARK Flexibility Score: inf
ROOT
ATOM      1  C   UNL     1      45.408   5.889   5.466  1.00  0.00     0.199 A 
ATOM      2  N   UNL     1      44.342   6.643   5.851  1.00  0.00    -0.217 NA
ATOM      3  C   UNL     1      44.580   7.810   5.231  1.00  0.00     0.182 A 
ATOM      4  N   UNL     1      43.809   8.923   5.282  1.00  0.00    -0.215 NA
ATOM      5  C   UNL     1      44.218  10.023   4.580  1.00  0.00     0.226 A 
ATOM      6  N   UNL     1      45.377   9.990   3.846  1.00  0.00    -0.217 NA
ATOM      7  C   UNL     1      46.155   8.868   3.795  1.00  0.00     0.152 A 
ATOM      8  C   UNL     1      45.726   7.757   4.515  1.00  0.00     0.127 A 
ATOM      9  N   UNL     1      46.272   6.542   4.649  1.00  0.00    -0.340 N 
ATOM     10  H   UNL     1      47.153   6.172   4.229  1.00  0.00     0.168 HD
ENDROOT
BRANCH   7  11
ATOM     11  N   UNL     1      47.358   8.857   3.024  1.00  0.00    -0.382 N 
ATOM     12  H   UNL     1      47.661   9.718   2.517  1.00  0.00     0.158 HD
ATOM     13  H   UNL     1      47.951   8.001   2.953  1.00  0.00     0.158 HD
ENDBRANCH   7  11
TORSDOF 1
ENDMDL
MODEL 6
REMARK VINA RESULT:    -4.352     13.778     14.463
REMARK INTER + INTRA:          -4.479
REMARK INTER:                  -4.479
REMARK INTRA:                   0.000
REMARK UNBOUND:                 0.000
REMARK SMILES Nc1ncnc2nc[nH]c12
REMARK SMILES IDX 8 1 7 2 6 3 5 4 4 5 3 6 2 7 10 8 9 9 1 11
REMARK H PARENT 9 10 1 12 1 13
REMARK Flexibility Score: inf
ROOT
ATOM      1  C   UNL     1      38.934  15.785  16.046  1.00  0.00     0.199 A 
ATOM      2  N   UNL     1      39.795  14.787  16.383  1.00  0.00    -0.217 NA
ATOM      3  C   UNL     1      38.962  13.772  16.660  1.00  0.00     0.182 A 
ATOM      4  N   UNL     1      39.311  12.523  17.053  1.00  0.00    -0.215 NA
ATOM      5  C   UNL     1      38.314  11.619  17.291  1.00  0.00     0.226 A 
ATOM      6  N   UNL     1      36.998  11.975  17.134  1.00  0.00    -0.217 NA
ATOM      7  C   UNL     1      36.644  13.235  16.738  1.00  0.00     0.152 A 
ATOM      8  C   UNL     1      37.671  14.143  16.499  1.00  0.00     0.127 A 
ATOM      9  N   UNL     1      37.628  15.423  16.108  1.00  0.00    -0.340 N 
ATOM     10  H   UNL     1      36.794  16.014  15.898  1.00  0.00     0.168 HD
ENDROOT
BRANCH   7  11
ATOM     11  N   UNL     1      35.267  13.583  16.581  1.00  0.00    -0.382 N 
ATOM     12  H   UNL     1      35.006  14.465  16.086  1.00  0.00     0.158 HD
ATOM     13  H   UNL     1      34.506  12.973  16.952  1.00  0.00     0.158 HD
ENDBRANCH   7  11
TORSDOF 1
ENDMDL
MODEL 7
REMARK VINA RESULT:    -4.286      2.137      2.604
REMARK INTER + INTRA:          -4.412
REMARK INTER:                  -4.412
REMARK INTRA:                   0.000
REMARK UNBOUND:                 0.000
REMARK SMILES Nc1ncnc2nc[nH]c12
REMARK SMILES IDX 8 1 7 2 6 3 5 4 4 5 3 6 2 7 10 8 9 9 1 11
REMARK H PARENT 9 10 1 12 1 13
REMARK Flexibility Score: inf
ROOT
ATOM      1  C   UNL     1      44.316  10.000   4.672  1.00  0.00     0.199 A 
ATOM      2  N   UNL     1      44.163   8.917   5.481  1.00  0.00    -0.217 NA
ATOM      3  C   UNL     1      45.176   8.125   5.093  1.00  0.00     0.182 A 
ATOM      4  N   UNL     1      45.482   6.902   5.590  1.00  0.00    -0.215 NA
ATOM      5  C   UNL     1      46.558   6.243   5.064  1.00  0.00     0.226 A 
ATOM      6  N   UNL     1      47.301   6.812   4.061  1.00  0.00    -0.217 NA
ATOM      7  C   UNL     1      46.993   8.046   3.558  1.00  0.00     0.152 A 
ATOM      8  C   UNL     1      45.895   8.704   4.105  1.00  0.00     0.127 A 
ATOM      9  N   UNL     1      45.366   9.900   3.819  1.00  0.00    -0.340 N 
ATOM     10  H   UNL     1      45.678  10.599   3.110  1.00  0.00     0.168 HD
ENDROOT
BRANCH   7  11
ATOM     11  N   UNL     1      47.782   8.619   2.513  1.00  0.00    -0.382 N 
ATOM     12  H   UNL     1      47.319   8.990   1.654  1.00  0.00     0.158 HD
ATOM     13  H   UNL     1      48.821   8.677   2.586  1.00  0.00     0.158 HD
ENDBRANCH   7  11
TORSDOF 1
ENDMDL
MODEL 8
REMARK VINA RESULT:    -4.267      2.188      3.734
REMARK INTER + INTRA:          -4.392
REMARK INTER:                  -4.392
REMARK INTRA:                   0.000
REMARK UNBOUND:                 0.000
REMARK SMILES Nc1ncnc2nc[nH]c12
REMARK SMILES IDX 8 1 7 2 6 3 5 4 4 5 3 6 2 7 10 8 9 9 1 11
REMARK H PARENT 9 10 1 12 1 13
REMARK Flexibility Score: inf
ROOT
ATOM      1  C   UNL     1      48.207   8.038   3.124  1.00  0.00     0.199 A 
ATOM      2  N   UNL     1      48.007   6.915   3.866  1.00  0.00    -0.217 NA
ATOM      3  C   UNL     1      46.784   7.127   4.379  1.00  0.00     0.182 A 
ATOM      4  N   UNL     1      46.099   6.299   5.205  1.00  0.00    -0.215 NA
ATOM      5  C   UNL     1      44.859   6.689   5.626  1.00  0.00     0.226 A 
ATOM      6  N   UNL     1      44.330   7.887   5.219  1.00  0.00    -0.217 NA
ATOM      7  C   UNL     1      45.019   8.724   4.386  1.00  0.00     0.152 A 
ATOM      8  C   UNL     1      46.281   8.312   3.966  1.00  0.00     0.127 A 
ATOM      9  N   UNL     1      47.170   8.912   3.165  1.00  0.00    -0.340 N 
ATOM     10  H   UNL     1      47.096   9.833   2.680  1.00  0.00     0.168 HD
ENDROOT
BRANCH   7  11
ATOM     11  N   UNL     1      44.448   9.967   3.975  1.00  0.00    -0.382 N 
ATOM     12  H   UNL     1      44.196  10.687   4.688  1.00  0.00     0.158 HD
ATOM     13  H   UNL     1      44.274  10.179   2.968  1.00  0.00     0.158 HD
ENDBRANCH   7  11
TORSDOF 1
ENDMDL
MODEL 9
REMARK VINA RESULT:    -4.243     14.268     14.990
REMARK INTER + INTRA:          -4.367
REMARK INTER:                  -4.367
REMARK INTRA:                   0.000
REMARK UNBOUND:                 0.000
REMARK SMILES Nc1ncnc2nc[nH]c12
REMARK SMILES IDX 8 1 7 2 6 3 5 4 4 5 3 6 2 7 10 8 9 9 1 11
REMARK H PARENT 9 10 1 12 1 13
REMARK Flexibility Score: inf
ROOT
ATOM      1  C   UNL     1      40.339  13.386  19.679  1.00  0.00     0.199 A 
ATOM      2  N   UNL     1      40.094  14.587  19.086  1.00  0.00    -0.217 NA
ATOM      3  C   UNL     1      39.197  14.261  18.141  1.00  0.00     0.182 A 
ATOM      4  N   UNL     1      38.615  15.103  17.254  1.00  0.00    -0.215 NA
ATOM      5  C   UNL     1      37.721  14.583  16.361  1.00  0.00     0.226 A 
ATOM      6  N   UNL     1      37.427  13.243  16.370  1.00  0.00    -0.217 NA
ATOM      7  C   UNL     1      38.014  12.391  17.264  1.00  0.00     0.152 A 
ATOM      8  C   UNL     1      38.922  12.937  18.167  1.00  0.00     0.127 A 
ATOM      9  N   UNL     1      39.638  12.358  19.139  1.00  0.00    -0.340 N 
ATOM     10  H   UNL     1      39.660  11.354  19.424  1.00  0.00     0.168 HD
ENDROOT
BRANCH   7  11
ATOM     11  N   UNL     1      37.692  10.999  17.255  1.00  0.00    -0.382 N 
ATOM     12  H   UNL     1      38.436  10.293  17.060  1.00  0.00     0.158 HD
ATOM     13  H   UNL     1      36.721  10.664  17.440  1.00  0.00     0.158 HD
ENDBRANCH   7  11
TORSDOF 1
ENDMDL
