MODEL 1
REMARK VINA RESULT:    -5.834      0.000      0.000
REMARK INTER + INTRA:          -6.737
REMARK INTER:                  -6.687
REMARK INTRA:                  -0.050
REMARK UNBOUND:                -0.050
REMARK SMILES O=C([O-])c1cc(O)c(O)c(O)c1
REMARK SMILES IDX 4 1 5 2 12 3 6 4 10 5 8 6 2 7 1 8 3 9 7 10 11 12 9 14
REMARK H PARENT 7 11 11 13 9 15
REMARK Flexibility Score: inf
ROOT
ATOM      1  C   UNL     1       7.700  13.379 -17.207  1.00  0.00     0.005 A 
ATOM      2  C   UNL     1       6.776  14.062 -18.015  1.00  0.00     0.060 A 
ATOM      3  C   UNL     1       9.069  13.469 -17.513  1.00  0.00     0.060 A 
ATOM      4  C   UNL     1       7.210  14.824 -19.109  1.00  0.00     0.162 A 
ATOM      5  C   UNL     1       9.510  14.226 -18.604  1.00  0.00     0.162 A 
ATOM      6  C   UNL     1       8.580  14.907 -19.407  1.00  0.00     0.200 A 
ENDROOT
BRANCH   1   7
ATOM      7  C   UNL     1       7.235  12.578 -16.054  1.00  0.00     0.072 C 
ATOM      8  O   UNL     1       6.217  12.929 -15.398  1.00  0.00    -0.545 OA
ATOM      9  O   UNL     1       7.915  11.425 -15.677  1.00  0.00    -0.545 OA
ENDBRANCH   1   7
BRANCH   4  10
ATOM     10  O   UNL     1       6.282  15.497 -19.903  1.00  0.00    -0.504 OA
ATOM     11  H   UNL     1       5.878  16.381 -19.616  1.00  0.00     0.293 HD
ENDBRANCH   4  10
BRANCH   5  12
ATOM     12  O   UNL     1      10.877  14.289 -18.872  1.00  0.00    -0.504 OA
ATOM     13  H   UNL     1      11.536  13.631 -18.474  1.00  0.00     0.293 HD
ENDBRANCH   5  12
BRANCH   6  14
ATOM     14  O   UNL     1       9.028  15.661 -20.492  1.00  0.00    -0.502 OA
ATOM     15  H   UNL     1       8.833  15.397 -21.450  1.00  0.00     0.293 HD
ENDBRANCH   6  14
TORSDOF 4
ENDMDL
MODEL 2
REMARK VINA RESULT:    -5.832      0.060      2.430
REMARK INTER + INTRA:          -6.734
REMARK INTER:                  -6.684
REMARK INTRA:                  -0.050
REMARK UNBOUND:                -0.050
REMARK SMILES O=C([O-])c1cc(O)c(O)c(O)c1
REMARK SMILES IDX 4 1 5 2 12 3 6 4 10 5 8 6 2 7 1 8 3 9 7 10 11 12 9 14
REMARK H PARENT 7 11 11 13 9 15
REMARK Flexibility Score: inf
ROOT
ATOM      1  C   UNL     1       7.722  13.384 -17.213  1.00  0.00     0.005 A 
ATOM      2  C   UNL     1       9.096  13.491 -17.484  1.00  0.00     0.060 A 
ATOM      3  C   UNL     1       6.809  14.066 -18.036  1.00  0.00     0.060 A 
ATOM      4  C   UNL     1       9.553  14.268 -18.558  1.00  0.00     0.162 A 
ATOM      5  C   UNL     1       7.258  14.843 -19.109  1.00  0.00     0.162 A 
ATOM      6  C   UNL     1       8.633  14.947 -19.374  1.00  0.00     0.200 A 
ENDROOT
BRANCH   1   7
ATOM      7  C   UNL     1       7.246  12.563 -16.078  1.00  0.00     0.072 C 
ATOM      8  O   UNL     1       6.225  12.905 -15.423  1.00  0.00    -0.545 OA
ATOM      9  O   UNL     1       7.919  11.401 -15.718  1.00  0.00    -0.545 OA
ENDBRANCH   1   7
BRANCH   4  10
ATOM     10  O   UNL     1      10.920  14.367 -18.815  1.00  0.00    -0.504 OA
ATOM     11  H   UNL     1      11.342  13.930 -19.627  1.00  0.00     0.293 HD
ENDBRANCH   4  10
BRANCH   5  12
ATOM     12  O   UNL     1       6.320  15.504 -19.902  1.00  0.00    -0.504 OA
ATOM     13  H   UNL     1       5.463  15.886 -19.518  1.00  0.00     0.293 HD
ENDBRANCH   5  12
BRANCH   6  14
ATOM     14  O   UNL     1       9.072  15.723 -20.448  1.00  0.00    -0.502 OA
ATOM     15  H   UNL     1       8.490  16.435 -20.872  1.00  0.00     0.293 HD
ENDBRANCH   6  14
TORSDOF 4
ENDMDL
MODEL 3
REMARK VINA RESULT:    -5.379      1.550      4.224
REMARK INTER + INTRA:          -6.216
REMARK INTER:                  -6.170
REMARK INTRA:                  -0.046
REMARK UNBOUND:                -0.050
REMARK SMILES O=C([O-])c1cc(O)c(O)c(O)c1
REMARK SMILES IDX 4 1 5 2 12 3 6 4 10 5 8 6 2 7 1 8 3 9 7 10 11 12 9 14
REMARK H PARENT 7 11 11 13 9 15
REMARK Flexibility Score: inf
ROOT
ATOM      1  C   UNL     1       9.621  14.702 -19.649  1.00  0.00     0.005 A 
ATOM      2  C   UNL     1       8.381  15.355 -19.730  1.00  0.00     0.060 A 
ATOM      3  C   UNL     1       9.843  13.786 -18.605  1.00  0.00     0.060 A 
ATOM      4  C   UNL     1       7.376  15.100 -18.786  1.00  0.00     0.162 A 
ATOM      5  C   UNL     1       8.845  13.527 -17.659  1.00  0.00     0.162 A 
ATOM      6  C   UNL     1       7.607  14.184 -17.746  1.00  0.00     0.200 A 
ENDROOT
BRANCH   1   7
ATOM      7  C   UNL     1      10.677  14.976 -20.648  1.00  0.00     0.072 C 
ATOM      8  O   UNL     1      11.186  16.125 -20.744  1.00  0.00    -0.545 OA
ATOM      9  O   UNL     1      11.122  13.969 -21.497  1.00  0.00    -0.545 OA
ENDBRANCH   1   7
BRANCH   4  10
ATOM     10  O   UNL     1       6.149  15.756 -18.878  1.00  0.00    -0.504 OA
ATOM     11  H   UNL     1       5.665  16.096 -18.055  1.00  0.00     0.293 HD
ENDBRANCH   4  10
BRANCH   5  12
ATOM     12  O   UNL     1       9.105  12.611 -16.640  1.00  0.00    -0.504 OA
ATOM     13  H   UNL     1       8.363  12.150 -16.126  1.00  0.00     0.293 HD
ENDBRANCH   5  12
BRANCH   6  14
ATOM     14  O   UNL     1       6.618  13.918 -16.799  1.00  0.00    -0.502 OA
ATOM     15  H   UNL     1       5.717  13.531 -17.053  1.00  0.00     0.293 HD
ENDBRANCH   6  14
TORSDOF 4
ENDMDL
MODEL 4
REMARK VINA RESULT:    -2.921      2.463      3.672
REMARK INTER + INTRA:          -3.398
REMARK INTER:                  -3.346
REMARK INTRA:                  -0.052
REMARK UNBOUND:                -0.050
REMARK SMILES O=C([O-])c1cc(O)c(O)c(O)c1
REMARK SMILES IDX 4 1 5 2 12 3 6 4 10 5 8 6 2 7 1 8 3 9 7 10 11 12 9 14
REMARK H PARENT 7 11 11 13 9 15
REMARK Flexibility Score: inf
ROOT
ATOM      1  C   UNL     1       8.039  15.049 -19.405  1.00  0.00     0.005 A 
ATOM      2  C   UNL     1       8.683  14.758 -20.618  1.00  0.00     0.060 A 
ATOM      3  C   UNL     1       8.766  14.949 -18.206  1.00  0.00     0.060 A 
ATOM      4  C   UNL     1      10.032  14.375 -20.637  1.00  0.00     0.162 A 
ATOM      5  C   UNL     1      10.112  14.566 -18.216  1.00  0.00     0.162 A 
ATOM      6  C   UNL     1      10.750  14.277 -19.433  1.00  0.00     0.200 A 
ENDROOT
BRANCH   1   7
ATOM      7  C   UNL     1       6.616  15.453 -19.393  1.00  0.00     0.072 C 
ATOM      8  O   UNL     1       5.875  15.221 -20.386  1.00  0.00    -0.545 OA
ATOM      9  O   UNL     1       6.075  16.095 -18.286  1.00  0.00    -0.545 OA
ENDBRANCH   1   7
BRANCH   4  10
ATOM     10  O   UNL     1      10.660  14.088 -21.848  1.00  0.00    -0.504 OA
ATOM     11  H   UNL     1      10.678  13.149 -22.229  1.00  0.00     0.293 HD
ENDBRANCH   4  10
BRANCH   5  12
ATOM     12  O   UNL     1      10.797  14.480 -17.005  1.00  0.00    -0.504 OA
ATOM     13  H   UNL     1      10.472  14.948 -16.167  1.00  0.00     0.293 HD
ENDBRANCH   5  12
BRANCH   6  14
ATOM     14  O   UNL     1      12.093  13.898 -19.434  1.00  0.00    -0.502 OA
ATOM     15  H   UNL     1      12.822  14.494 -19.064  1.00  0.00     0.293 HD
ENDBRANCH   6  14
TORSDOF 4
ENDMDL
