MODEL 1
REMARK VINA RESULT:    -3.863      0.000      0.000
REMARK INTER + INTRA:          -5.483
REMARK INTER:                  -5.219
REMARK INTRA:                  -0.264
REMARK UNBOUND:                -0.264
REMARK SMILES CCCCCCCC(=O)[O-]
REMARK SMILES IDX 5 1 6 2 7 3 8 4 9 5 10 6 4 7 3 8 2 9 1 10
REMARK H PARENT
REMARK Flexibility Score: inf
ROOT
ATOM      1  C   UNL     1     -27.513 -20.853 -29.438  1.00  0.00     0.000 C 
ENDROOT
BRANCH   1   2
ATOM      2  C   UNL     1     -28.379 -20.157 -28.374  1.00  0.00     0.006 C 
BRANCH   2   3
ATOM      3  C   UNL     1     -27.872 -20.392 -26.946  1.00  0.00     0.053 C 
BRANCH   3   4
ATOM      4  C   UNL     1     -28.409 -19.346 -26.022  1.00  0.00     0.041 C 
ATOM      5  O   UNL     1     -27.904 -19.189 -24.879  1.00  0.00    -0.550 OA
ATOM      6  O   UNL     1     -29.502 -18.577 -26.403  1.00  0.00    -0.550 OA
ENDBRANCH   3   4
ENDBRANCH   2   3
ENDBRANCH   1   2
BRANCH   1   7
ATOM      7  C   UNL     1     -26.073 -21.179 -28.995  1.00  0.00     0.000 C 
BRANCH   7   8
ATOM      8  C   UNL     1     -25.392 -22.326 -29.769  1.00  0.00    -0.000 C 
BRANCH   8   9
ATOM      9  C   UNL     1     -24.292 -23.068 -28.989  1.00  0.00    -0.003 C 
ATOM     10  C   UNL     1     -24.068 -22.499 -27.589  1.00  0.00     0.004 C 
ENDBRANCH   8   9
ENDBRANCH   7   8
ENDBRANCH   1   7
TORSDOF 6
ENDMDL
MODEL 2
REMARK VINA RESULT:    -3.831     13.870     15.091
REMARK INTER + INTRA:          -5.439
REMARK INTER:                  -5.018
REMARK INTRA:                  -0.422
REMARK UNBOUND:                -0.264
REMARK SMILES CCCCCCCC(=O)[O-]
REMARK SMILES IDX 5 1 6 2 7 3 8 4 9 5 10 6 4 7 3 8 2 9 1 10
REMARK H PARENT
REMARK Flexibility Score: inf
ROOT
ATOM      1  C   UNL     1     -23.034 -12.254 -16.270  1.00  0.00     0.000 C 
ENDROOT
BRANCH   1   2
ATOM      2  C   UNL     1     -22.643 -13.175 -17.438  1.00  0.00     0.006 C 
BRANCH   2   3
ATOM      3  C   UNL     1     -21.406 -14.030 -17.135  1.00  0.00     0.053 C 
BRANCH   3   4
ATOM      4  C   UNL     1     -20.204 -13.477 -17.832  1.00  0.00     0.041 C 
ATOM      5  O   UNL     1     -19.049 -13.722 -17.396  1.00  0.00    -0.550 OA
ATOM      6  O   UNL     1     -20.361 -12.647 -18.936  1.00  0.00    -0.550 OA
ENDBRANCH   3   4
ENDBRANCH   2   3
ENDBRANCH   1   2
BRANCH   1   7
ATOM      7  C   UNL     1     -23.073 -12.936 -14.887  1.00  0.00     0.000 C 
BRANCH   7   8
ATOM      8  C   UNL     1     -24.460 -12.974 -14.214  1.00  0.00    -0.000 C 
BRANCH   8   9
ATOM      9  C   UNL     1     -25.050 -14.383 -14.028  1.00  0.00    -0.003 C 
ATOM     10  C   UNL     1     -24.191 -15.476 -14.662  1.00  0.00     0.004 C 
ENDBRANCH   8   9
ENDBRANCH   7   8
ENDBRANCH   1   7
TORSDOF 6
ENDMDL
MODEL 3
REMARK VINA RESULT:    -3.794      3.310      5.140
REMARK INTER + INTRA:          -5.389
REMARK INTER:                  -5.110
REMARK INTRA:                  -0.279
REMARK UNBOUND:                -0.264
REMARK SMILES CCCCCCCC(=O)[O-]
REMARK SMILES IDX 5 1 6 2 7 3 8 4 9 5 10 6 4 7 3 8 2 9 1 10
REMARK H PARENT
REMARK Flexibility Score: inf
ROOT
ATOM      1  C   UNL     1     -26.354 -21.575 -29.693  1.00  0.00     0.000 C 
ENDROOT
BRANCH   1   2
ATOM      2  C   UNL     1     -25.763 -22.517 -28.630  1.00  0.00     0.006 C 
BRANCH   2   3
ATOM      3  C   UNL     1     -24.667 -21.853 -27.788  1.00  0.00     0.053 C 
BRANCH   3   4
ATOM      4  C   UNL     1     -23.513 -22.786 -27.603  1.00  0.00     0.041 C 
ATOM      5  O   UNL     1     -22.874 -23.211 -28.601  1.00  0.00    -0.550 OA
ATOM      6  O   UNL     1     -23.174 -23.228 -26.330  1.00  0.00    -0.550 OA
ENDBRANCH   3   4
ENDBRANCH   2   3
ENDBRANCH   1   2
BRANCH   1   7
ATOM      7  C   UNL     1     -27.265 -20.460 -29.142  1.00  0.00     0.000 C 
BRANCH   7   8
ATOM      8  C   UNL     1     -28.182 -20.881 -27.974  1.00  0.00    -0.000 C 
BRANCH   8   9
ATOM      9  C   UNL     1     -27.974 -20.089 -26.672  1.00  0.00    -0.003 C 
ATOM     10  C   UNL     1     -29.218 -19.316 -26.240  1.00  0.00     0.004 C 
ENDBRANCH   8   9
ENDBRANCH   7   8
ENDBRANCH   1   7
TORSDOF 6
ENDMDL
MODEL 4
REMARK VINA RESULT:    -3.777     13.061     14.797
REMARK INTER + INTRA:          -5.366
REMARK INTER:                  -5.131
REMARK INTRA:                  -0.235
REMARK UNBOUND:                -0.264
REMARK SMILES CCCCCCCC(=O)[O-]
REMARK SMILES IDX 5 1 6 2 7 3 8 4 9 5 10 6 4 7 3 8 2 9 1 10
REMARK H PARENT
REMARK Flexibility Score: inf
ROOT
ATOM      1  C   UNL     1     -22.510 -13.552 -16.744  1.00  0.00     0.000 C 
ENDROOT
BRANCH   1   2
ATOM      2  C   UNL     1     -22.547 -12.233 -17.535  1.00  0.00     0.006 C 
BRANCH   2   3
ATOM      3  C   UNL     1     -22.666 -12.449 -19.048  1.00  0.00     0.053 C 
BRANCH   3   4
ATOM      4  C   UNL     1     -21.344 -12.228 -19.713  1.00  0.00     0.041 C 
ATOM      5  O   UNL     1     -21.281 -12.063 -20.960  1.00  0.00    -0.550 OA
ATOM      6  O   UNL     1     -20.175 -12.253 -18.963  1.00  0.00    -0.550 OA
ENDBRANCH   3   4
ENDBRANCH   2   3
ENDBRANCH   1   2
BRANCH   1   7
ATOM      7  C   UNL     1     -22.611 -13.397 -15.213  1.00  0.00     0.000 C 
BRANCH   7   8
ATOM      8  C   UNL     1     -23.782 -12.522 -14.719  1.00  0.00    -0.000 C 
BRANCH   8   9
ATOM      9  C   UNL     1     -24.915 -13.294 -14.020  1.00  0.00    -0.003 C 
ATOM     10  C   UNL     1     -24.713 -14.808 -14.055  1.00  0.00     0.004 C 
ENDBRANCH   8   9
ENDBRANCH   7   8
ENDBRANCH   1   7
TORSDOF 6
ENDMDL
MODEL 5
REMARK VINA RESULT:    -3.733     13.714     14.404
REMARK INTER + INTRA:          -5.306
REMARK INTER:                  -4.844
REMARK INTRA:                  -0.462
REMARK UNBOUND:                -0.264
REMARK SMILES CCCCCCCC(=O)[O-]
REMARK SMILES IDX 5 1 6 2 7 3 8 4 9 5 10 6 4 7 3 8 2 9 1 10
REMARK H PARENT
REMARK Flexibility Score: inf
ROOT
ATOM      1  C   UNL     1     -22.984 -12.730 -18.049  1.00  0.00     0.000 C 
ENDROOT
BRANCH   1   2
ATOM      2  C   UNL     1     -22.900 -12.239 -16.593  1.00  0.00     0.006 C 
BRANCH   2   3
ATOM      3  C   UNL     1     -22.559 -13.361 -15.605  1.00  0.00     0.053 C 
BRANCH   3   4
ATOM      4  C   UNL     1     -23.615 -13.466 -14.551  1.00  0.00     0.041 C 
ATOM      5  O   UNL     1     -23.813 -14.560 -13.958  1.00  0.00    -0.550 OA
ATOM      6  O   UNL     1     -24.416 -12.370 -14.256  1.00  0.00    -0.550 OA
ENDBRANCH   3   4
ENDBRANCH   2   3
ENDBRANCH   1   2
BRANCH   1   7
ATOM      7  C   UNL     1     -22.207 -11.875 -19.070  1.00  0.00     0.000 C 
BRANCH   7   8
ATOM      8  C   UNL     1     -20.670 -11.972 -18.972  1.00  0.00    -0.000 C 
BRANCH   8   9
ATOM      9  C   UNL     1     -20.121 -13.404 -18.841  1.00  0.00    -0.003 C 
ATOM     10  C   UNL     1     -19.190 -13.577 -17.642  1.00  0.00     0.004 C 
ENDBRANCH   8   9
ENDBRANCH   7   8
ENDBRANCH   1   7
TORSDOF 6
ENDMDL
MODEL 6
REMARK VINA RESULT:    -3.697     13.723     14.486
REMARK INTER + INTRA:          -5.258
REMARK INTER:                  -4.765
REMARK INTRA:                  -0.494
REMARK UNBOUND:                -0.264
REMARK SMILES CCCCCCCC(=O)[O-]
REMARK SMILES IDX 5 1 6 2 7 3 8 4 9 5 10 6 4 7 3 8 2 9 1 10
REMARK H PARENT
REMARK Flexibility Score: inf
ROOT
ATOM      1  C   UNL     1     -23.002 -12.247 -16.280  1.00  0.00     0.000 C 
ENDROOT
BRANCH   1   2
ATOM      2  C   UNL     1     -23.001 -12.999 -14.938  1.00  0.00     0.006 C 
BRANCH   2   3
ATOM      3  C   UNL     1     -23.467 -14.454 -15.071  1.00  0.00     0.053 C 
BRANCH   3   4
ATOM      4  C   UNL     1     -24.674 -14.696 -14.220  1.00  0.00     0.041 C 
ATOM      5  O   UNL     1     -25.492 -13.765 -14.000  1.00  0.00    -0.550 OA
ATOM      6  O   UNL     1     -24.869 -15.938 -13.627  1.00  0.00    -0.550 OA
ENDBRANCH   3   4
ENDBRANCH   2   3
ENDBRANCH   1   2
BRANCH   1   7
ATOM      7  C   UNL     1     -22.697 -13.118 -17.515  1.00  0.00     0.000 C 
BRANCH   7   8
ATOM      8  C   UNL     1     -21.294 -12.921 -18.125  1.00  0.00    -0.000 C 
BRANCH   8   9
ATOM      9  C   UNL     1     -20.184 -13.767 -17.478  1.00  0.00    -0.003 C 
ATOM     10  C   UNL     1     -20.551 -15.246 -17.368  1.00  0.00     0.004 C 
ENDBRANCH   8   9
ENDBRANCH   7   8
ENDBRANCH   1   7
TORSDOF 6
ENDMDL
MODEL 7
REMARK VINA RESULT:    -3.673     13.620     14.859
REMARK INTER + INTRA:          -5.225
REMARK INTER:                  -4.617
REMARK INTRA:                  -0.608
REMARK UNBOUND:                -0.264
REMARK SMILES CCCCCCCC(=O)[O-]
REMARK SMILES IDX 5 1 6 2 7 3 8 4 9 5 10 6 4 7 3 8 2 9 1 10
REMARK H PARENT
REMARK Flexibility Score: inf
ROOT
ATOM      1  C   UNL     1     -23.021 -12.917 -14.892  1.00  0.00     0.000 C 
ENDROOT
BRANCH   1   2
ATOM      2  C   UNL     1     -22.943 -12.477 -16.364  1.00  0.00     0.006 C 
BRANCH   2   3
ATOM      3  C   UNL     1     -22.736 -13.652 -17.327  1.00  0.00     0.053 C 
BRANCH   3   4
ATOM      4  C   UNL     1     -21.368 -14.233 -17.157  1.00  0.00     0.041 C 
ATOM      5  O   UNL     1     -20.348 -13.519 -17.342  1.00  0.00    -0.550 OA
ATOM      6  O   UNL     1     -21.218 -15.578 -16.841  1.00  0.00    -0.550 OA
ENDBRANCH   3   4
ENDBRANCH   2   3
ENDBRANCH   1   2
BRANCH   1   7
ATOM      7  C   UNL     1     -24.449 -13.047 -14.326  1.00  0.00     0.000 C 
BRANCH   7   8
ATOM      8  C   UNL     1     -24.909 -14.490 -14.031  1.00  0.00    -0.000 C 
BRANCH   8   9
ATOM      9  C   UNL     1     -23.872 -15.578 -14.359  1.00  0.00    -0.003 C 
ATOM     10  C   UNL     1     -24.348 -16.546 -15.441  1.00  0.00     0.004 C 
ENDBRANCH   8   9
ENDBRANCH   7   8
ENDBRANCH   1   7
TORSDOF 6
ENDMDL
MODEL 8
REMARK VINA RESULT:    -3.567     12.985     14.499
REMARK INTER + INTRA:          -5.082
REMARK INTER:                  -4.808
REMARK INTRA:                  -0.274
REMARK UNBOUND:                -0.264
REMARK SMILES CCCCCCCC(=O)[O-]
REMARK SMILES IDX 5 1 6 2 7 3 8 4 9 5 10 6 4 7 3 8 2 9 1 10
REMARK H PARENT
REMARK Flexibility Score: inf
ROOT
ATOM      1  C   UNL     1     -23.016 -12.259 -16.217  1.00  0.00     0.000 C 
ENDROOT
BRANCH   1   2
ATOM      2  C   UNL     1     -23.613 -12.617 -14.846  1.00  0.00     0.006 C 
BRANCH   2   3
ATOM      3  C   UNL     1     -23.468 -14.105 -14.503  1.00  0.00     0.053 C 
BRANCH   3   4
ATOM      4  C   UNL     1     -24.770 -14.659 -14.019  1.00  0.00     0.041 C 
ATOM      5  O   UNL     1     -24.848 -15.859 -13.643  1.00  0.00    -0.550 OA
ATOM      6  O   UNL     1     -25.911 -13.866 -14.030  1.00  0.00    -0.550 OA
ENDBRANCH   3   4
ENDBRANCH   2   3
ENDBRANCH   1   2
BRANCH   1   7
ATOM      7  C   UNL     1     -22.621 -13.466 -17.091  1.00  0.00     0.000 C 
BRANCH   7   8
ATOM      8  C   UNL     1     -21.201 -13.403 -17.692  1.00  0.00    -0.000 C 
BRANCH   8   9
ATOM      9  C   UNL     1     -21.043 -12.430 -18.875  1.00  0.00    -0.003 C 
ATOM     10  C   UNL     1     -22.139 -12.590 -19.927  1.00  0.00     0.004 C 
ENDBRANCH   8   9
ENDBRANCH   7   8
ENDBRANCH   1   7
TORSDOF 6
ENDMDL
MODEL 9
REMARK VINA RESULT:    -3.514     11.401     12.584
REMARK INTER + INTRA:          -5.011
REMARK INTER:                  -4.585
REMARK INTRA:                  -0.426
REMARK UNBOUND:                -0.264
REMARK SMILES CCCCCCCC(=O)[O-]
REMARK SMILES IDX 5 1 6 2 7 3 8 4 9 5 10 6 4 7 3 8 2 9 1 10
REMARK H PARENT
REMARK Flexibility Score: inf
ROOT
ATOM      1  C   UNL     1     -20.917 -32.125 -22.066  1.00  0.00     0.000 C 
ENDROOT
BRANCH   1   2
ATOM      2  C   UNL     1     -22.261 -31.382 -22.153  1.00  0.00     0.006 C 
BRANCH   2   3
ATOM      3  C   UNL     1     -22.653 -30.705 -20.834  1.00  0.00     0.053 C 
BRANCH   3   4
ATOM      4  C   UNL     1     -22.627 -29.217 -20.982  1.00  0.00     0.041 C 
ATOM      5  O   UNL     1     -23.317 -28.491 -20.219  1.00  0.00    -0.550 OA
ATOM      6  O   UNL     1     -21.879 -28.632 -21.996  1.00  0.00    -0.550 OA
ENDBRANCH   3   4
ENDBRANCH   2   3
ENDBRANCH   1   2
BRANCH   1   7
ATOM      7  C   UNL     1     -19.712 -31.363 -22.655  1.00  0.00     0.000 C 
BRANCH   7   8
ATOM      8  C   UNL     1     -19.214 -31.881 -24.020  1.00  0.00    -0.000 C 
BRANCH   8   9
ATOM      9  C   UNL     1     -19.921 -31.267 -25.241  1.00  0.00    -0.003 C 
ATOM     10  C   UNL     1     -20.358 -29.821 -25.011  1.00  0.00     0.004 C 
ENDBRANCH   8   9
ENDBRANCH   7   8
ENDBRANCH   1   7
TORSDOF 6
ENDMDL
