MODEL 1
REMARK VINA RESULT:    -3.511      0.000      0.000
REMARK INTER + INTRA:          -5.416
REMARK INTER:                  -4.948
REMARK INTRA:                  -0.468
REMARK UNBOUND:                -0.468
REMARK SMILES C=CCCCCCCC(=O)[O-]
REMARK SMILES IDX 6 1 7 2 8 3 9 4 10 5 11 6 5 7 4 8 3 9 2 10 1 11
REMARK H PARENT
REMARK Flexibility Score: inf
ROOT
ATOM      1  C   UNL     1      17.073  14.928  27.322  1.00  0.00     0.000 C 
ENDROOT
BRANCH   1   2
ATOM      2  C   UNL     1      17.653  15.651  26.097  1.00  0.00     0.006 C 
BRANCH   2   3
ATOM      3  C   UNL     1      16.538  16.251  25.235  1.00  0.00     0.053 C 
BRANCH   3   4
ATOM      4  C   UNL     1      16.078  15.263  24.210  1.00  0.00     0.041 C 
ATOM      5  O   UNL     1      14.861  14.950  24.133  1.00  0.00    -0.550 OA
ATOM      6  O   UNL     1      17.001  14.651  23.372  1.00  0.00    -0.550 OA
ENDBRANCH   3   4
ENDBRANCH   2   3
ENDBRANCH   1   2
BRANCH   1   7
ATOM      7  C   UNL     1      15.869  15.664  27.931  1.00  0.00     0.000 C 
BRANCH   7   8
ATOM      8  C   UNL     1      15.711  15.394  29.437  1.00  0.00     0.004 C 
BRANCH   8   9
ATOM      9  C   UNL     1      16.963  15.794  30.229  1.00  0.00     0.027 C 
BRANCH   9  10
ATOM     10  C   UNL     1      17.365  14.721  31.206  1.00  0.00    -0.035 C 
ATOM     11  C   UNL     1      16.683  13.579  31.322  1.00  0.00     0.004 C 
ENDBRANCH   9  10
ENDBRANCH   8   9
ENDBRANCH   7   8
ENDBRANCH   1   7
TORSDOF 7
ENDMDL
MODEL 2
REMARK VINA RESULT:    -3.509      0.449      1.054
REMARK INTER + INTRA:          -5.413
REMARK INTER:                  -5.027
REMARK INTRA:                  -0.386
REMARK UNBOUND:                -0.468
REMARK SMILES C=CCCCCCCC(=O)[O-]
REMARK SMILES IDX 6 1 7 2 8 3 9 4 10 5 11 6 5 7 4 8 3 9 2 10 1 11
REMARK H PARENT
REMARK Flexibility Score: inf
ROOT
ATOM      1  C   UNL     1      17.192  15.230  26.997  1.00  0.00     0.000 C 
ENDROOT
BRANCH   1   2
ATOM      2  C   UNL     1      17.460  15.867  25.626  1.00  0.00     0.006 C 
BRANCH   2   3
ATOM      3  C   UNL     1      16.148  16.257  24.937  1.00  0.00     0.053 C 
BRANCH   3   4
ATOM      4  C   UNL     1      15.713  15.183  23.992  1.00  0.00     0.041 C 
ATOM      5  O   UNL     1      16.447  14.854  23.024  1.00  0.00    -0.550 OA
ATOM      6  O   UNL     1      14.471  14.579  24.151  1.00  0.00    -0.550 OA
ENDBRANCH   3   4
ENDBRANCH   2   3
ENDBRANCH   1   2
BRANCH   1   7
ATOM      7  C   UNL     1      15.898  15.743  27.648  1.00  0.00     0.000 C 
BRANCH   7   8
ATOM      8  C   UNL     1      15.715  15.230  29.086  1.00  0.00     0.004 C 
BRANCH   8   9
ATOM      9  C   UNL     1      16.670  15.919  30.070  1.00  0.00     0.027 C 
BRANCH   9  10
ATOM     10  C   UNL     1      17.350  14.924  30.972  1.00  0.00    -0.035 C 
ATOM     11  C   UNL     1      16.751  13.793  31.355  1.00  0.00     0.004 C 
ENDBRANCH   9  10
ENDBRANCH   8   9
ENDBRANCH   7   8
ENDBRANCH   1   7
TORSDOF 7
ENDMDL
MODEL 3
REMARK VINA RESULT:    -3.495      4.124      6.266
REMARK INTER + INTRA:          -5.394
REMARK INTER:                  -5.009
REMARK INTRA:                  -0.384
REMARK UNBOUND:                -0.468
REMARK SMILES C=CCCCCCCC(=O)[O-]
REMARK SMILES IDX 6 1 7 2 8 3 9 4 10 5 11 6 5 7 4 8 3 9 2 10 1 11
REMARK H PARENT
REMARK Flexibility Score: inf
ROOT
ATOM      1  C   UNL     1      16.702  13.982  31.257  1.00  0.00     0.000 C 
ENDROOT
BRANCH   1   2
ATOM      2  C   UNL     1      17.774  13.217  32.046  1.00  0.00     0.006 C 
BRANCH   2   3
ATOM      3  C   UNL     1      18.901  14.154  32.491  1.00  0.00     0.053 C 
BRANCH   3   4
ATOM      4  C   UNL     1      20.202  13.736  31.882  1.00  0.00     0.041 C 
ATOM      5  O   UNL     1      20.998  13.003  32.526  1.00  0.00    -0.550 OA
ATOM      6  O   UNL     1      20.559  14.197  30.621  1.00  0.00    -0.550 OA
ENDBRANCH   3   4
ENDBRANCH   2   3
ENDBRANCH   1   2
BRANCH   1   7
ATOM      7  C   UNL     1      17.223  15.307  30.678  1.00  0.00     0.000 C 
BRANCH   7   8
ATOM      8  C   UNL     1      16.200  15.993  29.757  1.00  0.00     0.004 C 
BRANCH   8   9
ATOM      9  C   UNL     1      15.310  14.978  29.026  1.00  0.00     0.027 C 
BRANCH   9  10
ATOM     10  C   UNL     1      15.399  15.139  27.532  1.00  0.00    -0.035 C 
ATOM     11  C   UNL     1      16.496  15.613  26.936  1.00  0.00     0.004 C 
ENDBRANCH   9  10
ENDBRANCH   8   9
ENDBRANCH   7   8
ENDBRANCH   1   7
TORSDOF 7
ENDMDL
MODEL 4
REMARK VINA RESULT:    -3.490      4.062      5.251
REMARK INTER + INTRA:          -5.386
REMARK INTER:                  -4.778
REMARK INTRA:                  -0.608
REMARK UNBOUND:                -0.468
REMARK SMILES C=CCCCCCCC(=O)[O-]
REMARK SMILES IDX 6 1 7 2 8 3 9 4 10 5 11 6 5 7 4 8 3 9 2 10 1 11
REMARK H PARENT
REMARK Flexibility Score: inf
ROOT
ATOM      1  C   UNL     1      15.101  14.295  28.712  1.00  0.00     0.000 C 
ENDROOT
BRANCH   1   2
ATOM      2  C   UNL     1      13.619  14.441  29.087  1.00  0.00     0.006 C 
BRANCH   2   3
ATOM      3  C   UNL     1      13.351  13.886  30.489  1.00  0.00     0.053 C 
BRANCH   3   4
ATOM      4  C   UNL     1      12.062  14.423  31.028  1.00  0.00     0.041 C 
ATOM      5  O   UNL     1      11.344  15.176  30.321  1.00  0.00    -0.550 OA
ATOM      6  O   UNL     1      11.679  14.130  32.331  1.00  0.00    -0.550 OA
ENDBRANCH   3   4
ENDBRANCH   2   3
ENDBRANCH   1   2
BRANCH   1   7
ATOM      7  C   UNL     1      15.854  15.634  28.730  1.00  0.00     0.000 C 
BRANCH   7   8
ATOM      8  C   UNL     1      16.529  15.916  30.083  1.00  0.00     0.004 C 
BRANCH   8   9
ATOM      9  C   UNL     1      17.687  14.949  30.362  1.00  0.00     0.027 C 
BRANCH   9  10
ATOM     10  C   UNL     1      17.515  14.244  31.681  1.00  0.00    -0.035 C 
ATOM     11  C   UNL     1      16.797  13.123  31.795  1.00  0.00     0.004 C 
ENDBRANCH   9  10
ENDBRANCH   8   9
ENDBRANCH   7   8
ENDBRANCH   1   7
TORSDOF 7
ENDMDL
MODEL 5
REMARK VINA RESULT:    -3.440      1.504      2.410
REMARK INTER + INTRA:          -5.316
REMARK INTER:                  -4.939
REMARK INTRA:                  -0.377
REMARK UNBOUND:                -0.468
REMARK SMILES C=CCCCCCCC(=O)[O-]
REMARK SMILES IDX 6 1 7 2 8 3 9 4 10 5 11 6 5 7 4 8 3 9 2 10 1 11
REMARK H PARENT
REMARK Flexibility Score: inf
ROOT
ATOM      1  C   UNL     1      15.595  15.340  29.016  1.00  0.00     0.000 C 
ENDROOT
BRANCH   1   2
ATOM      2  C   UNL     1      15.878  15.693  27.549  1.00  0.00     0.006 C 
BRANCH   2   3
ATOM      3  C   UNL     1      17.142  14.988  27.049  1.00  0.00     0.053 C 
BRANCH   3   4
ATOM      4  C   UNL     1      17.725  15.721  25.882  1.00  0.00     0.041 C 
ATOM      5  O   UNL     1      17.034  15.921  24.850  1.00  0.00    -0.550 OA
ATOM      6  O   UNL     1      19.050  16.139  25.915  1.00  0.00    -0.550 OA
ENDBRANCH   3   4
ENDBRANCH   2   3
ENDBRANCH   1   2
BRANCH   1   7
ATOM      7  C   UNL     1      16.469  16.136  29.998  1.00  0.00     0.000 C 
BRANCH   7   8
ATOM      8  C   UNL     1      17.357  15.230  30.868  1.00  0.00     0.004 C 
BRANCH   8   9
ATOM      9  C   UNL     1      16.721  13.853  31.103  1.00  0.00     0.027 C 
BRANCH   9  10
ATOM     10  C   UNL     1      17.349  13.146  32.274  1.00  0.00    -0.035 C 
ATOM     11  C   UNL     1      18.543  13.501  32.757  1.00  0.00     0.004 C 
ENDBRANCH   9  10
ENDBRANCH   8   9
ENDBRANCH   7   8
ENDBRANCH   1   7
TORSDOF 7
ENDMDL
MODEL 6
REMARK VINA RESULT:    -3.429      2.098      2.548
REMARK INTER + INTRA:          -5.301
REMARK INTER:                  -4.731
REMARK INTRA:                  -0.570
REMARK UNBOUND:                -0.468
REMARK SMILES C=CCCCCCCC(=O)[O-]
REMARK SMILES IDX 6 1 7 2 8 3 9 4 10 5 11 6 5 7 4 8 3 9 2 10 1 11
REMARK H PARENT
REMARK Flexibility Score: inf
ROOT
ATOM      1  C   UNL     1      15.249  14.649  27.806  1.00  0.00     0.000 C 
ENDROOT
BRANCH   1   2
ATOM      2  C   UNL     1      16.045  15.723  27.050  1.00  0.00     0.006 C 
BRANCH   2   3
ATOM      3  C   UNL     1      17.020  15.086  26.056  1.00  0.00     0.053 C 
BRANCH   3   4
ATOM      4  C   UNL     1      18.431  15.252  26.524  1.00  0.00     0.041 C 
ATOM      5  O   UNL     1      19.198  16.067  25.949  1.00  0.00    -0.550 OA
ATOM      6  O   UNL     1      18.914  14.469  27.566  1.00  0.00    -0.550 OA
ENDBRANCH   3   4
ENDBRANCH   2   3
ENDBRANCH   1   2
BRANCH   1   7
ATOM      7  C   UNL     1      15.215  14.891  29.322  1.00  0.00     0.000 C 
BRANCH   7   8
ATOM      8  C   UNL     1      16.199  15.986  29.770  1.00  0.00     0.004 C 
BRANCH   8   9
ATOM      9  C   UNL     1      17.362  15.414  30.591  1.00  0.00     0.027 C 
BRANCH   9  10
ATOM     10  C   UNL     1      16.986  14.118  31.256  1.00  0.00    -0.035 C 
ATOM     11  C   UNL     1      17.758  13.549  32.185  1.00  0.00     0.004 C 
ENDBRANCH   9  10
ENDBRANCH   8   9
ENDBRANCH   7   8
ENDBRANCH   1   7
TORSDOF 7
ENDMDL
MODEL 7
REMARK VINA RESULT:    -3.421      2.602      4.289
REMARK INTER + INTRA:          -5.289
REMARK INTER:                  -4.707
REMARK INTRA:                  -0.582
REMARK UNBOUND:                -0.468
REMARK SMILES C=CCCCCCCC(=O)[O-]
REMARK SMILES IDX 6 1 7 2 8 3 9 4 10 5 11 6 5 7 4 8 3 9 2 10 1 11
REMARK H PARENT
REMARK Flexibility Score: inf
ROOT
ATOM      1  C   UNL     1      16.576  13.849  31.236  1.00  0.00     0.000 C 
ENDROOT
BRANCH   1   2
ATOM      2  C   UNL     1      17.001  15.233  30.725  1.00  0.00     0.006 C 
BRANCH   2   3
ATOM      3  C   UNL     1      15.966  15.799  29.748  1.00  0.00     0.053 C 
BRANCH   3   4
ATOM      4  C   UNL     1      16.351  15.487  28.336  1.00  0.00     0.041 C 
ATOM      5  O   UNL     1      15.503  15.586  27.411  1.00  0.00    -0.550 OA
ATOM      6  O   UNL     1      17.635  15.039  28.049  1.00  0.00    -0.550 OA
ENDBRANCH   3   4
ENDBRANCH   2   3
ENDBRANCH   1   2
BRANCH   1   7
ATOM      7  C   UNL     1      17.661  13.170  32.086  1.00  0.00     0.000 C 
BRANCH   7   8
ATOM      8  C   UNL     1      18.802  14.130  32.466  1.00  0.00     0.004 C 
BRANCH   8   9
ATOM      9  C   UNL     1      20.159  13.652  31.933  1.00  0.00     0.027 C 
BRANCH   9  10
ATOM     10  C   UNL     1      20.397  14.124  30.523  1.00  0.00    -0.035 C 
ATOM     11  C   UNL     1      20.335  13.292  29.480  1.00  0.00     0.004 C 
ENDBRANCH   9  10
ENDBRANCH   8   9
ENDBRANCH   7   8
ENDBRANCH   1   7
TORSDOF 7
ENDMDL
MODEL 8
REMARK VINA RESULT:    -3.365      3.530      5.837
REMARK INTER + INTRA:          -5.210
REMARK INTER:                  -4.812
REMARK INTRA:                  -0.398
REMARK UNBOUND:                -0.468
REMARK SMILES C=CCCCCCCC(=O)[O-]
REMARK SMILES IDX 6 1 7 2 8 3 9 4 10 5 11 6 5 7 4 8 3 9 2 10 1 11
REMARK H PARENT
REMARK Flexibility Score: inf
ROOT
ATOM      1  C   UNL     1      15.709  15.478  29.380  1.00  0.00     0.000 C 
ENDROOT
BRANCH   1   2
ATOM      2  C   UNL     1      17.019  15.696  30.152  1.00  0.00     0.006 C 
BRANCH   2   3
ATOM      3  C   UNL     1      17.249  14.574  31.169  1.00  0.00     0.053 C 
BRANCH   3   4
ATOM      4  C   UNL     1      18.683  14.146  31.162  1.00  0.00     0.041 C 
ATOM      5  O   UNL     1      19.187  13.603  32.179  1.00  0.00    -0.550 OA
ATOM      6  O   UNL     1      19.476  14.393  30.048  1.00  0.00    -0.550 OA
ENDBRANCH   3   4
ENDBRANCH   2   3
ENDBRANCH   1   2
BRANCH   1   7
ATOM      7  C   UNL     1      15.881  15.639  27.862  1.00  0.00     0.000 C 
BRANCH   7   8
ATOM      8  C   UNL     1      17.240  15.120  27.361  1.00  0.00     0.004 C 
BRANCH   8   9
ATOM      9  C   UNL     1      17.526  15.555  25.917  1.00  0.00     0.027 C 
BRANCH   9  10
ATOM     10  C   UNL     1      16.375  16.329  25.334  1.00  0.00    -0.035 C 
ATOM     11  C   UNL     1      15.751  15.936  24.220  1.00  0.00     0.004 C 
ENDBRANCH   9  10
ENDBRANCH   8   9
ENDBRANCH   7   8
ENDBRANCH   1   7
TORSDOF 7
ENDMDL
MODEL 9
REMARK VINA RESULT:    -3.236      9.755     10.855
REMARK INTER + INTRA:          -5.029
REMARK INTER:                  -4.360
REMARK INTRA:                  -0.669
REMARK UNBOUND:                -0.468
REMARK SMILES C=CCCCCCCC(=O)[O-]
REMARK SMILES IDX 6 1 7 2 8 3 9 4 10 5 11 6 5 7 4 8 3 9 2 10 1 11
REMARK H PARENT
REMARK Flexibility Score: inf
ROOT
ATOM      1  C   UNL     1       5.765  19.247  25.534  1.00  0.00     0.000 C 
ENDROOT
BRANCH   1   2
ATOM      2  C   UNL     1       5.656  20.125  24.279  1.00  0.00     0.006 C 
BRANCH   2   3
ATOM      3  C   UNL     1       6.747  19.768  23.265  1.00  0.00     0.053 C 
BRANCH   3   4
ATOM      4  C   UNL     1       6.179  18.950  22.148  1.00  0.00     0.041 C 
ATOM      5  O   UNL     1       5.137  19.329  21.551  1.00  0.00    -0.550 OA
ATOM      6  O   UNL     1       6.772  17.743  21.800  1.00  0.00    -0.550 OA
ENDBRANCH   3   4
ENDBRANCH   2   3
ENDBRANCH   1   2
BRANCH   1   7
ATOM      7  C   UNL     1       6.588  19.907  26.651  1.00  0.00     0.000 C 
BRANCH   7   8
ATOM      8  C   UNL     1       8.006  19.323  26.765  1.00  0.00     0.004 C 
BRANCH   8   9
ATOM      9  C   UNL     1       7.990  17.800  26.954  1.00  0.00     0.027 C 
BRANCH   9  10
ATOM     10  C   UNL     1       8.783  17.101  25.882  1.00  0.00    -0.035 C 
ATOM     11  C   UNL     1       8.202  16.581  24.798  1.00  0.00     0.004 C 
ENDBRANCH   9  10
ENDBRANCH   8   9
ENDBRANCH   7   8
ENDBRANCH   1   7
TORSDOF 7
ENDMDL
