MODEL 1
REMARK VINA RESULT:    -7.909      0.000      0.000
REMARK INTER + INTRA:          -9.736
REMARK INTER:                  -9.528
REMARK INTRA:                  -0.208
REMARK UNBOUND:                -0.208
REMARK SMILES O=c1c(O)c(-c2ccc(O)c(O)c2)oc2cc(O)cc(O)c12
REMARK SMILES IDX 5 1 3 2 2 3 1 4 22 5 20 6 19 7 17 8 16 9 15 10 14 11 6 12
REMARK SMILES IDX 7 13 8 14 9 15 13 16 11 17 10 18 12 20 4 22 21 24 18 26
REMARK H PARENT 10 19 12 21 4 23 21 25 18 27
REMARK Flexibility Score: inf
ROOT
ATOM      1  C   UNL     1       1.951  30.797   1.746  1.00  0.00     0.180 A 
ATOM      2  C   UNL     1       2.585  29.600   2.129  1.00  0.00     0.208 A 
ATOM      3  C   UNL     1       2.940  28.672   1.138  1.00  0.00     0.238 A 
ATOM      4  O   UNL     1       3.518  27.602   1.469  1.00  0.00    -0.285 OA
ATOM      5  C   UNL     1       2.638  28.945  -0.212  1.00  0.00     0.111 A 
ATOM      6  C   UNL     1       2.958  28.061  -1.270  1.00  0.00     0.134 A 
ATOM      7  C   UNL     1       2.615  28.401  -2.587  1.00  0.00     0.093 A 
ATOM      8  C   UNL     1       1.961  29.603  -2.867  1.00  0.00     0.123 A 
ATOM      9  C   UNL     1       1.643  30.481  -1.825  1.00  0.00     0.094 A 
ATOM     10  C   UNL     1       1.977  30.161  -0.505  1.00  0.00     0.146 A 
ATOM     11  O   UNL     1       1.669  31.014   0.464  1.00  0.00    -0.452 OA
ENDROOT
BRANCH   1  12
ATOM     12  C   UNL     1       1.563  31.834   2.730  1.00  0.00     0.025 A 
ATOM     13  C   UNL     1       2.561  32.558   3.399  1.00  0.00     0.016 A 
ATOM     14  C   UNL     1       2.218  33.526   4.347  1.00  0.00     0.051 A 
ATOM     15  C   UNL     1       0.872  33.772   4.652  1.00  0.00     0.157 A 
ATOM     16  C   UNL     1       0.214  32.069   3.052  1.00  0.00     0.062 A 
ATOM     17  C   UNL     1      -0.134  33.036   4.003  1.00  0.00     0.158 A 
BRANCH  15  18
ATOM     18  O   UNL     1       0.533  34.739   5.596  1.00  0.00    -0.504 OA
ATOM     19  H   UNL     1      -0.414  35.090   5.681  1.00  0.00     0.293 HD
ENDBRANCH  15  18
BRANCH  17  20
ATOM     20  O   UNL     1      -1.481  33.247   4.293  1.00  0.00    -0.504 OA
ATOM     21  H   UNL     1      -1.925  32.843   5.109  1.00  0.00     0.293 HD
ENDBRANCH  17  20
ENDBRANCH   1  12
BRANCH   2  22
ATOM     22  O   UNL     1       2.829  29.331   3.479  1.00  0.00    -0.502 OA
ATOM     23  H   UNL     1       2.869  28.388   3.846  1.00  0.00     0.293 HD
ENDBRANCH   2  22
BRANCH   6  24
ATOM     24  O   UNL     1       3.610  26.852  -1.025  1.00  0.00    -0.507 OA
ATOM     25  H   UNL     1       4.593  26.725  -1.235  1.00  0.00     0.293 HD
ENDBRANCH   6  24
BRANCH   8  26
ATOM     26  O   UNL     1       1.632  29.916  -4.183  1.00  0.00    -0.508 OA
ATOM     27  H   UNL     1       2.120  29.495  -4.966  1.00  0.00     0.293 HD
ENDBRANCH   8  26
TORSDOF 6
ENDMDL
MODEL 2
REMARK VINA RESULT:    -7.909      4.639      5.861
REMARK INTER + INTRA:          -9.735
REMARK INTER:                  -9.594
REMARK INTRA:                  -0.141
REMARK UNBOUND:                -0.208
REMARK SMILES O=c1c(O)c(-c2ccc(O)c(O)c2)oc2cc(O)cc(O)c12
REMARK SMILES IDX 5 1 3 2 2 3 1 4 22 5 20 6 19 7 17 8 16 9 15 10 14 11 6 12
REMARK SMILES IDX 7 13 8 14 9 15 13 16 11 17 10 18 12 20 4 22 21 24 18 26
REMARK H PARENT 10 19 12 21 4 23 21 25 18 27
REMARK Flexibility Score: inf
ROOT
ATOM      1  C   UNL     1       6.259  31.361   1.647  1.00  0.00     0.180 A 
ATOM      2  C   UNL     1       4.997  31.212   2.253  1.00  0.00     0.208 A 
ATOM      3  C   UNL     1       4.178  30.141   1.862  1.00  0.00     0.238 A 
ATOM      4  O   UNL     1       3.051  29.992   2.405  1.00  0.00    -0.285 OA
ATOM      5  C   UNL     1       4.625  29.253   0.862  1.00  0.00     0.111 A 
ATOM      6  C   UNL     1       3.860  28.151   0.408  1.00  0.00     0.134 A 
ATOM      7  C   UNL     1       4.371  27.318  -0.598  1.00  0.00     0.093 A 
ATOM      8  C   UNL     1       5.626  27.563  -1.158  1.00  0.00     0.123 A 
ATOM      9  C   UNL     1       6.387  28.650  -0.714  1.00  0.00     0.094 A 
ATOM     10  C   UNL     1       5.896  29.492   0.289  1.00  0.00     0.146 A 
ATOM     11  O   UNL     1       6.641  30.512   0.697  1.00  0.00    -0.452 OA
ENDROOT
BRANCH   1  12
ATOM     12  C   UNL     1       7.187  32.454   2.019  1.00  0.00     0.025 A 
ATOM     13  C   UNL     1       6.822  33.785   1.765  1.00  0.00     0.016 A 
ATOM     14  C   UNL     1       7.691  34.831   2.089  1.00  0.00     0.051 A 
ATOM     15  C   UNL     1       8.944  34.560   2.656  1.00  0.00     0.157 A 
ATOM     16  C   UNL     1       8.453  32.185   2.570  1.00  0.00     0.062 A 
ATOM     17  C   UNL     1       9.327  33.229   2.893  1.00  0.00     0.158 A 
BRANCH  15  18
ATOM     18  O   UNL     1       9.806  35.605   2.980  1.00  0.00    -0.504 OA
ATOM     19  H   UNL     1      10.134  36.261   2.280  1.00  0.00     0.293 HD
ENDBRANCH  15  18
BRANCH  17  20
ATOM     20  O   UNL     1      10.572  32.925   3.443  1.00  0.00    -0.504 OA
ATOM     21  H   UNL     1      10.800  31.997   3.779  1.00  0.00     0.293 HD
ENDBRANCH  17  20
ENDBRANCH   1  12
BRANCH   2  22
ATOM     22  O   UNL     1       4.557  32.135   3.206  1.00  0.00    -0.502 OA
ATOM     23  H   UNL     1       3.715  32.685   3.082  1.00  0.00     0.293 HD
ENDBRANCH   2  22
BRANCH   6  24
ATOM     24  O   UNL     1       2.602  27.879   0.947  1.00  0.00    -0.507 OA
ATOM     25  H   UNL     1       2.480  27.230   1.715  1.00  0.00     0.293 HD
ENDBRANCH   6  24
BRANCH   8  26
ATOM     26  O   UNL     1       6.109  26.720  -2.156  1.00  0.00    -0.508 OA
ATOM     27  H   UNL     1       7.082  26.740  -2.442  1.00  0.00     0.293 HD
ENDBRANCH   8  26
TORSDOF 6
ENDMDL
MODEL 3
REMARK VINA RESULT:    -7.812      1.098      2.842
REMARK INTER + INTRA:          -9.619
REMARK INTER:                  -9.374
REMARK INTRA:                  -0.245
REMARK UNBOUND:                -0.208
REMARK SMILES O=c1c(O)c(-c2ccc(O)c(O)c2)oc2cc(O)cc(O)c12
REMARK SMILES IDX 5 1 3 2 2 3 1 4 22 5 20 6 19 7 17 8 16 9 15 10 14 11 6 12
REMARK SMILES IDX 7 13 8 14 9 15 13 16 11 17 10 18 12 20 4 22 21 24 18 26
REMARK H PARENT 10 19 12 21 4 23 21 25 18 27
REMARK Flexibility Score: inf
ROOT
ATOM      1  C   UNL     1       1.639  31.305   1.175  1.00  0.00     0.180 A 
ATOM      2  C   UNL     1       1.320  31.714  -0.135  1.00  0.00     0.208 A 
ATOM      3  C   UNL     1       1.624  30.860  -1.206  1.00  0.00     0.238 A 
ATOM      4  O   UNL     1       1.333  31.211  -2.381  1.00  0.00    -0.285 OA
ATOM      5  C   UNL     1       2.257  29.624  -0.953  1.00  0.00     0.111 A 
ATOM      6  C   UNL     1       2.600  28.708  -1.976  1.00  0.00     0.134 A 
ATOM      7  C   UNL     1       3.236  27.503  -1.645  1.00  0.00     0.093 A 
ATOM      8  C   UNL     1       3.536  27.197  -0.316  1.00  0.00     0.123 A 
ATOM      9  C   UNL     1       3.199  28.098   0.700  1.00  0.00     0.094 A 
ATOM     10  C   UNL     1       2.563  29.304   0.390  1.00  0.00     0.146 A 
ATOM     11  O   UNL     1       2.249  30.139   1.373  1.00  0.00    -0.452 OA
ENDROOT
BRANCH   1  12
ATOM     12  C   UNL     1       1.333  32.142   2.357  1.00  0.00     0.025 A 
ATOM     13  C   UNL     1       2.386  32.700   3.099  1.00  0.00     0.016 A 
ATOM     14  C   UNL     1       2.121  33.476   4.230  1.00  0.00     0.051 A 
ATOM     15  C   UNL     1       0.801  33.693   4.647  1.00  0.00     0.157 A 
ATOM     16  C   UNL     1       0.010  32.345   2.789  1.00  0.00     0.062 A 
ATOM     17  C   UNL     1      -0.259  33.119   3.924  1.00  0.00     0.158 A 
BRANCH  15  18
ATOM     18  O   UNL     1       0.541  34.469   5.774  1.00  0.00    -0.504 OA
ATOM     19  H   UNL     1      -0.385  34.833   5.967  1.00  0.00     0.293 HD
ENDBRANCH  15  18
BRANCH  17  20
ATOM     20  O   UNL     1      -1.583  33.304   4.320  1.00  0.00    -0.504 OA
ATOM     21  H   UNL     1      -2.338  32.737   3.954  1.00  0.00     0.293 HD
ENDBRANCH  17  20
ENDBRANCH   1  12
BRANCH   2  22
ATOM     22  O   UNL     1       0.739  32.965  -0.362  1.00  0.00    -0.502 OA
ATOM     23  H   UNL     1       0.741  33.407  -1.273  1.00  0.00     0.293 HD
ENDBRANCH   2  22
BRANCH   6  24
ATOM     24  O   UNL     1       2.315  28.984  -3.314  1.00  0.00    -0.507 OA
ATOM     25  H   UNL     1       1.364  29.098  -3.644  1.00  0.00     0.293 HD
ENDBRANCH   6  24
BRANCH   8  26
ATOM     26  O   UNL     1       4.169  25.993  -0.014  1.00  0.00    -0.508 OA
ATOM     27  H   UNL     1       4.700  25.873   0.842  1.00  0.00     0.293 HD
ENDBRANCH   8  26
TORSDOF 6
ENDMDL
MODEL 4
REMARK VINA RESULT:    -7.756      1.784      7.110
REMARK INTER + INTRA:          -9.551
REMARK INTER:                  -9.219
REMARK INTRA:                  -0.332
REMARK UNBOUND:                -0.208
REMARK SMILES O=c1c(O)c(-c2ccc(O)c(O)c2)oc2cc(O)cc(O)c12
REMARK SMILES IDX 5 1 3 2 2 3 1 4 22 5 20 6 19 7 17 8 16 9 15 10 14 11 6 12
REMARK SMILES IDX 7 13 8 14 9 15 13 16 11 17 10 18 12 20 4 22 21 24 18 26
REMARK H PARENT 10 19 12 21 4 23 21 25 18 27
REMARK Flexibility Score: inf
ROOT
ATOM      1  C   UNL     1       1.382  30.004   2.246  1.00  0.00     0.180 A 
ATOM      2  C   UNL     1       0.004  30.295   2.282  1.00  0.00     0.208 A 
ATOM      3  C   UNL     1      -0.427  31.463   2.929  1.00  0.00     0.238 A 
ATOM      4  O   UNL     1      -1.656  31.739   2.958  1.00  0.00    -0.285 OA
ATOM      5  C   UNL     1       0.521  32.308   3.544  1.00  0.00     0.111 A 
ATOM      6  C   UNL     1       0.169  33.502   4.220  1.00  0.00     0.134 A 
ATOM      7  C   UNL     1       1.170  34.284   4.814  1.00  0.00     0.093 A 
ATOM      8  C   UNL     1       2.510  33.898   4.749  1.00  0.00     0.123 A 
ATOM      9  C   UNL     1       2.864  32.720   4.083  1.00  0.00     0.094 A 
ATOM     10  C   UNL     1       1.881  31.927   3.482  1.00  0.00     0.146 A 
ATOM     11  O   UNL     1       2.245  30.817   2.850  1.00  0.00    -0.452 OA
ENDROOT
BRANCH   1  12
ATOM     12  C   UNL     1       1.915  28.801   1.567  1.00  0.00     0.025 A 
ATOM     13  C   UNL     1       2.142  27.633   2.311  1.00  0.00     0.016 A 
ATOM     14  C   UNL     1       2.664  26.493   1.695  1.00  0.00     0.051 A 
ATOM     15  C   UNL     1       2.983  26.508   0.330  1.00  0.00     0.157 A 
ATOM     16  C   UNL     1       2.254  28.820   0.202  1.00  0.00     0.062 A 
ATOM     17  C   UNL     1       2.780  27.681  -0.418  1.00  0.00     0.158 A 
BRANCH  15  18
ATOM     18  O   UNL     1       3.502  25.369  -0.281  1.00  0.00    -0.504 OA
ATOM     19  H   UNL     1       3.544  25.279  -1.290  1.00  0.00     0.293 HD
ENDBRANCH  15  18
BRANCH  17  20
ATOM     20  O   UNL     1       3.100  27.734  -1.774  1.00  0.00    -0.504 OA
ATOM     21  H   UNL     1       3.707  27.050  -2.211  1.00  0.00     0.293 HD
ENDBRANCH  17  20
ENDBRANCH   1  12
BRANCH   2  22
ATOM     22  O   UNL     1      -0.918  29.416   1.708  1.00  0.00    -0.502 OA
ATOM     23  H   UNL     1      -1.833  29.249   2.110  1.00  0.00     0.293 HD
ENDBRANCH   2  22
BRANCH   6  24
ATOM     24  O   UNL     1      -1.161  33.915   4.304  1.00  0.00    -0.507 OA
ATOM     25  H   UNL     1      -1.597  34.461   3.571  1.00  0.00     0.293 HD
ENDBRANCH   6  24
BRANCH   8  26
ATOM     26  O   UNL     1       3.484  34.693   5.348  1.00  0.00    -0.508 OA
ATOM     27  H   UNL     1       3.760  34.556   6.314  1.00  0.00     0.293 HD
ENDBRANCH   8  26
TORSDOF 6
ENDMDL
MODEL 5
REMARK VINA RESULT:    -7.735      2.552      6.986
REMARK INTER + INTRA:          -9.525
REMARK INTER:                  -9.245
REMARK INTRA:                  -0.280
REMARK UNBOUND:                -0.208
REMARK SMILES O=c1c(O)c(-c2ccc(O)c(O)c2)oc2cc(O)cc(O)c12
REMARK SMILES IDX 5 1 3 2 2 3 1 4 22 5 20 6 19 7 17 8 16 9 15 10 14 11 6 12
REMARK SMILES IDX 7 13 8 14 9 15 13 16 11 17 10 18 12 20 4 22 21 24 18 26
REMARK H PARENT 10 19 12 21 4 23 21 25 18 27
REMARK Flexibility Score: inf
ROOT
ATOM      1  C   UNL     1       3.041  29.155   2.917  1.00  0.00     0.180 A 
ATOM      2  C   UNL     1       3.325  28.743   4.233  1.00  0.00     0.208 A 
ATOM      3  C   UNL     1       2.673  29.379   5.301  1.00  0.00     0.238 A 
ATOM      4  O   UNL     1       2.912  29.010   6.482  1.00  0.00    -0.285 OA
ATOM      5  C   UNL     1       1.767  30.427   5.037  1.00  0.00     0.111 A 
ATOM      6  C   UNL     1       1.071  31.122   6.056  1.00  0.00     0.134 A 
ATOM      7  C   UNL     1       0.192  32.160   5.713  1.00  0.00     0.093 A 
ATOM      8  C   UNL     1      -0.005  32.516   4.377  1.00  0.00     0.123 A 
ATOM      9  C   UNL     1       0.679  31.833   3.366  1.00  0.00     0.094 A 
ATOM     10  C   UNL     1       1.559  30.794   3.687  1.00  0.00     0.146 A 
ATOM     11  O   UNL     1       2.191  30.157   2.708  1.00  0.00    -0.452 OA
ENDROOT
BRANCH   1  12
ATOM     12  C   UNL     1       3.674  28.521   1.739  1.00  0.00     0.025 A 
ATOM     13  C   UNL     1       4.653  29.222   1.019  1.00  0.00     0.016 A 
ATOM     14  C   UNL     1       5.248  28.651  -0.108  1.00  0.00     0.051 A 
ATOM     15  C   UNL     1       4.862  27.376  -0.543  1.00  0.00     0.157 A 
ATOM     16  C   UNL     1       3.274  27.249   1.289  1.00  0.00     0.062 A 
ATOM     17  C   UNL     1       3.866  26.674   0.158  1.00  0.00     0.158 A 
BRANCH  15  18
ATOM     18  O   UNL     1       5.459  26.808  -1.666  1.00  0.00    -0.504 OA
ATOM     19  H   UNL     1       5.098  25.961  -2.090  1.00  0.00     0.293 HD
ENDBRANCH  15  18
BRANCH  17  20
ATOM     20  O   UNL     1       3.450  25.410  -0.256  1.00  0.00    -0.504 OA
ATOM     21  H   UNL     1       3.322  24.645   0.395  1.00  0.00     0.293 HD
ENDBRANCH  17  20
ENDBRANCH   1  12
BRANCH   2  22
ATOM     22  O   UNL     1       4.265  27.735   4.470  1.00  0.00    -0.502 OA
ATOM     23  H   UNL     1       3.998  26.795   4.737  1.00  0.00     0.293 HD
ENDBRANCH   2  22
BRANCH   6  24
ATOM     24  O   UNL     1       1.246  30.792   7.400  1.00  0.00    -0.507 OA
ATOM     25  H   UNL     1       1.343  29.831   7.704  1.00  0.00     0.293 HD
ENDBRANCH   6  24
BRANCH   8  26
ATOM     26  O   UNL     1      -0.883  33.551   4.064  1.00  0.00    -0.508 OA
ATOM     27  H   UNL     1      -1.500  33.952   4.762  1.00  0.00     0.293 HD
ENDBRANCH   8  26
TORSDOF 6
ENDMDL
MODEL 6
REMARK VINA RESULT:    -7.708      4.798      8.489
REMARK INTER + INTRA:          -9.493
REMARK INTER:                  -9.749
REMARK INTRA:                   0.256
REMARK UNBOUND:                -0.208
REMARK SMILES O=c1c(O)c(-c2ccc(O)c(O)c2)oc2cc(O)cc(O)c12
REMARK SMILES IDX 5 1 3 2 2 3 1 4 22 5 20 6 19 7 17 8 16 9 15 10 14 11 6 12
REMARK SMILES IDX 7 13 8 14 9 15 13 16 11 17 10 18 12 20 4 22 21 24 18 26
REMARK H PARENT 10 19 12 21 4 23 21 25 18 27
REMARK Flexibility Score: inf
ROOT
ATOM      1  C   UNL     1       6.976  28.471  -0.434  1.00  0.00     0.180 A 
ATOM      2  C   UNL     1       5.844  27.831  -0.974  1.00  0.00     0.208 A 
ATOM      3  C   UNL     1       4.568  28.243  -0.558  1.00  0.00     0.238 A 
ATOM      4  O   UNL     1       3.548  27.684  -1.043  1.00  0.00    -0.285 OA
ATOM      5  C   UNL     1       4.446  29.270   0.401  1.00  0.00     0.111 A 
ATOM      6  C   UNL     1       3.198  29.740   0.875  1.00  0.00     0.134 A 
ATOM      7  C   UNL     1       3.160  30.760   1.838  1.00  0.00     0.093 A 
ATOM      8  C   UNL     1       4.341  31.316   2.335  1.00  0.00     0.123 A 
ATOM      9  C   UNL     1       5.577  30.855   1.870  1.00  0.00     0.094 A 
ATOM     10  C   UNL     1       5.636  29.841   0.909  1.00  0.00     0.146 A 
ATOM     11  O   UNL     1       6.822  29.426   0.480  1.00  0.00    -0.452 OA
ENDROOT
BRANCH   1  12
ATOM     12  C   UNL     1       8.354  28.106  -0.835  1.00  0.00     0.025 A 
ATOM     13  C   UNL     1       9.414  28.327   0.056  1.00  0.00     0.016 A 
ATOM     14  C   UNL     1      10.724  28.009  -0.310  1.00  0.00     0.051 A 
ATOM     15  C   UNL     1      10.996  27.481  -1.579  1.00  0.00     0.157 A 
ATOM     16  C   UNL     1       8.632  27.594  -2.115  1.00  0.00     0.062 A 
ATOM     17  C   UNL     1       9.943  27.276  -2.487  1.00  0.00     0.158 A 
BRANCH  15  18
ATOM     18  O   UNL     1      12.304  27.162  -1.940  1.00  0.00    -0.504 OA
ATOM     19  H   UNL     1      12.506  26.551  -2.723  1.00  0.00     0.293 HD
ENDBRANCH  15  18
BRANCH  17  20
ATOM     20  O   UNL     1      10.182  26.765  -3.762  1.00  0.00    -0.504 OA
ATOM     21  H   UNL     1      11.077  26.870  -4.225  1.00  0.00     0.293 HD
ENDBRANCH  17  20
ENDBRANCH   1  12
BRANCH   2  22
ATOM     22  O   UNL     1       5.994  26.783  -1.885  1.00  0.00    -0.502 OA
ATOM     23  H   UNL     1       5.492  26.752  -2.765  1.00  0.00     0.293 HD
ENDBRANCH   2  22
BRANCH   6  24
ATOM     24  O   UNL     1       2.000  29.205   0.400  1.00  0.00    -0.507 OA
ATOM     25  H   UNL     1       1.103  29.488   0.777  1.00  0.00     0.293 HD
ENDBRANCH   6  24
BRANCH   8  26
ATOM     26  O   UNL     1       4.275  32.327   3.291  1.00  0.00    -0.508 OA
ATOM     27  H   UNL     1       3.699  33.149   3.154  1.00  0.00     0.293 HD
ENDBRANCH   8  26
TORSDOF 6
ENDMDL
MODEL 7
REMARK VINA RESULT:    -7.652      4.662      7.372
REMARK INTER + INTRA:          -9.425
REMARK INTER:                  -9.115
REMARK INTRA:                  -0.310
REMARK UNBOUND:                -0.208
REMARK SMILES O=c1c(O)c(-c2ccc(O)c(O)c2)oc2cc(O)cc(O)c12
REMARK SMILES IDX 5 1 3 2 2 3 1 4 22 5 20 6 19 7 17 8 16 9 15 10 14 11 6 12
REMARK SMILES IDX 7 13 8 14 9 15 13 16 11 17 10 18 12 20 4 22 21 24 18 26
REMARK H PARENT 10 19 12 21 4 23 21 25 18 27
REMARK Flexibility Score: inf
ROOT
ATOM      1  C   UNL     1       5.430  33.315   2.385  1.00  0.00     0.180 A 
ATOM      2  C   UNL     1       4.786  32.253   1.722  1.00  0.00     0.208 A 
ATOM      3  C   UNL     1       3.447  31.970   2.034  1.00  0.00     0.238 A 
ATOM      4  O   UNL     1       2.858  31.028   1.438  1.00  0.00    -0.285 OA
ATOM      5  C   UNL     1       2.784  32.737   3.014  1.00  0.00     0.111 A 
ATOM      6  C   UNL     1       1.437  32.513   3.389  1.00  0.00     0.134 A 
ATOM      7  C   UNL     1       0.850  33.314   4.380  1.00  0.00     0.093 A 
ATOM      8  C   UNL     1       1.580  34.329   5.003  1.00  0.00     0.123 A 
ATOM      9  C   UNL     1       2.911  34.554   4.636  1.00  0.00     0.094 A 
ATOM     10  C   UNL     1       3.514  33.768   3.649  1.00  0.00     0.146 A 
ATOM     11  O   UNL     1       4.777  34.007   3.315  1.00  0.00    -0.452 OA
ENDROOT
BRANCH   1  12
ATOM     12  C   UNL     1       6.835  33.686   2.098  1.00  0.00     0.025 A 
ATOM     13  C   UNL     1       7.876  33.002   2.744  1.00  0.00     0.016 A 
ATOM     14  C   UNL     1       9.207  33.351   2.503  1.00  0.00     0.051 A 
ATOM     15  C   UNL     1       9.518  34.399   1.626  1.00  0.00     0.157 A 
ATOM     16  C   UNL     1       7.148  34.751   1.234  1.00  0.00     0.062 A 
ATOM     17  C   UNL     1       8.481  35.105   0.992  1.00  0.00     0.158 A 
BRANCH  15  18
ATOM     18  O   UNL     1      10.847  34.742   1.387  1.00  0.00    -0.504 OA
ATOM     19  H   UNL     1      11.612  34.245   1.829  1.00  0.00     0.293 HD
ENDBRANCH  15  18
BRANCH  17  20
ATOM     20  O   UNL     1       8.756  36.161   0.125  1.00  0.00    -0.504 OA
ATOM     21  H   UNL     1       9.691  36.530   0.006  1.00  0.00     0.293 HD
ENDBRANCH  17  20
ENDBRANCH   1  12
BRANCH   2  22
ATOM     22  O   UNL     1       5.482  31.477   0.790  1.00  0.00    -0.502 OA
ATOM     23  H   UNL     1       5.542  30.468   0.861  1.00  0.00     0.293 HD
ENDBRANCH   2  22
BRANCH   6  24
ATOM     24  O   UNL     1       0.680  31.507   2.788  1.00  0.00    -0.507 OA
ATOM     25  H   UNL     1       0.589  30.588   3.204  1.00  0.00     0.293 HD
ENDBRANCH   6  24
BRANCH   8  26
ATOM     26  O   UNL     1       0.974  35.109   5.984  1.00  0.00    -0.508 OA
ATOM     27  H   UNL     1       0.958  34.820   6.956  1.00  0.00     0.293 HD
ENDBRANCH   8  26
TORSDOF 6
ENDMDL
MODEL 8
REMARK VINA RESULT:    -7.638      3.389      5.872
REMARK INTER + INTRA:          -9.408
REMARK INTER:                  -9.539
REMARK INTRA:                   0.131
REMARK UNBOUND:                -0.208
REMARK SMILES O=c1c(O)c(-c2ccc(O)c(O)c2)oc2cc(O)cc(O)c12
REMARK SMILES IDX 5 1 3 2 2 3 1 4 22 5 20 6 19 7 17 8 16 9 15 10 14 11 6 12
REMARK SMILES IDX 7 13 8 14 9 15 13 16 11 17 10 18 12 20 4 22 21 24 18 26
REMARK H PARENT 10 19 12 21 4 23 21 25 18 27
REMARK Flexibility Score: inf
ROOT
ATOM      1  C   UNL     1       2.738  35.006   4.606  1.00  0.00     0.180 A 
ATOM      2  C   UNL     1       1.652  34.269   5.115  1.00  0.00     0.208 A 
ATOM      3  C   UNL     1       1.468  32.945   4.685  1.00  0.00     0.238 A 
ATOM      4  O   UNL     1       0.506  32.272   5.143  1.00  0.00    -0.285 OA
ATOM      5  C   UNL     1       2.358  32.390   3.741  1.00  0.00     0.111 A 
ATOM      6  C   UNL     1       2.240  31.066   3.254  1.00  0.00     0.134 A 
ATOM      7  C   UNL     1       3.161  30.590   2.308  1.00  0.00     0.093 A 
ATOM      8  C   UNL     1       4.192  31.408   1.841  1.00  0.00     0.123 A 
ATOM      9  C   UNL     1       4.313  32.717   2.319  1.00  0.00     0.094 A 
ATOM     10  C   UNL     1       3.406  33.210   3.264  1.00  0.00     0.146 A 
ATOM     11  O   UNL     1       3.548  34.454   3.706  1.00  0.00    -0.452 OA
ENDROOT
BRANCH   1  12
ATOM     12  C   UNL     1       3.009  36.401   5.024  1.00  0.00     0.025 A 
ATOM     13  C   UNL     1       3.511  37.317   4.089  1.00  0.00     0.016 A 
ATOM     14  C   UNL     1       3.793  38.632   4.467  1.00  0.00     0.051 A 
ATOM     15  C   UNL     1       3.592  39.046   5.791  1.00  0.00     0.157 A 
ATOM     16  C   UNL     1       2.827  36.813   6.357  1.00  0.00     0.062 A 
ATOM     17  C   UNL     1       3.111  38.129   6.741  1.00  0.00     0.158 A 
BRANCH  15  18
ATOM     18  O   UNL     1       3.872  40.359   6.165  1.00  0.00    -0.504 OA
ATOM     19  H   UNL     1       4.494  40.945   5.621  1.00  0.00     0.293 HD
ENDBRANCH  15  18
BRANCH  17  20
ATOM     20  O   UNL     1       2.914  38.505   8.069  1.00  0.00    -0.504 OA
ATOM     21  H   UNL     1       3.243  37.940   8.843  1.00  0.00     0.293 HD
ENDBRANCH  17  20
ENDBRANCH   1  12
BRANCH   2  22
ATOM     22  O   UNL     1       0.756  34.859   6.011  1.00  0.00    -0.502 OA
ATOM     23  H   UNL     1       0.767  34.654   7.004  1.00  0.00     0.293 HD
ENDBRANCH   2  22
BRANCH   6  24
ATOM     24  O   UNL     1       1.221  30.224   3.700  1.00  0.00    -0.507 OA
ATOM     25  H   UNL     1       1.122  29.978   4.677  1.00  0.00     0.293 HD
ENDBRANCH   6  24
BRANCH   8  26
ATOM     26  O   UNL     1       5.091  30.910   0.902  1.00  0.00    -0.508 OA
ATOM     27  H   UNL     1       4.939  31.030  -0.093  1.00  0.00     0.293 HD
ENDBRANCH   8  26
TORSDOF 6
ENDMDL
MODEL 9
REMARK VINA RESULT:    -7.635      3.708      6.986
REMARK INTER + INTRA:          -9.405
REMARK INTER:                  -9.073
REMARK INTRA:                  -0.332
REMARK UNBOUND:                -0.208
REMARK SMILES O=c1c(O)c(-c2ccc(O)c(O)c2)oc2cc(O)cc(O)c12
REMARK SMILES IDX 5 1 3 2 2 3 1 4 22 5 20 6 19 7 17 8 16 9 15 10 14 11 6 12
REMARK SMILES IDX 7 13 8 14 9 15 13 16 11 17 10 18 12 20 4 22 21 24 18 26
REMARK H PARENT 10 19 12 21 4 23 21 25 18 27
REMARK Flexibility Score: inf
ROOT
ATOM      1  C   UNL     1       4.394  29.983   1.678  1.00  0.00     0.180 A 
ATOM      2  C   UNL     1       3.722  31.102   1.149  1.00  0.00     0.208 A 
ATOM      3  C   UNL     1       4.388  32.336   1.107  1.00  0.00     0.238 A 
ATOM      4  O   UNL     1       3.800  33.342   0.626  1.00  0.00    -0.285 OA
ATOM      5  C   UNL     1       5.701  32.437   1.611  1.00  0.00     0.111 A 
ATOM      6  C   UNL     1       6.440  33.645   1.610  1.00  0.00     0.134 A 
ATOM      7  C   UNL     1       7.740  33.665   2.138  1.00  0.00     0.093 A 
ATOM      8  C   UNL     1       8.313  32.506   2.666  1.00  0.00     0.123 A 
ATOM      9  C   UNL     1       7.588  31.310   2.670  1.00  0.00     0.094 A 
ATOM     10  C   UNL     1       6.291  31.268   2.147  1.00  0.00     0.146 A 
ATOM     11  O   UNL     1       5.627  30.119   2.158  1.00  0.00    -0.452 OA
ENDROOT
BRANCH   1  12
ATOM     12  C   UNL     1       3.766  28.643   1.739  1.00  0.00     0.025 A 
ATOM     13  C   UNL     1       3.097  28.247   2.907  1.00  0.00     0.016 A 
ATOM     14  C   UNL     1       2.515  26.980   2.994  1.00  0.00     0.051 A 
ATOM     15  C   UNL     1       2.607  26.084   1.921  1.00  0.00     0.157 A 
ATOM     16  C   UNL     1       3.873  27.735   0.671  1.00  0.00     0.062 A 
ATOM     17  C   UNL     1       3.294  26.463   0.755  1.00  0.00     0.158 A 
BRANCH  15  18
ATOM     18  O   UNL     1       2.023  24.822   2.010  1.00  0.00    -0.504 OA
ATOM     19  H   UNL     1       2.460  24.070   2.530  1.00  0.00     0.293 HD
ENDBRANCH  15  18
BRANCH  17  20
ATOM     20  O   UNL     1       3.415  25.590  -0.325  1.00  0.00    -0.504 OA
ATOM     21  H   UNL     1       2.628  25.063  -0.682  1.00  0.00     0.293 HD
ENDBRANCH  17  20
ENDBRANCH   1  12
BRANCH   2  22
ATOM     22  O   UNL     1       2.403  30.987   0.702  1.00  0.00    -0.502 OA
ATOM     23  H   UNL     1       1.608  31.160   1.306  1.00  0.00     0.293 HD
ENDBRANCH   2  22
BRANCH   6  24
ATOM     24  O   UNL     1       5.896  34.820   1.090  1.00  0.00    -0.507 OA
ATOM     25  H   UNL     1       6.452  35.658   0.972  1.00  0.00     0.293 HD
ENDBRANCH   6  24
BRANCH   8  26
ATOM     26  O   UNL     1       9.604  32.554   3.185  1.00  0.00    -0.508 OA
ATOM     27  H   UNL     1      10.348  31.976   2.810  1.00  0.00     0.293 HD
ENDBRANCH   8  26
TORSDOF 6
ENDMDL
