MODEL 1
REMARK VINA RESULT:    -6.506      0.000      0.000
REMARK INTER + INTRA:          -7.940
REMARK INTER:                  -7.647
REMARK INTRA:                  -0.293
REMARK UNBOUND:                -0.293
REMARK SMILES O=c1cc(-c2ccc(O)c(O)c2)oc2cc(O)cc(O)c12
REMARK SMILES IDX 4 1 3 2 2 3 1 4 21 5 19 6 18 7 16 8 15 9 14 10 13 11 5 12
REMARK SMILES IDX 6 13 7 14 8 15 12 16 10 17 9 18 11 20 20 22 17 24
REMARK H PARENT 9 19 11 21 20 23 17 25
REMARK Flexibility Score: inf
ROOT
ATOM      1  C   UNL     1      40.662  -1.277 -15.095  1.00  0.00     0.138 A 
ATOM      2  C   UNL     1      41.887  -1.331 -14.415  1.00  0.00     0.100 A 
ATOM      3  C   UNL     1      42.914  -2.139 -14.905  1.00  0.00     0.197 A 
ATOM      4  O   UNL     1      43.981  -2.207 -14.241  1.00  0.00    -0.289 OA
ATOM      5  C   UNL     1      42.724  -2.870 -16.101  1.00  0.00     0.107 A 
ATOM      6  C   UNL     1      43.712  -3.700 -16.714  1.00  0.00     0.134 A 
ATOM      7  C   UNL     1      43.375  -4.452 -17.846  1.00  0.00     0.093 A 
ATOM      8  C   UNL     1      42.105  -4.361 -18.422  1.00  0.00     0.123 A 
ATOM      9  C   UNL     1      41.151  -3.515 -17.861  1.00  0.00     0.094 A 
ATOM     10  C   UNL     1      41.445  -2.778 -16.712  1.00  0.00     0.146 A 
ATOM     11  O   UNL     1      40.499  -1.998 -16.199  1.00  0.00    -0.456 OA
ENDROOT
BRANCH   1  12
ATOM     12  C   UNL     1      39.536  -0.432 -14.621  1.00  0.00     0.021 A 
ATOM     13  C   UNL     1      39.788   0.888 -14.213  1.00  0.00     0.016 A 
ATOM     14  C   UNL     1      38.747   1.706 -13.769  1.00  0.00     0.051 A 
ATOM     15  C   UNL     1      37.436   1.225 -13.734  1.00  0.00     0.157 A 
ATOM     16  C   UNL     1      38.211  -0.909 -14.597  1.00  0.00     0.062 A 
ATOM     17  C   UNL     1      37.164  -0.087 -14.154  1.00  0.00     0.158 A 
BRANCH  15  18
ATOM     18  O   UNL     1      36.417   2.065 -13.285  1.00  0.00    -0.504 OA
ATOM     19  H   UNL     1      36.439   3.066 -13.434  1.00  0.00     0.293 HD
ENDBRANCH  15  18
BRANCH  17  20
ATOM     20  O   UNL     1      35.856  -0.569 -14.132  1.00  0.00    -0.504 OA
ATOM     21  H   UNL     1      35.408  -0.852 -13.269  1.00  0.00     0.293 HD
ENDBRANCH  17  20
ENDBRANCH   1  12
BRANCH   6  22
ATOM     22  O   UNL     1      45.033  -3.804 -16.269  1.00  0.00    -0.507 OA
ATOM     23  H   UNL     1      45.495  -4.665 -16.018  1.00  0.00     0.293 HD
ENDBRANCH   6  22
BRANCH   8  24
ATOM     24  O   UNL     1      41.785  -5.102 -19.556  1.00  0.00    -0.508 OA
ATOM     25  H   UNL     1      42.461  -5.262 -20.294  1.00  0.00     0.293 HD
ENDBRANCH   8  24
TORSDOF 5
ENDMDL
MODEL 2
REMARK VINA RESULT:    -6.347      2.013      2.324
REMARK INTER + INTRA:          -7.753
REMARK INTER:                  -7.480
REMARK INTRA:                  -0.273
REMARK UNBOUND:                -0.293
REMARK SMILES O=c1cc(-c2ccc(O)c(O)c2)oc2cc(O)cc(O)c12
REMARK SMILES IDX 4 1 3 2 2 3 1 4 21 5 19 6 18 7 16 8 15 9 14 10 13 11 5 12
REMARK SMILES IDX 6 13 7 14 8 15 12 16 10 17 9 18 11 20 20 22 17 24
REMARK H PARENT 9 19 11 21 20 23 17 25
REMARK Flexibility Score: inf
ROOT
ATOM      1  C   UNL     1      41.361  -1.723 -15.482  1.00  0.00     0.138 A 
ATOM      2  C   UNL     1      42.577  -1.028 -15.465  1.00  0.00     0.100 A 
ATOM      3  C   UNL     1      43.552  -1.319 -16.421  1.00  0.00     0.197 A 
ATOM      4  O   UNL     1      44.654  -0.716 -16.344  1.00  0.00    -0.289 OA
ATOM      5  C   UNL     1      43.291  -2.286 -17.420  1.00  0.00     0.107 A 
ATOM      6  C   UNL     1      44.197  -2.641 -18.466  1.00  0.00     0.134 A 
ATOM      7  C   UNL     1      43.866  -3.684 -19.340  1.00  0.00     0.093 A 
ATOM      8  C   UNL     1      42.640  -4.347 -19.242  1.00  0.00     0.123 A 
ATOM      9  C   UNL     1      41.730  -3.974 -18.256  1.00  0.00     0.094 A 
ATOM     10  C   UNL     1      42.044  -2.961 -17.348  1.00  0.00     0.146 A 
ATOM     11  O   UNL     1      41.153  -2.649 -16.411  1.00  0.00    -0.456 OA
ENDROOT
BRANCH   1  12
ATOM     12  C   UNL     1      40.288  -1.453 -14.491  1.00  0.00     0.021 A 
ATOM     13  C   UNL     1      38.981  -1.197 -14.941  1.00  0.00     0.016 A 
ATOM     14  C   UNL     1      37.952  -0.947 -14.031  1.00  0.00     0.051 A 
ATOM     15  C   UNL     1      38.205  -0.957 -12.657  1.00  0.00     0.157 A 
ATOM     16  C   UNL     1      40.536  -1.476 -13.105  1.00  0.00     0.062 A 
ATOM     17  C   UNL     1      39.502  -1.227 -12.190  1.00  0.00     0.158 A 
BRANCH  15  18
ATOM     18  O   UNL     1      37.158  -0.702 -11.772  1.00  0.00    -0.504 OA
ATOM     19  H   UNL     1      37.158   0.101 -11.155  1.00  0.00     0.293 HD
ENDBRANCH  15  18
BRANCH  17  20
ATOM     20  O   UNL     1      39.758  -1.250 -10.820  1.00  0.00    -0.504 OA
ATOM     21  H   UNL     1      39.423  -2.002 -10.229  1.00  0.00     0.293 HD
ENDBRANCH  17  20
ENDBRANCH   1  12
BRANCH   6  22
ATOM     22  O   UNL     1      45.412  -1.992 -18.704  1.00  0.00    -0.507 OA
ATOM     23  H   UNL     1      46.321  -2.426 -18.655  1.00  0.00     0.293 HD
ENDBRANCH   6  22
BRANCH   8  24
ATOM     24  O   UNL     1      42.315  -5.374 -20.125  1.00  0.00    -0.508 OA
ATOM     25  H   UNL     1      42.424  -5.266 -21.127  1.00  0.00     0.293 HD
ENDBRANCH   8  24
TORSDOF 5
ENDMDL
MODEL 3
REMARK VINA RESULT:    -6.276     14.818     16.246
REMARK INTER + INTRA:          -7.670
REMARK INTER:                  -7.374
REMARK INTRA:                  -0.295
REMARK UNBOUND:                -0.293
REMARK SMILES O=c1cc(-c2ccc(O)c(O)c2)oc2cc(O)cc(O)c12
REMARK SMILES IDX 4 1 3 2 2 3 1 4 21 5 19 6 18 7 16 8 15 9 14 10 13 11 5 12
REMARK SMILES IDX 6 13 7 14 8 15 12 16 10 17 9 18 11 20 20 22 17 24
REMARK H PARENT 9 19 11 21 20 23 17 25
REMARK Flexibility Score: inf
ROOT
ATOM      1  C   UNL     1      30.502 -12.169  -8.292  1.00  0.00     0.138 A 
ATOM      2  C   UNL     1      30.389 -13.559  -8.433  1.00  0.00     0.100 A 
ATOM      3  C   UNL     1      30.767 -14.164  -9.632  1.00  0.00     0.197 A 
ATOM      4  O   UNL     1      30.602 -15.407  -9.746  1.00  0.00    -0.289 OA
ATOM      5  C   UNL     1      31.294 -13.376 -10.683  1.00  0.00     0.107 A 
ATOM      6  C   UNL     1      31.744 -13.889 -11.938  1.00  0.00     0.134 A 
ATOM      7  C   UNL     1      32.155 -12.999 -12.938  1.00  0.00     0.093 A 
ATOM      8  C   UNL     1      32.187 -11.621 -12.711  1.00  0.00     0.123 A 
ATOM      9  C   UNL     1      31.797 -11.116 -11.473  1.00  0.00     0.094 A 
ATOM     10  C   UNL     1      31.349 -11.974 -10.466  1.00  0.00     0.146 A 
ATOM     11  O   UNL     1      30.969 -11.448  -9.305  1.00  0.00    -0.456 OA
ENDROOT
BRANCH   1  12
ATOM     12  C   UNL     1      30.117 -11.472  -7.038  1.00  0.00     0.021 A 
ATOM     13  C   UNL     1      30.032 -10.070  -7.026  1.00  0.00     0.016 A 
ATOM     14  C   UNL     1      29.666  -9.390  -5.862  1.00  0.00     0.051 A 
ATOM     15  C   UNL     1      29.370 -10.097  -4.694  1.00  0.00     0.157 A 
ATOM     16  C   UNL     1      29.804 -12.182  -5.863  1.00  0.00     0.062 A 
ATOM     17  C   UNL     1      29.434 -11.499  -4.694  1.00  0.00     0.158 A 
BRANCH  15  18
ATOM     18  O   UNL     1      29.009  -9.391  -3.547  1.00  0.00    -0.504 OA
ATOM     19  H   UNL     1      28.113  -8.928  -3.459  1.00  0.00     0.293 HD
ENDBRANCH  15  18
BRANCH  17  20
ATOM     20  O   UNL     1      29.128 -12.211  -3.535  1.00  0.00    -0.504 OA
ATOM     21  H   UNL     1      29.809 -12.808  -3.082  1.00  0.00     0.293 HD
ENDBRANCH  17  20
ENDBRANCH   1  12
BRANCH   6  22
ATOM     22  O   UNL     1      31.829 -15.251 -12.243  1.00  0.00    -0.507 OA
ATOM     23  H   UNL     1      32.547 -15.674 -12.810  1.00  0.00     0.293 HD
ENDBRANCH   6  22
BRANCH   8  24
ATOM     24  O   UNL     1      32.611 -10.746 -13.707  1.00  0.00    -0.508 OA
ATOM     25  H   UNL     1      33.582 -10.698 -13.993  1.00  0.00     0.293 HD
ENDBRANCH   8  24
TORSDOF 5
ENDMDL
MODEL 4
REMARK VINA RESULT:    -6.126      1.852      3.111
REMARK INTER + INTRA:          -7.494
REMARK INTER:                  -7.199
REMARK INTRA:                  -0.295
REMARK UNBOUND:                -0.293
REMARK SMILES O=c1cc(-c2ccc(O)c(O)c2)oc2cc(O)cc(O)c12
REMARK SMILES IDX 4 1 3 2 2 3 1 4 21 5 19 6 18 7 16 8 15 9 14 10 13 11 5 12
REMARK SMILES IDX 6 13 7 14 8 15 12 16 10 17 9 18 11 20 20 22 17 24
REMARK H PARENT 9 19 11 21 20 23 17 25
REMARK Flexibility Score: inf
ROOT
ATOM      1  C   UNL     1      40.092  -1.613 -14.886  1.00  0.00     0.138 A 
ATOM      2  C   UNL     1      39.753  -1.607 -16.246  1.00  0.00     0.100 A 
ATOM      3  C   UNL     1      40.737  -1.853 -17.205  1.00  0.00     0.197 A 
ATOM      4  O   UNL     1      40.412  -1.785 -18.418  1.00  0.00    -0.289 OA
ATOM      5  C   UNL     1      42.060  -2.143 -16.796  1.00  0.00     0.107 A 
ATOM      6  C   UNL     1      43.139  -2.444 -17.682  1.00  0.00     0.134 A 
ATOM      7  C   UNL     1      44.429  -2.618 -17.165  1.00  0.00     0.093 A 
ATOM      8  C   UNL     1      44.669  -2.560 -15.790  1.00  0.00     0.123 A 
ATOM      9  C   UNL     1      43.614  -2.316 -14.914  1.00  0.00     0.094 A 
ATOM     10  C   UNL     1      42.323  -2.104 -15.401  1.00  0.00     0.146 A 
ATOM     11  O   UNL     1      41.348  -1.857 -14.531  1.00  0.00    -0.456 OA
ENDROOT
BRANCH   1  12
ATOM     12  C   UNL     1      39.085  -1.361 -13.824  1.00  0.00     0.021 A 
ATOM     13  C   UNL     1      39.412  -1.631 -12.485  1.00  0.00     0.016 A 
ATOM     14  C   UNL     1      38.487  -1.395 -11.466  1.00  0.00     0.051 A 
ATOM     15  C   UNL     1      37.224  -0.878 -11.763  1.00  0.00     0.157 A 
ATOM     16  C   UNL     1      37.816  -0.826 -14.119  1.00  0.00     0.062 A 
ATOM     17  C   UNL     1      36.887  -0.587 -13.095  1.00  0.00     0.158 A 
BRANCH  15  18
ATOM     18  O   UNL     1      36.320  -0.655 -10.725  1.00  0.00    -0.504 OA
ATOM     19  H   UNL     1      36.594  -0.710  -9.751  1.00  0.00     0.293 HD
ENDBRANCH  15  18
BRANCH  17  20
ATOM     20  O   UNL     1      35.632  -0.059 -13.397  1.00  0.00    -0.504 OA
ATOM     21  H   UNL     1      35.523   0.884 -13.750  1.00  0.00     0.293 HD
ENDBRANCH  17  20
ENDBRANCH   1  12
BRANCH   6  22
ATOM     22  O   UNL     1      42.996  -2.604 -19.064  1.00  0.00    -0.507 OA
ATOM     23  H   UNL     1      43.528  -2.110 -19.763  1.00  0.00     0.293 HD
ENDBRANCH   6  22
BRANCH   8  24
ATOM     24  O   UNL     1      45.953  -2.749 -15.285  1.00  0.00    -0.508 OA
ATOM     25  H   UNL     1      46.120  -2.866 -14.292  1.00  0.00     0.293 HD
ENDBRANCH   8  24
TORSDOF 5
ENDMDL
MODEL 5
REMARK VINA RESULT:    -6.120     15.425     16.684
REMARK INTER + INTRA:          -7.487
REMARK INTER:                  -7.170
REMARK INTRA:                  -0.317
REMARK UNBOUND:                -0.293
REMARK SMILES O=c1cc(-c2ccc(O)c(O)c2)oc2cc(O)cc(O)c12
REMARK SMILES IDX 4 1 3 2 2 3 1 4 21 5 19 6 18 7 16 8 15 9 14 10 13 11 5 12
REMARK SMILES IDX 6 13 7 14 8 15 12 16 10 17 9 18 11 20 20 22 17 24
REMARK H PARENT 9 19 11 21 20 23 17 25
REMARK Flexibility Score: inf
ROOT
ATOM      1  C   UNL     1      30.670 -12.276  -8.569  1.00  0.00     0.138 A 
ATOM      2  C   UNL     1      31.129 -11.439  -9.595  1.00  0.00     0.100 A 
ATOM      3  C   UNL     1      31.590 -11.998 -10.788  1.00  0.00     0.197 A 
ATOM      4  O   UNL     1      32.047 -11.222 -11.667  1.00  0.00    -0.289 OA
ATOM      5  C   UNL     1      31.556 -13.401 -10.967  1.00  0.00     0.107 A 
ATOM      6  C   UNL     1      31.968 -14.081 -12.153  1.00  0.00     0.134 A 
ATOM      7  C   UNL     1      31.981 -15.481 -12.177  1.00  0.00     0.093 A 
ATOM      8  C   UNL     1      31.543 -16.225 -11.078  1.00  0.00     0.123 A 
ATOM      9  C   UNL     1      31.093 -15.570  -9.934  1.00  0.00     0.094 A 
ATOM     10  C   UNL     1      31.100 -14.176  -9.867  1.00  0.00     0.146 A 
ATOM     11  O   UNL     1      30.678 -13.591  -8.750  1.00  0.00    -0.456 OA
ENDROOT
BRANCH   1  12
ATOM     12  C   UNL     1      30.166 -11.736  -7.280  1.00  0.00     0.021 A 
ATOM     13  C   UNL     1      29.973 -10.351  -7.141  1.00  0.00     0.016 A 
ATOM     14  C   UNL     1      29.493  -9.817  -5.942  1.00  0.00     0.051 A 
ATOM     15  C   UNL     1      29.190 -10.656  -4.867  1.00  0.00     0.157 A 
ATOM     16  C   UNL     1      29.846 -12.579  -6.198  1.00  0.00     0.062 A 
ATOM     17  C   UNL     1      29.363 -12.043  -4.995  1.00  0.00     0.158 A 
BRANCH  15  18
ATOM     18  O   UNL     1      28.715 -10.094  -3.682  1.00  0.00    -0.504 OA
ATOM     19  H   UNL     1      29.055 -10.385  -2.773  1.00  0.00     0.293 HD
ENDBRANCH  15  18
BRANCH  17  20
ATOM     20  O   UNL     1      29.050 -12.886  -3.929  1.00  0.00    -0.504 OA
ATOM     21  H   UNL     1      28.416 -13.668  -4.038  1.00  0.00     0.293 HD
ENDBRANCH  17  20
ENDBRANCH   1  12
BRANCH   6  22
ATOM     22  O   UNL     1      32.348 -13.436 -13.334  1.00  0.00    -0.507 OA
ATOM     23  H   UNL     1      31.727 -13.199 -14.091  1.00  0.00     0.293 HD
ENDBRANCH   6  22
BRANCH   8  24
ATOM     24  O   UNL     1      31.546 -17.617 -11.117  1.00  0.00    -0.508 OA
ATOM     25  H   UNL     1      32.349 -18.137 -11.451  1.00  0.00     0.293 HD
ENDBRANCH   8  24
TORSDOF 5
ENDMDL
MODEL 6
REMARK VINA RESULT:    -5.979      2.763      6.939
REMARK INTER + INTRA:          -7.320
REMARK INTER:                  -7.025
REMARK INTRA:                  -0.296
REMARK UNBOUND:                -0.293
REMARK SMILES O=c1cc(-c2ccc(O)c(O)c2)oc2cc(O)cc(O)c12
REMARK SMILES IDX 4 1 3 2 2 3 1 4 21 5 19 6 18 7 16 8 15 9 14 10 13 11 5 12
REMARK SMILES IDX 6 13 7 14 8 15 12 16 10 17 9 18 11 20 20 22 17 24
REMARK H PARENT 9 19 11 21 20 23 17 25
REMARK Flexibility Score: inf
ROOT
ATOM      1  C   UNL     1      42.656  -1.852 -15.141  1.00  0.00     0.138 A 
ATOM      2  C   UNL     1      41.430  -1.784 -14.466  1.00  0.00     0.100 A 
ATOM      3  C   UNL     1      41.348  -1.106 -13.249  1.00  0.00     0.197 A 
ATOM      4  O   UNL     1      40.247  -1.111 -12.641  1.00  0.00    -0.289 OA
ATOM      5  C   UNL     1      42.494  -0.463 -12.724  1.00  0.00     0.107 A 
ATOM      6  C   UNL     1      42.522   0.286 -11.508  1.00  0.00     0.134 A 
ATOM      7  C   UNL     1      43.739   0.796 -11.040  1.00  0.00     0.093 A 
ATOM      8  C   UNL     1      44.919   0.633 -11.770  1.00  0.00     0.123 A 
ATOM      9  C   UNL     1      44.893  -0.054 -12.982  1.00  0.00     0.094 A 
ATOM     10  C   UNL     1      43.701  -0.604 -13.459  1.00  0.00     0.146 A 
ATOM     11  O   UNL     1      43.724  -1.267 -14.611  1.00  0.00    -0.456 OA
ENDROOT
BRANCH   1  12
ATOM     12  C   UNL     1      42.800  -2.557 -16.441  1.00  0.00     0.021 A 
ATOM     13  C   UNL     1      43.998  -2.433 -17.165  1.00  0.00     0.016 A 
ATOM     14  C   UNL     1      44.162  -3.091 -18.386  1.00  0.00     0.051 A 
ATOM     15  C   UNL     1      43.139  -3.892 -18.900  1.00  0.00     0.157 A 
ATOM     16  C   UNL     1      41.777  -3.377 -16.956  1.00  0.00     0.062 A 
ATOM     17  C   UNL     1      41.942  -4.039 -18.182  1.00  0.00     0.158 A 
BRANCH  15  18
ATOM     18  O   UNL     1      43.331  -4.535 -20.123  1.00  0.00    -0.504 OA
ATOM     19  H   UNL     1      42.742  -5.300 -20.427  1.00  0.00     0.293 HD
ENDBRANCH  15  18
BRANCH  17  20
ATOM     20  O   UNL     1      40.923  -4.847 -18.684  1.00  0.00    -0.504 OA
ATOM     21  H   UNL     1      41.114  -5.760 -19.080  1.00  0.00     0.293 HD
ENDBRANCH  17  20
ENDBRANCH   1  12
BRANCH   6  22
ATOM     22  O   UNL     1      41.389   0.577 -10.741  1.00  0.00    -0.507 OA
ATOM     23  H   UNL     1      40.466   0.742 -11.110  1.00  0.00     0.293 HD
ENDBRANCH   6  22
BRANCH   8  24
ATOM     24  O   UNL     1      46.122   1.156 -11.303  1.00  0.00    -0.508 OA
ATOM     25  H   UNL     1      46.468   0.942 -10.375  1.00  0.00     0.293 HD
ENDBRANCH   8  24
TORSDOF 5
ENDMDL
MODEL 7
REMARK VINA RESULT:    -5.963      3.061      6.888
REMARK INTER + INTRA:          -7.302
REMARK INTER:                  -6.989
REMARK INTRA:                  -0.313
REMARK UNBOUND:                -0.293
REMARK SMILES O=c1cc(-c2ccc(O)c(O)c2)oc2cc(O)cc(O)c12
REMARK SMILES IDX 4 1 3 2 2 3 1 4 21 5 19 6 18 7 16 8 15 9 14 10 13 11 5 12
REMARK SMILES IDX 6 13 7 14 8 15 12 16 10 17 9 18 11 20 20 22 17 24
REMARK H PARENT 9 19 11 21 20 23 17 25
REMARK Flexibility Score: inf
ROOT
ATOM      1  C   UNL     1      39.035  -0.792 -14.011  1.00  0.00     0.138 A 
ATOM      2  C   UNL     1      38.786   0.410 -13.336  1.00  0.00     0.100 A 
ATOM      3  C   UNL     1      38.104   0.391 -12.119  1.00  0.00     0.197 A 
ATOM      4  O   UNL     1      37.847   1.492 -11.566  1.00  0.00    -0.289 OA
ATOM      5  C   UNL     1      37.700  -0.844 -11.558  1.00  0.00     0.107 A 
ATOM      6  C   UNL     1      37.028  -0.989 -10.306  1.00  0.00     0.134 A 
ATOM      7  C   UNL     1      36.592  -2.256  -9.901  1.00  0.00     0.093 A 
ATOM      8  C   UNL     1      36.852  -3.391 -10.673  1.00  0.00     0.123 A 
ATOM      9  C   UNL     1      37.551  -3.266 -11.871  1.00  0.00     0.094 A 
ATOM     10  C   UNL     1      37.970  -2.012 -12.320  1.00  0.00     0.146 A 
ATOM     11  O   UNL     1      38.618  -1.935 -13.478  1.00  0.00    -0.456 OA
ENDROOT
BRANCH   1  12
ATOM     12  C   UNL     1      39.759  -0.831 -15.307  1.00  0.00     0.021 A 
ATOM     13  C   UNL     1      40.535   0.273 -15.698  1.00  0.00     0.016 A 
ATOM     14  C   UNL     1      41.232   0.260 -16.908  1.00  0.00     0.051 A 
ATOM     15  C   UNL     1      41.173  -0.857 -17.745  1.00  0.00     0.157 A 
ATOM     16  C   UNL     1      39.714  -1.961 -16.147  1.00  0.00     0.062 A 
ATOM     17  C   UNL     1      40.415  -1.975 -17.363  1.00  0.00     0.158 A 
BRANCH  15  18
ATOM     18  O   UNL     1      41.877  -0.840 -18.949  1.00  0.00    -0.504 OA
ATOM     19  H   UNL     1      41.939  -0.010 -19.526  1.00  0.00     0.293 HD
ENDBRANCH  15  18
BRANCH  17  20
ATOM     20  O   UNL     1      40.362  -3.097 -18.188  1.00  0.00    -0.504 OA
ATOM     21  H   UNL     1      40.794  -3.974 -17.921  1.00  0.00     0.293 HD
ENDBRANCH  17  20
ENDBRANCH   1  12
BRANCH   6  22
ATOM     22  O   UNL     1      36.787   0.065  -9.420  1.00  0.00    -0.507 OA
ATOM     23  H   UNL     1      37.329   0.263  -8.593  1.00  0.00     0.293 HD
ENDBRANCH   6  22
BRANCH   8  24
ATOM     24  O   UNL     1      36.426  -4.649 -10.253  1.00  0.00    -0.508 OA
ATOM     25  H   UNL     1      35.577  -4.769  -9.715  1.00  0.00     0.293 HD
ENDBRANCH   8  24
TORSDOF 5
ENDMDL
MODEL 8
REMARK VINA RESULT:    -5.932     16.305     17.881
REMARK INTER + INTRA:          -7.265
REMARK INTER:                  -6.999
REMARK INTRA:                  -0.266
REMARK UNBOUND:                -0.293
REMARK SMILES O=c1cc(-c2ccc(O)c(O)c2)oc2cc(O)cc(O)c12
REMARK SMILES IDX 4 1 3 2 2 3 1 4 21 5 19 6 18 7 16 8 15 9 14 10 13 11 5 12
REMARK SMILES IDX 6 13 7 14 8 15 12 16 10 17 9 18 11 20 20 22 17 24
REMARK H PARENT 9 19 11 21 20 23 17 25
REMARK Flexibility Score: inf
ROOT
ATOM      1  C   UNL     1      29.213 -12.698  -7.795  1.00  0.00     0.138 A 
ATOM      2  C   UNL     1      29.291 -11.470  -8.465  1.00  0.00     0.100 A 
ATOM      3  C   UNL     1      29.898 -11.405  -9.720  1.00  0.00     0.197 A 
ATOM      4  O   UNL     1      30.002 -10.279 -10.270  1.00  0.00    -0.289 OA
ATOM      5  C   UNL     1      30.399 -12.585 -10.321  1.00  0.00     0.107 A 
ATOM      6  C   UNL     1      31.008 -12.646 -11.611  1.00  0.00     0.134 A 
ATOM      7  C   UNL     1      31.553 -13.855 -12.060  1.00  0.00     0.093 A 
ATOM      8  C   UNL     1      31.462 -15.018 -11.291  1.00  0.00     0.123 A 
ATOM      9  C   UNL     1      30.826 -14.979 -10.052  1.00  0.00     0.094 A 
ATOM     10  C   UNL     1      30.301 -13.781  -9.562  1.00  0.00     0.146 A 
ATOM     11  O   UNL     1      29.718 -13.785  -8.367  1.00  0.00    -0.456 OA
ENDROOT
BRANCH   1  12
ATOM     12  C   UNL     1      28.575 -12.826  -6.460  1.00  0.00     0.021 A 
ATOM     13  C   UNL     1      27.280 -13.361  -6.361  1.00  0.00     0.016 A 
ATOM     14  C   UNL     1      26.660 -13.499  -5.118  1.00  0.00     0.051 A 
ATOM     15  C   UNL     1      27.323 -13.114  -3.950  1.00  0.00     0.157 A 
ATOM     16  C   UNL     1      29.246 -12.452  -5.279  1.00  0.00     0.062 A 
ATOM     17  C   UNL     1      28.624 -12.591  -4.029  1.00  0.00     0.158 A 
BRANCH  15  18
ATOM     18  O   UNL     1      26.678 -13.261  -2.723  1.00  0.00    -0.504 OA
ATOM     19  H   UNL     1      26.586 -14.161  -2.267  1.00  0.00     0.293 HD
ENDBRANCH  15  18
BRANCH  17  20
ATOM     20  O   UNL     1      29.297 -12.217  -2.867  1.00  0.00    -0.504 OA
ATOM     21  H   UNL     1      30.288 -12.388  -2.747  1.00  0.00     0.293 HD
ENDBRANCH  17  20
ENDBRANCH   1  12
BRANCH   6  22
ATOM     22  O   UNL     1      31.082 -11.564 -12.495  1.00  0.00    -0.507 OA
ATOM     23  H   UNL     1      31.648 -11.535 -13.328  1.00  0.00     0.293 HD
ENDBRANCH   6  22
BRANCH   8  24
ATOM     24  O   UNL     1      31.995 -16.219 -11.752  1.00  0.00    -0.508 OA
ATOM     25  H   UNL     1      31.888 -17.081 -11.232  1.00  0.00     0.293 HD
ENDBRANCH   8  24
TORSDOF 5
ENDMDL
MODEL 9
REMARK VINA RESULT:    -5.912     14.619     17.376
REMARK INTER + INTRA:          -7.241
REMARK INTER:                  -6.965
REMARK INTRA:                  -0.276
REMARK UNBOUND:                -0.293
REMARK SMILES O=c1cc(-c2ccc(O)c(O)c2)oc2cc(O)cc(O)c12
REMARK SMILES IDX 4 1 3 2 2 3 1 4 21 5 19 6 18 7 16 8 15 9 14 10 13 11 5 12
REMARK SMILES IDX 6 13 7 14 8 15 12 16 10 17 9 18 11 20 20 22 17 24
REMARK H PARENT 9 19 11 21 20 23 17 25
REMARK Flexibility Score: inf
ROOT
ATOM      1  C   UNL     1      30.109 -11.282  -9.099  1.00  0.00     0.138 A 
ATOM      2  C   UNL     1      29.506 -10.017  -9.067  1.00  0.00     0.100 A 
ATOM      3  C   UNL     1      28.929  -9.558  -7.882  1.00  0.00     0.197 A 
ATOM      4  O   UNL     1      28.347  -8.442  -7.900  1.00  0.00    -0.289 OA
ATOM      5  C   UNL     1      28.990 -10.355  -6.714  1.00  0.00     0.107 A 
ATOM      6  C   UNL     1      28.466  -9.976  -5.440  1.00  0.00     0.134 A 
ATOM      7  C   UNL     1      28.499 -10.890  -4.381  1.00  0.00     0.093 A 
ATOM      8  C   UNL     1      29.086 -12.149  -4.532  1.00  0.00     0.123 A 
ATOM      9  C   UNL     1      29.644 -12.510  -5.756  1.00  0.00     0.094 A 
ATOM     10  C   UNL     1      29.597 -11.633  -6.842  1.00  0.00     0.146 A 
ATOM     11  O   UNL     1      30.125 -12.024  -7.998  1.00  0.00    -0.456 OA
ENDROOT
BRANCH   1  12
ATOM     12  C   UNL     1      30.740 -11.820 -10.331  1.00  0.00     0.021 A 
ATOM     13  C   UNL     1      30.450 -13.132 -10.739  1.00  0.00     0.016 A 
ATOM     14  C   UNL     1      31.024 -13.661 -11.898  1.00  0.00     0.051 A 
ATOM     15  C   UNL     1      31.890 -12.886 -12.674  1.00  0.00     0.157 A 
ATOM     16  C   UNL     1      31.603 -11.037 -11.124  1.00  0.00     0.062 A 
ATOM     17  C   UNL     1      32.178 -11.567 -12.289  1.00  0.00     0.158 A 
BRANCH  15  18
ATOM     18  O   UNL     1      32.450 -13.441 -13.824  1.00  0.00    -0.504 OA
ATOM     19  H   UNL     1      32.942 -12.880 -14.509  1.00  0.00     0.293 HD
ENDBRANCH  15  18
BRANCH  17  20
ATOM     20  O   UNL     1      33.032 -10.785 -13.066  1.00  0.00    -0.504 OA
ATOM     21  H   UNL     1      33.029  -9.773 -13.005  1.00  0.00     0.293 HD
ENDBRANCH  17  20
ENDBRANCH   1  12
BRANCH   6  22
ATOM     22  O   UNL     1      27.930  -8.715  -5.158  1.00  0.00    -0.507 OA
ATOM     23  H   UNL     1      26.949  -8.483  -5.186  1.00  0.00     0.293 HD
ENDBRANCH   6  22
BRANCH   8  24
ATOM     24  O   UNL     1      29.126 -13.046  -3.468  1.00  0.00    -0.508 OA
ATOM     25  H   UNL     1      29.577 -13.950  -3.552  1.00  0.00     0.293 HD
ENDBRANCH   8  24
TORSDOF 5
ENDMDL
