MODEL 1
REMARK VINA RESULT:     0.357      0.000      0.000
REMARK INTER + INTRA:           0.374
REMARK INTER:                   0.627
REMARK INTRA:                  -0.254
REMARK UNBOUND:                -0.254
REMARK SMILES CCCCCCCCCCCCCCC(=O)[O-]
REMARK SMILES IDX 9 1 10 2 11 3 12 4 13 5 14 6 15 7 16 8 17 9 8 10 7 11 6 12
REMARK SMILES IDX 5 13 4 14 3 15 2 16 1 17
REMARK H PARENT
REMARK Flexibility Score: inf
ROOT
ATOM      1  C   UNL     1      89.068  18.028 121.089  1.00  0.00     0.000 C 
ENDROOT
BRANCH   1   2
ATOM      2  C   UNL     1      90.356  18.278 120.286  1.00  0.00     0.000 C 
BRANCH   2   3
ATOM      3  C   UNL     1      91.630  18.068 121.125  1.00  0.00     0.000 C 
BRANCH   3   4
ATOM      4  C   UNL     1      92.559  16.941 120.628  1.00  0.00     0.000 C 
BRANCH   4   5
ATOM      5  C   UNL     1      92.544  16.705 119.107  1.00  0.00     0.006 C 
BRANCH   5   6
ATOM      6  C   UNL     1      93.736  15.870 118.623  1.00  0.00     0.053 C 
BRANCH   6   7
ATOM      7  C   UNL     1      94.589  15.456 119.781  1.00  0.00     0.041 C 
ATOM      8  O   UNL     1      94.426  14.328 120.316  1.00  0.00    -0.550 OA
ATOM      9  O   UNL     1      95.597  16.295 120.238  1.00  0.00    -0.550 OA
ENDBRANCH   6   7
ENDBRANCH   5   6
ENDBRANCH   4   5
ENDBRANCH   3   4
ENDBRANCH   2   3
ENDBRANCH   1   2
BRANCH   1  10
ATOM     10  C   UNL     1      87.925  18.971 120.683  1.00  0.00     0.000 C 
BRANCH  10  11
ATOM     11  C   UNL     1      86.546  18.449 121.125  1.00  0.00    -0.000 C 
BRANCH  11  12
ATOM     12  C   UNL     1      85.978  17.395 120.161  1.00  0.00    -0.000 C 
BRANCH  12  13
ATOM     13  C   UNL     1      84.806  16.603 120.771  1.00  0.00    -0.000 C 
BRANCH  13  14
ATOM     14  C   UNL     1      83.492  17.400 120.779  1.00  0.00    -0.000 C 
BRANCH  14  15
ATOM     15  C   UNL     1      83.181  18.039 119.414  1.00  0.00    -0.000 C 
BRANCH  15  16
ATOM     16  C   UNL     1      82.007  17.354 118.697  1.00  0.00    -0.003 C 
ATOM     17  C   UNL     1      81.532  18.127 117.467  1.00  0.00     0.004 C 
ENDBRANCH  15  16
ENDBRANCH  14  15
ENDBRANCH  13  14
ENDBRANCH  12  13
ENDBRANCH  11  12
ENDBRANCH  10  11
ENDBRANCH   1  10
TORSDOF 13
ENDMDL
MODEL 2
REMARK VINA RESULT:     0.877      2.714      5.094
REMARK INTER + INTRA:           1.290
REMARK INTER:                   2.062
REMARK INTRA:                  -0.772
REMARK UNBOUND:                -0.254
REMARK SMILES CCCCCCCCCCCCCCC(=O)[O-]
REMARK SMILES IDX 9 1 10 2 11 3 12 4 13 5 14 6 15 7 16 8 17 9 8 10 7 11 6 12
REMARK SMILES IDX 5 13 4 14 3 15 2 16 1 17
REMARK H PARENT
REMARK Flexibility Score: inf
ROOT
ATOM      1  C   UNL     1      92.746  16.021 118.435  1.00  0.00     0.000 C 
ENDROOT
BRANCH   1   2
ATOM      2  C   UNL     1      93.964  15.917 119.369  1.00  0.00     0.000 C 
BRANCH   2   3
ATOM      3  C   UNL     1      93.778  14.860 120.473  1.00  0.00     0.000 C 
BRANCH   3   4
ATOM      4  C   UNL     1      94.807  13.712 120.455  1.00  0.00     0.000 C 
BRANCH   4   5
ATOM      5  C   UNL     1      94.342  12.407 121.125  1.00  0.00     0.006 C 
BRANCH   5   6
ATOM      6  C   UNL     1      92.838  12.153 120.953  1.00  0.00     0.053 C 
BRANCH   6   7
ATOM      7  C   UNL     1      92.577  10.696 120.734  1.00  0.00     0.041 C 
ATOM      8  O   UNL     1      91.428  10.301 120.407  1.00  0.00    -0.550 OA
ATOM      9  O   UNL     1      93.616   9.779 120.841  1.00  0.00    -0.550 OA
ENDBRANCH   6   7
ENDBRANCH   5   6
ENDBRANCH   4   5
ENDBRANCH   3   4
ENDBRANCH   2   3
ENDBRANCH   1   2
BRANCH   1  10
ATOM     10  C   UNL     1      91.784  17.149 118.840  1.00  0.00     0.000 C 
BRANCH  10  11
ATOM     11  C   UNL     1      92.383  18.076 119.912  1.00  0.00    -0.000 C 
BRANCH  11  12
ATOM     12  C   UNL     1      91.452  18.256 121.122  1.00  0.00    -0.000 C 
BRANCH  12  13
ATOM     13  C   UNL     1      90.039  17.697 120.873  1.00  0.00    -0.000 C 
BRANCH  13  14
ATOM     14  C   UNL     1      88.937  18.741 121.115  1.00  0.00    -0.000 C 
BRANCH  14  15
ATOM     15  C   UNL     1      87.671  18.466 120.284  1.00  0.00    -0.000 C 
BRANCH  15  16
ATOM     16  C   UNL     1      86.533  17.867 121.125  1.00  0.00    -0.003 C 
ATOM     17  C   UNL     1      85.453  17.203 120.271  1.00  0.00     0.004 C 
ENDBRANCH  15  16
ENDBRANCH  14  15
ENDBRANCH  13  14
ENDBRANCH  12  13
ENDBRANCH  11  12
ENDBRANCH  10  11
ENDBRANCH   1  10
TORSDOF 13
ENDMDL
