MODEL 1
REMARK VINA RESULT:    -4.821      0.000      0.000
REMARK INTER + INTRA:          -6.312
REMARK INTER:                  -6.511
REMARK INTRA:                   0.200
REMARK UNBOUND:                 0.200
REMARK SMILES O=c1c(-c2ccc(O)cc2)coc2c([C@@H]3O[C@@H](CO)[C@@H](O)[C@@H](O)[C@H]3O)c(O)ccc12
REMARK SMILES IDX 3 1 11 2 12 3 13 4 30 5 2 6 1 7 29 8 28 9 26 10 14 11 4 12
REMARK SMILES IDX 5 13 6 14 7 15 10 16 9 17 8 18 15 20 24 21 16 22 22 23 17 24
REMARK SMILES IDX 20 25 25 26 23 28 18 30 19 31 21 33 27 35
REMARK H PARENT 8 19 25 27 23 29 19 32 21 34 27 36
REMARK Flexibility Score: inf
ROOT
ATOM      1  C   UNL     1      31.501   3.934   7.022  1.00  0.00     0.065 A 
ATOM      2  C   UNL     1      31.378   3.490   8.346  1.00  0.00     0.208 A 
ATOM      3  O   UNL     1      32.260   3.849   9.270  1.00  0.00    -0.463 OA
ATOM      4  C   UNL     1      33.301   4.638   9.017  1.00  0.00     0.147 A 
ATOM      5  C   UNL     1      33.502   5.133   7.707  1.00  0.00     0.066 A 
ATOM      6  C   UNL     1      32.581   4.778   6.704  1.00  0.00     0.200 A 
ATOM      7  O   UNL     1      32.711   5.228   5.532  1.00  0.00    -0.288 OA
ATOM      8  C   UNL     1      34.605   5.957   7.438  1.00  0.00     0.020 A 
ATOM      9  C   UNL     1      35.505   6.277   8.451  1.00  0.00     0.047 A 
ATOM     10  C   UNL     1      35.320   5.789   9.750  1.00  0.00     0.125 A 
ATOM     11  C   UNL     1      34.202   4.978  10.054  1.00  0.00     0.069 A 
ENDROOT
BRANCH   1  12
ATOM     12  C   UNL     1      30.505   3.514   6.005  1.00  0.00    -0.011 A 
ATOM     13  C   UNL     1      29.283   4.200   5.883  1.00  0.00     0.013 A 
ATOM     14  C   UNL     1      28.340   3.802   4.931  1.00  0.00     0.047 A 
ATOM     15  C   UNL     1      28.600   2.712   4.095  1.00  0.00     0.115 A 
ATOM     16  C   UNL     1      30.757   2.414   5.165  1.00  0.00     0.013 A 
ATOM     17  C   UNL     1      29.812   2.018   4.215  1.00  0.00     0.047 A 
BRANCH  15  18
ATOM     18  O   UNL     1      27.650   2.325   3.152  1.00  0.00    -0.508 OA
ATOM     19  H   UNL     1      27.393   2.930   2.381  1.00  0.00     0.293 HD
ENDBRANCH  15  18
ENDBRANCH   1  12
BRANCH  11  20
ATOM     20  C   UNL     1      34.004   4.427  11.460  1.00  0.00     0.188 C 
ATOM     21  C   UNL     1      33.375   5.506  12.366  1.00  0.00     0.179 C 
ATOM     22  O   UNL     1      33.184   3.269  11.391  1.00  0.00    -0.362 OA
ATOM     23  C   UNL     1      33.162   4.947  13.783  1.00  0.00     0.177 C 
ATOM     24  C   UNL     1      33.003   2.643  12.654  1.00  0.00     0.176 C 
ATOM     25  C   UNL     1      32.397   3.616  13.706  1.00  0.00     0.177 C 
BRANCH  21  26
ATOM     26  O   UNL     1      34.207   6.638  12.411  1.00  0.00    -0.387 OA
ATOM     27  H   UNL     1      34.013   7.168  11.594  1.00  0.00     0.211 HD
ENDBRANCH  21  26
BRANCH  23  28
ATOM     28  O   UNL     1      34.391   4.766  14.439  1.00  0.00    -0.387 OA
ATOM     29  H   UNL     1      34.359   5.304  15.273  1.00  0.00     0.211 HD
ENDBRANCH  23  28
BRANCH  24  30
ATOM     30  C   UNL     1      34.274   1.884  13.107  1.00  0.00     0.191 C 
BRANCH  30  31
ATOM     31  O   UNL     1      34.385   1.877  14.506  1.00  0.00    -0.394 OA
ATOM     32  H   UNL     1      33.515   1.553  14.860  1.00  0.00     0.210 HD
ENDBRANCH  30  31
ENDBRANCH  24  30
BRANCH  25  33
ATOM     33  O   UNL     1      32.340   3.026  14.979  1.00  0.00    -0.388 OA
ATOM     34  H   UNL     1      31.615   3.487  15.476  1.00  0.00     0.211 HD
ENDBRANCH  25  33
ENDBRANCH  11  20
BRANCH  10  35
ATOM     35  O   UNL     1      36.251   6.110  10.740  1.00  0.00    -0.507 OA
ATOM     36  H   UNL     1      36.656   7.036  10.811  1.00  0.00     0.293 HD
ENDBRANCH  10  35
TORSDOF 9
ENDMDL
MODEL 2
REMARK VINA RESULT:    -4.352      1.356      1.743
REMARK INTER + INTRA:          -5.679
REMARK INTER:                  -6.024
REMARK INTRA:                   0.345
REMARK UNBOUND:                 0.200
REMARK SMILES O=c1c(-c2ccc(O)cc2)coc2c([C@@H]3O[C@@H](CO)[C@@H](O)[C@@H](O)[C@H]3O)c(O)ccc12
REMARK SMILES IDX 3 1 11 2 12 3 13 4 30 5 2 6 1 7 29 8 28 9 26 10 14 11 4 12
REMARK SMILES IDX 5 13 6 14 7 15 10 16 9 17 8 18 15 20 24 21 16 22 22 23 17 24
REMARK SMILES IDX 20 25 25 26 23 28 18 30 19 31 21 33 27 35
REMARK H PARENT 8 19 25 27 23 29 19 32 21 34 27 36
REMARK Flexibility Score: inf
ROOT
ATOM      1  C   UNL     1      31.972   4.273   7.504  1.00  0.00     0.065 A 
ATOM      2  C   UNL     1      31.774   3.764   8.795  1.00  0.00     0.208 A 
ATOM      3  O   UNL     1      32.405   4.289   9.838  1.00  0.00    -0.463 OA
ATOM      4  C   UNL     1      33.249   5.313   9.740  1.00  0.00     0.147 A 
ATOM      5  C   UNL     1      33.506   5.889   8.474  1.00  0.00     0.066 A 
ATOM      6  C   UNL     1      32.849   5.361   7.347  1.00  0.00     0.200 A 
ATOM      7  O   UNL     1      33.030   5.873   6.208  1.00  0.00    -0.288 OA
ATOM      8  C   UNL     1      34.404   6.963   8.370  1.00  0.00     0.020 A 
ATOM      9  C   UNL     1      35.048   7.451   9.504  1.00  0.00     0.047 A 
ATOM     10  C   UNL     1      34.806   6.886  10.761  1.00  0.00     0.125 A 
ATOM     11  C   UNL     1      33.886   5.821  10.898  1.00  0.00     0.069 A 
ENDROOT
BRANCH   1  12
ATOM     12  C   UNL     1      31.260   3.665   6.352  1.00  0.00    -0.011 A 
ATOM     13  C   UNL     1      30.122   4.289   5.812  1.00  0.00     0.013 A 
ATOM     14  C   UNL     1      29.445   3.715   4.732  1.00  0.00     0.047 A 
ATOM     15  C   UNL     1      29.890   2.509   4.183  1.00  0.00     0.115 A 
ATOM     16  C   UNL     1      31.699   2.448   5.799  1.00  0.00     0.013 A 
ATOM     17  C   UNL     1      31.019   1.875   4.720  1.00  0.00     0.047 A 
BRANCH  15  18
ATOM     18  O   UNL     1      29.206   1.946   3.107  1.00  0.00    -0.508 OA
ATOM     19  H   UNL     1      29.674   1.350   2.435  1.00  0.00     0.293 HD
ENDBRANCH  15  18
ENDBRANCH   1  12
BRANCH  11  20
ATOM     20  C   UNL     1      33.630   5.187  12.260  1.00  0.00     0.188 C 
ATOM     21  C   UNL     1      32.254   4.491  12.269  1.00  0.00     0.179 C 
ATOM     22  O   UNL     1      34.676   4.268  12.545  1.00  0.00    -0.362 OA
ATOM     23  C   UNL     1      32.000   3.840  13.639  1.00  0.00     0.177 C 
ATOM     24  C   UNL     1      34.558   3.679  13.833  1.00  0.00     0.176 C 
ATOM     25  C   UNL     1      33.195   2.953  14.020  1.00  0.00     0.177 C 
BRANCH  21  26
ATOM     26  O   UNL     1      31.243   5.425  11.981  1.00  0.00    -0.387 OA
ATOM     27  H   UNL     1      31.550   5.944  11.192  1.00  0.00     0.211 HD
ENDBRANCH  21  26
BRANCH  23  28
ATOM     28  O   UNL     1      31.784   4.818  14.625  1.00  0.00    -0.387 OA
ATOM     29  H   UNL     1      30.822   4.781  14.867  1.00  0.00     0.211 HD
ENDBRANCH  23  28
BRANCH  24  30
ATOM     30  C   UNL     1      34.941   4.673  14.957  1.00  0.00     0.191 C 
BRANCH  30  31
ATOM     31  O   UNL     1      35.578   5.807  14.431  1.00  0.00    -0.394 OA
ATOM     32  H   UNL     1      35.590   5.696  13.444  1.00  0.00     0.210 HD
ENDBRANCH  30  31
ENDBRANCH  24  30
BRANCH  25  33
ATOM     33  O   UNL     1      33.040   2.484  15.335  1.00  0.00    -0.388 OA
ATOM     34  H   UNL     1      32.380   1.742  15.299  1.00  0.00     0.211 HD
ENDBRANCH  25  33
ENDBRANCH  11  20
BRANCH  10  35
ATOM     35  O   UNL     1      35.482   7.384  11.877  1.00  0.00    -0.507 OA
ATOM     36  H   UNL     1      35.788   6.777  12.628  1.00  0.00     0.293 HD
ENDBRANCH  10  35
TORSDOF 9
ENDMDL
MODEL 3
REMARK VINA RESULT:    -4.348      1.107      2.076
REMARK INTER + INTRA:          -5.674
REMARK INTER:                  -4.928
REMARK INTRA:                  -0.746
REMARK UNBOUND:                 0.200
REMARK SMILES O=c1c(-c2ccc(O)cc2)coc2c([C@@H]3O[C@@H](CO)[C@@H](O)[C@@H](O)[C@H]3O)c(O)ccc12
REMARK SMILES IDX 3 1 11 2 12 3 13 4 30 5 2 6 1 7 29 8 28 9 26 10 14 11 4 12
REMARK SMILES IDX 5 13 6 14 7 15 10 16 9 17 8 18 15 20 24 21 16 22 22 23 17 24
REMARK SMILES IDX 20 25 25 26 23 28 18 30 19 31 21 33 27 35
REMARK H PARENT 8 19 25 27 23 29 19 32 21 34 27 36
REMARK Flexibility Score: inf
ROOT
ATOM      1  C   UNL     1      30.898   3.768   6.670  1.00  0.00     0.065 A 
ATOM      2  C   UNL     1      30.715   3.431   8.018  1.00  0.00     0.208 A 
ATOM      3  O   UNL     1      31.636   3.731   8.926  1.00  0.00    -0.463 OA
ATOM      4  C   UNL     1      32.771   4.360   8.633  1.00  0.00     0.147 A 
ATOM      5  C   UNL     1      33.038   4.737   7.296  1.00  0.00     0.066 A 
ATOM      6  C   UNL     1      32.079   4.440   6.308  1.00  0.00     0.200 A 
ATOM      7  O   UNL     1      32.269   4.792   5.111  1.00  0.00    -0.288 OA
ATOM      8  C   UNL     1      34.240   5.391   6.985  1.00  0.00     0.020 A 
ATOM      9  C   UNL     1      35.173   5.655   7.985  1.00  0.00     0.047 A 
ATOM     10  C   UNL     1      34.923   5.282   9.311  1.00  0.00     0.125 A 
ATOM     11  C   UNL     1      33.708   4.646   9.655  1.00  0.00     0.069 A 
ENDROOT
BRANCH   1  12
ATOM     12  C   UNL     1      29.857   3.416   5.672  1.00  0.00    -0.011 A 
ATOM     13  C   UNL     1      28.598   4.041   5.711  1.00  0.00     0.013 A 
ATOM     14  C   UNL     1      27.612   3.706   4.777  1.00  0.00     0.047 A 
ATOM     15  C   UNL     1      27.868   2.740   3.799  1.00  0.00     0.115 A 
ATOM     16  C   UNL     1      30.106   2.440   4.689  1.00  0.00     0.013 A 
ATOM     17  C   UNL     1      29.118   2.107   3.758  1.00  0.00     0.047 A 
BRANCH  15  18
ATOM     18  O   UNL     1      26.877   2.415   2.875  1.00  0.00    -0.508 OA
ATOM     19  H   UNL     1      26.785   1.476   2.506  1.00  0.00     0.293 HD
ENDBRANCH  15  18
ENDBRANCH   1  12
BRANCH  11  20
ATOM     20  C   UNL     1      33.437   4.219  11.092  1.00  0.00     0.188 C 
ATOM     21  C   UNL     1      33.982   2.796  11.332  1.00  0.00     0.179 C 
ATOM     22  O   UNL     1      34.037   5.158  11.974  1.00  0.00    -0.362 OA
ATOM     23  C   UNL     1      33.719   2.369  12.787  1.00  0.00     0.177 C 
ATOM     24  C   UNL     1      33.773   4.879  13.342  1.00  0.00     0.176 C 
ATOM     25  C   UNL     1      34.241   3.451  13.746  1.00  0.00     0.177 C 
BRANCH  21  26
ATOM     26  O   UNL     1      33.371   1.894  10.444  1.00  0.00    -0.387 OA
ATOM     27  H   UNL     1      33.372   2.327   9.551  1.00  0.00     0.211 HD
ENDBRANCH  21  26
BRANCH  23  28
ATOM     28  O   UNL     1      32.349   2.144  13.003  1.00  0.00    -0.387 OA
ATOM     29  H   UNL     1      31.924   3.033  13.129  1.00  0.00     0.211 HD
ENDBRANCH  23  28
BRANCH  24  30
ATOM     30  C   UNL     1      32.319   5.237  13.733  1.00  0.00     0.191 C 
BRANCH  30  31
ATOM     31  O   UNL     1      31.939   6.471  13.184  1.00  0.00    -0.394 OA
ATOM     32  H   UNL     1      32.008   7.141  13.913  1.00  0.00     0.210 HD
ENDBRANCH  30  31
ENDBRANCH  24  30
BRANCH  25  33
ATOM     33  O   UNL     1      33.863   3.140  15.063  1.00  0.00    -0.388 OA
ATOM     34  H   UNL     1      33.865   2.150  15.136  1.00  0.00     0.211 HD
ENDBRANCH  25  33
ENDBRANCH  11  20
BRANCH  10  35
ATOM     35  O   UNL     1      35.886   5.543  10.288  1.00  0.00    -0.507 OA
ATOM     36  H   UNL     1      36.784   5.950  10.055  1.00  0.00     0.293 HD
ENDBRANCH  10  35
TORSDOF 9
ENDMDL
MODEL 4
REMARK VINA RESULT:    -4.223      1.517      7.964
REMARK INTER + INTRA:          -5.505
REMARK INTER:                  -5.500
REMARK INTRA:                  -0.005
REMARK UNBOUND:                 0.200
REMARK SMILES O=c1c(-c2ccc(O)cc2)coc2c([C@@H]3O[C@@H](CO)[C@@H](O)[C@@H](O)[C@H]3O)c(O)ccc12
REMARK SMILES IDX 3 1 11 2 12 3 13 4 30 5 2 6 1 7 29 8 28 9 26 10 14 11 4 12
REMARK SMILES IDX 5 13 6 14 7 15 10 16 9 17 8 18 15 20 24 21 16 22 22 23 17 24
REMARK SMILES IDX 20 25 25 26 23 28 18 30 19 31 21 33 27 35
REMARK H PARENT 8 19 25 27 23 29 19 32 21 34 27 36
REMARK Flexibility Score: inf
ROOT
ATOM      1  C   UNL     1      33.029   3.887  10.391  1.00  0.00     0.065 A 
ATOM      2  C   UNL     1      31.911   3.311   9.772  1.00  0.00     0.208 A 
ATOM      3  O   UNL     1      31.597   3.610   8.517  1.00  0.00    -0.463 OA
ATOM      4  C   UNL     1      32.303   4.457   7.772  1.00  0.00     0.147 A 
ATOM      5  C   UNL     1      33.448   5.084   8.317  1.00  0.00     0.066 A 
ATOM      6  C   UNL     1      33.814   4.783   9.643  1.00  0.00     0.200 A 
ATOM      7  O   UNL     1      34.848   5.299  10.150  1.00  0.00    -0.288 OA
ATOM      8  C   UNL     1      34.187   5.983   7.533  1.00  0.00     0.020 A 
ATOM      9  C   UNL     1      33.788   6.269   6.230  1.00  0.00     0.047 A 
ATOM     10  C   UNL     1      32.654   5.659   5.681  1.00  0.00     0.125 A 
ATOM     11  C   UNL     1      31.907   4.729   6.440  1.00  0.00     0.069 A 
ENDROOT
BRANCH   1  12
ATOM     12  C   UNL     1      33.356   3.541  11.798  1.00  0.00    -0.011 A 
ATOM     13  C   UNL     1      33.297   2.205  12.231  1.00  0.00     0.013 A 
ATOM     14  C   UNL     1      33.597   1.877  13.557  1.00  0.00     0.047 A 
ATOM     15  C   UNL     1      33.952   2.878  14.466  1.00  0.00     0.115 A 
ATOM     16  C   UNL     1      33.708   4.544  12.719  1.00  0.00     0.013 A 
ATOM     17  C   UNL     1      34.005   4.214  14.044  1.00  0.00     0.047 A 
BRANCH  15  18
ATOM     18  O   UNL     1      34.247   2.538  15.785  1.00  0.00    -0.508 OA
ATOM     19  H   UNL     1      35.150   2.159  16.044  1.00  0.00     0.293 HD
ENDBRANCH  15  18
ENDBRANCH   1  12
BRANCH  11  20
ATOM     20  C   UNL     1      30.661   4.075   5.857  1.00  0.00     0.188 C 
ATOM     21  C   UNL     1      30.855   2.546   5.776  1.00  0.00     0.179 C 
ATOM     22  O   UNL     1      29.542   4.411   6.665  1.00  0.00    -0.362 OA
ATOM     23  C   UNL     1      29.592   1.884   5.199  1.00  0.00     0.177 C 
ATOM     24  C   UNL     1      28.317   3.902   6.154  1.00  0.00     0.176 C 
ATOM     25  C   UNL     1      28.356   2.356   5.981  1.00  0.00     0.177 C 
BRANCH  21  26
ATOM     26  O   UNL     1      31.969   2.247   4.973  1.00  0.00    -0.387 OA
ATOM     27  H   UNL     1      31.616   1.913   4.107  1.00  0.00     0.211 HD
ENDBRANCH  21  26
BRANCH  23  28
ATOM     28  O   UNL     1      29.450   2.184   3.833  1.00  0.00    -0.387 OA
ATOM     29  H   UNL     1      29.969   1.504   3.330  1.00  0.00     0.211 HD
ENDBRANCH  23  28
BRANCH  24  30
ATOM     30  C   UNL     1      27.835   4.697   4.916  1.00  0.00     0.191 C 
BRANCH  30  31
ATOM     31  O   UNL     1      27.106   3.876   4.043  1.00  0.00    -0.394 OA
ATOM     32  H   UNL     1      27.748   3.220   3.663  1.00  0.00     0.210 HD
ENDBRANCH  30  31
ENDBRANCH  24  30
BRANCH  25  33
ATOM     33  O   UNL     1      27.189   1.880   5.360  1.00  0.00    -0.388 OA
ATOM     34  H   UNL     1      27.438   1.043   4.888  1.00  0.00     0.211 HD
ENDBRANCH  25  33
ENDBRANCH  11  20
BRANCH  10  35
ATOM     35  O   UNL     1      32.267   5.981   4.378  1.00  0.00    -0.507 OA
ATOM     36  H   UNL     1      31.458   5.556   3.943  1.00  0.00     0.293 HD
ENDBRANCH  10  35
TORSDOF 9
ENDMDL
MODEL 5
REMARK VINA RESULT:    -3.655      1.716      3.893
REMARK INTER + INTRA:          -4.738
REMARK INTER:                  -3.769
REMARK INTRA:                  -0.968
REMARK UNBOUND:                 0.200
REMARK SMILES O=c1c(-c2ccc(O)cc2)coc2c([C@@H]3O[C@@H](CO)[C@@H](O)[C@@H](O)[C@H]3O)c(O)ccc12
REMARK SMILES IDX 3 1 11 2 12 3 13 4 30 5 2 6 1 7 29 8 28 9 26 10 14 11 4 12
REMARK SMILES IDX 5 13 6 14 7 15 10 16 9 17 8 18 15 20 24 21 16 22 22 23 17 24
REMARK SMILES IDX 20 25 25 26 23 28 18 30 19 31 21 33 27 35
REMARK H PARENT 8 19 25 27 23 29 19 32 21 34 27 36
REMARK Flexibility Score: inf
ROOT
ATOM      1  C   UNL     1      31.261   3.857   7.340  1.00  0.00     0.065 A 
ATOM      2  C   UNL     1      32.183   4.902   7.484  1.00  0.00     0.208 A 
ATOM      3  O   UNL     1      33.005   4.948   8.525  1.00  0.00    -0.463 OA
ATOM      4  C   UNL     1      33.016   4.027   9.486  1.00  0.00     0.147 A 
ATOM      5  C   UNL     1      32.118   2.935   9.420  1.00  0.00     0.066 A 
ATOM      6  C   UNL     1      31.237   2.852   8.325  1.00  0.00     0.200 A 
ATOM      7  O   UNL     1      30.446   1.875   8.217  1.00  0.00    -0.288 OA
ATOM      8  C   UNL     1      32.123   1.969  10.438  1.00  0.00     0.020 A 
ATOM      9  C   UNL     1      32.998   2.091  11.515  1.00  0.00     0.047 A 
ATOM     10  C   UNL     1      33.888   3.169  11.594  1.00  0.00     0.125 A 
ATOM     11  C   UNL     1      33.921   4.141  10.568  1.00  0.00     0.069 A 
ENDROOT
BRANCH   1  12
ATOM     12  C   UNL     1      30.348   3.831   6.169  1.00  0.00    -0.011 A 
ATOM     13  C   UNL     1      28.989   4.156   6.324  1.00  0.00     0.013 A 
ATOM     14  C   UNL     1      28.124   4.125   5.225  1.00  0.00     0.047 A 
ATOM     15  C   UNL     1      28.603   3.764   3.963  1.00  0.00     0.115 A 
ATOM     16  C   UNL     1      30.822   3.461   4.898  1.00  0.00     0.013 A 
ATOM     17  C   UNL     1      29.955   3.430   3.802  1.00  0.00     0.047 A 
BRANCH  15  18
ATOM     18  O   UNL     1      27.731   3.736   2.876  1.00  0.00    -0.508 OA
ATOM     19  H   UNL     1      27.905   3.144   2.073  1.00  0.00     0.293 HD
ENDBRANCH  15  18
ENDBRANCH   1  12
BRANCH  11  20
ATOM     20  C   UNL     1      34.872   5.328  10.656  1.00  0.00     0.188 C 
ATOM     21  C   UNL     1      34.535   6.184  11.894  1.00  0.00     0.179 C 
ATOM     22  O   UNL     1      36.208   4.846  10.710  1.00  0.00    -0.362 OA
ATOM     23  C   UNL     1      35.504   7.376  11.991  1.00  0.00     0.177 C 
ATOM     24  C   UNL     1      37.173   5.890  10.721  1.00  0.00     0.176 C 
ATOM     25  C   UNL     1      36.953   6.874  11.906  1.00  0.00     0.177 C 
BRANCH  21  26
ATOM     26  O   UNL     1      33.209   6.643  11.812  1.00  0.00    -0.387 OA
ATOM     27  H   UNL     1      33.125   7.393  12.457  1.00  0.00     0.211 HD
ENDBRANCH  21  26
BRANCH  23  28
ATOM     28  O   UNL     1      35.250   8.310  10.972  1.00  0.00    -0.387 OA
ATOM     29  H   UNL     1      35.412   7.851  10.107  1.00  0.00     0.211 HD
ENDBRANCH  23  28
BRANCH  24  30
ATOM     30  C   UNL     1      37.322   6.550   9.328  1.00  0.00     0.191 C 
BRANCH  30  31
ATOM     31  O   UNL     1      38.488   7.327   9.262  1.00  0.00    -0.394 OA
ATOM     32  H   UNL     1      38.706   7.596  10.194  1.00  0.00     0.210 HD
ENDBRANCH  30  31
ENDBRANCH  24  30
BRANCH  25  33
ATOM     33  O   UNL     1      37.832   7.967  11.834  1.00  0.00    -0.388 OA
ATOM     34  H   UNL     1      38.040   8.105  10.873  1.00  0.00     0.211 HD
ENDBRANCH  25  33
ENDBRANCH  11  20
BRANCH  10  35
ATOM     35  O   UNL     1      34.739   3.274  12.696  1.00  0.00    -0.507 OA
ATOM     36  H   UNL     1      34.607   3.984  13.405  1.00  0.00     0.293 HD
ENDBRANCH  10  35
TORSDOF 9
ENDMDL
MODEL 6
REMARK VINA RESULT:    -2.570      2.373      8.446
REMARK INTER + INTRA:          -3.272
REMARK INTER:                  -4.198
REMARK INTRA:                   0.926
REMARK UNBOUND:                 0.200
REMARK SMILES O=c1c(-c2ccc(O)cc2)coc2c([C@@H]3O[C@@H](CO)[C@@H](O)[C@@H](O)[C@H]3O)c(O)ccc12
REMARK SMILES IDX 3 1 11 2 12 3 13 4 30 5 2 6 1 7 29 8 28 9 26 10 14 11 4 12
REMARK SMILES IDX 5 13 6 14 7 15 10 16 9 17 8 18 15 20 24 21 16 22 22 23 17 24
REMARK SMILES IDX 20 25 25 26 23 28 18 30 19 31 21 33 27 35
REMARK H PARENT 8 19 25 27 23 29 19 32 21 34 27 36
REMARK Flexibility Score: inf
ROOT
ATOM      1  C   UNL     1      35.012   5.509   9.788  1.00  0.00     0.065 A 
ATOM      2  C   UNL     1      34.382   6.060   8.663  1.00  0.00     0.208 A 
ATOM      3  O   UNL     1      33.341   5.458   8.103  1.00  0.00    -0.463 OA
ATOM      4  C   UNL     1      32.828   4.317   8.555  1.00  0.00     0.147 A 
ATOM      5  C   UNL     1      33.402   3.691   9.687  1.00  0.00     0.066 A 
ATOM      6  C   UNL     1      34.504   4.306  10.310  1.00  0.00     0.200 A 
ATOM      7  O   UNL     1      35.019   3.794  11.342  1.00  0.00    -0.288 OA
ATOM      8  C   UNL     1      32.867   2.482  10.158  1.00  0.00     0.020 A 
ATOM      9  C   UNL     1      31.786   1.893   9.507  1.00  0.00     0.047 A 
ATOM     10  C   UNL     1      31.213   2.500   8.383  1.00  0.00     0.125 A 
ATOM     11  C   UNL     1      31.716   3.731   7.904  1.00  0.00     0.069 A 
ENDROOT
BRANCH   1  12
ATOM     12  C   UNL     1      36.180   6.198  10.394  1.00  0.00    -0.011 A 
ATOM     13  C   UNL     1      37.462   5.629  10.307  1.00  0.00     0.013 A 
ATOM     14  C   UNL     1      38.562   6.271  10.883  1.00  0.00     0.047 A 
ATOM     15  C   UNL     1      38.396   7.484  11.558  1.00  0.00     0.115 A 
ATOM     16  C   UNL     1      36.017   7.416  11.080  1.00  0.00     0.013 A 
ATOM     17  C   UNL     1      37.119   8.054  11.657  1.00  0.00     0.047 A 
BRANCH  15  18
ATOM     18  O   UNL     1      39.500   8.113  12.129  1.00  0.00    -0.508 OA
ATOM     19  H   UNL     1      40.257   7.581  12.543  1.00  0.00     0.293 HD
ENDBRANCH  15  18
ENDBRANCH   1  12
BRANCH  11  20
ATOM     20  C   UNL     1      31.110   4.388   6.670  1.00  0.00     0.188 C 
ATOM     21  C   UNL     1      32.111   4.332   5.497  1.00  0.00     0.179 C 
ATOM     22  O   UNL     1      29.895   3.728   6.344  1.00  0.00    -0.362 OA
ATOM     23  C   UNL     1      31.495   4.984   4.247  1.00  0.00     0.177 C 
ATOM     24  C   UNL     1      29.220   4.322   5.244  1.00  0.00     0.176 C 
ATOM     25  C   UNL     1      30.113   4.372   3.971  1.00  0.00     0.177 C 
BRANCH  21  26
ATOM     26  O   UNL     1      33.301   4.991   5.852  1.00  0.00    -0.387 OA
ATOM     27  H   UNL     1      33.118   5.475   6.699  1.00  0.00     0.211 HD
ENDBRANCH  21  26
BRANCH  23  28
ATOM     28  O   UNL     1      31.390   6.376   4.410  1.00  0.00    -0.387 OA
ATOM     29  H   UNL     1      32.101   6.789   3.854  1.00  0.00     0.211 HD
ENDBRANCH  23  28
BRANCH  24  30
ATOM     30  C   UNL     1      28.547   5.660   5.635  1.00  0.00     0.191 C 
BRANCH  30  31
ATOM     31  O   UNL     1      28.061   5.612   6.951  1.00  0.00    -0.394 OA
ATOM     32  H   UNL     1      27.580   6.467   7.108  1.00  0.00     0.210 HD
ENDBRANCH  30  31
ENDBRANCH  24  30
BRANCH  25  33
ATOM     33  O   UNL     1      29.483   5.072   2.928  1.00  0.00    -0.388 OA
ATOM     34  H   UNL     1      30.163   5.200   2.217  1.00  0.00     0.211 HD
ENDBRANCH  25  33
ENDBRANCH  11  20
BRANCH  10  35
ATOM     35  O   UNL     1      30.142   1.875   7.740  1.00  0.00    -0.507 OA
ATOM     36  H   UNL     1      29.807   0.964   8.028  1.00  0.00     0.293 HD
ENDBRANCH  10  35
TORSDOF 9
ENDMDL
