MODEL 1
REMARK VINA RESULT:    -4.080      0.000      0.000
REMARK INTER + INTRA:          -5.141
REMARK INTER:                  -4.915
REMARK INTRA:                  -0.227
REMARK UNBOUND:                -0.227
REMARK SMILES C=CCc1ccc(O)c(OC)c1
REMARK SMILES IDX 9 1 7 2 6 3 5 4 4 5 12 6 10 7 11 8 8 9 3 11 2 12 1 13
REMARK H PARENT 8 10
REMARK Flexibility Score: inf
ROOT
ATOM      1  C   UNL     1     116.731 116.023 111.898  1.00  0.00     0.160 A 
ATOM      2  C   UNL     1     118.135 116.100 111.899  1.00  0.00     0.157 A 
ATOM      3  C   UNL     1     118.769 117.347 111.927  1.00  0.00     0.050 A 
ATOM      4  C   UNL     1     118.015 118.522 111.951  1.00  0.00     0.008 A 
ATOM      5  C   UNL     1     116.616 118.464 111.939  1.00  0.00    -0.040 A 
ATOM      6  C   UNL     1     115.976 117.213 111.921  1.00  0.00     0.054 A 
ENDROOT
BRANCH   1   7
ATOM      7  O   UNL     1     116.122 114.758 111.875  1.00  0.00    -0.493 OA
ATOM      8  C   UNL     1     114.859 114.458 112.460  1.00  0.00     0.278 C 
ENDBRANCH   1   7
BRANCH   2   9
ATOM      9  O   UNL     1     118.921 114.948 111.875  1.00  0.00    -0.504 OA
ATOM     10  H   UNL     1     119.544 114.705 112.636  1.00  0.00     0.293 HD
ENDBRANCH   2   9
BRANCH   5  11
ATOM     11  C   UNL     1     115.806 119.733 111.996  1.00  0.00     0.062 C 
BRANCH  11  12
ATOM     12  C   UNL     1     114.711 119.620 113.019  1.00  0.00    -0.030 C 
ATOM     13  C   UNL     1     114.942 119.812 114.322  1.00  0.00     0.004 C 
ENDBRANCH  11  12
ENDBRANCH   5  11
TORSDOF 4
ENDMDL
MODEL 2
REMARK VINA RESULT:    -4.078      1.782      3.580
REMARK INTER + INTRA:          -5.139
REMARK INTER:                  -4.903
REMARK INTRA:                  -0.236
REMARK UNBOUND:                -0.227
REMARK SMILES C=CCc1ccc(O)c(OC)c1
REMARK SMILES IDX 9 1 7 2 6 3 5 4 4 5 12 6 10 7 11 8 8 9 3 11 2 12 1 13
REMARK H PARENT 8 10
REMARK Flexibility Score: inf
ROOT
ATOM      1  C   UNL     1     117.138 116.625 111.945  1.00  0.00     0.160 A 
ATOM      2  C   UNL     1     117.012 118.026 111.929  1.00  0.00     0.157 A 
ATOM      3  C   UNL     1     115.744 118.615 111.907  1.00  0.00     0.050 A 
ATOM      4  C   UNL     1     114.595 117.822 111.897  1.00  0.00     0.008 A 
ATOM      5  C   UNL     1     114.703 116.425 111.901  1.00  0.00    -0.040 A 
ATOM      6  C   UNL     1     115.975 115.829 111.933  1.00  0.00     0.054 A 
ENDROOT
BRANCH   1   7
ATOM      7  O   UNL     1     118.424 116.061 111.974  1.00  0.00    -0.493 OA
ATOM      8  C   UNL     1     118.697 114.685 112.219  1.00  0.00     0.278 C 
ENDBRANCH   1   7
BRANCH   2   9
ATOM      9  O   UNL     1     118.136 118.852 111.939  1.00  0.00    -0.504 OA
ATOM     10  H   UNL     1     118.076 119.848 111.764  1.00  0.00     0.293 HD
ENDBRANCH   2   9
BRANCH   5  11
ATOM     11  C   UNL     1     113.462 115.572 111.920  1.00  0.00     0.062 C 
BRANCH  11  12
ATOM     12  C   UNL     1     113.547 114.533 113.003  1.00  0.00    -0.030 C 
ATOM     13  C   UNL     1     113.246 114.816 114.274  1.00  0.00     0.004 C 
ENDBRANCH  11  12
ENDBRANCH   5  11
TORSDOF 4
ENDMDL
MODEL 3
REMARK VINA RESULT:    -4.071      1.827      3.445
REMARK INTER + INTRA:          -5.131
REMARK INTER:                  -4.894
REMARK INTRA:                  -0.237
REMARK UNBOUND:                -0.227
REMARK SMILES C=CCc1ccc(O)c(OC)c1
REMARK SMILES IDX 9 1 7 2 6 3 5 4 4 5 12 6 10 7 11 8 8 9 3 11 2 12 1 13
REMARK H PARENT 8 10
REMARK Flexibility Score: inf
ROOT
ATOM      1  C   UNL     1     116.102 116.301 111.960  1.00  0.00     0.160 A 
ATOM      2  C   UNL     1     116.293 114.907 111.993  1.00  0.00     0.157 A 
ATOM      3  C   UNL     1     117.587 114.377 111.985  1.00  0.00     0.050 A 
ATOM      4  C   UNL     1     118.697 115.223 111.941  1.00  0.00     0.008 A 
ATOM      5  C   UNL     1     118.525 116.613 111.897  1.00  0.00    -0.040 A 
ATOM      6  C   UNL     1     117.226 117.149 111.914  1.00  0.00     0.054 A 
ENDROOT
BRANCH   1   7
ATOM      7  O   UNL     1     114.791 116.805 111.975  1.00  0.00    -0.493 OA
ATOM      8  C   UNL     1     114.453 118.170 112.200  1.00  0.00     0.278 C 
ENDBRANCH   1   7
BRANCH   2   9
ATOM      9  O   UNL     1     115.208 114.031 112.037  1.00  0.00    -0.504 OA
ATOM     10  H   UNL     1     115.303 113.045 111.828  1.00  0.00     0.293 HD
ENDBRANCH   2   9
BRANCH   5  11
ATOM     11  C   UNL     1     119.725 117.523 111.881  1.00  0.00     0.062 C 
BRANCH  11  12
ATOM     12  C   UNL     1     119.615 118.567 112.955  1.00  0.00    -0.030 C 
ATOM     13  C   UNL     1     119.899 118.295 114.233  1.00  0.00     0.004 C 
ENDBRANCH  11  12
ENDBRANCH   5  11
TORSDOF 4
ENDMDL
MODEL 4
REMARK VINA RESULT:    -4.039      2.335      4.976
REMARK INTER + INTRA:          -5.092
REMARK INTER:                  -4.884
REMARK INTRA:                  -0.207
REMARK UNBOUND:                -0.227
REMARK SMILES C=CCc1ccc(O)c(OC)c1
REMARK SMILES IDX 9 1 7 2 6 3 5 4 4 5 12 6 10 7 11 8 8 9 3 11 2 12 1 13
REMARK H PARENT 8 10
REMARK Flexibility Score: inf
ROOT
ATOM      1  C   UNL     1     116.624 117.001 111.916  1.00  0.00     0.160 A 
ATOM      2  C   UNL     1     115.221 116.889 111.903  1.00  0.00     0.157 A 
ATOM      3  C   UNL     1     114.620 115.627 111.920  1.00  0.00     0.050 A 
ATOM      4  C   UNL     1     115.402 114.470 111.949  1.00  0.00     0.008 A 
ATOM      5  C   UNL     1     116.800 114.564 111.951  1.00  0.00    -0.040 A 
ATOM      6  C   UNL     1     117.408 115.831 111.943  1.00  0.00     0.054 A 
ENDROOT
BRANCH   1   7
ATOM      7  O   UNL     1     117.200 118.282 111.904  1.00  0.00    -0.493 OA
ATOM      8  C   UNL     1     118.565 118.556 112.202  1.00  0.00     0.278 C 
ENDBRANCH   1   7
BRANCH   2   9
ATOM      9  O   UNL     1     114.407 118.021 111.875  1.00  0.00    -0.504 OA
ATOM     10  H   UNL     1     114.443 118.693 111.118  1.00  0.00     0.293 HD
ENDBRANCH   2   9
BRANCH   5  11
ATOM     11  C   UNL     1     117.641 113.316 112.012  1.00  0.00     0.062 C 
BRANCH  11  12
ATOM     12  C   UNL     1     118.590 113.370 113.175  1.00  0.00    -0.030 C 
ATOM     13  C   UNL     1     118.154 113.381 114.439  1.00  0.00     0.004 C 
ENDBRANCH  11  12
ENDBRANCH   5  11
TORSDOF 4
ENDMDL
MODEL 5
REMARK VINA RESULT:    -3.962      2.151      4.132
REMARK INTER + INTRA:          -4.999
REMARK INTER:                  -4.807
REMARK INTRA:                  -0.192
REMARK UNBOUND:                -0.227
REMARK SMILES C=CCc1ccc(O)c(OC)c1
REMARK SMILES IDX 9 1 7 2 6 3 5 4 4 5 12 6 10 7 11 8 8 9 3 11 2 12 1 13
REMARK H PARENT 8 10
REMARK Flexibility Score: inf
ROOT
ATOM      1  C   UNL     1     115.161 116.934 111.945  1.00  0.00     0.160 A 
ATOM      2  C   UNL     1     115.417 118.317 111.982  1.00  0.00     0.157 A 
ATOM      3  C   UNL     1     116.734 118.785 112.011  1.00  0.00     0.050 A 
ATOM      4  C   UNL     1     117.804 117.888 112.005  1.00  0.00     0.008 A 
ATOM      5  C   UNL     1     117.567 116.507 111.980  1.00  0.00    -0.040 A 
ATOM      6  C   UNL     1     116.245 116.033 111.942  1.00  0.00     0.054 A 
ENDROOT
BRANCH   1   7
ATOM      7  O   UNL     1     113.828 116.492 111.911  1.00  0.00    -0.493 OA
ATOM      8  C   UNL     1     113.419 115.142 112.104  1.00  0.00     0.278 C 
ENDBRANCH   1   7
BRANCH   2   9
ATOM      9  O   UNL     1     114.374 119.243 111.988  1.00  0.00    -0.504 OA
ATOM     10  H   UNL     1     114.058 119.705 111.144  1.00  0.00     0.293 HD
ENDBRANCH   2   9
BRANCH   5  11
ATOM     11  C   UNL     1     118.723 115.543 111.944  1.00  0.00     0.062 C 
BRANCH  11  12
ATOM     12  C   UNL     1     118.237 114.124 112.040  1.00  0.00    -0.030 C 
ATOM     13  C   UNL     1     118.567 113.336 113.068  1.00  0.00     0.004 C 
ENDBRANCH  11  12
ENDBRANCH   5  11
TORSDOF 4
ENDMDL
MODEL 6
REMARK VINA RESULT:    -3.948      1.940      3.786
REMARK INTER + INTRA:          -4.983
REMARK INTER:                  -4.793
REMARK INTRA:                  -0.190
REMARK UNBOUND:                -0.227
REMARK SMILES C=CCc1ccc(O)c(OC)c1
REMARK SMILES IDX 9 1 7 2 6 3 5 4 4 5 12 6 10 7 11 8 8 9 3 11 2 12 1 13
REMARK H PARENT 8 10
REMARK Flexibility Score: inf
ROOT
ATOM      1  C   UNL     1     116.961 118.004 111.987  1.00  0.00     0.160 A 
ATOM      2  C   UNL     1     118.347 117.767 112.007  1.00  0.00     0.157 A 
ATOM      3  C   UNL     1     118.833 116.457 112.075  1.00  0.00     0.050 A 
ATOM      4  C   UNL     1     117.949 115.377 112.125  1.00  0.00     0.008 A 
ATOM      5  C   UNL     1     116.566 115.596 112.118  1.00  0.00    -0.040 A 
ATOM      6  C   UNL     1     116.074 116.909 112.040  1.00  0.00     0.054 A 
ENDROOT
BRANCH   1   7
ATOM      7  O   UNL     1     116.502 119.329 111.912  1.00  0.00    -0.493 OA
ATOM      8  C   UNL     1     115.165 119.737 112.187  1.00  0.00     0.278 C 
ENDBRANCH   1   7
BRANCH   2   9
ATOM      9  O   UNL     1     119.260 118.820 111.957  1.00  0.00    -0.504 OA
ATOM     10  H   UNL     1     119.261 119.566 112.642  1.00  0.00     0.293 HD
ENDBRANCH   2   9
BRANCH   5  11
ATOM     11  C   UNL     1     115.616 114.427 112.142  1.00  0.00     0.062 C 
BRANCH  11  12
ATOM     12  C   UNL     1     114.191 114.900 112.210  1.00  0.00    -0.030 C 
ATOM     13  C   UNL     1     113.405 114.617 113.254  1.00  0.00     0.004 C 
ENDBRANCH  11  12
ENDBRANCH   5  11
TORSDOF 4
ENDMDL
MODEL 7
REMARK VINA RESULT:    -3.935      1.581      3.340
REMARK INTER + INTRA:          -4.967
REMARK INTER:                  -4.770
REMARK INTRA:                  -0.197
REMARK UNBOUND:                -0.227
REMARK SMILES C=CCc1ccc(O)c(OC)c1
REMARK SMILES IDX 9 1 7 2 6 3 5 4 4 5 12 6 10 7 11 8 8 9 3 11 2 12 1 13
REMARK H PARENT 8 10
REMARK Flexibility Score: inf
ROOT
ATOM      1  C   UNL     1     116.234 115.009 112.029  1.00  0.00     0.160 A 
ATOM      2  C   UNL     1     114.848 115.194 112.188  1.00  0.00     0.157 A 
ATOM      3  C   UNL     1     114.323 116.485 112.306  1.00  0.00     0.050 A 
ATOM      4  C   UNL     1     115.166 117.597 112.270  1.00  0.00     0.008 A 
ATOM      5  C   UNL     1     116.549 117.430 112.124  1.00  0.00    -0.040 A 
ATOM      6  C   UNL     1     117.080 116.136 111.995  1.00  0.00     0.054 A 
ENDROOT
BRANCH   1   7
ATOM      7  O   UNL     1     116.733 113.702 111.907  1.00  0.00    -0.493 OA
ATOM      8  C   UNL     1     118.041 113.297 112.296  1.00  0.00     0.278 C 
ENDBRANCH   1   7
BRANCH   2   9
ATOM      9  O   UNL     1     113.975 114.107 112.227  1.00  0.00    -0.504 OA
ATOM     10  H   UNL     1     114.269 113.169 111.982  1.00  0.00     0.293 HD
ENDBRANCH   2   9
BRANCH   5  11
ATOM     11  C   UNL     1     117.452 118.634 112.055  1.00  0.00     0.062 C 
BRANCH  11  12
ATOM     12  C   UNL     1     118.895 118.222 112.136  1.00  0.00    -0.030 C 
ATOM     13  C   UNL     1     119.673 118.583 113.161  1.00  0.00     0.004 C 
ENDBRANCH  11  12
ENDBRANCH   5  11
TORSDOF 4
ENDMDL
MODEL 8
REMARK VINA RESULT:    -3.892      1.389      2.944
REMARK INTER + INTRA:          -4.914
REMARK INTER:                  -4.749
REMARK INTRA:                  -0.166
REMARK UNBOUND:                -0.227
REMARK SMILES C=CCc1ccc(O)c(OC)c1
REMARK SMILES IDX 9 1 7 2 6 3 5 4 4 5 12 6 10 7 11 8 8 9 3 11 2 12 1 13
REMARK H PARENT 8 10
REMARK Flexibility Score: inf
ROOT
ATOM      1  C   UNL     1     118.056 116.261 111.991  1.00  0.00     0.160 A 
ATOM      2  C   UNL     1     117.908 114.864 111.926  1.00  0.00     0.157 A 
ATOM      3  C   UNL     1     116.631 114.296 111.896  1.00  0.00     0.050 A 
ATOM      4  C   UNL     1     115.495 115.107 111.934  1.00  0.00     0.008 A 
ATOM      5  C   UNL     1     115.624 116.500 112.011  1.00  0.00    -0.040 A 
ATOM      6  C   UNL     1     116.906 117.075 112.031  1.00  0.00     0.054 A 
ENDROOT
BRANCH   1   7
ATOM      7  O   UNL     1     119.352 116.804 112.013  1.00  0.00    -0.493 OA
ATOM      8  C   UNL     1     119.664 118.130 112.429  1.00  0.00     0.278 C 
ENDBRANCH   1   7
BRANCH   2   9
ATOM      9  O   UNL     1     119.019 114.022 111.886  1.00  0.00    -0.504 OA
ATOM     10  H   UNL     1     119.550 113.869 111.037  1.00  0.00     0.293 HD
ENDBRANCH   2   9
BRANCH   5  11
ATOM     11  C   UNL     1     114.397 117.373 112.021  1.00  0.00     0.062 C 
BRANCH  11  12
ATOM     12  C   UNL     1     114.779 118.826 112.034  1.00  0.00    -0.030 C 
ATOM     13  C   UNL     1     114.539 119.607 113.093  1.00  0.00     0.004 C 
ENDBRANCH  11  12
ENDBRANCH   5  11
TORSDOF 4
ENDMDL
MODEL 9
REMARK VINA RESULT:    -3.885      2.394      4.368
REMARK INTER + INTRA:          -4.907
REMARK INTER:                  -4.717
REMARK INTRA:                  -0.190
REMARK UNBOUND:                -0.227
REMARK SMILES C=CCc1ccc(O)c(OC)c1
REMARK SMILES IDX 9 1 7 2 6 3 5 4 4 5 12 6 10 7 11 8 8 9 3 11 2 12 1 13
REMARK H PARENT 8 10
REMARK Flexibility Score: inf
ROOT
ATOM      1  C   UNL     1     116.458 117.161 111.985  1.00  0.00     0.160 A 
ATOM      2  C   UNL     1     117.678 117.861 111.971  1.00  0.00     0.157 A 
ATOM      3  C   UNL     1     118.887 117.162 112.050  1.00  0.00     0.050 A 
ATOM      4  C   UNL     1     118.894 115.769 112.146  1.00  0.00     0.008 A 
ATOM      5  C   UNL     1     117.687 115.058 112.174  1.00  0.00    -0.040 A 
ATOM      6  C   UNL     1     116.471 115.755 112.085  1.00  0.00     0.054 A 
ENDROOT
BRANCH   1   7
ATOM      7  O   UNL     1     115.259 117.889 111.898  1.00  0.00    -0.493 OA
ATOM      8  C   UNL     1     114.667 118.601 112.980  1.00  0.00     0.278 C 
ENDBRANCH   1   7
BRANCH   2   9
ATOM      9  O   UNL     1     117.711 119.252 111.875  1.00  0.00    -0.504 OA
ATOM     10  H   UNL     1     117.053 119.842 112.370  1.00  0.00     0.293 HD
ENDBRANCH   2   9
BRANCH   5  11
ATOM     11  C   UNL     1     117.699 113.553 112.247  1.00  0.00     0.062 C 
BRANCH  11  12
ATOM     12  C   UNL     1     118.536 113.083 113.403  1.00  0.00    -0.030 C 
ATOM     13  C   UNL     1     118.148 113.261 114.670  1.00  0.00     0.004 C 
ENDBRANCH  11  12
ENDBRANCH   5  11
TORSDOF 4
ENDMDL
