MODEL 1
REMARK VINA RESULT:    -3.540      0.000      0.000
REMARK INTER + INTRA:          -5.687
REMARK INTER:                  -4.989
REMARK INTRA:                  -0.698
REMARK UNBOUND:                -0.698
REMARK SMILES C=CCCCCCCC(=O)[O-]
REMARK SMILES IDX 6 1 7 2 8 3 9 4 10 5 11 6 5 7 4 8 3 9 2 10 1 11
REMARK H PARENT
REMARK Flexibility Score: inf
ROOT
ATOM      1  C   UNL     1      -2.990  16.148  -6.017  1.00  0.00     0.000 C 
ENDROOT
BRANCH   1   2
ATOM      2  C   UNL     1      -2.702  14.642  -6.113  1.00  0.00     0.006 C 
BRANCH   2   3
ATOM      3  C   UNL     1      -3.277  13.852  -4.929  1.00  0.00     0.053 C 
BRANCH   3   4
ATOM      4  C   UNL     1      -2.439  12.643  -4.652  1.00  0.00     0.041 C 
ATOM      5  O   UNL     1      -2.985  11.523  -4.466  1.00  0.00    -0.550 OA
ATOM      6  O   UNL     1      -1.059  12.762  -4.549  1.00  0.00    -0.550 OA
ENDBRANCH   3   4
ENDBRANCH   2   3
ENDBRANCH   1   2
BRANCH   1   7
ATOM      7  C   UNL     1      -1.959  16.892  -5.154  1.00  0.00     0.000 C 
BRANCH   7   8
ATOM      8  C   UNL     1      -0.539  16.312  -5.276  1.00  0.00     0.004 C 
BRANCH   8   9
ATOM      9  C   UNL     1       0.155  16.074  -3.921  1.00  0.00     0.027 C 
BRANCH   9  10
ATOM     10  C   UNL     1      -0.823  15.966  -2.782  1.00  0.00    -0.035 C 
ATOM     11  C   UNL     1      -0.401  15.968  -1.515  1.00  0.00     0.004 C 
ENDBRANCH   9  10
ENDBRANCH   8   9
ENDBRANCH   7   8
ENDBRANCH   1   7
TORSDOF 7
ENDMDL
MODEL 2
REMARK VINA RESULT:    -3.464      2.115      4.178
REMARK INTER + INTRA:          -5.580
REMARK INTER:                  -5.019
REMARK INTRA:                  -0.561
REMARK UNBOUND:                -0.698
REMARK SMILES C=CCCCCCCC(=O)[O-]
REMARK SMILES IDX 6 1 7 2 8 3 9 4 10 5 11 6 5 7 4 8 3 9 2 10 1 11
REMARK H PARENT
REMARK Flexibility Score: inf
ROOT
ATOM      1  C   UNL     1      -1.225  17.067  -5.353  1.00  0.00     0.000 C 
ENDROOT
BRANCH   1   2
ATOM      2  C   UNL     1      -0.258  17.177  -4.164  1.00  0.00     0.006 C 
BRANCH   2   3
ATOM      3  C   UNL     1      -0.103  15.852  -3.403  1.00  0.00     0.053 C 
BRANCH   3   4
ATOM      4  C   UNL     1      -0.821  15.917  -2.092  1.00  0.00     0.041 C 
ATOM      5  O   UNL     1      -0.174  15.878  -1.012  1.00  0.00    -0.550 OA
ATOM      6  O   UNL     1      -2.209  15.968  -2.061  1.00  0.00    -0.550 OA
ENDBRANCH   3   4
ENDBRANCH   2   3
ENDBRANCH   1   2
BRANCH   1   7
ATOM      7  C   UNL     1      -1.470  15.612  -5.782  1.00  0.00     0.000 C 
BRANCH   7   8
ATOM      8  C   UNL     1      -2.954  15.209  -5.729  1.00  0.00     0.004 C 
BRANCH   8   9
ATOM      9  C   UNL     1      -3.239  14.004  -4.814  1.00  0.00     0.027 C 
BRANCH   9  10
ATOM     10  C   UNL     1      -2.780  12.701  -5.413  1.00  0.00    -0.035 C 
ATOM     11  C   UNL     1      -2.239  11.748  -4.649  1.00  0.00     0.004 C 
ENDBRANCH   9  10
ENDBRANCH   8   9
ENDBRANCH   7   8
ENDBRANCH   1   7
TORSDOF 7
ENDMDL
MODEL 3
REMARK VINA RESULT:    -3.353      3.038      4.742
REMARK INTER + INTRA:          -5.423
REMARK INTER:                  -4.800
REMARK INTRA:                  -0.623
REMARK UNBOUND:                -0.698
REMARK SMILES C=CCCCCCCC(=O)[O-]
REMARK SMILES IDX 6 1 7 2 8 3 9 4 10 5 11 6 5 7 4 8 3 9 2 10 1 11
REMARK H PARENT
REMARK Flexibility Score: inf
ROOT
ATOM      1  C   UNL     1      -1.857  15.822  -3.751  1.00  0.00     0.000 C 
ENDROOT
BRANCH   1   2
ATOM      2  C   UNL     1      -0.362  15.510  -3.588  1.00  0.00     0.006 C 
BRANCH   2   3
ATOM      3  C   UNL     1       0.462  15.895  -4.825  1.00  0.00     0.053 C 
BRANCH   3   4
ATOM      4  C   UNL     1       1.200  17.173  -4.582  1.00  0.00     0.041 C 
ATOM      5  O   UNL     1       2.438  17.156  -4.347  1.00  0.00    -0.550 OA
ATOM      6  O   UNL     1       0.514  18.381  -4.566  1.00  0.00    -0.550 OA
ENDBRANCH   3   4
ENDBRANCH   2   3
ENDBRANCH   1   2
BRANCH   1   7
ATOM      7  C   UNL     1      -2.239  16.135  -5.207  1.00  0.00     0.000 C 
BRANCH   7   8
ATOM      8  C   UNL     1      -3.036  15.002  -5.878  1.00  0.00     0.004 C 
BRANCH   8   9
ATOM      9  C   UNL     1      -3.414  13.856  -4.922  1.00  0.00     0.027 C 
BRANCH   9  10
ATOM     10  C   UNL     1      -2.913  12.517  -5.396  1.00  0.00    -0.035 C 
ATOM     11  C   UNL     1      -2.137  11.760  -4.615  1.00  0.00     0.004 C 
ENDBRANCH   9  10
ENDBRANCH   8   9
ENDBRANCH   7   8
ENDBRANCH   1   7
TORSDOF 7
ENDMDL
MODEL 4
REMARK VINA RESULT:    -3.206      2.934      4.804
REMARK INTER + INTRA:          -5.216
REMARK INTER:                  -4.817
REMARK INTRA:                  -0.399
REMARK UNBOUND:                -0.698
REMARK SMILES C=CCCCCCCC(=O)[O-]
REMARK SMILES IDX 6 1 7 2 8 3 9 4 10 5 11 6 5 7 4 8 3 9 2 10 1 11
REMARK H PARENT
REMARK Flexibility Score: inf
ROOT
ATOM      1  C   UNL     1      -0.518  16.645  -3.837  1.00  0.00     0.000 C 
ENDROOT
BRANCH   1   2
ATOM      2  C   UNL     1      -0.531  17.108  -5.303  1.00  0.00     0.006 C 
BRANCH   2   3
ATOM      3  C   UNL     1      -1.118  18.516  -5.473  1.00  0.00     0.053 C 
BRANCH   3   4
ATOM      4  C   UNL     1      -2.595  18.442  -5.698  1.00  0.00     0.041 C 
ATOM      5  O   UNL     1      -3.122  17.371  -6.101  1.00  0.00    -0.550 OA
ATOM      6  O   UNL     1      -3.384  19.570  -5.512  1.00  0.00    -0.550 OA
ENDBRANCH   3   4
ENDBRANCH   2   3
ENDBRANCH   1   2
BRANCH   1   7
ATOM      7  C   UNL     1      -1.560  15.551  -3.554  1.00  0.00     0.000 C 
BRANCH   7   8
ATOM      8  C   UNL     1      -1.749  14.578  -4.731  1.00  0.00     0.004 C 
BRANCH   8   9
ATOM      9  C   UNL     1      -3.098  13.835  -4.714  1.00  0.00     0.027 C 
BRANCH   9  10
ATOM     10  C   UNL     1      -2.977  12.406  -5.173  1.00  0.00    -0.035 C 
ATOM     11  C   UNL     1      -2.136  11.562  -4.571  1.00  0.00     0.004 C 
ENDBRANCH   9  10
ENDBRANCH   8   9
ENDBRANCH   7   8
ENDBRANCH   1   7
TORSDOF 7
ENDMDL
MODEL 5
REMARK VINA RESULT:    -3.176      1.582      2.905
REMARK INTER + INTRA:          -5.173
REMARK INTER:                  -4.620
REMARK INTRA:                  -0.554
REMARK UNBOUND:                -0.698
REMARK SMILES C=CCCCCCCC(=O)[O-]
REMARK SMILES IDX 6 1 7 2 8 3 9 4 10 5 11 6 5 7 4 8 3 9 2 10 1 11
REMARK H PARENT
REMARK Flexibility Score: inf
ROOT
ATOM      1  C   UNL     1      -0.875  15.583  -3.712  1.00  0.00     0.000 C 
ENDROOT
BRANCH   1   2
ATOM      2  C   UNL     1      -0.993  14.728  -4.983  1.00  0.00     0.006 C 
BRANCH   2   3
ATOM      3  C   UNL     1      -2.449  14.508  -5.416  1.00  0.00     0.053 C 
BRANCH   3   4
ATOM      4  C   UNL     1      -2.764  13.046  -5.465  1.00  0.00     0.041 C 
ATOM      5  O   UNL     1      -3.755  12.633  -6.125  1.00  0.00    -0.550 OA
ATOM      6  O   UNL     1      -1.994  12.145  -4.741  1.00  0.00    -0.550 OA
ENDBRANCH   3   4
ENDBRANCH   2   3
ENDBRANCH   1   2
BRANCH   1   7
ATOM      7  C   UNL     1      -0.094  16.885  -3.947  1.00  0.00     0.000 C 
BRANCH   7   8
ATOM      8  C   UNL     1      -0.212  17.408  -5.390  1.00  0.00     0.004 C 
BRANCH   8   9
ATOM      9  C   UNL     1      -1.131  18.635  -5.533  1.00  0.00     0.027 C 
BRANCH   9  10
ATOM     10  C   UNL     1      -2.582  18.258  -5.675  1.00  0.00    -0.035 C 
ATOM     11  C   UNL     1      -3.542  19.180  -5.567  1.00  0.00     0.004 C 
ENDBRANCH   9  10
ENDBRANCH   8   9
ENDBRANCH   7   8
ENDBRANCH   1   7
TORSDOF 7
ENDMDL
MODEL 6
REMARK VINA RESULT:    -3.133      2.876      4.265
REMARK INTER + INTRA:          -5.114
REMARK INTER:                  -4.432
REMARK INTRA:                  -0.682
REMARK UNBOUND:                -0.698
REMARK SMILES C=CCCCCCCC(=O)[O-]
REMARK SMILES IDX 6 1 7 2 8 3 9 4 10 5 11 6 5 7 4 8 3 9 2 10 1 11
REMARK H PARENT
REMARK Flexibility Score: inf
ROOT
ATOM      1  C   UNL     1      -2.038  17.416  -5.241  1.00  0.00     0.000 C 
ENDROOT
BRANCH   1   2
ATOM      2  C   UNL     1      -0.821  18.201  -5.753  1.00  0.00     0.006 C 
BRANCH   2   3
ATOM      3  C   UNL     1       0.196  18.506  -4.644  1.00  0.00     0.053 C 
BRANCH   3   4
ATOM      4  C   UNL     1       1.495  17.819  -4.925  1.00  0.00     0.041 C 
ATOM      5  O   UNL     1       1.520  16.581  -5.159  1.00  0.00    -0.550 OA
ATOM      6  O   UNL     1       2.685  18.535  -4.879  1.00  0.00    -0.550 OA
ENDBRANCH   3   4
ENDBRANCH   2   3
ENDBRANCH   1   2
BRANCH   1   7
ATOM      7  C   UNL     1      -1.934  15.910  -5.531  1.00  0.00     0.000 C 
BRANCH   7   8
ATOM      8  C   UNL     1      -1.767  15.060  -4.258  1.00  0.00     0.004 C 
BRANCH   8   9
ATOM      9  C   UNL     1      -1.773  15.883  -2.957  1.00  0.00     0.027 C 
BRANCH   9  10
ATOM     10  C   UNL     1      -0.428  15.904  -2.279  1.00  0.00    -0.035 C 
ATOM     11  C   UNL     1      -0.332  15.987  -0.950  1.00  0.00     0.004 C 
ENDBRANCH   9  10
ENDBRANCH   8   9
ENDBRANCH   7   8
ENDBRANCH   1   7
TORSDOF 7
ENDMDL
MODEL 7
REMARK VINA RESULT:    -3.029     17.088     19.187
REMARK INTER + INTRA:          -4.967
REMARK INTER:                  -4.489
REMARK INTRA:                  -0.478
REMARK UNBOUND:                -0.698
REMARK SMILES C=CCCCCCCC(=O)[O-]
REMARK SMILES IDX 6 1 7 2 8 3 9 4 10 5 11 6 5 7 4 8 3 9 2 10 1 11
REMARK H PARENT
REMARK Flexibility Score: inf
ROOT
ATOM      1  C   UNL     1       1.931   5.196  11.655  1.00  0.00     0.000 C 
ENDROOT
BRANCH   1   2
ATOM      2  C   UNL     1       2.717   5.486  12.943  1.00  0.00     0.006 C 
BRANCH   2   3
ATOM      3  C   UNL     1       1.833   6.058  14.060  1.00  0.00     0.053 C 
BRANCH   3   4
ATOM      4  C   UNL     1       1.567   7.511  13.822  1.00  0.00     0.041 C 
ATOM      5  O   UNL     1       0.387   7.921  13.659  1.00  0.00    -0.550 OA
ATOM      6  O   UNL     1       2.625   8.406  13.730  1.00  0.00    -0.550 OA
ENDBRANCH   3   4
ENDBRANCH   2   3
ENDBRANCH   1   2
BRANCH   1   7
ATOM      7  C   UNL     1       0.596   4.484  11.925  1.00  0.00     0.000 C 
BRANCH   7   8
ATOM      8  C   UNL     1      -0.629   5.329  11.534  1.00  0.00     0.004 C 
BRANCH   8   9
ATOM      9  C   UNL     1      -0.582   5.859  10.089  1.00  0.00     0.027 C 
BRANCH   9  10
ATOM     10  C   UNL     1      -0.358   7.347  10.026  1.00  0.00    -0.035 C 
ATOM     11  C   UNL     1      -0.334   7.987   8.854  1.00  0.00     0.004 C 
ENDBRANCH   9  10
ENDBRANCH   8   9
ENDBRANCH   7   8
ENDBRANCH   1   7
TORSDOF 7
ENDMDL
MODEL 8
REMARK VINA RESULT:    -3.014      1.601      1.845
REMARK INTER + INTRA:          -4.946
REMARK INTER:                  -4.454
REMARK INTRA:                  -0.492
REMARK UNBOUND:                -0.698
REMARK SMILES C=CCCCCCCC(=O)[O-]
REMARK SMILES IDX 6 1 7 2 8 3 9 4 10 5 11 6 5 7 4 8 3 9 2 10 1 11
REMARK H PARENT
REMARK Flexibility Score: inf
ROOT
ATOM      1  C   UNL     1      -2.254  16.198  -4.858  1.00  0.00     0.000 C 
ENDROOT
BRANCH   1   2
ATOM      2  C   UNL     1      -2.293  15.018  -5.841  1.00  0.00     0.006 C 
BRANCH   2   3
ATOM      3  C   UNL     1      -3.226  13.891  -5.377  1.00  0.00     0.053 C 
BRANCH   3   4
ATOM      4  C   UNL     1      -2.431  12.745  -4.837  1.00  0.00     0.041 C 
ATOM      5  O   UNL     1      -2.999  11.654  -4.562  1.00  0.00    -0.550 OA
ATOM      6  O   UNL     1      -1.073  12.896  -4.588  1.00  0.00    -0.550 OA
ENDBRANCH   3   4
ENDBRANCH   2   3
ENDBRANCH   1   2
BRANCH   1   7
ATOM      7  C   UNL     1      -2.103  17.553  -5.568  1.00  0.00     0.000 C 
BRANCH   7   8
ATOM      8  C   UNL     1      -0.636  17.939  -5.827  1.00  0.00     0.004 C 
BRANCH   8   9
ATOM      9  C   UNL     1       0.185  18.159  -4.543  1.00  0.00     0.027 C 
BRANCH   9  10
ATOM     10  C   UNL     1       1.327  17.187  -4.413  1.00  0.00    -0.035 C 
ATOM     11  C   UNL     1       1.478  16.187  -5.285  1.00  0.00     0.004 C 
ENDBRANCH   9  10
ENDBRANCH   8   9
ENDBRANCH   7   8
ENDBRANCH   1   7
TORSDOF 7
ENDMDL
MODEL 9
REMARK VINA RESULT:    -2.977     16.595     18.590
REMARK INTER + INTRA:          -4.894
REMARK INTER:                  -4.229
REMARK INTRA:                  -0.665
REMARK UNBOUND:                -0.698
REMARK SMILES C=CCCCCCCC(=O)[O-]
REMARK SMILES IDX 6 1 7 2 8 3 9 4 10 5 11 6 5 7 4 8 3 9 2 10 1 11
REMARK H PARENT
REMARK Flexibility Score: inf
ROOT
ATOM      1  C   UNL     1       0.899   4.704  11.436  1.00  0.00     0.000 C 
ENDROOT
BRANCH   1   2
ATOM      2  C   UNL     1      -0.272   5.698  11.451  1.00  0.00     0.006 C 
BRANCH   2   3
ATOM      3  C   UNL     1      -0.678   6.156  10.042  1.00  0.00     0.053 C 
BRANCH   3   4
ATOM      4  C   UNL     1      -0.330   7.597   9.841  1.00  0.00     0.041 C 
ATOM      5  O   UNL     1      -0.158   8.352  10.835  1.00  0.00    -0.550 OA
ATOM      6  O   UNL     1      -0.245   8.119   8.557  1.00  0.00    -0.550 OA
ENDBRANCH   3   4
ENDBRANCH   2   3
ENDBRANCH   1   2
BRANCH   1   7
ATOM      7  C   UNL     1       2.267   5.403  11.436  1.00  0.00     0.000 C 
BRANCH   7   8
ATOM      8  C   UNL     1       3.088   5.124  12.707  1.00  0.00     0.004 C 
BRANCH   8   9
ATOM      9  C   UNL     1       2.602   5.902  13.944  1.00  0.00     0.027 C 
BRANCH   9  10
ATOM     10  C   UNL     1       2.397   7.367  13.662  1.00  0.00    -0.035 C 
ATOM     11  C   UNL     1       1.302   8.000  14.091  1.00  0.00     0.004 C 
ENDBRANCH   9  10
ENDBRANCH   8   9
ENDBRANCH   7   8
ENDBRANCH   1   7
TORSDOF 7
ENDMDL
