MODEL 1
REMARK VINA RESULT:    -4.270      0.000      0.000
REMARK INTER + INTRA:          -6.650
REMARK INTER:                  -5.768
REMARK INTRA:                  -0.881
REMARK UNBOUND:                -0.881
REMARK SMILES CC(=O)CCC=C(C)CCC=C(C)C
REMARK SMILES IDX 7 1 6 2 8 3 9 4 10 5 11 6 13 7 12 8 14 9 5 10 4 11 2 12 3 13
REMARK SMILES IDX 1 14
REMARK H PARENT
REMARK Flexibility Score: inf
ROOT
ATOM      1  C   UNL     1       0.910 -15.420   9.521  1.00  0.00    -0.077 C 
ATOM      2  C   UNL     1       1.098 -14.161   9.977  1.00  0.00    -0.028 C 
ATOM      3  C   UNL     1      -0.228 -15.768   8.588  1.00  0.00     0.039 C 
ENDROOT
BRANCH   1   4
ATOM      4  C   UNL     1       1.851 -16.514   9.975  1.00  0.00     0.034 C 
BRANCH   4   5
ATOM      5  C   UNL     1       2.632 -16.078  11.220  1.00  0.00     0.032 C 
BRANCH   5   6
ATOM      6  C   UNL     1       2.073 -16.717  12.469  1.00  0.00    -0.028 C 
ATOM      7  C   UNL     1       1.045 -16.742  14.703  1.00  0.00     0.039 C 
ATOM      8  C   UNL     1       1.579 -16.003  13.504  1.00  0.00    -0.080 C 
ATOM      9  C   UNL     1       1.552 -14.493  13.480  1.00  0.00     0.039 C 
ENDBRANCH   5   6
ENDBRANCH   4   5
ENDBRANCH   1   4
BRANCH   2  10
ATOM     10  C   UNL     1       0.266 -12.970   9.568  1.00  0.00     0.035 C 
BRANCH  10  11
ATOM     11  C   UNL     1       1.128 -11.943   8.818  1.00  0.00     0.079 C 
BRANCH  11  12
ATOM     12  C   UNL     1       1.136 -12.112   7.316  1.00  0.00     0.130 C 
ATOM     13  O   UNL     1       0.073 -12.320   6.749  1.00  0.00    -0.300 OA
ATOM     14  C   UNL     1       2.390 -12.029   6.489  1.00  0.00     0.087 C 
ENDBRANCH  11  12
ENDBRANCH  10  11
ENDBRANCH   2  10
TORSDOF 6
ENDMDL
MODEL 2
REMARK VINA RESULT:    -4.237      2.833      6.474
REMARK INTER + INTRA:          -6.604
REMARK INTER:                  -5.861
REMARK INTRA:                  -0.744
REMARK UNBOUND:                -0.881
REMARK SMILES CC(=O)CCC=C(C)CCC=C(C)C
REMARK SMILES IDX 7 1 6 2 8 3 9 4 10 5 11 6 13 7 12 8 14 9 5 10 4 11 2 12 3 13
REMARK SMILES IDX 1 14
REMARK H PARENT
REMARK Flexibility Score: inf
ROOT
ATOM      1  C   UNL     1       1.113 -15.730   9.962  1.00  0.00    -0.077 C 
ATOM      2  C   UNL     1       1.459 -15.459  11.241  1.00  0.00    -0.028 C 
ATOM      3  C   UNL     1       1.618 -16.962   9.245  1.00  0.00     0.039 C 
ENDROOT
BRANCH   1   4
ATOM      4  C   UNL     1       0.216 -14.762   9.222  1.00  0.00     0.034 C 
BRANCH   4   5
ATOM      5  C   UNL     1       0.690 -13.318   9.424  1.00  0.00     0.032 C 
BRANCH   5   6
ATOM      6  C   UNL     1       1.118 -12.694   8.117  1.00  0.00    -0.028 C 
ATOM      7  C   UNL     1       2.717 -12.028   6.372  1.00  0.00     0.039 C 
ATOM      8  C   UNL     1       2.400 -12.678   7.694  1.00  0.00    -0.080 C 
ATOM      9  C   UNL     1       3.510 -13.295   8.512  1.00  0.00     0.039 C 
ENDBRANCH   5   6
ENDBRANCH   4   5
ENDBRANCH   1   4
BRANCH   2  10
ATOM     10  C   UNL     1       2.304 -16.359  12.108  1.00  0.00     0.035 C 
BRANCH  10  11
ATOM     11  C   UNL     1       1.741 -16.417  13.536  1.00  0.00     0.079 C 
BRANCH  11  12
ATOM     12  C   UNL     1       1.510 -17.816  14.061  1.00  0.00     0.130 C 
ATOM     13  O   UNL     1       2.244 -18.711  13.669  1.00  0.00    -0.300 OA
ATOM     14  C   UNL     1       0.425 -18.152  15.047  1.00  0.00     0.087 C 
ENDBRANCH  11  12
ENDBRANCH  10  11
ENDBRANCH   2  10
TORSDOF 6
ENDMDL
MODEL 3
REMARK VINA RESULT:    -4.197      2.847      6.139
REMARK INTER + INTRA:          -6.551
REMARK INTER:                  -5.578
REMARK INTRA:                  -0.973
REMARK UNBOUND:                -0.881
REMARK SMILES CC(=O)CCC=C(C)CCC=C(C)C
REMARK SMILES IDX 7 1 6 2 8 3 9 4 10 5 11 6 13 7 12 8 14 9 5 10 4 11 2 12 3 13
REMARK SMILES IDX 1 14
REMARK H PARENT
REMARK Flexibility Score: inf
ROOT
ATOM      1  C   UNL     1       2.104 -16.384  10.070  1.00  0.00    -0.077 C 
ATOM      2  C   UNL     1       1.745 -16.422  11.374  1.00  0.00    -0.028 C 
ATOM      3  C   UNL     1       3.498 -15.988   9.639  1.00  0.00     0.039 C 
ENDROOT
BRANCH   1   4
ATOM      4  C   UNL     1       1.075 -16.725   9.014  1.00  0.00     0.034 C 
BRANCH   4   5
ATOM      5  C   UNL     1      -0.079 -15.717   9.034  1.00  0.00     0.032 C 
BRANCH   5   6
ATOM      6  C   UNL     1       0.228 -14.515   8.172  1.00  0.00    -0.028 C 
ATOM      7  C   UNL     1       0.833 -12.173   7.730  1.00  0.00     0.039 C 
ATOM      8  C   UNL     1       0.543 -13.305   8.681  1.00  0.00    -0.080 C 
ATOM      9  C   UNL     1       0.613 -13.069  10.172  1.00  0.00     0.039 C 
ENDBRANCH   5   6
ENDBRANCH   4   5
ENDBRANCH   1   4
BRANCH   2  10
ATOM     10  C   UNL     1       2.680 -16.154  12.526  1.00  0.00     0.035 C 
BRANCH  10  11
ATOM     11  C   UNL     1       1.943 -16.302  13.865  1.00  0.00     0.079 C 
BRANCH  11  12
ATOM     12  C   UNL     1       1.551 -17.721  14.210  1.00  0.00     0.130 C 
ATOM     13  O   UNL     1       0.437 -17.919  14.672  1.00  0.00    -0.300 OA
ATOM     14  C   UNL     1       2.466 -18.897  14.002  1.00  0.00     0.087 C 
ENDBRANCH  11  12
ENDBRANCH  10  11
ENDBRANCH   2  10
TORSDOF 6
ENDMDL
MODEL 4
REMARK VINA RESULT:    -4.010      2.559      4.645
REMARK INTER + INTRA:          -6.298
REMARK INTER:                  -5.046
REMARK INTRA:                  -1.252
REMARK UNBOUND:                -0.881
REMARK SMILES CC(=O)CCC=C(C)CCC=C(C)C
REMARK SMILES IDX 7 1 6 2 8 3 9 4 10 5 11 6 13 7 12 8 14 9 5 10 4 11 2 12 3 13
REMARK SMILES IDX 1 14
REMARK H PARENT
REMARK Flexibility Score: inf
ROOT
ATOM      1  C   UNL     1       2.250 -16.314  10.037  1.00  0.00    -0.077 C 
ATOM      2  C   UNL     1       3.409 -15.880   9.489  1.00  0.00    -0.028 C 
ATOM      3  C   UNL     1       2.064 -16.408  11.534  1.00  0.00     0.039 C 
ENDROOT
BRANCH   1   4
ATOM      4  C   UNL     1       1.120 -16.739   9.125  1.00  0.00     0.034 C 
BRANCH   4   5
ATOM      5  C   UNL     1      -0.034 -15.732   9.185  1.00  0.00     0.032 C 
BRANCH   5   6
ATOM      6  C   UNL     1       0.140 -14.636   8.160  1.00  0.00    -0.028 C 
ATOM      7  C   UNL     1       0.669 -12.365   7.379  1.00  0.00     0.039 C 
ATOM      8  C   UNL     1       0.525 -13.383   8.481  1.00  0.00    -0.080 C 
ATOM      9  C   UNL     1       0.813 -12.986   9.910  1.00  0.00     0.039 C 
ENDBRANCH   5   6
ENDBRANCH   4   5
ENDBRANCH   1   4
BRANCH   2  10
ATOM     10  C   UNL     1       4.594 -15.382  10.279  1.00  0.00     0.035 C 
BRANCH  10  11
ATOM     11  C   UNL     1       4.566 -13.850  10.385  1.00  0.00     0.079 C 
BRANCH  11  12
ATOM     12  C   UNL     1       5.140 -13.130   9.186  1.00  0.00     0.130 C 
ATOM     13  O   UNL     1       6.286 -12.711   9.255  1.00  0.00    -0.300 OA
ATOM     14  C   UNL     1       4.368 -12.913   7.913  1.00  0.00     0.087 C 
ENDBRANCH  11  12
ENDBRANCH  10  11
ENDBRANCH   2  10
TORSDOF 6
ENDMDL
MODEL 5
REMARK VINA RESULT:    -4.009      3.379      6.768
REMARK INTER + INTRA:          -6.296
REMARK INTER:                  -5.388
REMARK INTRA:                  -0.908
REMARK UNBOUND:                -0.881
REMARK SMILES CC(=O)CCC=C(C)CCC=C(C)C
REMARK SMILES IDX 7 1 6 2 8 3 9 4 10 5 11 6 13 7 12 8 14 9 5 10 4 11 2 12 3 13
REMARK SMILES IDX 1 14
REMARK H PARENT
REMARK Flexibility Score: inf
ROOT
ATOM      1  C   UNL     1       1.640 -14.882  13.356  1.00  0.00    -0.077 C 
ATOM      2  C   UNL     1       2.448 -15.910  13.007  1.00  0.00    -0.028 C 
ATOM      3  C   UNL     1       1.017 -14.790  14.729  1.00  0.00     0.039 C 
ENDROOT
BRANCH   1   4
ATOM      4  C   UNL     1       1.336 -13.808  12.335  1.00  0.00     0.034 C 
BRANCH   4   5
ATOM      5  C   UNL     1       1.884 -14.195  10.957  1.00  0.00     0.032 C 
BRANCH   5   6
ATOM      6  C   UNL     1       0.769 -14.557  10.004  1.00  0.00    -0.028 C 
ATOM      7  C   UNL     1      -0.440 -15.990   8.413  1.00  0.00     0.039 C 
ATOM      8  C   UNL     1       0.720 -15.731   9.340  1.00  0.00    -0.080 C 
ATOM      9  C   UNL     1       1.794 -16.780   9.509  1.00  0.00     0.039 C 
ENDBRANCH   5   6
ENDBRANCH   4   5
ENDBRANCH   1   4
BRANCH   2  10
ATOM     10  C   UNL     1       2.871 -17.018  13.938  1.00  0.00     0.035 C 
BRANCH  10  11
ATOM     11  C   UNL     1       1.944 -18.233  13.785  1.00  0.00     0.079 C 
BRANCH  11  12
ATOM     12  C   UNL     1       1.143 -18.569  15.023  1.00  0.00     0.130 C 
ATOM     13  O   UNL     1      -0.025 -18.215  15.072  1.00  0.00    -0.300 OA
ATOM     14  C   UNL     1       1.718 -19.323  16.191  1.00  0.00     0.087 C 
ENDBRANCH  11  12
ENDBRANCH  10  11
ENDBRANCH   2  10
TORSDOF 6
ENDMDL
MODEL 6
REMARK VINA RESULT:    -3.943      1.878      3.090
REMARK INTER + INTRA:          -6.207
REMARK INTER:                  -5.034
REMARK INTRA:                  -1.173
REMARK UNBOUND:                -0.881
REMARK SMILES CC(=O)CCC=C(C)CCC=C(C)C
REMARK SMILES IDX 7 1 6 2 8 3 9 4 10 5 11 6 13 7 12 8 14 9 5 10 4 11 2 12 3 13
REMARK SMILES IDX 1 14
REMARK H PARENT
REMARK Flexibility Score: inf
ROOT
ATOM      1  C   UNL     1       0.945 -14.791   9.998  1.00  0.00    -0.077 C 
ATOM      2  C   UNL     1       0.866 -13.557   9.449  1.00  0.00    -0.028 C 
ATOM      3  C   UNL     1       0.594 -16.035   9.214  1.00  0.00     0.039 C 
ENDROOT
BRANCH   1   4
ATOM      4  C   UNL     1       1.373 -14.927  11.443  1.00  0.00     0.034 C 
BRANCH   4   5
ATOM      5  C   UNL     1       2.648 -15.771  11.555  1.00  0.00     0.032 C 
BRANCH   5   6
ATOM      6  C   UNL     1       3.883 -14.933  11.323  1.00  0.00    -0.028 C 
ATOM      7  C   UNL     1       5.894 -14.197  10.115  1.00  0.00     0.039 C 
ATOM      8  C   UNL     1       4.686 -15.087  10.249  1.00  0.00    -0.080 C 
ATOM      9  C   UNL     1       4.398 -16.125   9.190  1.00  0.00     0.039 C 
ENDBRANCH   5   6
ENDBRANCH   4   5
ENDBRANCH   1   4
BRANCH   2  10
ATOM     10  C   UNL     1       0.500 -13.282   8.012  1.00  0.00     0.035 C 
BRANCH  10  11
ATOM     11  C   UNL     1       1.224 -12.027   7.502  1.00  0.00     0.079 C 
BRANCH  11  12
ATOM     12  C   UNL     1       2.502 -12.306   6.745  1.00  0.00     0.130 C 
ATOM     13  O   UNL     1       2.476 -12.259   5.524  1.00  0.00    -0.300 OA
ATOM     14  C   UNL     1       3.804 -12.632   7.427  1.00  0.00     0.087 C 
ENDBRANCH  11  12
ENDBRANCH  10  11
ENDBRANCH   2  10
TORSDOF 6
ENDMDL
MODEL 7
REMARK VINA RESULT:    -3.897      2.353      4.411
REMARK INTER + INTRA:          -6.145
REMARK INTER:                  -5.550
REMARK INTRA:                  -0.595
REMARK UNBOUND:                -0.881
REMARK SMILES CC(=O)CCC=C(C)CCC=C(C)C
REMARK SMILES IDX 7 1 6 2 8 3 9 4 10 5 11 6 13 7 12 8 14 9 5 10 4 11 2 12 3 13
REMARK SMILES IDX 1 14
REMARK H PARENT
REMARK Flexibility Score: inf
ROOT
ATOM      1  C   UNL     1       1.567 -15.721  13.113  1.00  0.00    -0.077 C 
ATOM      2  C   UNL     1       2.167 -16.467  12.157  1.00  0.00    -0.028 C 
ATOM      3  C   UNL     1       1.421 -14.223  12.979  1.00  0.00     0.039 C 
ENDROOT
BRANCH   1   4
ATOM      4  C   UNL     1       1.049 -16.404  14.360  1.00  0.00     0.034 C 
BRANCH   4   5
ATOM      5  C   UNL     1       1.292 -17.916  14.293  1.00  0.00     0.032 C 
BRANCH   5   6
ATOM      6  C   UNL     1       0.651 -18.626  15.462  1.00  0.00    -0.028 C 
ATOM      7  C   UNL     1       0.485 -20.325  17.232  1.00  0.00     0.039 C 
ATOM      8  C   UNL     1       1.211 -19.691  16.073  1.00  0.00    -0.080 C 
ATOM      9  C   UNL     1       2.539 -20.253  15.624  1.00  0.00     0.039 C 
ENDBRANCH   5   6
ENDBRANCH   4   5
ENDBRANCH   1   4
BRANCH   2  10
ATOM     10  C   UNL     1       2.684 -15.924  10.848  1.00  0.00     0.035 C 
BRANCH  10  11
ATOM     11  C   UNL     1       1.851 -16.463   9.675  1.00  0.00     0.079 C 
BRANCH  11  12
ATOM     12  C   UNL     1       0.686 -15.585   9.279  1.00  0.00     0.130 C 
ATOM     13  O   UNL     1       0.693 -14.416   9.635  1.00  0.00    -0.300 OA
ATOM     14  C   UNL     1      -0.475 -16.083   8.462  1.00  0.00     0.087 C 
ENDBRANCH  11  12
ENDBRANCH  10  11
ENDBRANCH   2  10
TORSDOF 6
ENDMDL
MODEL 8
REMARK VINA RESULT:    -3.871      3.844      7.188
REMARK INTER + INTRA:          -6.110
REMARK INTER:                  -5.313
REMARK INTRA:                  -0.797
REMARK UNBOUND:                -0.881
REMARK SMILES CC(=O)CCC=C(C)CCC=C(C)C
REMARK SMILES IDX 7 1 6 2 8 3 9 4 10 5 11 6 13 7 12 8 14 9 5 10 4 11 2 12 3 13
REMARK SMILES IDX 1 14
REMARK H PARENT
REMARK Flexibility Score: inf
ROOT
ATOM      1  C   UNL     1       2.212 -15.587  12.740  1.00  0.00    -0.077 C 
ATOM      2  C   UNL     1       1.357 -16.411  13.389  1.00  0.00    -0.028 C 
ATOM      3  C   UNL     1       3.671 -15.938  12.557  1.00  0.00     0.039 C 
ENDROOT
BRANCH   1   4
ATOM      4  C   UNL     1       1.698 -14.270  12.201  1.00  0.00     0.034 C 
BRANCH   4   5
ATOM      5  C   UNL     1       2.017 -14.131  10.708  1.00  0.00     0.032 C 
BRANCH   5   6
ATOM      6  C   UNL     1       0.839 -14.537   9.855  1.00  0.00    -0.028 C 
ATOM      7  C   UNL     1      -0.478 -16.049   8.432  1.00  0.00     0.039 C 
ATOM      8  C   UNL     1       0.742 -15.746   9.262  1.00  0.00    -0.080 C 
ATOM      9  C   UNL     1       1.823 -16.790   9.415  1.00  0.00     0.039 C 
ENDBRANCH   5   6
ENDBRANCH   4   5
ENDBRANCH   1   4
BRANCH   2  10
ATOM     10  C   UNL     1       1.725 -17.769  13.932  1.00  0.00     0.035 C 
BRANCH  10  11
ATOM     11  C   UNL     1       0.756 -18.184  15.049  1.00  0.00     0.079 C 
BRANCH  11  12
ATOM     12  C   UNL     1       1.299 -19.236  15.989  1.00  0.00     0.130 C 
ATOM     13  O   UNL     1       0.508 -20.000  16.524  1.00  0.00    -0.300 OA
ATOM     14  C   UNL     1       2.765 -19.387  16.291  1.00  0.00     0.087 C 
ENDBRANCH  11  12
ENDBRANCH  10  11
ENDBRANCH   2  10
TORSDOF 6
ENDMDL
MODEL 9
REMARK VINA RESULT:    -3.815      1.539      2.684
REMARK INTER + INTRA:          -6.035
REMARK INTER:                  -5.394
REMARK INTRA:                  -0.641
REMARK UNBOUND:                -0.881
REMARK SMILES CC(=O)CCC=C(C)CCC=C(C)C
REMARK SMILES IDX 7 1 6 2 8 3 9 4 10 5 11 6 13 7 12 8 14 9 5 10 4 11 2 12 3 13
REMARK SMILES IDX 1 14
REMARK H PARENT
REMARK Flexibility Score: inf
ROOT
ATOM      1  C   UNL     1       2.707 -16.075  10.861  1.00  0.00    -0.077 C 
ATOM      2  C   UNL     1       1.403 -16.015  10.504  1.00  0.00    -0.028 C 
ATOM      3  C   UNL     1       3.818 -15.865   9.858  1.00  0.00     0.039 C 
ENDROOT
BRANCH   1   4
ATOM      4  C   UNL     1       3.062 -16.384  12.299  1.00  0.00     0.034 C 
BRANCH   4   5
ATOM      5  C   UNL     1       1.834 -16.889  13.066  1.00  0.00     0.032 C 
BRANCH   5   6
ATOM      6  C   UNL     1       2.165 -18.114  13.885  1.00  0.00    -0.028 C 
ATOM      7  C   UNL     1       1.795 -19.808  15.629  1.00  0.00     0.039 C 
ATOM      8  C   UNL     1       1.370 -18.575  14.873  1.00  0.00    -0.080 C 
ATOM      9  C   UNL     1       0.073 -17.887  15.231  1.00  0.00     0.039 C 
ENDBRANCH   5   6
ENDBRANCH   4   5
ENDBRANCH   1   4
BRANCH   2  10
ATOM     10  C   UNL     1       0.911 -15.670   9.121  1.00  0.00     0.035 C 
BRANCH  10  11
ATOM     11  C   UNL     1       0.202 -14.307   9.125  1.00  0.00     0.079 C 
BRANCH  11  12
ATOM     12  C   UNL     1       0.874 -13.250   8.279  1.00  0.00     0.130 C 
ATOM     13  O   UNL     1       0.215 -12.696   7.412  1.00  0.00    -0.300 OA
ATOM     14  C   UNL     1       2.311 -12.846   8.461  1.00  0.00     0.087 C 
ENDBRANCH  11  12
ENDBRANCH  10  11
ENDBRANCH   2  10
TORSDOF 6
ENDMDL
