MODEL 1
REMARK VINA RESULT:    26.522      0.000      0.000
REMARK INTER + INTRA:          69.277
REMARK INTER:                  69.936
REMARK INTRA:                  -0.659
REMARK UNBOUND:                -0.659
REMARK SMILES CCCCCCCCCCCCCCCCCCCCCCCCCCCCCC(=O)[O-]
REMARK SMILES IDX 16 1 17 2 18 3 19 4 20 5 21 6 22 7 23 8 24 9 25 10 26 11
REMARK SMILES IDX 27 12 28 13 29 14 30 15 31 16 32 17 15 18 14 19 13 20 12 21
REMARK SMILES IDX 11 22 10 23 9 24 8 25 7 26 6 27 5 28 4 29 3 30 2 31 1 32
REMARK H PARENT
REMARK Flexibility Score: inf
ROOT
ATOM      1  C   UNL     1      -0.806  17.504  20.679  1.00  0.00     0.000 C 
ENDROOT
BRANCH   1   2
ATOM      2  C   UNL     1      -0.048  16.377  19.956  1.00  0.00     0.000 C 
BRANCH   2   3
ATOM      3  C   UNL     1      -0.974  15.238  19.502  1.00  0.00     0.000 C 
BRANCH   3   4
ATOM      4  C   UNL     1      -0.329  14.342  18.429  1.00  0.00     0.000 C 
BRANCH   4   5
ATOM      5  C   UNL     1      -0.736  12.864  18.565  1.00  0.00     0.000 C 
BRANCH   5   6
ATOM      6  C   UNL     1      -2.248  12.593  18.431  1.00  0.00     0.000 C 
BRANCH   6   7
ATOM      7  C   UNL     1      -2.916  11.984  19.677  1.00  0.00     0.000 C 
BRANCH   7   8
ATOM      8  C   UNL     1      -4.298  12.587  19.967  1.00  0.00     0.000 C 
BRANCH   8   9
ATOM      9  C   UNL     1      -4.214  13.659  21.062  1.00  0.00     0.000 C 
BRANCH   9  10
ATOM     10  C   UNL     1      -3.971  15.068  20.496  1.00  0.00     0.000 C 
BRANCH  10  11
ATOM     11  C   UNL     1      -4.336  16.178  21.493  1.00  0.00     0.000 C 
BRANCH  11  12
ATOM     12  C   UNL     1      -4.807  17.443  20.758  1.00  0.00     0.000 C 
BRANCH  12  13
ATOM     13  C   UNL     1      -6.032  17.189  19.865  1.00  0.00     0.006 C 
BRANCH  13  14
ATOM     14  C   UNL     1      -7.345  17.162  20.656  1.00  0.00     0.053 C 
BRANCH  14  15
ATOM     15  C   UNL     1      -8.298  16.178  20.057  1.00  0.00     0.041 C 
ATOM     16  O   UNL     1      -9.539  16.392  20.101  1.00  0.00    -0.550 OA
ATOM     17  O   UNL     1      -7.821  15.003  19.487  1.00  0.00    -0.550 OA
ENDBRANCH  14  15
ENDBRANCH  13  14
ENDBRANCH  12  13
ENDBRANCH  11  12
ENDBRANCH  10  11
ENDBRANCH   9  10
ENDBRANCH   8   9
ENDBRANCH   7   8
ENDBRANCH   6   7
ENDBRANCH   5   6
ENDBRANCH   4   5
ENDBRANCH   3   4
ENDBRANCH   2   3
ENDBRANCH   1   2
BRANCH   1  18
ATOM     18  C   UNL     1      -0.414  18.905  20.158  1.00  0.00     0.000 C 
BRANCH  18  19
ATOM     19  C   UNL     1      -1.117  20.067  20.887  1.00  0.00     0.000 C 
BRANCH  19  20
ATOM     20  C   UNL     1      -0.493  20.474  22.234  1.00  0.00     0.000 C 
BRANCH  20  21
ATOM     21  C   UNL     1       0.123  21.886  22.269  1.00  0.00     0.000 C 
BRANCH  21  22
ATOM     22  C   UNL     1      -0.898  22.997  21.984  1.00  0.00     0.000 C 
BRANCH  22  23
ATOM     23  C   UNL     1      -2.015  22.989  23.038  1.00  0.00     0.000 C 
BRANCH  23  24
ATOM     24  C   UNL     1      -2.912  24.237  22.975  1.00  0.00    -0.000 C 
BRANCH  24  25
ATOM     25  C   UNL     1      -2.679  25.141  21.751  1.00  0.00    -0.000 C 
BRANCH  25  26
ATOM     26  C   UNL     1      -3.809  26.163  21.537  1.00  0.00    -0.000 C 
BRANCH  26  27
ATOM     27  C   UNL     1      -3.324  27.420  20.784  1.00  0.00    -0.000 C 
BRANCH  27  28
ATOM     28  C   UNL     1      -4.035  27.645  19.439  1.00  0.00    -0.000 C 
BRANCH  28  29
ATOM     29  C   UNL     1      -4.513  29.095  19.252  1.00  0.00    -0.000 C 
BRANCH  29  30
ATOM     30  C   UNL     1      -3.479  30.124  19.740  1.00  0.00    -0.000 C 
BRANCH  30  31
ATOM     31  C   UNL     1      -2.128  29.483  20.097  1.00  0.00    -0.003 C 
ATOM     32  C   UNL     1      -1.145  30.530  20.615  1.00  0.00     0.004 C 
ENDBRANCH  30  31
ENDBRANCH  29  30
ENDBRANCH  28  29
ENDBRANCH  27  28
ENDBRANCH  26  27
ENDBRANCH  25  26
ENDBRANCH  24  25
ENDBRANCH  23  24
ENDBRANCH  22  23
ENDBRANCH  21  22
ENDBRANCH  20  21
ENDBRANCH  19  20
ENDBRANCH  18  19
ENDBRANCH   1  18
TORSDOF 28
ENDMDL
MODEL 2
REMARK VINA RESULT:    26.708      4.135     11.208
REMARK INTER + INTRA:          69.768
REMARK INTER:                  72.254
REMARK INTRA:                  -2.486
REMARK UNBOUND:                -0.659
REMARK SMILES CCCCCCCCCCCCCCCCCCCCCCCCCCCCCC(=O)[O-]
REMARK SMILES IDX 16 1 17 2 18 3 19 4 20 5 21 6 22 7 23 8 24 9 25 10 26 11
REMARK SMILES IDX 27 12 28 13 29 14 30 15 31 16 32 17 15 18 14 19 13 20 12 21
REMARK SMILES IDX 11 22 10 23 9 24 8 25 7 26 6 27 5 28 4 29 3 30 2 31 1 32
REMARK H PARENT
REMARK Flexibility Score: inf
ROOT
ATOM      1  C   UNL     1      -0.955  17.821  20.820  1.00  0.00     0.000 C 
ENDROOT
BRANCH   1   2
ATOM      2  C   UNL     1      -1.164  19.236  20.253  1.00  0.00     0.000 C 
BRANCH   2   3
ATOM      3  C   UNL     1      -1.267  20.305  21.352  1.00  0.00     0.000 C 
BRANCH   3   4
ATOM      4  C   UNL     1       0.085  20.590  22.031  1.00  0.00     0.000 C 
BRANCH   4   5
ATOM      5  C   UNL     1       0.442  22.087  22.038  1.00  0.00     0.000 C 
BRANCH   5   6
ATOM      6  C   UNL     1      -0.767  23.042  22.009  1.00  0.00     0.000 C 
BRANCH   6   7
ATOM      7  C   UNL     1      -1.467  23.252  23.364  1.00  0.00     0.000 C 
BRANCH   7   8
ATOM      8  C   UNL     1      -2.935  23.677  23.217  1.00  0.00     0.000 C 
BRANCH   8   9
ATOM      9  C   UNL     1      -3.047  25.172  22.888  1.00  0.00     0.000 C 
BRANCH   9  10
ATOM     10  C   UNL     1      -3.717  25.432  21.529  1.00  0.00     0.000 C 
BRANCH  10  11
ATOM     11  C   UNL     1      -3.875  26.929  21.224  1.00  0.00     0.000 C 
BRANCH  11  12
ATOM     12  C   UNL     1      -4.413  27.146  19.801  1.00  0.00     0.000 C 
BRANCH  12  13
ATOM     13  C   UNL     1      -3.911  28.454  19.169  1.00  0.00     0.006 C 
BRANCH  13  14
ATOM     14  C   UNL     1      -2.432  28.726  19.469  1.00  0.00     0.053 C 
BRANCH  14  15
ATOM     15  C   UNL     1      -2.251  30.111  20.005  1.00  0.00     0.041 C 
ATOM     16  O   UNL     1      -1.144  30.458  20.498  1.00  0.00    -0.550 OA
ATOM     17  O   UNL     1      -3.315  31.005  19.998  1.00  0.00    -0.550 OA
ENDBRANCH  14  15
ENDBRANCH  13  14
ENDBRANCH  12  13
ENDBRANCH  11  12
ENDBRANCH  10  11
ENDBRANCH   9  10
ENDBRANCH   8   9
ENDBRANCH   7   8
ENDBRANCH   6   7
ENDBRANCH   5   6
ENDBRANCH   4   5
ENDBRANCH   3   4
ENDBRANCH   2   3
ENDBRANCH   1   2
BRANCH   1  18
ATOM     18  C   UNL     1      -0.021  16.964  19.937  1.00  0.00     0.000 C 
BRANCH  18  19
ATOM     19  C   UNL     1      -0.355  15.460  19.940  1.00  0.00     0.000 C 
BRANCH  19  20
ATOM     20  C   UNL     1      -0.996  14.924  18.647  1.00  0.00     0.000 C 
BRANCH  20  21
ATOM     21  C   UNL     1      -0.410  13.598  18.127  1.00  0.00     0.000 C 
BRANCH  21  22
ATOM     22  C   UNL     1      -1.078  12.361  18.744  1.00  0.00     0.000 C 
BRANCH  22  23
ATOM     23  C   UNL     1      -2.600  12.415  18.553  1.00  0.00     0.000 C 
BRANCH  23  24
ATOM     24  C   UNL     1      -3.381  12.130  19.848  1.00  0.00    -0.000 C 
BRANCH  24  25
ATOM     25  C   UNL     1      -4.439  13.187  20.212  1.00  0.00    -0.000 C 
BRANCH  25  26
ATOM     26  C   UNL     1      -3.871  14.330  21.070  1.00  0.00    -0.000 C 
BRANCH  26  27
ATOM     27  C   UNL     1      -4.162  15.718  20.460  1.00  0.00    -0.000 C 
BRANCH  27  28
ATOM     28  C   UNL     1      -4.937  16.656  21.401  1.00  0.00    -0.000 C 
BRANCH  28  29
ATOM     29  C   UNL     1      -5.813  17.668  20.645  1.00  0.00    -0.000 C 
BRANCH  29  30
ATOM     30  C   UNL     1      -6.647  17.011  19.533  1.00  0.00    -0.000 C 
BRANCH  30  31
ATOM     31  C   UNL     1      -7.721  16.059  20.082  1.00  0.00    -0.003 C 
ATOM     32  C   UNL     1      -9.111  16.681  19.977  1.00  0.00     0.004 C 
ENDBRANCH  30  31
ENDBRANCH  29  30
ENDBRANCH  28  29
ENDBRANCH  27  28
ENDBRANCH  26  27
ENDBRANCH  25  26
ENDBRANCH  24  25
ENDBRANCH  23  24
ENDBRANCH  22  23
ENDBRANCH  21  22
ENDBRANCH  20  21
ENDBRANCH  19  20
ENDBRANCH  18  19
ENDBRANCH   1  18
TORSDOF 28
ENDMDL
MODEL 3
REMARK VINA RESULT:    27.389      1.635      2.997
REMARK INTER + INTRA:          71.562
REMARK INTER:                  73.248
REMARK INTRA:                  -1.686
REMARK UNBOUND:                -0.659
REMARK SMILES CCCCCCCCCCCCCCCCCCCCCCCCCCCCCC(=O)[O-]
REMARK SMILES IDX 16 1 17 2 18 3 19 4 20 5 21 6 22 7 23 8 24 9 25 10 26 11
REMARK SMILES IDX 27 12 28 13 29 14 30 15 31 16 32 17 15 18 14 19 13 20 12 21
REMARK SMILES IDX 11 22 10 23 9 24 8 25 7 26 6 27 5 28 4 29 3 30 2 31 1 32
REMARK H PARENT
REMARK Flexibility Score: inf
ROOT
ATOM      1  C   UNL     1      -1.250  20.236  21.362  1.00  0.00     0.000 C 
ENDROOT
BRANCH   1   2
ATOM      2  C   UNL     1      -0.871  19.096  20.400  1.00  0.00     0.000 C 
BRANCH   2   3
ATOM      3  C   UNL     1      -0.850  17.722  21.088  1.00  0.00     0.000 C 
BRANCH   3   4
ATOM      4  C   UNL     1      -0.101  16.658  20.266  1.00  0.00     0.000 C 
BRANCH   4   5
ATOM      5  C   UNL     1      -1.010  15.497  19.827  1.00  0.00     0.000 C 
BRANCH   5   6
ATOM      6  C   UNL     1      -0.509  14.707  18.603  1.00  0.00     0.000 C 
BRANCH   6   7
ATOM      7  C   UNL     1      -1.403  13.530  18.173  1.00  0.00     0.000 C 
BRANCH   7   8
ATOM      8  C   UNL     1      -1.663  12.533  19.311  1.00  0.00     0.000 C 
BRANCH   8   9
ATOM      9  C   UNL     1      -3.149  12.508  19.694  1.00  0.00     0.000 C 
BRANCH   9  10
ATOM     10  C   UNL     1      -3.469  13.420  20.890  1.00  0.00     0.000 C 
BRANCH  10  11
ATOM     11  C   UNL     1      -4.647  14.367  20.615  1.00  0.00     0.000 C 
BRANCH  11  12
ATOM     12  C   UNL     1      -4.271  15.821  20.939  1.00  0.00     0.000 C 
BRANCH  12  13
ATOM     13  C   UNL     1      -5.494  16.748  21.013  1.00  0.00     0.006 C 
BRANCH  13  14
ATOM     14  C   UNL     1      -6.281  16.794  19.697  1.00  0.00     0.053 C 
BRANCH  14  15
ATOM     15  C   UNL     1      -7.684  16.320  19.907  1.00  0.00     0.041 C 
ATOM     16  O   UNL     1      -7.988  15.121  19.667  1.00  0.00    -0.550 OA
ATOM     17  O   UNL     1      -8.665  17.210  20.329  1.00  0.00    -0.550 OA
ENDBRANCH  14  15
ENDBRANCH  13  14
ENDBRANCH  12  13
ENDBRANCH  11  12
ENDBRANCH  10  11
ENDBRANCH   9  10
ENDBRANCH   8   9
ENDBRANCH   7   8
ENDBRANCH   6   7
ENDBRANCH   5   6
ENDBRANCH   4   5
ENDBRANCH   3   4
ENDBRANCH   2   3
ENDBRANCH   1   2
BRANCH   1  18
ATOM     18  C   UNL     1      -0.025  21.073  21.795  1.00  0.00     0.000 C 
BRANCH  18  19
ATOM     19  C   UNL     1      -0.376  22.485  22.302  1.00  0.00     0.000 C 
BRANCH  19  20
ATOM     20  C   UNL     1      -1.645  22.578  23.169  1.00  0.00     0.000 C 
BRANCH  20  21
ATOM     21  C   UNL     1      -2.152  24.008  23.435  1.00  0.00     0.000 C 
BRANCH  21  22
ATOM     22  C   UNL     1      -1.376  24.726  24.548  1.00  0.00     0.000 C 
BRANCH  22  23
ATOM     23  C   UNL     1      -1.570  26.245  24.451  1.00  0.00     0.000 C 
BRANCH  23  24
ATOM     24  C   UNL     1      -0.439  27.042  25.124  1.00  0.00    -0.000 C 
BRANCH  24  25
ATOM     25  C   UNL     1      -0.430  28.548  24.806  1.00  0.00    -0.000 C 
BRANCH  25  26
ATOM     26  C   UNL     1      -0.164  28.844  23.320  1.00  0.00    -0.000 C 
BRANCH  26  27
ATOM     27  C   UNL     1      -0.878  30.127  22.844  1.00  0.00    -0.000 C 
BRANCH  27  28
ATOM     28  C   UNL     1      -0.948  30.262  21.313  1.00  0.00    -0.000 C 
BRANCH  28  29
ATOM     29  C   UNL     1      -2.378  30.119  20.767  1.00  0.00    -0.000 C 
BRANCH  29  30
ATOM     30  C   UNL     1      -2.437  29.282  19.479  1.00  0.00    -0.000 C 
BRANCH  30  31
ATOM     31  C   UNL     1      -2.896  27.837  19.731  1.00  0.00    -0.003 C 
ATOM     32  C   UNL     1      -4.396  27.779  20.009  1.00  0.00     0.004 C 
ENDBRANCH  30  31
ENDBRANCH  29  30
ENDBRANCH  28  29
ENDBRANCH  27  28
ENDBRANCH  26  27
ENDBRANCH  25  26
ENDBRANCH  24  25
ENDBRANCH  23  24
ENDBRANCH  22  23
ENDBRANCH  21  22
ENDBRANCH  20  21
ENDBRANCH  19  20
ENDBRANCH  18  19
ENDBRANCH   1  18
TORSDOF 28
ENDMDL
MODEL 4
REMARK VINA RESULT:    27.747      4.122     10.066
REMARK INTER + INTRA:          72.507
REMARK INTER:                  74.450
REMARK INTRA:                  -1.944
REMARK UNBOUND:                -0.659
REMARK SMILES CCCCCCCCCCCCCCCCCCCCCCCCCCCCCC(=O)[O-]
REMARK SMILES IDX 16 1 17 2 18 3 19 4 20 5 21 6 22 7 23 8 24 9 25 10 26 11
REMARK SMILES IDX 27 12 28 13 29 14 30 15 31 16 32 17 15 18 14 19 13 20 12 21
REMARK SMILES IDX 11 22 10 23 9 24 8 25 7 26 6 27 5 28 4 29 3 30 2 31 1 32
REMARK H PARENT
REMARK Flexibility Score: inf
ROOT
ATOM      1  C   UNL     1      -0.276  15.532  20.131  1.00  0.00     0.000 C 
ENDROOT
BRANCH   1   2
ATOM      2  C   UNL     1       0.108  17.020  20.049  1.00  0.00     0.000 C 
BRANCH   2   3
ATOM      3  C   UNL     1      -0.858  17.925  20.828  1.00  0.00     0.000 C 
BRANCH   3   4
ATOM      4  C   UNL     1      -0.902  19.361  20.274  1.00  0.00     0.000 C 
BRANCH   4   5
ATOM      5  C   UNL     1      -1.288  20.398  21.344  1.00  0.00     0.000 C 
BRANCH   5   6
ATOM      6  C   UNL     1      -0.103  21.177  21.949  1.00  0.00     0.000 C 
BRANCH   6   7
ATOM      7  C   UNL     1      -0.439  22.595  22.446  1.00  0.00     0.000 C 
BRANCH   7   8
ATOM      8  C   UNL     1      -1.663  22.627  23.373  1.00  0.00     0.000 C 
BRANCH   8   9
ATOM      9  C   UNL     1      -2.314  24.017  23.379  1.00  0.00     0.000 C 
BRANCH   9  10
ATOM     10  C   UNL     1      -3.149  24.288  22.117  1.00  0.00     0.000 C 
BRANCH  10  11
ATOM     11  C   UNL     1      -2.783  25.616  21.438  1.00  0.00     0.000 C 
BRANCH  11  12
ATOM     12  C   UNL     1      -3.835  26.695  21.738  1.00  0.00     0.000 C 
BRANCH  12  13
ATOM     13  C   UNL     1      -4.306  27.432  20.474  1.00  0.00     0.006 C 
BRANCH  13  14
ATOM     14  C   UNL     1      -3.140  27.942  19.618  1.00  0.00     0.053 C 
BRANCH  14  15
ATOM     15  C   UNL     1      -2.902  29.397  19.869  1.00  0.00     0.041 C 
ATOM     16  O   UNL     1      -1.730  29.824  20.047  1.00  0.00    -0.550 OA
ATOM     17  O   UNL     1      -3.976  30.276  19.948  1.00  0.00    -0.550 OA
ENDBRANCH  14  15
ENDBRANCH  13  14
ENDBRANCH  12  13
ENDBRANCH  11  12
ENDBRANCH  10  11
ENDBRANCH   9  10
ENDBRANCH   8   9
ENDBRANCH   7   8
ENDBRANCH   6   7
ENDBRANCH   5   6
ENDBRANCH   4   5
ENDBRANCH   3   4
ENDBRANCH   2   3
ENDBRANCH   1   2
BRANCH   1  18
ATOM     18  C   UNL     1      -1.117  15.074  18.918  1.00  0.00     0.000 C 
BRANCH  18  19
ATOM     19  C   UNL     1      -0.874  13.610  18.501  1.00  0.00     0.000 C 
BRANCH  19  20
ATOM     20  C   UNL     1      -1.165  12.558  19.587  1.00  0.00     0.000 C 
BRANCH  20  21
ATOM     21  C   UNL     1      -2.616  12.040  19.623  1.00  0.00     0.000 C 
BRANCH  21  22
ATOM     22  C   UNL     1      -3.655  13.139  19.362  1.00  0.00     0.000 C 
BRANCH  22  23
ATOM     23  C   UNL     1      -4.308  13.590  20.677  1.00  0.00     0.000 C 
BRANCH  23  24
ATOM     24  C   UNL     1      -3.879  15.003  21.108  1.00  0.00    -0.000 C 
BRANCH  24  25
ATOM     25  C   UNL     1      -4.651  16.150  20.431  1.00  0.00    -0.000 C 
BRANCH  25  26
ATOM     26  C   UNL     1      -5.942  16.525  21.179  1.00  0.00    -0.000 C 
BRANCH  26  27
ATOM     27  C   UNL     1      -6.982  17.188  20.251  1.00  0.00    -0.000 C 
BRANCH  27  28
ATOM     28  C   UNL     1      -6.425  17.562  18.867  1.00  0.00    -0.000 C 
BRANCH  28  29
ATOM     29  C   UNL     1      -5.914  19.010  18.801  1.00  0.00    -0.000 C 
BRANCH  29  30
ATOM     30  C   UNL     1      -6.196  19.674  17.443  1.00  0.00    -0.000 C 
BRANCH  30  31
ATOM     31  C   UNL     1      -7.444  20.570  17.469  1.00  0.00    -0.003 C 
ATOM     32  C   UNL     1      -8.521  20.038  16.528  1.00  0.00     0.004 C 
ENDBRANCH  30  31
ENDBRANCH  29  30
ENDBRANCH  28  29
ENDBRANCH  27  28
ENDBRANCH  26  27
ENDBRANCH  25  26
ENDBRANCH  24  25
ENDBRANCH  23  24
ENDBRANCH  22  23
ENDBRANCH  21  22
ENDBRANCH  20  21
ENDBRANCH  19  20
ENDBRANCH  18  19
ENDBRANCH   1  18
TORSDOF 28
ENDMDL
MODEL 5
REMARK VINA RESULT:    28.080      1.755      2.800
REMARK INTER + INTRA:          73.385
REMARK INTER:                  75.385
REMARK INTRA:                  -2.000
REMARK UNBOUND:                -0.659
REMARK SMILES CCCCCCCCCCCCCCCCCCCCCCCCCCCCCC(=O)[O-]
REMARK SMILES IDX 16 1 17 2 18 3 19 4 20 5 21 6 22 7 23 8 24 9 25 10 26 11
REMARK SMILES IDX 27 12 28 13 29 14 30 15 31 16 32 17 15 18 14 19 13 20 12 21
REMARK SMILES IDX 11 22 10 23 9 24 8 25 7 26 6 27 5 28 4 29 3 30 2 31 1 32
REMARK H PARENT
REMARK Flexibility Score: inf
ROOT
ATOM      1  C   UNL     1      -0.217  15.252  19.996  1.00  0.00     0.000 C 
ENDROOT
BRANCH   1   2
ATOM      2  C   UNL     1      -1.077  14.817  18.796  1.00  0.00     0.000 C 
BRANCH   2   3
ATOM      3  C   UNL     1      -0.747  13.395  18.316  1.00  0.00     0.000 C 
BRANCH   3   4
ATOM      4  C   UNL     1      -1.963  12.453  18.374  1.00  0.00     0.000 C 
BRANCH   4   5
ATOM      5  C   UNL     1      -2.529  12.299  19.797  1.00  0.00     0.000 C 
BRANCH   5   6
ATOM      6  C   UNL     1      -3.998  12.737  19.962  1.00  0.00     0.000 C 
BRANCH   6   7
ATOM      7  C   UNL     1      -4.220  13.933  20.905  1.00  0.00     0.000 C 
BRANCH   7   8
ATOM      8  C   UNL     1      -4.091  15.287  20.192  1.00  0.00     0.000 C 
BRANCH   8   9
ATOM      9  C   UNL     1      -4.237  16.449  21.184  1.00  0.00     0.000 C 
BRANCH   9  10
ATOM     10  C   UNL     1      -5.686  16.947  21.305  1.00  0.00     0.000 C 
BRANCH  10  11
ATOM     11  C   UNL     1      -6.567  16.501  20.129  1.00  0.00     0.000 C 
BRANCH  11  12
ATOM     12  C   UNL     1      -6.663  17.604  19.063  1.00  0.00     0.000 C 
BRANCH  12  13
ATOM     13  C   UNL     1      -6.217  18.977  19.589  1.00  0.00     0.006 C 
BRANCH  13  14
ATOM     14  C   UNL     1      -5.701  19.897  18.476  1.00  0.00     0.053 C 
BRANCH  14  15
ATOM     15  C   UNL     1      -6.640  19.892  17.312  1.00  0.00     0.041 C 
ATOM     16  O   UNL     1      -6.387  19.186  16.300  1.00  0.00    -0.550 OA
ATOM     17  O   UNL     1      -7.773  20.697  17.328  1.00  0.00    -0.550 OA
ENDBRANCH  14  15
ENDBRANCH  13  14
ENDBRANCH  12  13
ENDBRANCH  11  12
ENDBRANCH  10  11
ENDBRANCH   9  10
ENDBRANCH   8   9
ENDBRANCH   7   8
ENDBRANCH   6   7
ENDBRANCH   5   6
ENDBRANCH   4   5
ENDBRANCH   3   4
ENDBRANCH   2   3
ENDBRANCH   1   2
BRANCH   1  18
ATOM     18  C   UNL     1       0.163  16.749  19.936  1.00  0.00     0.000 C 
BRANCH  18  19
ATOM     19  C   UNL     1      -0.808  17.675  20.692  1.00  0.00     0.000 C 
BRANCH  19  20
ATOM     20  C   UNL     1      -0.709  19.169  20.332  1.00  0.00     0.000 C 
BRANCH  20  21
ATOM     21  C   UNL     1      -1.144  20.141  21.446  1.00  0.00     0.000 C 
BRANCH  21  22
ATOM     22  C   UNL     1       0.035  20.872  22.103  1.00  0.00     0.000 C 
BRANCH  22  23
ATOM     23  C   UNL     1      -0.271  22.369  22.251  1.00  0.00     0.000 C 
BRANCH  23  24
ATOM     24  C   UNL     1      -1.447  22.653  23.202  1.00  0.00    -0.000 C 
BRANCH  24  25
ATOM     25  C   UNL     1      -2.679  23.292  22.536  1.00  0.00    -0.000 C 
BRANCH  25  26
ATOM     26  C   UNL     1      -2.753  24.813  22.751  1.00  0.00    -0.000 C 
BRANCH  26  27
ATOM     27  C   UNL     1      -3.772  25.487  21.808  1.00  0.00    -0.000 C 
BRANCH  27  28
ATOM     28  C   UNL     1      -3.351  26.894  21.349  1.00  0.00    -0.000 C 
BRANCH  28  29
ATOM     29  C   UNL     1      -4.418  27.582  20.482  1.00  0.00    -0.000 C 
BRANCH  29  30
ATOM     30  C   UNL     1      -3.809  28.353  19.299  1.00  0.00    -0.000 C 
BRANCH  30  31
ATOM     31  C   UNL     1      -3.424  29.795  19.666  1.00  0.00    -0.003 C 
ATOM     32  C   UNL     1      -1.941  29.896  20.011  1.00  0.00     0.004 C 
ENDBRANCH  30  31
ENDBRANCH  29  30
ENDBRANCH  28  29
ENDBRANCH  27  28
ENDBRANCH  26  27
ENDBRANCH  25  26
ENDBRANCH  24  25
ENDBRANCH  23  24
ENDBRANCH  22  23
ENDBRANCH  21  22
ENDBRANCH  20  21
ENDBRANCH  19  20
ENDBRANCH  18  19
ENDBRANCH   1  18
TORSDOF 28
ENDMDL
MODEL 6
REMARK VINA RESULT:    28.090      3.913     10.865
REMARK INTER + INTRA:          73.411
REMARK INTER:                  75.187
REMARK INTRA:                  -1.776
REMARK UNBOUND:                -0.659
REMARK SMILES CCCCCCCCCCCCCCCCCCCCCCCCCCCCCC(=O)[O-]
REMARK SMILES IDX 16 1 17 2 18 3 19 4 20 5 21 6 22 7 23 8 24 9 25 10 26 11
REMARK SMILES IDX 27 12 28 13 29 14 30 15 31 16 32 17 15 18 14 19 13 20 12 21
REMARK SMILES IDX 11 22 10 23 9 24 8 25 7 26 6 27 5 28 4 29 3 30 2 31 1 32
REMARK H PARENT
REMARK Flexibility Score: inf
ROOT
ATOM      1  C   UNL     1      -0.442  16.245  21.287  1.00  0.00     0.000 C 
ENDROOT
BRANCH   1   2
ATOM      2  C   UNL     1      -1.203  17.580  21.343  1.00  0.00     0.000 C 
BRANCH   2   3
ATOM      3  C   UNL     1      -0.747  18.569  20.259  1.00  0.00     0.000 C 
BRANCH   3   4
ATOM      4  C   UNL     1      -1.055  20.033  20.624  1.00  0.00     0.000 C 
BRANCH   4   5
ATOM      5  C   UNL     1      -0.510  20.428  22.008  1.00  0.00     0.000 C 
BRANCH   5   6
ATOM      6  C   UNL     1       0.273  21.755  22.042  1.00  0.00     0.000 C 
BRANCH   6   7
ATOM      7  C   UNL     1      -0.595  23.026  22.073  1.00  0.00     0.000 C 
BRANCH   7   8
ATOM      8  C   UNL     1      -1.450  23.132  23.345  1.00  0.00     0.000 C 
BRANCH   8   9
ATOM      9  C   UNL     1      -2.901  23.499  23.005  1.00  0.00     0.000 C 
BRANCH   9  10
ATOM     10  C   UNL     1      -3.001  24.585  21.921  1.00  0.00     0.000 C 
BRANCH  10  11
ATOM     11  C   UNL     1      -3.279  25.979  22.503  1.00  0.00     0.000 C 
BRANCH  11  12
ATOM     12  C   UNL     1      -3.867  26.913  21.434  1.00  0.00     0.000 C 
BRANCH  12  13
ATOM     13  C   UNL     1      -2.945  27.077  20.216  1.00  0.00     0.006 C 
BRANCH  13  14
ATOM     14  C   UNL     1      -3.477  28.100  19.205  1.00  0.00     0.053 C 
BRANCH  14  15
ATOM     15  C   UNL     1      -3.217  29.493  19.682  1.00  0.00     0.041 C 
ATOM     16  O   UNL     1      -4.181  30.265  19.934  1.00  0.00    -0.550 OA
ATOM     17  O   UNL     1      -1.912  29.955  19.808  1.00  0.00    -0.550 OA
ENDBRANCH  14  15
ENDBRANCH  13  14
ENDBRANCH  12  13
ENDBRANCH  11  12
ENDBRANCH  10  11
ENDBRANCH   9  10
ENDBRANCH   8   9
ENDBRANCH   7   8
ENDBRANCH   6   7
ENDBRANCH   5   6
ENDBRANCH   4   5
ENDBRANCH   3   4
ENDBRANCH   2   3
ENDBRANCH   1   2
BRANCH   1  18
ATOM     18  C   UNL     1       0.044  15.903  19.860  1.00  0.00     0.000 C 
BRANCH  18  19
ATOM     19  C   UNL     1      -1.004  15.177  18.995  1.00  0.00     0.000 C 
BRANCH  19  20
ATOM     20  C   UNL     1      -0.602  13.771  18.514  1.00  0.00     0.000 C 
BRANCH  20  21
ATOM     21  C   UNL     1      -1.382  12.610  19.160  1.00  0.00     0.000 C 
BRANCH  21  22
ATOM     22  C   UNL     1      -2.899  12.711  18.947  1.00  0.00     0.000 C 
BRANCH  22  23
ATOM     23  C   UNL     1      -3.646  12.526  20.275  1.00  0.00     0.000 C 
BRANCH  23  24
ATOM     24  C   UNL     1      -4.419  13.783  20.712  1.00  0.00    -0.000 C 
BRANCH  24  25
ATOM     25  C   UNL     1      -3.539  15.010  21.017  1.00  0.00    -0.000 C 
BRANCH  25  26
ATOM     26  C   UNL     1      -4.337  16.326  21.041  1.00  0.00    -0.000 C 
BRANCH  26  27
ATOM     27  C   UNL     1      -5.825  16.112  20.693  1.00  0.00    -0.000 C 
BRANCH  27  28
ATOM     28  C   UNL     1      -6.546  17.398  20.252  1.00  0.00    -0.000 C 
BRANCH  28  29
ATOM     29  C   UNL     1      -8.056  17.194  20.048  1.00  0.00    -0.000 C 
BRANCH  29  30
ATOM     30  C   UNL     1      -8.474  15.719  20.172  1.00  0.00    -0.000 C 
BRANCH  30  31
ATOM     31  C   UNL     1      -8.024  14.872  18.972  1.00  0.00    -0.003 C 
ATOM     32  C   UNL     1      -7.847  13.409  19.369  1.00  0.00     0.004 C 
ENDBRANCH  30  31
ENDBRANCH  29  30
ENDBRANCH  28  29
ENDBRANCH  27  28
ENDBRANCH  26  27
ENDBRANCH  25  26
ENDBRANCH  24  25
ENDBRANCH  23  24
ENDBRANCH  22  23
ENDBRANCH  21  22
ENDBRANCH  20  21
ENDBRANCH  19  20
ENDBRANCH  18  19
ENDBRANCH   1  18
TORSDOF 28
ENDMDL
MODEL 7
REMARK VINA RESULT:    28.118      3.084     10.758
REMARK INTER + INTRA:          73.485
REMARK INTER:                  74.674
REMARK INTRA:                  -1.189
REMARK UNBOUND:                -0.659
REMARK SMILES CCCCCCCCCCCCCCCCCCCCCCCCCCCCCC(=O)[O-]
REMARK SMILES IDX 16 1 17 2 18 3 19 4 20 5 21 6 22 7 23 8 24 9 25 10 26 11
REMARK SMILES IDX 27 12 28 13 29 14 30 15 31 16 32 17 15 18 14 19 13 20 12 21
REMARK SMILES IDX 11 22 10 23 9 24 8 25 7 26 6 27 5 28 4 29 3 30 2 31 1 32
REMARK H PARENT
REMARK Flexibility Score: inf
ROOT
ATOM      1  C   UNL     1      -0.742  17.367  20.613  1.00  0.00     0.000 C 
ENDROOT
BRANCH   1   2
ATOM      2  C   UNL     1      -0.231  18.777  20.267  1.00  0.00     0.000 C 
BRANCH   2   3
ATOM      3  C   UNL     1      -1.097  19.888  20.881  1.00  0.00     0.000 C 
BRANCH   3   4
ATOM      4  C   UNL     1      -0.451  20.524  22.125  1.00  0.00     0.000 C 
BRANCH   4   5
ATOM      5  C   UNL     1       0.177  21.898  21.832  1.00  0.00     0.000 C 
BRANCH   5   6
ATOM      6  C   UNL     1      -0.554  23.095  22.471  1.00  0.00     0.000 C 
BRANCH   6   7
ATOM      7  C   UNL     1      -1.876  22.750  23.181  1.00  0.00     0.000 C 
BRANCH   7   8
ATOM      8  C   UNL     1      -3.071  23.547  22.636  1.00  0.00     0.000 C 
BRANCH   8   9
ATOM      9  C   UNL     1      -2.859  25.055  22.823  1.00  0.00     0.000 C 
BRANCH   9  10
ATOM     10  C   UNL     1      -3.225  25.866  21.569  1.00  0.00     0.000 C 
BRANCH  10  11
ATOM     11  C   UNL     1      -3.158  27.383  21.804  1.00  0.00     0.000 C 
BRANCH  11  12
ATOM     12  C   UNL     1      -2.575  28.104  20.579  1.00  0.00     0.000 C 
BRANCH  12  13
ATOM     13  C   UNL     1      -3.309  29.415  20.257  1.00  0.00     0.006 C 
BRANCH  13  14
ATOM     14  C   UNL     1      -4.316  29.262  19.110  1.00  0.00     0.053 C 
BRANCH  14  15
ATOM     15  C   UNL     1      -4.525  27.818  18.784  1.00  0.00     0.041 C 
ATOM     16  O   UNL     1      -3.677  27.198  18.089  1.00  0.00    -0.550 OA
ATOM     17  O   UNL     1      -5.677  27.167  19.211  1.00  0.00    -0.550 OA
ENDBRANCH  14  15
ENDBRANCH  13  14
ENDBRANCH  12  13
ENDBRANCH  11  12
ENDBRANCH  10  11
ENDBRANCH   9  10
ENDBRANCH   8   9
ENDBRANCH   7   8
ENDBRANCH   6   7
ENDBRANCH   5   6
ENDBRANCH   4   5
ENDBRANCH   3   4
ENDBRANCH   2   3
ENDBRANCH   1   2
BRANCH   1  18
ATOM     18  C   UNL     1       0.020  16.261  19.849  1.00  0.00     0.000 C 
BRANCH  18  19
ATOM     19  C   UNL     1      -0.872  15.101  19.366  1.00  0.00     0.000 C 
BRANCH  19  20
ATOM     20  C   UNL     1      -0.255  14.205  18.277  1.00  0.00     0.000 C 
BRANCH  20  21
ATOM     21  C   UNL     1      -0.791  12.761  18.236  1.00  0.00     0.000 C 
BRANCH  21  22
ATOM     22  C   UNL     1      -1.749  12.441  19.392  1.00  0.00     0.000 C 
BRANCH  22  23
ATOM     23  C   UNL     1      -3.156  12.978  19.095  1.00  0.00     0.000 C 
BRANCH  23  24
ATOM     24  C   UNL     1      -4.106  12.882  20.302  1.00  0.00    -0.000 C 
BRANCH  24  25
ATOM     25  C   UNL     1      -3.986  14.036  21.314  1.00  0.00    -0.000 C 
BRANCH  25  26
ATOM     26  C   UNL     1      -3.960  15.420  20.643  1.00  0.00    -0.000 C 
BRANCH  26  27
ATOM     27  C   UNL     1      -4.853  16.442  21.379  1.00  0.00    -0.000 C 
BRANCH  27  28
ATOM     28  C   UNL     1      -5.499  17.481  20.447  1.00  0.00    -0.000 C 
BRANCH  28  29
ATOM     29  C   UNL     1      -6.634  16.892  19.593  1.00  0.00    -0.000 C 
BRANCH  29  30
ATOM     30  C   UNL     1      -7.483  15.870  20.367  1.00  0.00    -0.000 C 
BRANCH  30  31
ATOM     31  C   UNL     1      -8.989  16.169  20.289  1.00  0.00    -0.003 C 
ATOM     32  C   UNL     1      -9.248  17.495  19.580  1.00  0.00     0.004 C 
ENDBRANCH  30  31
ENDBRANCH  29  30
ENDBRANCH  28  29
ENDBRANCH  27  28
ENDBRANCH  26  27
ENDBRANCH  25  26
ENDBRANCH  24  25
ENDBRANCH  23  24
ENDBRANCH  22  23
ENDBRANCH  21  22
ENDBRANCH  20  21
ENDBRANCH  19  20
ENDBRANCH  18  19
ENDBRANCH   1  18
TORSDOF 28
ENDMDL
MODEL 8
REMARK VINA RESULT:    28.301      0.976      2.410
REMARK INTER + INTRA:          73.969
REMARK INTER:                  75.577
REMARK INTRA:                  -1.608
REMARK UNBOUND:                -0.659
REMARK SMILES CCCCCCCCCCCCCCCCCCCCCCCCCCCCCC(=O)[O-]
REMARK SMILES IDX 16 1 17 2 18 3 19 4 20 5 21 6 22 7 23 8 24 9 25 10 26 11
REMARK SMILES IDX 27 12 28 13 29 14 30 15 31 16 32 17 15 18 14 19 13 20 12 21
REMARK SMILES IDX 11 22 10 23 9 24 8 25 7 26 6 27 5 28 4 29 3 30 2 31 1 32
REMARK H PARENT
REMARK Flexibility Score: inf
ROOT
ATOM      1  C   UNL     1      -1.246  19.804  21.308  1.00  0.00     0.000 C 
ENDROOT
BRANCH   1   2
ATOM      2  C   UNL     1      -0.747  18.728  20.327  1.00  0.00     0.000 C 
BRANCH   2   3
ATOM      3  C   UNL     1      -0.818  17.311  20.916  1.00  0.00     0.000 C 
BRANCH   3   4
ATOM      4  C   UNL     1      -0.056  16.277  20.067  1.00  0.00     0.000 C 
BRANCH   4   5
ATOM      5  C   UNL     1      -0.972  15.171  19.515  1.00  0.00     0.000 C 
BRANCH   5   6
ATOM      6  C   UNL     1      -0.481  14.512  18.211  1.00  0.00     0.000 C 
BRANCH   6   7
ATOM      7  C   UNL     1      -0.672  12.986  18.138  1.00  0.00     0.000 C 
BRANCH   7   8
ATOM      8  C   UNL     1      -1.056  12.368  19.490  1.00  0.00     0.000 C 
BRANCH   8   9
ATOM      9  C   UNL     1      -2.563  12.087  19.560  1.00  0.00     0.000 C 
BRANCH   9  10
ATOM     10  C   UNL     1      -3.409  13.370  19.524  1.00  0.00     0.000 C 
BRANCH  10  11
ATOM     11  C   UNL     1      -4.264  13.551  20.787  1.00  0.00     0.000 C 
BRANCH  11  12
ATOM     12  C   UNL     1      -4.094  14.962  21.370  1.00  0.00     0.000 C 
BRANCH  12  13
ATOM     13  C   UNL     1      -4.559  16.063  20.403  1.00  0.00     0.006 C 
BRANCH  13  14
ATOM     14  C   UNL     1      -5.643  16.963  21.010  1.00  0.00     0.053 C 
BRANCH  14  15
ATOM     15  C   UNL     1      -6.844  17.009  20.120  1.00  0.00     0.041 C 
ATOM     16  O   UNL     1      -7.056  18.020  19.398  1.00  0.00    -0.550 OA
ATOM     17  O   UNL     1      -7.751  15.956  20.118  1.00  0.00    -0.550 OA
ENDBRANCH  14  15
ENDBRANCH  13  14
ENDBRANCH  12  13
ENDBRANCH  11  12
ENDBRANCH  10  11
ENDBRANCH   9  10
ENDBRANCH   8   9
ENDBRANCH   7   8
ENDBRANCH   6   7
ENDBRANCH   5   6
ENDBRANCH   4   5
ENDBRANCH   3   4
ENDBRANCH   2   3
ENDBRANCH   1   2
BRANCH   1  18
ATOM     18  C   UNL     1      -0.120  20.763  21.753  1.00  0.00     0.000 C 
BRANCH  18  19
ATOM     19  C   UNL     1      -0.624  22.098  22.336  1.00  0.00     0.000 C 
BRANCH  19  20
ATOM     20  C   UNL     1      -2.132  22.156  22.642  1.00  0.00     0.000 C 
BRANCH  20  21
ATOM     21  C   UNL     1      -2.649  23.523  23.128  1.00  0.00     0.000 C 
BRANCH  21  22
ATOM     22  C   UNL     1      -2.212  24.687  22.228  1.00  0.00     0.000 C 
BRANCH  22  23
ATOM     23  C   UNL     1      -3.039  25.945  22.529  1.00  0.00     0.000 C 
BRANCH  23  24
ATOM     24  C   UNL     1      -3.674  26.565  21.272  1.00  0.00    -0.000 C 
BRANCH  24  25
ATOM     25  C   UNL     1      -2.913  26.293  19.962  1.00  0.00    -0.000 C 
BRANCH  25  26
ATOM     26  C   UNL     1      -3.046  27.439  18.944  1.00  0.00    -0.000 C 
BRANCH  26  27
ATOM     27  C   UNL     1      -4.498  27.951  18.828  1.00  0.00    -0.000 C 
BRANCH  27  28
ATOM     28  C   UNL     1      -4.683  29.398  19.313  1.00  0.00    -0.000 C 
BRANCH  28  29
ATOM     29  C   UNL     1      -3.587  29.843  20.296  1.00  0.00    -0.000 C 
BRANCH  29  30
ATOM     30  C   UNL     1      -2.478  30.658  19.612  1.00  0.00    -0.000 C 
BRANCH  30  31
ATOM     31  C   UNL     1      -1.074  30.294  20.120  1.00  0.00    -0.003 C 
ATOM     32  C   UNL     1      -1.104  29.935  21.604  1.00  0.00     0.004 C 
ENDBRANCH  30  31
ENDBRANCH  29  30
ENDBRANCH  28  29
ENDBRANCH  27  28
ENDBRANCH  26  27
ENDBRANCH  25  26
ENDBRANCH  24  25
ENDBRANCH  23  24
ENDBRANCH  22  23
ENDBRANCH  21  22
ENDBRANCH  20  21
ENDBRANCH  19  20
ENDBRANCH  18  19
ENDBRANCH   1  18
TORSDOF 28
ENDMDL
MODEL 9
REMARK VINA RESULT:    28.527      3.645     12.138
REMARK INTER + INTRA:          74.564
REMARK INTER:                  75.653
REMARK INTRA:                  -1.088
REMARK UNBOUND:                -0.659
REMARK SMILES CCCCCCCCCCCCCCCCCCCCCCCCCCCCCC(=O)[O-]
REMARK SMILES IDX 16 1 17 2 18 3 19 4 20 5 21 6 22 7 23 8 24 9 25 10 26 11
REMARK SMILES IDX 27 12 28 13 29 14 30 15 31 16 32 17 15 18 14 19 13 20 12 21
REMARK SMILES IDX 11 22 10 23 9 24 8 25 7 26 6 27 5 28 4 29 3 30 2 31 1 32
REMARK H PARENT
REMARK Flexibility Score: inf
ROOT
ATOM      1  C   UNL     1      -1.119  21.459  21.381  1.00  0.00     0.000 C 
ENDROOT
BRANCH   1   2
ATOM      2  C   UNL     1      -1.631  22.032  22.714  1.00  0.00     0.000 C 
BRANCH   2   3
ATOM      3  C   UNL     1      -1.091  23.441  22.999  1.00  0.00     0.000 C 
BRANCH   3   4
ATOM      4  C   UNL     1      -1.878  24.164  24.107  1.00  0.00     0.000 C 
BRANCH   4   5
ATOM      5  C   UNL     1      -1.584  25.674  24.156  1.00  0.00     0.000 C 
BRANCH   5   6
ATOM      6  C   UNL     1      -0.343  26.067  24.982  1.00  0.00     0.000 C 
BRANCH   6   7
ATOM      7  C   UNL     1       0.244  27.454  24.659  1.00  0.00     0.000 C 
BRANCH   7   8
ATOM      8  C   UNL     1      -0.699  28.604  25.039  1.00  0.00     0.000 C 
BRANCH   8   9
ATOM      9  C   UNL     1      -0.678  29.710  23.976  1.00  0.00     0.000 C 
BRANCH   9  10
ATOM     10  C   UNL     1      -1.401  29.303  22.681  1.00  0.00     0.000 C 
BRANCH  10  11
ATOM     11  C   UNL     1      -0.684  29.805  21.419  1.00  0.00     0.000 C 
BRANCH  11  12
ATOM     12  C   UNL     1      -1.675  29.990  20.260  1.00  0.00     0.000 C 
BRANCH  12  13
ATOM     13  C   UNL     1      -3.119  29.638  20.652  1.00  0.00     0.006 C 
BRANCH  13  14
ATOM     14  C   UNL     1      -3.387  28.128  20.624  1.00  0.00     0.053 C 
BRANCH  14  15
ATOM     15  C   UNL     1      -3.667  27.670  19.228  1.00  0.00     0.041 C 
ATOM     16  O   UNL     1      -2.755  27.135  18.544  1.00  0.00    -0.550 OA
ATOM     17  O   UNL     1      -4.923  27.873  18.667  1.00  0.00    -0.550 OA
ENDBRANCH  14  15
ENDBRANCH  13  14
ENDBRANCH  12  13
ENDBRANCH  11  12
ENDBRANCH  10  11
ENDBRANCH   9  10
ENDBRANCH   8   9
ENDBRANCH   7   8
ENDBRANCH   6   7
ENDBRANCH   5   6
ENDBRANCH   4   5
ENDBRANCH   3   4
ENDBRANCH   2   3
ENDBRANCH   1   2
BRANCH   1  18
ATOM     18  C   UNL     1      -0.404  20.100  21.559  1.00  0.00     0.000 C 
BRANCH  18  19
ATOM     19  C   UNL     1      -1.080  18.932  20.816  1.00  0.00     0.000 C 
BRANCH  19  20
ATOM     20  C   UNL     1      -0.159  17.744  20.481  1.00  0.00     0.000 C 
BRANCH  20  21
ATOM     21  C   UNL     1      -0.872  16.508  19.900  1.00  0.00     0.000 C 
BRANCH  21  22
ATOM     22  C   UNL     1      -0.077  15.208  20.089  1.00  0.00     0.000 C 
BRANCH  22  23
ATOM     23  C   UNL     1       0.156  14.514  18.740  1.00  0.00     0.000 C 
BRANCH  23  24
ATOM     24  C   UNL     1      -0.994  13.573  18.339  1.00  0.00    -0.000 C 
BRANCH  24  25
ATOM     25  C   UNL     1      -2.368  13.942  18.930  1.00  0.00    -0.000 C 
BRANCH  25  26
ATOM     26  C   UNL     1      -2.872  12.914  19.957  1.00  0.00    -0.000 C 
BRANCH  26  27
ATOM     27  C   UNL     1      -4.120  13.413  20.717  1.00  0.00    -0.000 C 
BRANCH  27  28
ATOM     28  C   UNL     1      -4.177  14.942  20.873  1.00  0.00    -0.000 C 
BRANCH  28  29
ATOM     29  C   UNL     1      -5.612  15.492  20.831  1.00  0.00    -0.000 C 
BRANCH  29  30
ATOM     30  C   UNL     1      -5.653  17.019  20.649  1.00  0.00    -0.000 C 
BRANCH  30  31
ATOM     31  C   UNL     1      -6.918  17.495  19.917  1.00  0.00    -0.003 C 
ATOM     32  C   UNL     1      -8.061  16.499  20.093  1.00  0.00     0.004 C 
ENDBRANCH  30  31
ENDBRANCH  29  30
ENDBRANCH  28  29
ENDBRANCH  27  28
ENDBRANCH  26  27
ENDBRANCH  25  26
ENDBRANCH  24  25
ENDBRANCH  23  24
ENDBRANCH  22  23
ENDBRANCH  21  22
ENDBRANCH  20  21
ENDBRANCH  19  20
ENDBRANCH  18  19
ENDBRANCH   1  18
TORSDOF 28
ENDMDL
