MODEL 1
REMARK VINA RESULT:    -7.555      0.000      0.000
REMARK INTER + INTRA:          -8.694
REMARK INTER:                  -9.101
REMARK INTRA:                   0.407
REMARK UNBOUND:                 0.407
REMARK SMILES O=c1c(O)c(-c2ccc(O)c(O)c2)oc2cc(O)cc(O)c12
REMARK SMILES IDX 5 1 3 2 2 3 1 4 22 5 20 6 19 7 17 8 16 9 15 10 14 11 6 12
REMARK SMILES IDX 7 13 8 14 9 15 13 16 11 17 10 18 12 20 4 22 21 24 18 26
REMARK H PARENT 10 19 12 21 4 23 21 25 18 27
REMARK Flexibility Score: inf
ROOT
ATOM      1  C   UNL     1     -17.246 -10.957 -10.416  1.00  0.00     0.180 A 
ATOM      2  C   UNL     1     -16.121 -11.798 -10.485  1.00  0.00     0.208 A 
ATOM      3  C   UNL     1     -15.083 -11.624  -9.557  1.00  0.00     0.238 A 
ATOM      4  O   UNL     1     -14.055 -12.344  -9.657  1.00  0.00    -0.285 OA
ATOM      5  C   UNL     1     -15.187 -10.623  -8.561  1.00  0.00     0.111 A 
ATOM      6  C   UNL     1     -14.214 -10.384  -7.544  1.00  0.00     0.134 A 
ATOM      7  C   UNL     1     -14.361  -9.284  -6.692  1.00  0.00     0.093 A 
ATOM      8  C   UNL     1     -15.479  -8.451  -6.777  1.00  0.00     0.123 A 
ATOM      9  C   UNL     1     -16.465  -8.710  -7.727  1.00  0.00     0.094 A 
ATOM     10  C   UNL     1     -16.328  -9.779  -8.615  1.00  0.00     0.146 A 
ATOM     11  O   UNL     1     -17.285  -9.985  -9.513  1.00  0.00    -0.452 OA
ENDROOT
BRANCH   1  12
ATOM     12  C   UNL     1     -18.391 -11.095 -11.344  1.00  0.00     0.025 A 
ATOM     13  C   UNL     1     -18.560 -12.247 -12.132  1.00  0.00     0.016 A 
ATOM     14  C   UNL     1     -19.662 -12.367 -12.982  1.00  0.00     0.051 A 
ATOM     15  C   UNL     1     -20.618 -11.345 -13.049  1.00  0.00     0.157 A 
ATOM     16  C   UNL     1     -19.363 -10.083 -11.399  1.00  0.00     0.062 A 
ATOM     17  C   UNL     1     -20.468 -10.199 -12.250  1.00  0.00     0.158 A 
BRANCH  15  18
ATOM     18  O   UNL     1     -21.715 -11.466 -13.900  1.00  0.00    -0.504 OA
ATOM     19  H   UNL     1     -22.504 -12.057 -13.666  1.00  0.00     0.293 HD
ENDBRANCH  15  18
BRANCH  17  20
ATOM     20  O   UNL     1     -21.405  -9.167 -12.288  1.00  0.00    -0.504 OA
ATOM     21  H   UNL     1     -21.630  -8.613 -11.470  1.00  0.00     0.293 HD
ENDBRANCH  17  20
ENDBRANCH   1  12
BRANCH   2  22
ATOM     22  O   UNL     1     -16.028 -12.765 -11.489  1.00  0.00    -0.502 OA
ATOM     23  H   UNL     1     -15.283 -12.766 -12.177  1.00  0.00     0.293 HD
ENDBRANCH   2  22
BRANCH   6  24
ATOM     24  O   UNL     1     -13.109 -11.209  -7.315  1.00  0.00    -0.507 OA
ATOM     25  H   UNL     1     -12.843 -11.577  -6.414  1.00  0.00     0.293 HD
ENDBRANCH   6  24
BRANCH   8  26
ATOM     26  O   UNL     1     -15.625  -7.366  -5.914  1.00  0.00    -0.508 OA
ATOM     27  H   UNL     1     -15.803  -6.432  -6.263  1.00  0.00     0.293 HD
ENDBRANCH   8  26
TORSDOF 6
ENDMDL
MODEL 2
REMARK VINA RESULT:    -5.893     11.871     13.269
REMARK INTER + INTRA:          -6.692
REMARK INTER:                  -6.395
REMARK INTRA:                  -0.297
REMARK UNBOUND:                 0.407
REMARK SMILES O=c1c(O)c(-c2ccc(O)c(O)c2)oc2cc(O)cc(O)c12
REMARK SMILES IDX 5 1 3 2 2 3 1 4 22 5 20 6 19 7 17 8 16 9 15 10 14 11 6 12
REMARK SMILES IDX 7 13 8 14 9 15 13 16 11 17 10 18 12 20 4 22 21 24 18 26
REMARK H PARENT 10 19 12 21 4 23 21 25 18 27
REMARK Flexibility Score: inf
ROOT
ATOM      1  C   UNL     1      -5.606 -15.693 -12.395  1.00  0.00     0.180 A 
ATOM      2  C   UNL     1      -5.481 -14.435 -11.777  1.00  0.00     0.208 A 
ATOM      3  C   UNL     1      -5.048 -14.372 -10.444  1.00  0.00     0.238 A 
ATOM      4  O   UNL     1      -4.989 -13.248  -9.880  1.00  0.00    -0.285 OA
ATOM      5  C   UNL     1      -4.729 -15.564  -9.748  1.00  0.00     0.111 A 
ATOM      6  C   UNL     1      -4.242 -15.615  -8.408  1.00  0.00     0.134 A 
ATOM      7  C   UNL     1      -4.084 -16.855  -7.778  1.00  0.00     0.093 A 
ATOM      8  C   UNL     1      -4.334 -18.048  -8.461  1.00  0.00     0.123 A 
ATOM      9  C   UNL     1      -4.753 -18.010  -9.789  1.00  0.00     0.094 A 
ATOM     10  C   UNL     1      -4.954 -16.787 -10.434  1.00  0.00     0.146 A 
ATOM     11  O   UNL     1      -5.364 -16.795 -11.697  1.00  0.00    -0.452 OA
ENDROOT
BRANCH   1  12
ATOM     12  C   UNL     1      -6.034 -15.838 -13.805  1.00  0.00     0.025 A 
ATOM     13  C   UNL     1      -5.103 -16.078 -14.831  1.00  0.00     0.016 A 
ATOM     14  C   UNL     1      -5.532 -16.237 -16.151  1.00  0.00     0.051 A 
ATOM     15  C   UNL     1      -6.896 -16.172 -16.464  1.00  0.00     0.157 A 
ATOM     16  C   UNL     1      -7.401 -15.796 -14.121  1.00  0.00     0.062 A 
ATOM     17  C   UNL     1      -7.834 -15.953 -15.442  1.00  0.00     0.158 A 
BRANCH  15  18
ATOM     18  O   UNL     1      -7.321 -16.329 -17.783  1.00  0.00    -0.504 OA
ATOM     19  H   UNL     1      -8.093 -15.791 -18.159  1.00  0.00     0.293 HD
ENDBRANCH  15  18
BRANCH  17  20
ATOM     20  O   UNL     1      -9.200 -15.890 -15.719  1.00  0.00    -0.504 OA
ATOM     21  H   UNL     1      -9.576 -15.287 -16.441  1.00  0.00     0.293 HD
ENDBRANCH  17  20
ENDBRANCH   1  12
BRANCH   2  22
ATOM     22  O   UNL     1      -5.821 -13.273 -12.474  1.00  0.00    -0.502 OA
ATOM     23  H   UNL     1      -6.480 -12.593 -12.111  1.00  0.00     0.293 HD
ENDBRANCH   2  22
BRANCH   6  24
ATOM     24  O   UNL     1      -3.876 -14.488  -7.668  1.00  0.00    -0.507 OA
ATOM     25  H   UNL     1      -4.519 -13.892  -7.169  1.00  0.00     0.293 HD
ENDBRANCH   6  24
BRANCH   8  26
ATOM     26  O   UNL     1      -4.159 -19.278  -7.831  1.00  0.00    -0.508 OA
ATOM     27  H   UNL     1      -4.363 -20.150  -8.304  1.00  0.00     0.293 HD
ENDBRANCH   8  26
TORSDOF 6
ENDMDL
MODEL 3
REMARK VINA RESULT:    -5.756     12.202     13.293
REMARK INTER + INTRA:          -6.527
REMARK INTER:                  -6.448
REMARK INTRA:                  -0.079
REMARK UNBOUND:                 0.407
REMARK SMILES O=c1c(O)c(-c2ccc(O)c(O)c2)oc2cc(O)cc(O)c12
REMARK SMILES IDX 5 1 3 2 2 3 1 4 22 5 20 6 19 7 17 8 16 9 15 10 14 11 6 12
REMARK SMILES IDX 7 13 8 14 9 15 13 16 11 17 10 18 12 20 4 22 21 24 18 26
REMARK H PARENT 10 19 12 21 4 23 21 25 18 27
REMARK Flexibility Score: inf
ROOT
ATOM      1  C   UNL     1      -5.608 -16.016 -13.046  1.00  0.00     0.180 A 
ATOM      2  C   UNL     1      -5.526 -17.420 -13.041  1.00  0.00     0.208 A 
ATOM      3  C   UNL     1      -5.166 -18.076 -11.853  1.00  0.00     0.238 A 
ATOM      4  O   UNL     1      -5.042 -19.329 -11.868  1.00  0.00    -0.285 OA
ATOM      5  C   UNL     1      -4.908 -17.323 -10.682  1.00  0.00     0.111 A 
ATOM      6  C   UNL     1      -4.575 -17.886  -9.413  1.00  0.00     0.134 A 
ATOM      7  C   UNL     1      -4.214 -17.041  -8.357  1.00  0.00     0.093 A 
ATOM      8  C   UNL     1      -4.236 -15.652  -8.505  1.00  0.00     0.123 A 
ATOM      9  C   UNL     1      -4.618 -15.092  -9.722  1.00  0.00     0.094 A 
ATOM     10  C   UNL     1      -4.949 -15.910 -10.805  1.00  0.00     0.146 A 
ATOM     11  O   UNL     1      -5.296 -15.335 -11.951  1.00  0.00    -0.452 OA
ENDROOT
BRANCH   1  12
ATOM     12  C   UNL     1      -6.005 -15.255 -14.253  1.00  0.00     0.025 A 
ATOM     13  C   UNL     1      -5.146 -14.308 -14.837  1.00  0.00     0.016 A 
ATOM     14  C   UNL     1      -5.532 -13.621 -15.990  1.00  0.00     0.051 A 
ATOM     15  C   UNL     1      -6.774 -13.877 -16.585  1.00  0.00     0.157 A 
ATOM     16  C   UNL     1      -7.240 -15.525 -14.865  1.00  0.00     0.062 A 
ATOM     17  C   UNL     1      -7.631 -14.837 -16.020  1.00  0.00     0.158 A 
BRANCH  15  18
ATOM     18  O   UNL     1      -7.157 -13.188 -17.735  1.00  0.00    -0.504 OA
ATOM     19  H   UNL     1      -6.739 -12.301 -17.985  1.00  0.00     0.293 HD
ENDBRANCH  15  18
BRANCH  17  20
ATOM     20  O   UNL     1      -8.871 -15.121 -16.591  1.00  0.00    -0.504 OA
ATOM     21  H   UNL     1      -8.986 -15.260 -17.588  1.00  0.00     0.293 HD
ENDBRANCH  17  20
ENDBRANCH   1  12
BRANCH   2  22
ATOM     22  O   UNL     1      -5.764 -18.143 -14.213  1.00  0.00    -0.502 OA
ATOM     23  H   UNL     1      -5.385 -17.864 -15.111  1.00  0.00     0.293 HD
ENDBRANCH   2  22
BRANCH   6  24
ATOM     24  O   UNL     1      -4.611 -19.255  -9.134  1.00  0.00    -0.507 OA
ATOM     25  H   UNL     1      -5.433 -19.835  -9.206  1.00  0.00     0.293 HD
ENDBRANCH   6  24
BRANCH   8  26
ATOM     26  O   UNL     1      -3.890 -14.819  -7.443  1.00  0.00    -0.508 OA
ATOM     27  H   UNL     1      -3.518 -13.889  -7.599  1.00  0.00     0.293 HD
ENDBRANCH   8  26
TORSDOF 6
ENDMDL
MODEL 4
REMARK VINA RESULT:    -5.662     12.240     13.498
REMARK INTER + INTRA:          -6.414
REMARK INTER:                  -6.170
REMARK INTRA:                  -0.244
REMARK UNBOUND:                 0.407
REMARK SMILES O=c1c(O)c(-c2ccc(O)c(O)c2)oc2cc(O)cc(O)c12
REMARK SMILES IDX 5 1 3 2 2 3 1 4 22 5 20 6 19 7 17 8 16 9 15 10 14 11 6 12
REMARK SMILES IDX 7 13 8 14 9 15 13 16 11 17 10 18 12 20 4 22 21 24 18 26
REMARK H PARENT 10 19 12 21 4 23 21 25 18 27
REMARK Flexibility Score: inf
ROOT
ATOM      1  C   UNL     1      -5.123 -14.713 -12.392  1.00  0.00     0.180 A 
ATOM      2  C   UNL     1      -4.934 -13.711 -11.423  1.00  0.00     0.208 A 
ATOM      3  C   UNL     1      -4.668 -14.088 -10.097  1.00  0.00     0.238 A 
ATOM      4  O   UNL     1      -4.553 -13.188  -9.224  1.00  0.00    -0.285 OA
ATOM      5  C   UNL     1      -4.578 -15.460  -9.758  1.00  0.00     0.111 A 
ATOM      6  C   UNL     1      -4.273 -15.956  -8.455  1.00  0.00     0.134 A 
ATOM      7  C   UNL     1      -4.338 -17.332  -8.207  1.00  0.00     0.093 A 
ATOM      8  C   UNL     1      -4.634 -18.235  -9.230  1.00  0.00     0.123 A 
ATOM      9  C   UNL     1      -4.875 -17.766 -10.520  1.00  0.00     0.094 A 
ATOM     10  C   UNL     1      -4.852 -16.395 -10.790  1.00  0.00     0.146 A 
ATOM     11  O   UNL     1      -5.098 -15.989 -12.030  1.00  0.00    -0.452 OA
ENDROOT
BRANCH   1  12
ATOM     12  C   UNL     1      -5.383 -14.393 -13.814  1.00  0.00     0.025 A 
ATOM     13  C   UNL     1      -4.381 -13.849 -14.637  1.00  0.00     0.016 A 
ATOM     14  C   UNL     1      -4.642 -13.580 -15.983  1.00  0.00     0.051 A 
ATOM     15  C   UNL     1      -5.901 -13.860 -16.529  1.00  0.00     0.157 A 
ATOM     16  C   UNL     1      -6.636 -14.692 -14.372  1.00  0.00     0.062 A 
ATOM     17  C   UNL     1      -6.901 -14.422 -15.719  1.00  0.00     0.158 A 
BRANCH  15  18
ATOM     18  O   UNL     1      -6.159 -13.588 -17.872  1.00  0.00    -0.504 OA
ATOM     19  H   UNL     1      -6.023 -14.288 -18.591  1.00  0.00     0.293 HD
ENDBRANCH  15  18
BRANCH  17  20
ATOM     20  O   UNL     1      -8.163 -14.720 -16.234  1.00  0.00    -0.504 OA
ATOM     21  H   UNL     1      -8.830 -15.290 -15.728  1.00  0.00     0.293 HD
ENDBRANCH  17  20
ENDBRANCH   1  12
BRANCH   2  22
ATOM     22  O   UNL     1      -5.048 -12.363 -11.773  1.00  0.00    -0.502 OA
ATOM     23  H   UNL     1      -4.263 -11.724 -11.740  1.00  0.00     0.293 HD
ENDBRANCH   2  22
BRANCH   6  24
ATOM     24  O   UNL     1      -3.876 -15.146  -7.387  1.00  0.00    -0.507 OA
ATOM     25  H   UNL     1      -2.920 -14.997  -7.102  1.00  0.00     0.293 HD
ENDBRANCH   6  24
BRANCH   8  26
ATOM     26  O   UNL     1      -4.682 -19.605  -8.978  1.00  0.00    -0.508 OA
ATOM     27  H   UNL     1      -5.366 -20.004  -8.346  1.00  0.00     0.293 HD
ENDBRANCH   8  26
TORSDOF 6
ENDMDL
MODEL 5
REMARK VINA RESULT:    -5.579     11.049     13.910
REMARK INTER + INTRA:          -6.314
REMARK INTER:                  -6.047
REMARK INTRA:                  -0.267
REMARK UNBOUND:                 0.407
REMARK SMILES O=c1c(O)c(-c2ccc(O)c(O)c2)oc2cc(O)cc(O)c12
REMARK SMILES IDX 5 1 3 2 2 3 1 4 22 5 20 6 19 7 17 8 16 9 15 10 14 11 6 12
REMARK SMILES IDX 7 13 8 14 9 15 13 16 11 17 10 18 12 20 4 22 21 24 18 26
REMARK H PARENT 10 19 12 21 4 23 21 25 18 27
REMARK Flexibility Score: inf
ROOT
ATOM      1  C   UNL     1      -5.102 -14.392 -10.710  1.00  0.00     0.180 A 
ATOM      2  C   UNL     1      -4.849 -15.464  -9.835  1.00  0.00     0.208 A 
ATOM      3  C   UNL     1      -4.852 -16.773 -10.344  1.00  0.00     0.238 A 
ATOM      4  O   UNL     1      -4.677 -17.732  -9.548  1.00  0.00    -0.285 OA
ATOM      5  C   UNL     1      -5.091 -16.993 -11.722  1.00  0.00     0.111 A 
ATOM      6  C   UNL     1      -5.077 -18.273 -12.353  1.00  0.00     0.134 A 
ATOM      7  C   UNL     1      -5.456 -18.385 -13.697  1.00  0.00     0.093 A 
ATOM      8  C   UNL     1      -5.785 -17.255 -14.449  1.00  0.00     0.123 A 
ATOM      9  C   UNL     1      -5.744 -15.994 -13.858  1.00  0.00     0.094 A 
ATOM     10  C   UNL     1      -5.405 -15.854 -12.510  1.00  0.00     0.146 A 
ATOM     11  O   UNL     1      -5.389 -14.636 -11.982  1.00  0.00    -0.452 OA
ENDROOT
BRANCH   1  12
ATOM     12  C   UNL     1      -5.092 -12.984 -10.252  1.00  0.00     0.025 A 
ATOM     13  C   UNL     1      -3.890 -12.323  -9.943  1.00  0.00     0.016 A 
ATOM     14  C   UNL     1      -3.903 -10.987  -9.538  1.00  0.00     0.051 A 
ATOM     15  C   UNL     1      -5.113 -10.286  -9.447  1.00  0.00     0.157 A 
ATOM     16  C   UNL     1      -6.300 -12.272 -10.180  1.00  0.00     0.062 A 
ATOM     17  C   UNL     1      -6.317 -10.933  -9.773  1.00  0.00     0.158 A 
BRANCH  15  18
ATOM     18  O   UNL     1      -5.123  -8.953  -9.040  1.00  0.00    -0.504 OA
ATOM     19  H   UNL     1      -5.819  -8.601  -8.393  1.00  0.00     0.293 HD
ENDBRANCH  15  18
BRANCH  17  20
ATOM     20  O   UNL     1      -7.538 -10.263  -9.699  1.00  0.00    -0.504 OA
ATOM     21  H   UNL     1      -7.685  -9.361 -10.138  1.00  0.00     0.293 HD
ENDBRANCH  17  20
ENDBRANCH   1  12
BRANCH   2  22
ATOM     22  O   UNL     1      -4.636 -15.227  -8.475  1.00  0.00    -0.502 OA
ATOM     23  H   UNL     1      -4.323 -15.951  -7.838  1.00  0.00     0.293 HD
ENDBRANCH   2  22
BRANCH   6  24
ATOM     24  O   UNL     1      -4.675 -19.451 -11.718  1.00  0.00    -0.507 OA
ATOM     25  H   UNL     1      -4.217 -20.225 -12.176  1.00  0.00     0.293 HD
ENDBRANCH   6  24
BRANCH   8  26
ATOM     26  O   UNL     1      -6.146 -17.374 -15.789  1.00  0.00    -0.508 OA
ATOM     27  H   UNL     1      -5.454 -17.523 -16.514  1.00  0.00     0.293 HD
ENDBRANCH   8  26
TORSDOF 6
ENDMDL
MODEL 6
REMARK VINA RESULT:    -5.578     11.718     12.746
REMARK INTER + INTRA:          -6.313
REMARK INTER:                  -6.251
REMARK INTRA:                  -0.062
REMARK UNBOUND:                 0.407
REMARK SMILES O=c1c(O)c(-c2ccc(O)c(O)c2)oc2cc(O)cc(O)c12
REMARK SMILES IDX 5 1 3 2 2 3 1 4 22 5 20 6 19 7 17 8 16 9 15 10 14 11 6 12
REMARK SMILES IDX 7 13 8 14 9 15 13 16 11 17 10 18 12 20 4 22 21 24 18 26
REMARK H PARENT 10 19 12 21 4 23 21 25 18 27
REMARK Flexibility Score: inf
ROOT
ATOM      1  C   UNL     1      -5.844 -15.971 -13.033  1.00  0.00     0.180 A 
ATOM      2  C   UNL     1      -5.445 -16.964 -12.120  1.00  0.00     0.208 A 
ATOM      3  C   UNL     1      -4.963 -16.575 -10.860  1.00  0.00     0.238 A 
ATOM      4  O   UNL     1      -4.557 -17.465 -10.067  1.00  0.00    -0.285 OA
ATOM      5  C   UNL     1      -4.901 -15.202 -10.521  1.00  0.00     0.111 A 
ATOM      6  C   UNL     1      -4.468 -14.696  -9.258  1.00  0.00     0.134 A 
ATOM      7  C   UNL     1      -4.324 -13.315  -9.080  1.00  0.00     0.093 A 
ATOM      8  C   UNL     1      -4.659 -12.419 -10.097  1.00  0.00     0.123 A 
ATOM      9  C   UNL     1      -5.139 -12.899 -11.313  1.00  0.00     0.094 A 
ATOM     10  C   UNL     1      -5.260 -14.274 -11.534  1.00  0.00     0.146 A 
ATOM     11  O   UNL     1      -5.711 -14.690 -12.711  1.00  0.00    -0.452 OA
ENDROOT
BRANCH   1  12
ATOM     12  C   UNL     1      -6.385 -16.303 -14.371  1.00  0.00     0.025 A 
ATOM     13  C   UNL     1      -5.657 -17.092 -15.279  1.00  0.00     0.016 A 
ATOM     14  C   UNL     1      -6.198 -17.414 -16.526  1.00  0.00     0.051 A 
ATOM     15  C   UNL     1      -7.478 -16.965 -16.879  1.00  0.00     0.157 A 
ATOM     16  C   UNL     1      -7.675 -15.874 -14.720  1.00  0.00     0.062 A 
ATOM     17  C   UNL     1      -8.220 -16.193 -15.969  1.00  0.00     0.158 A 
BRANCH  15  18
ATOM     18  O   UNL     1      -8.014 -17.286 -18.125  1.00  0.00    -0.504 OA
ATOM     19  H   UNL     1      -8.173 -16.578 -18.833  1.00  0.00     0.293 HD
ENDBRANCH  15  18
BRANCH  17  20
ATOM     20  O   UNL     1      -9.499 -15.736 -16.287  1.00  0.00    -0.504 OA
ATOM     21  H   UNL     1      -9.970 -16.006 -17.143  1.00  0.00     0.293 HD
ENDBRANCH  17  20
ENDBRANCH   1  12
BRANCH   2  22
ATOM     22  O   UNL     1      -5.494 -18.312 -12.482  1.00  0.00    -0.502 OA
ATOM     23  H   UNL     1      -4.666 -18.895 -12.524  1.00  0.00     0.293 HD
ENDBRANCH   2  22
BRANCH   6  24
ATOM     24  O   UNL     1      -4.196 -15.501  -8.148  1.00  0.00    -0.507 OA
ATOM     25  H   UNL     1      -3.799 -16.427  -8.192  1.00  0.00     0.293 HD
ENDBRANCH   6  24
BRANCH   8  26
ATOM     26  O   UNL     1      -4.527 -11.045  -9.905  1.00  0.00    -0.508 OA
ATOM     27  H   UNL     1      -4.085 -10.665  -9.076  1.00  0.00     0.293 HD
ENDBRANCH   8  26
TORSDOF 6
ENDMDL
MODEL 7
REMARK VINA RESULT:    -5.501     12.265     14.738
REMARK INTER + INTRA:          -6.220
REMARK INTER:                  -6.072
REMARK INTRA:                  -0.147
REMARK UNBOUND:                 0.407
REMARK SMILES O=c1c(O)c(-c2ccc(O)c(O)c2)oc2cc(O)cc(O)c12
REMARK SMILES IDX 5 1 3 2 2 3 1 4 22 5 20 6 19 7 17 8 16 9 15 10 14 11 6 12
REMARK SMILES IDX 7 13 8 14 9 15 13 16 11 17 10 18 12 20 4 22 21 24 18 26
REMARK H PARENT 10 19 12 21 4 23 21 25 18 27
REMARK Flexibility Score: inf
ROOT
ATOM      1  C   UNL     1      -6.693 -17.849 -15.461  1.00  0.00     0.180 A 
ATOM      2  C   UNL     1      -7.517 -18.770 -16.132  1.00  0.00     0.208 A 
ATOM      3  C   UNL     1      -7.498 -20.116 -15.733  1.00  0.00     0.238 A 
ATOM      4  O   UNL     1      -8.197 -20.946 -16.372  1.00  0.00    -0.285 OA
ATOM      5  C   UNL     1      -6.669 -20.522 -14.660  1.00  0.00     0.111 A 
ATOM      6  C   UNL     1      -6.600 -21.852 -14.145  1.00  0.00     0.134 A 
ATOM      7  C   UNL     1      -5.649 -22.165 -13.167  1.00  0.00     0.093 A 
ATOM      8  C   UNL     1      -4.809 -21.183 -12.638  1.00  0.00     0.123 A 
ATOM      9  C   UNL     1      -4.909 -19.869 -13.091  1.00  0.00     0.094 A 
ATOM     10  C   UNL     1      -5.823 -19.533 -14.092  1.00  0.00     0.146 A 
ATOM     11  O   UNL     1      -5.878 -18.271 -14.503  1.00  0.00    -0.452 OA
ENDROOT
BRANCH   1  12
ATOM     12  C   UNL     1      -6.677 -16.409 -15.809  1.00  0.00     0.025 A 
ATOM     13  C   UNL     1      -6.253 -15.966 -17.074  1.00  0.00     0.016 A 
ATOM     14  C   UNL     1      -6.271 -14.605 -17.388  1.00  0.00     0.051 A 
ATOM     15  C   UNL     1      -6.722 -13.668 -16.449  1.00  0.00     0.157 A 
ATOM     16  C   UNL     1      -7.149 -15.468 -14.879  1.00  0.00     0.062 A 
ATOM     17  C   UNL     1      -7.166 -14.104 -15.190  1.00  0.00     0.158 A 
BRANCH  15  18
ATOM     18  O   UNL     1      -6.736 -12.310 -16.765  1.00  0.00    -0.504 OA
ATOM     19  H   UNL     1      -7.590 -11.767 -16.730  1.00  0.00     0.293 HD
ENDBRANCH  15  18
BRANCH  17  20
ATOM     20  O   UNL     1      -7.629 -13.198 -14.236  1.00  0.00    -0.504 OA
ATOM     21  H   UNL     1      -7.721 -12.209 -14.432  1.00  0.00     0.293 HD
ENDBRANCH  17  20
ENDBRANCH   1  12
BRANCH   2  22
ATOM     22  O   UNL     1      -8.311 -18.353 -17.203  1.00  0.00    -0.502 OA
ATOM     23  H   UNL     1      -8.362 -17.385 -17.499  1.00  0.00     0.293 HD
ENDBRANCH   2  22
BRANCH   6  24
ATOM     24  O   UNL     1      -7.456 -22.885 -14.539  1.00  0.00    -0.507 OA
ATOM     25  H   UNL     1      -7.883 -23.548 -13.911  1.00  0.00     0.293 HD
ENDBRANCH   6  24
BRANCH   8  26
ATOM     26  O   UNL     1      -3.876 -21.501 -11.653  1.00  0.00    -0.508 OA
ATOM     27  H   UNL     1      -2.883 -21.527 -11.852  1.00  0.00     0.293 HD
ENDBRANCH   8  26
TORSDOF 6
ENDMDL
MODEL 8
REMARK VINA RESULT:    -5.449     12.643     14.567
REMARK INTER + INTRA:          -6.157
REMARK INTER:                  -6.344
REMARK INTRA:                   0.187
REMARK UNBOUND:                 0.407
REMARK SMILES O=c1c(O)c(-c2ccc(O)c(O)c2)oc2cc(O)cc(O)c12
REMARK SMILES IDX 5 1 3 2 2 3 1 4 22 5 20 6 19 7 17 8 16 9 15 10 14 11 6 12
REMARK SMILES IDX 7 13 8 14 9 15 13 16 11 17 10 18 12 20 4 22 21 24 18 26
REMARK H PARENT 10 19 12 21 4 23 21 25 18 27
REMARK Flexibility Score: inf
ROOT
ATOM      1  C   UNL     1      -5.854 -15.554 -13.163  1.00  0.00     0.180 A 
ATOM      2  C   UNL     1      -5.667 -14.385 -13.921  1.00  0.00     0.208 A 
ATOM      3  C   UNL     1      -6.131 -14.351 -15.246  1.00  0.00     0.238 A 
ATOM      4  O   UNL     1      -5.914 -13.321 -15.936  1.00  0.00    -0.285 OA
ATOM      5  C   UNL     1      -6.788 -15.480 -15.792  1.00  0.00     0.111 A 
ATOM      6  C   UNL     1      -7.334 -15.542 -17.109  1.00  0.00     0.134 A 
ATOM      7  C   UNL     1      -7.847 -16.753 -17.587  1.00  0.00     0.093 A 
ATOM      8  C   UNL     1      -7.894 -17.888 -16.774  1.00  0.00     0.123 A 
ATOM      9  C   UNL     1      -7.418 -17.821 -15.466  1.00  0.00     0.094 A 
ATOM     10  C   UNL     1      -6.867 -16.636 -14.972  1.00  0.00     0.146 A 
ATOM     11  O   UNL     1      -6.415 -16.619 -13.724  1.00  0.00    -0.452 OA
ENDROOT
BRANCH   1  12
ATOM     12  C   UNL     1      -5.415 -15.657 -11.752  1.00  0.00     0.025 A 
ATOM     13  C   UNL     1      -5.456 -14.547 -10.890  1.00  0.00     0.016 A 
ATOM     14  C   UNL     1      -5.061 -14.674  -9.556  1.00  0.00     0.051 A 
ATOM     15  C   UNL     1      -4.631 -15.912  -9.060  1.00  0.00     0.157 A 
ATOM     16  C   UNL     1      -5.005 -16.900 -11.245  1.00  0.00     0.062 A 
ATOM     17  C   UNL     1      -4.607 -17.030  -9.909  1.00  0.00     0.158 A 
BRANCH  15  18
ATOM     18  O   UNL     1      -4.236 -16.034  -7.729  1.00  0.00    -0.504 OA
ATOM     19  H   UNL     1      -4.118 -15.223  -7.134  1.00  0.00     0.293 HD
ENDBRANCH  15  18
BRANCH  17  20
ATOM     20  O   UNL     1      -4.191 -18.278  -9.445  1.00  0.00    -0.504 OA
ATOM     21  H   UNL     1      -4.611 -18.719  -8.635  1.00  0.00     0.293 HD
ENDBRANCH  17  20
ENDBRANCH   1  12
BRANCH   2  22
ATOM     22  O   UNL     1      -4.997 -13.290 -13.370  1.00  0.00    -0.502 OA
ATOM     23  H   UNL     1      -5.462 -12.412 -13.167  1.00  0.00     0.293 HD
ENDBRANCH   2  22
BRANCH   6  24
ATOM     24  O   UNL     1      -7.421 -14.444 -17.970  1.00  0.00    -0.507 OA
ATOM     25  H   UNL     1      -7.952 -14.425 -18.827  1.00  0.00     0.293 HD
ENDBRANCH   6  24
BRANCH   8  26
ATOM     26  O   UNL     1      -8.420 -19.085 -17.253  1.00  0.00    -0.508 OA
ATOM     27  H   UNL     1      -8.224 -19.970 -16.800  1.00  0.00     0.293 HD
ENDBRANCH   8  26
TORSDOF 6
ENDMDL
MODEL 9
REMARK VINA RESULT:    -5.368     12.687     14.819
REMARK INTER + INTRA:          -6.060
REMARK INTER:                  -5.737
REMARK INTRA:                  -0.323
REMARK UNBOUND:                 0.407
REMARK SMILES O=c1c(O)c(-c2ccc(O)c(O)c2)oc2cc(O)cc(O)c12
REMARK SMILES IDX 5 1 3 2 2 3 1 4 22 5 20 6 19 7 17 8 16 9 15 10 14 11 6 12
REMARK SMILES IDX 7 13 8 14 9 15 13 16 11 17 10 18 12 20 4 22 21 24 18 26
REMARK H PARENT 10 19 12 21 4 23 21 25 18 27
REMARK Flexibility Score: inf
ROOT
ATOM      1  C   UNL     1      -5.356 -18.486 -12.949  1.00  0.00     0.180 A 
ATOM      2  C   UNL     1      -5.884 -17.481 -13.779  1.00  0.00     0.208 A 
ATOM      3  C   UNL     1      -5.955 -16.166 -13.294  1.00  0.00     0.238 A 
ATOM      4  O   UNL     1      -6.478 -15.281 -14.021  1.00  0.00    -0.285 OA
ATOM      5  C   UNL     1      -5.484 -15.867 -11.993  1.00  0.00     0.111 A 
ATOM      6  C   UNL     1      -5.471 -14.562 -11.415  1.00  0.00     0.134 A 
ATOM      7  C   UNL     1      -5.103 -14.406 -10.073  1.00  0.00     0.093 A 
ATOM      8  C   UNL     1      -4.685 -15.497  -9.308  1.00  0.00     0.123 A 
ATOM      9  C   UNL     1      -4.638 -16.766  -9.881  1.00  0.00     0.094 A 
ATOM     10  C   UNL     1      -5.034 -16.960 -11.207  1.00  0.00     0.146 A 
ATOM     11  O   UNL     1      -4.983 -18.187 -11.711  1.00  0.00    -0.452 OA
ENDROOT
BRANCH   1  12
ATOM     12  C   UNL     1      -5.225 -19.891 -13.399  1.00  0.00     0.025 A 
ATOM     13  C   UNL     1      -4.029 -20.372 -13.959  1.00  0.00     0.016 A 
ATOM     14  C   UNL     1      -3.921 -21.708 -14.353  1.00  0.00     0.051 A 
ATOM     15  C   UNL     1      -5.000 -22.586 -14.182  1.00  0.00     0.157 A 
ATOM     16  C   UNL     1      -6.296 -20.780 -13.210  1.00  0.00     0.062 A 
ATOM     17  C   UNL     1      -6.191 -22.118 -13.604  1.00  0.00     0.158 A 
BRANCH  15  18
ATOM     18  O   UNL     1      -4.889 -23.918 -14.578  1.00  0.00    -0.504 OA
ATOM     19  H   UNL     1      -5.708 -24.494 -14.733  1.00  0.00     0.293 HD
ENDBRANCH  15  18
BRANCH  17  20
ATOM     20  O   UNL     1      -7.281 -22.967 -13.414  1.00  0.00    -0.504 OA
ATOM     21  H   UNL     1      -8.196 -22.619 -13.152  1.00  0.00     0.293 HD
ENDBRANCH  17  20
ENDBRANCH   1  12
BRANCH   2  22
ATOM     22  O   UNL     1      -6.363 -17.801 -15.052  1.00  0.00    -0.502 OA
ATOM     23  H   UNL     1      -7.328 -18.061 -15.221  1.00  0.00     0.293 HD
ENDBRANCH   2  22
BRANCH   6  24
ATOM     24  O   UNL     1      -5.781 -13.395 -12.118  1.00  0.00    -0.507 OA
ATOM     25  H   UNL     1      -6.323 -13.362 -12.968  1.00  0.00     0.293 HD
ENDBRANCH   6  24
BRANCH   8  26
ATOM     26  O   UNL     1      -4.306 -15.330  -7.978  1.00  0.00    -0.508 OA
ATOM     27  H   UNL     1      -3.755 -14.533  -7.680  1.00  0.00     0.293 HD
ENDBRANCH   8  26
TORSDOF 6
ENDMDL
