MODEL 1
REMARK VINA RESULT:    -3.571      0.000      0.000
REMARK INTER + INTRA:          -8.558
REMARK INTER:                  -6.494
REMARK INTRA:                  -2.065
REMARK UNBOUND:                -2.065
REMARK SMILES CCCCCCCCCCCCCCCC(=O)[O-]
REMARK SMILES IDX 9 1 10 2 11 3 12 4 13 5 14 6 15 7 16 8 17 9 18 10 8 11 7 12
REMARK SMILES IDX 6 13 5 14 4 15 3 16 2 17 1 18
REMARK H PARENT
REMARK Flexibility Score: inf
ROOT
ATOM      1  C   UNL     1      16.807  15.785  16.326  1.00  0.00     0.000 C 
ENDROOT
BRANCH   1   2
ATOM      2  C   UNL     1      17.615  17.030  16.724  1.00  0.00     0.000 C 
BRANCH   2   3
ATOM      3  C   UNL     1      17.572  17.307  18.235  1.00  0.00     0.000 C 
BRANCH   3   4
ATOM      4  C   UNL     1      18.941  17.056  18.878  1.00  0.00     0.000 C 
BRANCH   4   5
ATOM      5  C   UNL     1      19.117  15.575  19.242  1.00  0.00     0.000 C 
BRANCH   5   6
ATOM      6  C   UNL     1      18.739  15.262  20.701  1.00  0.00     0.006 C 
BRANCH   6   7
ATOM      7  C   UNL     1      18.706  16.498  21.616  1.00  0.00     0.053 C 
BRANCH   7   8
ATOM      8  C   UNL     1      17.338  16.773  22.162  1.00  0.00     0.041 C 
ATOM      9  O   UNL     1      16.908  16.123  23.152  1.00  0.00    -0.550 OA
ATOM     10  O   UNL     1      16.520  17.720  21.557  1.00  0.00    -0.550 OA
ENDBRANCH   7   8
ENDBRANCH   6   7
ENDBRANCH   5   6
ENDBRANCH   4   5
ENDBRANCH   3   4
ENDBRANCH   2   3
ENDBRANCH   1   2
BRANCH   1  11
ATOM     11  C   UNL     1      17.615  14.807  15.461  1.00  0.00     0.000 C 
BRANCH  11  12
ATOM     12  C   UNL     1      19.102  15.188  15.445  1.00  0.00    -0.000 C 
BRANCH  12  13
ATOM     13  C   UNL     1      20.019  14.037  15.899  1.00  0.00    -0.000 C 
BRANCH  13  14
ATOM     14  C   UNL     1      19.292  12.811  16.486  1.00  0.00    -0.000 C 
BRANCH  14  15
ATOM     15  C   UNL     1      20.053  12.077  17.604  1.00  0.00    -0.000 C 
BRANCH  15  16
ATOM     16  C   UNL     1      21.327  12.819  18.042  1.00  0.00    -0.000 C 
BRANCH  16  17
ATOM     17  C   UNL     1      21.481  12.868  19.570  1.00  0.00    -0.003 C 
ATOM     18  C   UNL     1      22.406  13.994  20.034  1.00  0.00     0.004 C 
ENDBRANCH  16  17
ENDBRANCH  15  16
ENDBRANCH  14  15
ENDBRANCH  13  14
ENDBRANCH  12  13
ENDBRANCH  11  12
ENDBRANCH   1  11
TORSDOF 14
ENDMDL
MODEL 2
REMARK VINA RESULT:    -3.562      3.025      4.268
REMARK INTER + INTRA:          -8.542
REMARK INTER:                  -5.967
REMARK INTRA:                  -2.575
REMARK UNBOUND:                -2.065
REMARK SMILES CCCCCCCCCCCCCCCC(=O)[O-]
REMARK SMILES IDX 9 1 10 2 11 3 12 4 13 5 14 6 15 7 16 8 17 9 18 10 8 11 7 12
REMARK SMILES IDX 6 13 5 14 4 15 3 16 2 17 1 18
REMARK H PARENT
REMARK Flexibility Score: inf
ROOT
ATOM      1  C   UNL     1      17.807  17.131  16.822  1.00  0.00     0.000 C 
ENDROOT
BRANCH   1   2
ATOM      2  C   UNL     1      17.673  17.573  18.287  1.00  0.00     0.000 C 
BRANCH   2   3
ATOM      3  C   UNL     1      17.750  16.395  19.271  1.00  0.00     0.000 C 
BRANCH   3   4
ATOM      4  C   UNL     1      19.201  16.122  19.688  1.00  0.00     0.000 C 
BRANCH   4   5
ATOM      5  C   UNL     1      19.624  14.696  19.310  1.00  0.00     0.000 C 
BRANCH   5   6
ATOM      6  C   UNL     1      21.045  14.341  19.784  1.00  0.00     0.006 C 
BRANCH   6   7
ATOM      7  C   UNL     1      21.375  12.840  19.698  1.00  0.00     0.053 C 
BRANCH   7   8
ATOM      8  C   UNL     1      21.309  12.317  18.295  1.00  0.00     0.041 C 
ATOM      9  O   UNL     1      22.162  12.681  17.442  1.00  0.00    -0.550 OA
ATOM     10  O   UNL     1      20.286  11.457  17.916  1.00  0.00    -0.550 OA
ENDBRANCH   7   8
ENDBRANCH   6   7
ENDBRANCH   5   6
ENDBRANCH   4   5
ENDBRANCH   3   4
ENDBRANCH   2   3
ENDBRANCH   1   2
BRANCH   1  11
ATOM     11  C   UNL     1      16.844  15.991  16.457  1.00  0.00     0.000 C 
BRANCH  11  12
ATOM     12  C   UNL     1      17.432  15.114  15.341  1.00  0.00    -0.000 C 
BRANCH  12  13
ATOM     13  C   UNL     1      18.375  14.021  15.874  1.00  0.00    -0.000 C 
BRANCH  13  14
ATOM     14  C   UNL     1      19.861  14.197  15.501  1.00  0.00    -0.000 C 
BRANCH  14  15
ATOM     15  C   UNL     1      20.142  15.274  14.438  1.00  0.00    -0.000 C 
BRANCH  15  16
ATOM     16  C   UNL     1      20.968  16.450  14.986  1.00  0.00    -0.000 C 
BRANCH  16  17
ATOM     17  C   UNL     1      21.407  16.230  16.441  1.00  0.00    -0.003 C 
ATOM     18  C   UNL     1      21.565  17.540  17.214  1.00  0.00     0.004 C 
ENDBRANCH  16  17
ENDBRANCH  15  16
ENDBRANCH  14  15
ENDBRANCH  13  14
ENDBRANCH  12  13
ENDBRANCH  11  12
ENDBRANCH   1  11
TORSDOF 14
ENDMDL
MODEL 3
REMARK VINA RESULT:    -3.469      2.569      4.024
REMARK INTER + INTRA:          -8.373
REMARK INTER:                  -6.781
REMARK INTRA:                  -1.592
REMARK UNBOUND:                -2.065
REMARK SMILES CCCCCCCCCCCCCCCC(=O)[O-]
REMARK SMILES IDX 9 1 10 2 11 3 12 4 13 5 14 6 15 7 16 8 17 9 18 10 8 11 7 12
REMARK SMILES IDX 6 13 5 14 4 15 3 16 2 17 1 18
REMARK H PARENT
REMARK Flexibility Score: inf
ROOT
ATOM      1  C   UNL     1      17.645  16.431  18.959  1.00  0.00     0.000 C 
ENDROOT
BRANCH   1   2
ATOM      2  C   UNL     1      17.421  16.857  20.418  1.00  0.00     0.000 C 
BRANCH   2   3
ATOM      3  C   UNL     1      18.061  15.887  21.423  1.00  0.00     0.000 C 
BRANCH   3   4
ATOM      4  C   UNL     1      19.108  14.999  20.740  1.00  0.00     0.000 C 
BRANCH   4   5
ATOM      5  C   UNL     1      20.531  15.430  21.124  1.00  0.00     0.000 C 
BRANCH   5   6
ATOM      6  C   UNL     1      21.147  14.561  22.234  1.00  0.00     0.006 C 
BRANCH   6   7
ATOM      7  C   UNL     1      20.956  13.049  22.022  1.00  0.00     0.053 C 
BRANCH   7   8
ATOM      8  C   UNL     1      21.291  12.249  23.245  1.00  0.00     0.041 C 
ATOM      9  O   UNL     1      21.878  11.140  23.136  1.00  0.00    -0.550 OA
ATOM     10  O   UNL     1      20.924  12.710  24.504  1.00  0.00    -0.550 OA
ENDBRANCH   7   8
ENDBRANCH   6   7
ENDBRANCH   5   6
ENDBRANCH   4   5
ENDBRANCH   3   4
ENDBRANCH   2   3
ENDBRANCH   1   2
BRANCH   1  11
ATOM     11  C   UNL     1      18.034  17.608  18.052  1.00  0.00     0.000 C 
BRANCH  11  12
ATOM     12  C   UNL     1      17.756  17.279  16.578  1.00  0.00    -0.000 C 
BRANCH  12  13
ATOM     13  C   UNL     1      16.949  15.980  16.398  1.00  0.00    -0.000 C 
BRANCH  13  14
ATOM     14  C   UNL     1      17.526  14.986  15.370  1.00  0.00    -0.000 C 
BRANCH  14  15
ATOM     15  C   UNL     1      19.022  14.664  15.545  1.00  0.00    -0.000 C 
BRANCH  15  16
ATOM     16  C   UNL     1      19.265  13.439  16.442  1.00  0.00    -0.000 C 
BRANCH  16  17
ATOM     17  C   UNL     1      20.240  13.737  17.591  1.00  0.00    -0.003 C 
ATOM     18  C   UNL     1      20.811  12.469  18.225  1.00  0.00     0.004 C 
ENDBRANCH  16  17
ENDBRANCH  15  16
ENDBRANCH  14  15
ENDBRANCH  13  14
ENDBRANCH  12  13
ENDBRANCH  11  12
ENDBRANCH   1  11
TORSDOF 14
ENDMDL
MODEL 4
REMARK VINA RESULT:    -3.441      1.238      2.145
REMARK INTER + INTRA:          -8.321
REMARK INTER:                  -6.086
REMARK INTRA:                  -2.235
REMARK UNBOUND:                -2.065
REMARK SMILES CCCCCCCCCCCCCCCC(=O)[O-]
REMARK SMILES IDX 9 1 10 2 11 3 12 4 13 5 14 6 15 7 16 8 17 9 18 10 8 11 7 12
REMARK SMILES IDX 6 13 5 14 4 15 3 16 2 17 1 18
REMARK H PARENT
REMARK Flexibility Score: inf
ROOT
ATOM      1  C   UNL     1      16.930  15.656  16.308  1.00  0.00     0.000 C 
ENDROOT
BRANCH   1   2
ATOM      2  C   UNL     1      17.422  17.111  16.349  1.00  0.00     0.000 C 
BRANCH   2   3
ATOM      3  C   UNL     1      17.819  17.564  17.763  1.00  0.00     0.000 C 
BRANCH   3   4
ATOM      4  C   UNL     1      17.597  16.439  18.781  1.00  0.00     0.000 C 
BRANCH   4   5
ATOM      5  C   UNL     1      18.850  16.219  19.641  1.00  0.00     0.000 C 
BRANCH   5   6
ATOM      6  C   UNL     1      18.564  15.448  20.942  1.00  0.00     0.006 C 
BRANCH   6   7
ATOM      7  C   UNL     1      18.457  16.344  22.188  1.00  0.00     0.053 C 
BRANCH   7   8
ATOM      8  C   UNL     1      17.044  16.746  22.488  1.00  0.00     0.041 C 
ATOM      9  O   UNL     1      16.534  17.742  21.912  1.00  0.00    -0.550 OA
ATOM     10  O   UNL     1      16.303  16.044  23.430  1.00  0.00    -0.550 OA
ENDBRANCH   7   8
ENDBRANCH   6   7
ENDBRANCH   5   6
ENDBRANCH   4   5
ENDBRANCH   3   4
ENDBRANCH   2   3
ENDBRANCH   1   2
BRANCH   1  11
ATOM     11  C   UNL     1      17.538  14.858  15.146  1.00  0.00     0.000 C 
BRANCH  11  12
ATOM     12  C   UNL     1      18.366  15.770  14.229  1.00  0.00    -0.000 C 
BRANCH  12  13
ATOM     13  C   UNL     1      19.864  15.413  14.226  1.00  0.00    -0.000 C 
BRANCH  13  14
ATOM     14  C   UNL     1      20.736  16.235  15.196  1.00  0.00    -0.000 C 
BRANCH  14  15
ATOM     15  C   UNL     1      20.970  15.585  16.571  1.00  0.00    -0.000 C 
BRANCH  15  16
ATOM     16  C   UNL     1      21.100  14.054  16.490  1.00  0.00    -0.000 C 
BRANCH  16  17
ATOM     17  C   UNL     1      20.260  13.336  17.556  1.00  0.00    -0.003 C 
ATOM     18  C   UNL     1      19.434  12.185  16.981  1.00  0.00     0.004 C 
ENDBRANCH  16  17
ENDBRANCH  15  16
ENDBRANCH  14  15
ENDBRANCH  13  14
ENDBRANCH  12  13
ENDBRANCH  11  12
ENDBRANCH   1  11
TORSDOF 14
ENDMDL
MODEL 5
REMARK VINA RESULT:    -3.435      1.455      3.911
REMARK INTER + INTRA:          -8.312
REMARK INTER:                  -5.742
REMARK INTRA:                  -2.569
REMARK UNBOUND:                -2.065
REMARK SMILES CCCCCCCCCCCCCCCC(=O)[O-]
REMARK SMILES IDX 9 1 10 2 11 3 12 4 13 5 14 6 15 7 16 8 17 9 18 10 8 11 7 12
REMARK SMILES IDX 6 13 5 14 4 15 3 16 2 17 1 18
REMARK H PARENT
REMARK Flexibility Score: inf
ROOT
ATOM      1  C   UNL     1      20.553  14.437  16.851  1.00  0.00     0.000 C 
ENDROOT
BRANCH   1   2
ATOM      2  C   UNL     1      20.343  13.488  18.042  1.00  0.00     0.000 C 
BRANCH   2   3
ATOM      3  C   UNL     1      20.302  14.228  19.388  1.00  0.00     0.000 C 
BRANCH   3   4
ATOM      4  C   UNL     1      19.223  15.318  19.383  1.00  0.00     0.000 C 
BRANCH   4   5
ATOM      5  C   UNL     1      19.809  16.676  19.795  1.00  0.00     0.000 C 
BRANCH   5   6
ATOM      6  C   UNL     1      18.771  17.812  19.781  1.00  0.00     0.006 C 
BRANCH   6   7
ATOM      7  C   UNL     1      17.322  17.336  19.989  1.00  0.00     0.053 C 
BRANCH   7   8
ATOM      8  C   UNL     1      16.886  17.429  21.420  1.00  0.00     0.041 C 
ATOM      9  O   UNL     1      16.209  18.415  21.813  1.00  0.00    -0.550 OA
ATOM     10  O   UNL     1      17.258  16.447  22.330  1.00  0.00    -0.550 OA
ENDBRANCH   7   8
ENDBRANCH   6   7
ENDBRANCH   5   6
ENDBRANCH   4   5
ENDBRANCH   3   4
ENDBRANCH   2   3
ENDBRANCH   1   2
BRANCH   1  11
ATOM     11  C   UNL     1      19.753  14.014  15.610  1.00  0.00     0.000 C 
BRANCH  11  12
ATOM     12  C   UNL     1      18.273  13.800  15.959  1.00  0.00    -0.000 C 
BRANCH  12  13
ATOM     13  C   UNL     1      17.369  14.942  15.459  1.00  0.00    -0.000 C 
BRANCH  13  14
ATOM     14  C   UNL     1      17.052  16.033  16.501  1.00  0.00    -0.000 C 
BRANCH  14  15
ATOM     15  C   UNL     1      17.722  17.395  16.242  1.00  0.00    -0.000 C 
BRANCH  15  16
ATOM     16  C   UNL     1      18.391  17.475  14.860  1.00  0.00    -0.000 C 
BRANCH  16  17
ATOM     17  C   UNL     1      19.897  17.765  14.953  1.00  0.00    -0.003 C 
ATOM     18  C   UNL     1      20.347  18.100  16.375  1.00  0.00     0.004 C 
ENDBRANCH  16  17
ENDBRANCH  15  16
ENDBRANCH  14  15
ENDBRANCH  13  14
ENDBRANCH  12  13
ENDBRANCH  11  12
ENDBRANCH   1  11
TORSDOF 14
ENDMDL
MODEL 6
REMARK VINA RESULT:    -3.427      2.073      3.335
REMARK INTER + INTRA:          -8.297
REMARK INTER:                  -6.212
REMARK INTRA:                  -2.085
REMARK UNBOUND:                -2.065
REMARK SMILES CCCCCCCCCCCCCCCC(=O)[O-]
REMARK SMILES IDX 9 1 10 2 11 3 12 4 13 5 14 6 15 7 16 8 17 9 18 10 8 11 7 12
REMARK SMILES IDX 6 13 5 14 4 15 3 16 2 17 1 18
REMARK H PARENT
REMARK Flexibility Score: inf
ROOT
ATOM      1  C   UNL     1      17.715  17.619  18.149  1.00  0.00     0.000 C 
ENDROOT
BRANCH   1   2
ATOM      2  C   UNL     1      17.669  16.445  19.140  1.00  0.00     0.000 C 
BRANCH   2   3
ATOM      3  C   UNL     1      17.515  16.906  20.598  1.00  0.00     0.000 C 
BRANCH   3   4
ATOM      4  C   UNL     1      18.118  15.879  21.564  1.00  0.00     0.000 C 
BRANCH   4   5
ATOM      5  C   UNL     1      19.137  14.981  20.849  1.00  0.00     0.000 C 
BRANCH   5   6
ATOM      6  C   UNL     1      20.579  15.188  21.347  1.00  0.00     0.006 C 
BRANCH   6   7
ATOM      7  C   UNL     1      21.584  15.518  20.228  1.00  0.00     0.053 C 
BRANCH   7   8
ATOM      8  C   UNL     1      21.206  16.750  19.462  1.00  0.00     0.041 C 
ATOM      9  O   UNL     1      21.167  16.725  18.203  1.00  0.00    -0.550 OA
ATOM     10  O   UNL     1      20.933  17.936  20.133  1.00  0.00    -0.550 OA
ENDBRANCH   7   8
ENDBRANCH   6   7
ENDBRANCH   5   6
ENDBRANCH   4   5
ENDBRANCH   3   4
ENDBRANCH   2   3
ENDBRANCH   1   2
BRANCH   1  11
ATOM     11  C   UNL     1      17.835  17.158  16.689  1.00  0.00     0.000 C 
BRANCH  11  12
ATOM     12  C   UNL     1      16.852  16.015  16.394  1.00  0.00    -0.000 C 
BRANCH  12  13
ATOM     13  C   UNL     1      17.399  15.008  15.366  1.00  0.00    -0.000 C 
BRANCH  13  14
ATOM     14  C   UNL     1      18.779  15.358  14.773  1.00  0.00    -0.000 C 
BRANCH  14  15
ATOM     15  C   UNL     1      19.926  14.424  15.198  1.00  0.00    -0.000 C 
BRANCH  15  16
ATOM     16  C   UNL     1      19.459  13.299  16.137  1.00  0.00    -0.000 C 
BRANCH  16  17
ATOM     17  C   UNL     1      20.034  13.440  17.554  1.00  0.00    -0.003 C 
ATOM     18  C   UNL     1      20.719  12.164  18.043  1.00  0.00     0.004 C 
ENDBRANCH  16  17
ENDBRANCH  15  16
ENDBRANCH  14  15
ENDBRANCH  13  14
ENDBRANCH  12  13
ENDBRANCH  11  12
ENDBRANCH   1  11
TORSDOF 14
ENDMDL
MODEL 7
REMARK VINA RESULT:    -3.420      2.191      4.667
REMARK INTER + INTRA:          -8.284
REMARK INTER:                  -5.491
REMARK INTRA:                  -2.794
REMARK UNBOUND:                -2.065
REMARK SMILES CCCCCCCCCCCCCCCC(=O)[O-]
REMARK SMILES IDX 9 1 10 2 11 3 12 4 13 5 14 6 15 7 16 8 17 9 18 10 8 11 7 12
REMARK SMILES IDX 6 13 5 14 4 15 3 16 2 17 1 18
REMARK H PARENT
REMARK Flexibility Score: inf
ROOT
ATOM      1  C   UNL     1      17.549  14.965  15.290  1.00  0.00     0.000 C 
ENDROOT
BRANCH   1   2
ATOM      2  C   UNL     1      18.482  13.996  16.031  1.00  0.00     0.000 C 
BRANCH   2   3
ATOM      3  C   UNL     1      19.925  14.042  15.504  1.00  0.00     0.000 C 
BRANCH   3   4
ATOM      4  C   UNL     1      20.934  13.947  16.654  1.00  0.00     0.000 C 
BRANCH   4   5
ATOM      5  C   UNL     1      20.231  13.609  17.977  1.00  0.00     0.000 C 
BRANCH   5   6
ATOM      6  C   UNL     1      20.735  14.452  19.162  1.00  0.00     0.006 C 
BRANCH   6   7
ATOM      7  C   UNL     1      19.652  14.765  20.210  1.00  0.00     0.053 C 
BRANCH   7   8
ATOM      8  C   UNL     1      20.139  14.572  21.615  1.00  0.00     0.041 C 
ATOM      9  O   UNL     1      20.123  15.534  22.428  1.00  0.00    -0.550 OA
ATOM     10  O   UNL     1      20.646  13.343  22.017  1.00  0.00    -0.550 OA
ENDBRANCH   7   8
ENDBRANCH   6   7
ENDBRANCH   5   6
ENDBRANCH   4   5
ENDBRANCH   3   4
ENDBRANCH   2   3
ENDBRANCH   1   2
BRANCH   1  11
ATOM     11  C   UNL     1      16.729  15.846  16.245  1.00  0.00     0.000 C 
BRANCH  11  12
ATOM     12  C   UNL     1      17.489  16.082  17.559  1.00  0.00    -0.000 C 
BRANCH  12  13
ATOM     13  C   UNL     1      18.051  17.511  17.675  1.00  0.00    -0.000 C 
BRANCH  13  14
ATOM     14  C   UNL     1      19.589  17.617  17.626  1.00  0.00    -0.000 C 
BRANCH  14  15
ATOM     15  C   UNL     1      20.196  17.629  16.211  1.00  0.00    -0.000 C 
BRANCH  15  16
ATOM     16  C   UNL     1      19.545  18.679  15.295  1.00  0.00    -0.000 C 
BRANCH  16  17
ATOM     17  C   UNL     1      18.941  18.057  14.027  1.00  0.00    -0.003 C 
ATOM     18  C   UNL     1      19.903  17.101  13.322  1.00  0.00     0.004 C 
ENDBRANCH  16  17
ENDBRANCH  15  16
ENDBRANCH  14  15
ENDBRANCH  13  14
ENDBRANCH  12  13
ENDBRANCH  11  12
ENDBRANCH   1  11
TORSDOF 14
ENDMDL
MODEL 8
REMARK VINA RESULT:    -3.414      1.931      4.520
REMARK INTER + INTRA:          -8.273
REMARK INTER:                  -6.162
REMARK INTRA:                  -2.111
REMARK UNBOUND:                -2.065
REMARK SMILES CCCCCCCCCCCCCCCC(=O)[O-]
REMARK SMILES IDX 9 1 10 2 11 3 12 4 13 5 14 6 15 7 16 8 17 9 18 10 8 11 7 12
REMARK SMILES IDX 6 13 5 14 4 15 3 16 2 17 1 18
REMARK H PARENT
REMARK Flexibility Score: inf
ROOT
ATOM      1  C   UNL     1      20.104  14.216  15.897  1.00  0.00     0.000 C 
ENDROOT
BRANCH   1   2
ATOM      2  C   UNL     1      19.343  12.926  16.240  1.00  0.00     0.000 C 
BRANCH   2   3
ATOM      3  C   UNL     1      19.908  12.216  17.481  1.00  0.00     0.000 C 
BRANCH   3   4
ATOM      4  C   UNL     1      21.305  12.745  17.827  1.00  0.00     0.000 C 
BRANCH   4   5
ATOM      5  C   UNL     1      21.421  13.056  19.326  1.00  0.00     0.000 C 
BRANCH   5   6
ATOM      6  C   UNL     1      20.542  14.240  19.768  1.00  0.00     0.006 C 
BRANCH   6   7
ATOM      7  C   UNL     1      20.961  15.590  19.158  1.00  0.00     0.053 C 
BRANCH   7   8
ATOM      8  C   UNL     1      21.199  16.642  20.199  1.00  0.00     0.041 C 
ATOM      9  O   UNL     1      20.900  17.843  19.965  1.00  0.00    -0.550 OA
ATOM     10  O   UNL     1      21.785  16.305  21.413  1.00  0.00    -0.550 OA
ENDBRANCH   7   8
ENDBRANCH   6   7
ENDBRANCH   5   6
ENDBRANCH   4   5
ENDBRANCH   3   4
ENDBRANCH   2   3
ENDBRANCH   1   2
BRANCH   1  11
ATOM     11  C   UNL     1      19.187  15.314  15.339  1.00  0.00     0.000 C 
BRANCH  11  12
ATOM     12  C   UNL     1      17.710  14.924  15.494  1.00  0.00    -0.000 C 
BRANCH  12  13
ATOM     13  C   UNL     1      16.911  15.933  16.339  1.00  0.00    -0.000 C 
BRANCH  13  14
ATOM     14  C   UNL     1      17.596  17.298  16.554  1.00  0.00    -0.000 C 
BRANCH  14  15
ATOM     15  C   UNL     1      17.836  17.681  18.025  1.00  0.00    -0.000 C 
BRANCH  15  16
ATOM     16  C   UNL     1      17.517  16.533  18.998  1.00  0.00    -0.000 C 
BRANCH  16  17
ATOM     17  C   UNL     1      17.235  17.033  20.423  1.00  0.00    -0.003 C 
ATOM     18  C   UNL     1      17.844  16.130  21.496  1.00  0.00     0.004 C 
ENDBRANCH  16  17
ENDBRANCH  15  16
ENDBRANCH  14  15
ENDBRANCH  13  14
ENDBRANCH  12  13
ENDBRANCH  11  12
ENDBRANCH   1  11
TORSDOF 14
ENDMDL
MODEL 9
REMARK VINA RESULT:    -3.380      2.860      4.829
REMARK INTER + INTRA:          -8.211
REMARK INTER:                  -5.938
REMARK INTRA:                  -2.273
REMARK UNBOUND:                -2.065
REMARK SMILES CCCCCCCCCCCCCCCC(=O)[O-]
REMARK SMILES IDX 9 1 10 2 11 3 12 4 13 5 14 6 15 7 16 8 17 9 18 10 8 11 7 12
REMARK SMILES IDX 6 13 5 14 4 15 3 16 2 17 1 18
REMARK H PARENT
REMARK Flexibility Score: inf
ROOT
ATOM      1  C   UNL     1      17.366  15.216  14.951  1.00  0.00     0.000 C 
ENDROOT
BRANCH   1   2
ATOM      2  C   UNL     1      18.363  16.090  14.175  1.00  0.00     0.000 C 
BRANCH   2   3
ATOM      3  C   UNL     1      19.723  15.403  13.974  1.00  0.00     0.000 C 
BRANCH   3   4
ATOM      4  C   UNL     1      20.808  16.072  14.827  1.00  0.00     0.000 C 
BRANCH   4   5
ATOM      5  C   UNL     1      20.848  15.470  16.239  1.00  0.00     0.000 C 
BRANCH   5   6
ATOM      6  C   UNL     1      20.660  13.943  16.252  1.00  0.00     0.006 C 
BRANCH   6   7
ATOM      7  C   UNL     1      19.999  13.405  17.533  1.00  0.00     0.053 C 
BRANCH   7   8
ATOM      8  C   UNL     1      20.778  12.286  18.156  1.00  0.00     0.041 C 
ATOM      9  O   UNL     1      20.406  11.093  18.000  1.00  0.00    -0.550 OA
ATOM     10  O   UNL     1      21.892  12.560  18.939  1.00  0.00    -0.550 OA
ENDBRANCH   7   8
ENDBRANCH   6   7
ENDBRANCH   5   6
ENDBRANCH   4   5
ENDBRANCH   3   4
ENDBRANCH   2   3
ENDBRANCH   1   2
BRANCH   1  11
ATOM     11  C   UNL     1      16.877  15.882  16.245  1.00  0.00     0.000 C 
BRANCH  11  12
ATOM     12  C   UNL     1      17.604  17.213  16.485  1.00  0.00    -0.000 C 
BRANCH  12  13
ATOM     13  C   UNL     1      17.921  17.461  17.971  1.00  0.00    -0.000 C 
BRANCH  13  14
ATOM     14  C   UNL     1      17.705  16.250  18.900  1.00  0.00    -0.000 C 
BRANCH  14  15
ATOM     15  C   UNL     1      18.110  16.474  20.368  1.00  0.00    -0.000 C 
BRANCH  15  16
ATOM     16  C   UNL     1      19.602  16.814  20.527  1.00  0.00    -0.000 C 
BRANCH  16  17
ATOM     17  C   UNL     1      20.503  15.577  20.398  1.00  0.00    -0.003 C 
ATOM     18  C   UNL     1      20.060  14.427  21.303  1.00  0.00     0.004 C 
ENDBRANCH  16  17
ENDBRANCH  15  16
ENDBRANCH  14  15
ENDBRANCH  13  14
ENDBRANCH  12  13
ENDBRANCH  11  12
ENDBRANCH   1  11
TORSDOF 14
ENDMDL
