MODEL 1
REMARK VINA RESULT:    -4.738      0.000      0.000
REMARK INTER + INTRA:         -13.063
REMARK INTER:                 -10.277
REMARK INTRA:                  -2.785
REMARK UNBOUND:                -2.785
REMARK SMILES CCCCCCCCCCCCCCCCCCCCCC(=O)[O-]
REMARK SMILES IDX 12 1 11 2 10 3 9 4 8 5 7 6 6 7 5 8 4 9 3 10 2 11 1 12 13 13
REMARK SMILES IDX 14 14 15 15 16 16 17 17 18 18 19 19 20 20 21 21 22 22 23 23
REMARK SMILES IDX 24 24
REMARK H PARENT
REMARK Flexibility Score: inf
ROOT
ATOM      1  C   UNL     1     130.346 139.711 137.493  1.00  0.00     0.000 C 
ENDROOT
BRANCH   1   2
ATOM      2  C   UNL     1     128.999 138.992 137.653  1.00  0.00     0.000 C 
BRANCH   2   3
ATOM      3  C   UNL     1     128.461 139.149 139.081  1.00  0.00     0.000 C 
BRANCH   3   4
ATOM      4  C   UNL     1     128.282 137.783 139.756  1.00  0.00    -0.000 C 
BRANCH   4   5
ATOM      5  C   UNL     1     129.054 137.663 141.081  1.00  0.00    -0.000 C 
BRANCH   5   6
ATOM      6  C   UNL     1     130.188 136.616 141.045  1.00  0.00    -0.000 C 
BRANCH   6   7
ATOM      7  C   UNL     1     130.533 136.184 139.608  1.00  0.00    -0.000 C 
BRANCH   7   8
ATOM      8  C   UNL     1     131.952 135.600 139.486  1.00  0.00    -0.000 C 
BRANCH   8   9
ATOM      9  C   UNL     1     132.139 134.584 138.342  1.00  0.00    -0.000 C 
BRANCH   9  10
ATOM     10  C   UNL     1     132.464 133.145 138.790  1.00  0.00    -0.000 C 
BRANCH  10  11
ATOM     11  C   UNL     1     131.289 132.388 139.435  1.00  0.00    -0.003 C 
ATOM     12  C   UNL     1     131.444 132.228 140.946  1.00  0.00     0.004 C 
ENDBRANCH  10  11
ENDBRANCH   9  10
ENDBRANCH   8   9
ENDBRANCH   7   8
ENDBRANCH   6   7
ENDBRANCH   5   6
ENDBRANCH   4   5
ENDBRANCH   3   4
ENDBRANCH   2   3
ENDBRANCH   1   2
BRANCH   1  13
ATOM     13  C   UNL     1     131.134 139.795 138.810  1.00  0.00     0.000 C 
BRANCH  13  14
ATOM     14  C   UNL     1     131.328 141.244 139.292  1.00  0.00     0.000 C 
BRANCH  14  15
ATOM     15  C   UNL     1     131.606 141.336 140.801  1.00  0.00     0.000 C 
BRANCH  15  16
ATOM     16  C   UNL     1     130.327 141.227 141.648  1.00  0.00     0.000 C 
BRANCH  16  17
ATOM     17  C   UNL     1     129.455 142.490 141.557  1.00  0.00     0.000 C 
BRANCH  17  18
ATOM     18  C   UNL     1     127.985 142.171 141.235  1.00  0.00     0.000 C 
BRANCH  18  19
ATOM     19  C   UNL     1     127.370 143.155 140.226  1.00  0.00     0.000 C 
BRANCH  19  20
ATOM     20  C   UNL     1     127.487 142.686 138.759  1.00  0.00     0.006 C 
BRANCH  20  21
ATOM     21  C   UNL     1     126.456 143.365 137.848  1.00  0.00     0.053 C 
BRANCH  21  22
ATOM     22  C   UNL     1     126.030 142.437 136.756  1.00  0.00     0.041 C 
ATOM     23  O   UNL     1     125.687 142.894 135.634  1.00  0.00    -0.550 OA
ATOM     24  O   UNL     1     126.049 141.064 136.963  1.00  0.00    -0.550 OA
ENDBRANCH  21  22
ENDBRANCH  20  21
ENDBRANCH  19  20
ENDBRANCH  18  19
ENDBRANCH  17  18
ENDBRANCH  16  17
ENDBRANCH  15  16
ENDBRANCH  14  15
ENDBRANCH  13  14
ENDBRANCH   1  13
TORSDOF 20
ENDMDL
MODEL 2
REMARK VINA RESULT:    -4.682      2.860      7.592
REMARK INTER + INTRA:         -12.941
REMARK INTER:                  -9.578
REMARK INTRA:                  -3.363
REMARK UNBOUND:                -2.785
REMARK SMILES CCCCCCCCCCCCCCCCCCCCCC(=O)[O-]
REMARK SMILES IDX 12 1 11 2 10 3 9 4 8 5 7 6 6 7 5 8 4 9 3 10 2 11 1 12 13 13
REMARK SMILES IDX 14 14 15 15 16 16 17 17 18 18 19 19 20 20 21 21 22 22 23 23
REMARK SMILES IDX 24 24
REMARK H PARENT
REMARK Flexibility Score: inf
ROOT
ATOM      1  C   UNL     1     131.731 139.713 138.730  1.00  0.00     0.000 C 
ENDROOT
BRANCH   1   2
ATOM      2  C   UNL     1     130.958 141.029 138.902  1.00  0.00     0.000 C 
BRANCH   2   3
ATOM      3  C   UNL     1     130.935 141.462 140.373  1.00  0.00     0.000 C 
BRANCH   3   4
ATOM      4  C   UNL     1     130.050 140.527 141.209  1.00  0.00    -0.000 C 
BRANCH   4   5
ATOM      5  C   UNL     1     128.617 141.058 141.388  1.00  0.00    -0.000 C 
BRANCH   5   6
ATOM      6  C   UNL     1     128.491 142.583 141.180  1.00  0.00    -0.000 C 
BRANCH   6   7
ATOM      7  C   UNL     1     127.340 142.945 140.224  1.00  0.00    -0.000 C 
BRANCH   7   8
ATOM      8  C   UNL     1     127.713 142.752 138.743  1.00  0.00    -0.000 C 
BRANCH   8   9
ATOM      9  C   UNL     1     126.527 142.822 137.761  1.00  0.00    -0.000 C 
BRANCH   9  10
ATOM     10  C   UNL     1     126.094 141.470 137.158  1.00  0.00    -0.000 C 
BRANCH  10  11
ATOM     11  C   UNL     1     125.191 141.576 135.916  1.00  0.00    -0.003 C 
ATOM     12  C   UNL     1     125.131 142.992 135.344  1.00  0.00     0.004 C 
ENDBRANCH  10  11
ENDBRANCH   9  10
ENDBRANCH   8   9
ENDBRANCH   7   8
ENDBRANCH   6   7
ENDBRANCH   5   6
ENDBRANCH   4   5
ENDBRANCH   3   4
ENDBRANCH   2   3
ENDBRANCH   1   2
BRANCH   1  13
ATOM     13  C   UNL     1     131.067 138.763 137.720  1.00  0.00     0.000 C 
BRANCH  13  14
ATOM     14  C   UNL     1     129.833 139.387 137.044  1.00  0.00     0.000 C 
BRANCH  14  15
ATOM     15  C   UNL     1     128.548 138.583 137.294  1.00  0.00     0.000 C 
BRANCH  15  16
ATOM     16  C   UNL     1     128.005 138.758 138.722  1.00  0.00     0.000 C 
BRANCH  16  17
ATOM     17  C   UNL     1     127.549 137.428 139.343  1.00  0.00     0.000 C 
BRANCH  17  18
ATOM     18  C   UNL     1     128.304 137.092 140.640  1.00  0.00     0.000 C 
BRANCH  18  19
ATOM     19  C   UNL     1     129.771 136.702 140.392  1.00  0.00     0.000 C 
BRANCH  19  20
ATOM     20  C   UNL     1     129.940 135.575 139.349  1.00  0.00     0.006 C 
BRANCH  20  21
ATOM     21  C   UNL     1     131.092 134.626 139.703  1.00  0.00     0.053 C 
BRANCH  21  22
ATOM     22  C   UNL     1     132.231 134.807 138.750  1.00  0.00     0.041 C 
ATOM     23  O   UNL     1     132.050 135.393 137.651  1.00  0.00    -0.550 OA
ATOM     24  O   UNL     1     133.502 134.363 139.093  1.00  0.00    -0.550 OA
ENDBRANCH  21  22
ENDBRANCH  20  21
ENDBRANCH  19  20
ENDBRANCH  18  19
ENDBRANCH  17  18
ENDBRANCH  16  17
ENDBRANCH  15  16
ENDBRANCH  14  15
ENDBRANCH  13  14
ENDBRANCH   1  13
TORSDOF 20
ENDMDL
MODEL 3
REMARK VINA RESULT:    -4.630      2.968      6.385
REMARK INTER + INTRA:         -12.830
REMARK INTER:                 -10.002
REMARK INTRA:                  -2.828
REMARK UNBOUND:                -2.785
REMARK SMILES CCCCCCCCCCCCCCCCCCCCCC(=O)[O-]
REMARK SMILES IDX 12 1 11 2 10 3 9 4 8 5 7 6 6 7 5 8 4 9 3 10 2 11 1 12 13 13
REMARK SMILES IDX 14 14 15 15 16 16 17 17 18 18 19 19 20 20 21 21 22 22 23 23
REMARK SMILES IDX 24 24
REMARK H PARENT
REMARK Flexibility Score: inf
ROOT
ATOM      1  C   UNL     1     126.526 142.943 137.613  1.00  0.00     0.000 C 
ENDROOT
BRANCH   1   2
ATOM      2  C   UNL     1     126.134 143.988 138.667  1.00  0.00     0.000 C 
BRANCH   2   3
ATOM      3  C   UNL     1     126.381 143.455 140.084  1.00  0.00     0.000 C 
BRANCH   3   4
ATOM      4  C   UNL     1     127.840 143.011 140.259  1.00  0.00    -0.000 C 
BRANCH   4   5
ATOM      5  C   UNL     1     127.987 141.780 141.169  1.00  0.00    -0.000 C 
BRANCH   5   6
ATOM      6  C   UNL     1     129.395 141.148 141.134  1.00  0.00    -0.000 C 
BRANCH   6   7
ATOM      7  C   UNL     1     130.155 141.497 139.842  1.00  0.00    -0.000 C 
BRANCH   7   8
ATOM      8  C   UNL     1     131.565 140.880 139.795  1.00  0.00    -0.000 C 
BRANCH   8   9
ATOM      9  C   UNL     1     132.529 141.381 140.888  1.00  0.00    -0.000 C 
BRANCH   9  10
ATOM     10  C   UNL     1     133.551 140.341 141.389  1.00  0.00    -0.000 C 
BRANCH  10  11
ATOM     11  C   UNL     1     133.667 139.078 140.518  1.00  0.00    -0.003 C 
ATOM     12  C   UNL     1     134.806 139.159 139.503  1.00  0.00     0.004 C 
ENDBRANCH  10  11
ENDBRANCH   9  10
ENDBRANCH   8   9
ENDBRANCH   7   8
ENDBRANCH   6   7
ENDBRANCH   5   6
ENDBRANCH   4   5
ENDBRANCH   3   4
ENDBRANCH   2   3
ENDBRANCH   1   2
BRANCH   1  13
ATOM     13  C   UNL     1     125.749 143.108 136.297  1.00  0.00     0.000 C 
BRANCH  13  14
ATOM     14  C   UNL     1     125.173 141.778 135.779  1.00  0.00     0.000 C 
BRANCH  14  15
ATOM     15  C   UNL     1     125.330 140.630 136.788  1.00  0.00     0.000 C 
BRANCH  15  16
ATOM     16  C   UNL     1     125.565 139.270 136.109  1.00  0.00     0.000 C 
BRANCH  16  17
ATOM     17  C   UNL     1     126.910 138.641 136.508  1.00  0.00     0.000 C 
BRANCH  17  18
ATOM     18  C   UNL     1     127.640 139.449 137.595  1.00  0.00     0.000 C 
BRANCH  18  19
ATOM     19  C   UNL     1     128.067 138.584 138.793  1.00  0.00     0.000 C 
BRANCH  19  20
ATOM     20  C   UNL     1     128.933 137.368 138.397  1.00  0.00     0.006 C 
BRANCH  20  21
ATOM     21  C   UNL     1     130.368 137.480 138.927  1.00  0.00     0.053 C 
BRANCH  21  22
ATOM     22  C   UNL     1     131.319 137.764 137.808  1.00  0.00     0.041 C 
ATOM     23  O   UNL     1     132.326 137.030 137.631  1.00  0.00    -0.550 OA
ATOM     24  O   UNL     1     131.072 138.816 136.936  1.00  0.00    -0.550 OA
ENDBRANCH  21  22
ENDBRANCH  20  21
ENDBRANCH  19  20
ENDBRANCH  18  19
ENDBRANCH  17  18
ENDBRANCH  16  17
ENDBRANCH  15  16
ENDBRANCH  14  15
ENDBRANCH  13  14
ENDBRANCH   1  13
TORSDOF 20
ENDMDL
MODEL 4
REMARK VINA RESULT:    -4.625      6.315     10.841
REMARK INTER + INTRA:         -12.819
REMARK INTER:                 -11.587
REMARK INTRA:                  -1.232
REMARK UNBOUND:                -2.785
REMARK SMILES CCCCCCCCCCCCCCCCCCCCCC(=O)[O-]
REMARK SMILES IDX 12 1 11 2 10 3 9 4 8 5 7 6 6 7 5 8 4 9 3 10 2 11 1 12 13 13
REMARK SMILES IDX 14 14 15 15 16 16 17 17 18 18 19 19 20 20 21 21 22 22 23 23
REMARK SMILES IDX 24 24
REMARK H PARENT
REMARK Flexibility Score: inf
ROOT
ATOM      1  C   UNL     1     134.137 139.085 140.323  1.00  0.00     0.000 C 
ENDROOT
BRANCH   1   2
ATOM      2  C   UNL     1     132.646 139.087 140.692  1.00  0.00     0.000 C 
BRANCH   2   3
ATOM      3  C   UNL     1     131.823 139.836 139.637  1.00  0.00     0.000 C 
BRANCH   3   4
ATOM      4  C   UNL     1     131.477 141.254 140.112  1.00  0.00    -0.000 C 
BRANCH   4   5
ATOM      5  C   UNL     1     130.604 141.266 141.378  1.00  0.00    -0.000 C 
BRANCH   5   6
ATOM      6  C   UNL     1     129.529 142.374 141.380  1.00  0.00    -0.000 C 
BRANCH   6   7
ATOM      7  C   UNL     1     128.208 141.901 140.749  1.00  0.00    -0.000 C 
BRANCH   7   8
ATOM      8  C   UNL     1     128.188 142.061 139.218  1.00  0.00    -0.000 C 
BRANCH   8   9
ATOM      9  C   UNL     1     127.048 142.944 138.672  1.00  0.00    -0.000 C 
BRANCH   9  10
ATOM     10  C   UNL     1     126.116 143.548 139.742  1.00  0.00    -0.000 C 
BRANCH  10  11
ATOM     11  C   UNL     1     126.129 145.084 139.818  1.00  0.00    -0.003 C 
ATOM     12  C   UNL     1     125.856 145.749 138.470  1.00  0.00     0.004 C 
ENDBRANCH  10  11
ENDBRANCH   9  10
ENDBRANCH   8   9
ENDBRANCH   7   8
ENDBRANCH   6   7
ENDBRANCH   5   6
ENDBRANCH   4   5
ENDBRANCH   3   4
ENDBRANCH   2   3
ENDBRANCH   1   2
BRANCH   1  13
ATOM     13  C   UNL     1     134.920 140.212 141.014  1.00  0.00     0.000 C 
BRANCH  13  14
ATOM     14  C   UNL     1     136.245 139.723 141.626  1.00  0.00     0.000 C 
BRANCH  14  15
ATOM     15  C   UNL     1     136.515 138.236 141.348  1.00  0.00     0.000 C 
BRANCH  15  16
ATOM     16  C   UNL     1     138.011 137.928 141.165  1.00  0.00     0.000 C 
BRANCH  16  17
ATOM     17  C   UNL     1     138.332 136.439 141.373  1.00  0.00     0.000 C 
BRANCH  17  18
ATOM     18  C   UNL     1     139.731 136.214 141.971  1.00  0.00     0.000 C 
BRANCH  18  19
ATOM     19  C   UNL     1     140.330 134.851 141.586  1.00  0.00     0.000 C 
BRANCH  19  20
ATOM     20  C   UNL     1     141.104 134.873 140.250  1.00  0.00     0.006 C 
BRANCH  20  21
ATOM     21  C   UNL     1     140.632 133.776 139.287  1.00  0.00     0.053 C 
BRANCH  21  22
ATOM     22  C   UNL     1     139.476 134.259 138.469  1.00  0.00     0.041 C 
ATOM     23  O   UNL     1     139.424 135.460 138.094  1.00  0.00    -0.550 OA
ATOM     24  O   UNL     1     138.475 133.375 138.089  1.00  0.00    -0.550 OA
ENDBRANCH  21  22
ENDBRANCH  20  21
ENDBRANCH  19  20
ENDBRANCH  18  19
ENDBRANCH  17  18
ENDBRANCH  16  17
ENDBRANCH  15  16
ENDBRANCH  14  15
ENDBRANCH  13  14
ENDBRANCH   1  13
TORSDOF 20
ENDMDL
MODEL 5
REMARK VINA RESULT:    -4.595      1.017      2.099
REMARK INTER + INTRA:         -12.753
REMARK INTER:                  -9.712
REMARK INTRA:                  -3.040
REMARK UNBOUND:                -2.785
REMARK SMILES CCCCCCCCCCCCCCCCCCCCCC(=O)[O-]
REMARK SMILES IDX 12 1 11 2 10 3 9 4 8 5 7 6 6 7 5 8 4 9 3 10 2 11 1 12 13 13
REMARK SMILES IDX 14 14 15 15 16 16 17 17 18 18 19 19 20 20 21 21 22 22 23 23
REMARK SMILES IDX 24 24
REMARK H PARENT
REMARK Flexibility Score: inf
ROOT
ATOM      1  C   UNL     1     131.801 140.017 139.668  1.00  0.00     0.000 C 
ENDROOT
BRANCH   1   2
ATOM      2  C   UNL     1     131.398 139.149 138.467  1.00  0.00     0.000 C 
BRANCH   2   3
ATOM      3  C   UNL     1     130.342 139.857 137.610  1.00  0.00     0.000 C 
BRANCH   3   4
ATOM      4  C   UNL     1     129.067 139.011 137.495  1.00  0.00    -0.000 C 
BRANCH   4   5
ATOM      5  C   UNL     1     128.333 138.845 138.837  1.00  0.00    -0.000 C 
BRANCH   5   6
ATOM      6  C   UNL     1     127.903 137.393 139.133  1.00  0.00    -0.000 C 
BRANCH   6   7
ATOM      7  C   UNL     1     128.905 136.665 140.047  1.00  0.00    -0.000 C 
BRANCH   7   8
ATOM      8  C   UNL     1     129.731 135.603 139.300  1.00  0.00    -0.000 C 
BRANCH   8   9
ATOM      9  C   UNL     1     131.258 135.801 139.368  1.00  0.00    -0.000 C 
BRANCH   9  10
ATOM     10  C   UNL     1     132.074 134.959 138.367  1.00  0.00    -0.000 C 
BRANCH  10  11
ATOM     11  C   UNL     1     132.759 133.721 138.972  1.00  0.00    -0.003 C 
ATOM     12  C   UNL     1     131.831 132.511 139.059  1.00  0.00     0.004 C 
ENDBRANCH  10  11
ENDBRANCH   9  10
ENDBRANCH   8   9
ENDBRANCH   7   8
ENDBRANCH   6   7
ENDBRANCH   5   6
ENDBRANCH   4   5
ENDBRANCH   3   4
ENDBRANCH   2   3
ENDBRANCH   1   2
BRANCH   1  13
ATOM     13  C   UNL     1     131.397 139.394 141.013  1.00  0.00     0.000 C 
BRANCH  13  14
ATOM     14  C   UNL     1     130.459 140.302 141.828  1.00  0.00     0.000 C 
BRANCH  14  15
ATOM     15  C   UNL     1     130.484 141.763 141.351  1.00  0.00     0.000 C 
BRANCH  15  16
ATOM     16  C   UNL     1     129.143 142.483 141.572  1.00  0.00     0.000 C 
BRANCH  16  17
ATOM     17  C   UNL     1     128.028 141.935 140.667  1.00  0.00     0.000 C 
BRANCH  17  18
ATOM     18  C   UNL     1     128.120 142.471 139.227  1.00  0.00     0.000 C 
BRANCH  18  19
ATOM     19  C   UNL     1     127.038 143.518 138.912  1.00  0.00     0.000 C 
BRANCH  19  20
ATOM     20  C   UNL     1     126.213 143.190 137.649  1.00  0.00     0.006 C 
BRANCH  20  21
ATOM     21  C   UNL     1     126.182 141.685 137.350  1.00  0.00     0.053 C 
BRANCH  21  22
ATOM     22  C   UNL     1     125.312 141.405 136.166  1.00  0.00     0.041 C 
ATOM     23  O   UNL     1     124.927 142.347 135.425  1.00  0.00    -0.550 OA
ATOM     24  O   UNL     1     124.958 140.097 135.858  1.00  0.00    -0.550 OA
ENDBRANCH  21  22
ENDBRANCH  20  21
ENDBRANCH  19  20
ENDBRANCH  18  19
ENDBRANCH  17  18
ENDBRANCH  16  17
ENDBRANCH  15  16
ENDBRANCH  14  15
ENDBRANCH  13  14
ENDBRANCH   1  13
TORSDOF 20
ENDMDL
MODEL 6
REMARK VINA RESULT:    -4.592      3.022      7.253
REMARK INTER + INTRA:         -12.745
REMARK INTER:                  -9.720
REMARK INTRA:                  -3.025
REMARK UNBOUND:                -2.785
REMARK SMILES CCCCCCCCCCCCCCCCCCCCCC(=O)[O-]
REMARK SMILES IDX 12 1 11 2 10 3 9 4 8 5 7 6 6 7 5 8 4 9 3 10 2 11 1 12 13 13
REMARK SMILES IDX 14 14 15 15 16 16 17 17 18 18 19 19 20 20 21 21 22 22 23 23
REMARK SMILES IDX 24 24
REMARK H PARENT
REMARK Flexibility Score: inf
ROOT
ATOM      1  C   UNL     1     127.207 139.888 137.568  1.00  0.00     0.000 C 
ENDROOT
BRANCH   1   2
ATOM      2  C   UNL     1     126.066 140.607 136.834  1.00  0.00     0.000 C 
BRANCH   2   3
ATOM      3  C   UNL     1     126.102 142.115 137.112  1.00  0.00     0.000 C 
BRANCH   3   4
ATOM      4  C   UNL     1     127.075 142.443 138.252  1.00  0.00    -0.000 C 
BRANCH   4   5
ATOM      5  C   UNL     1     126.606 143.623 139.120  1.00  0.00    -0.000 C 
BRANCH   5   6
ATOM      6  C   UNL     1     127.222 143.634 140.536  1.00  0.00    -0.000 C 
BRANCH   6   7
ATOM      7  C   UNL     1     127.886 142.291 140.890  1.00  0.00    -0.000 C 
BRANCH   7   8
ATOM      8  C   UNL     1     129.221 142.466 141.637  1.00  0.00    -0.000 C 
BRANCH   8   9
ATOM      9  C   UNL     1     130.325 141.467 141.235  1.00  0.00    -0.000 C 
BRANCH   9  10
ATOM     10  C   UNL     1     130.010 140.604 139.997  1.00  0.00    -0.000 C 
BRANCH  10  11
ATOM     11  C   UNL     1     130.664 141.086 138.690  1.00  0.00    -0.003 C 
ATOM     12  C   UNL     1     130.989 139.941 137.732  1.00  0.00     0.004 C 
ENDBRANCH  10  11
ENDBRANCH   9  10
ENDBRANCH   8   9
ENDBRANCH   7   8
ENDBRANCH   6   7
ENDBRANCH   5   6
ENDBRANCH   4   5
ENDBRANCH   3   4
ENDBRANCH   2   3
ENDBRANCH   1   2
BRANCH   1  13
ATOM     13  C   UNL     1     127.670 138.615 136.841  1.00  0.00     0.000 C 
BRANCH  13  14
ATOM     14  C   UNL     1     126.532 137.932 136.061  1.00  0.00     0.000 C 
BRANCH  14  15
ATOM     15  C   UNL     1     126.267 136.494 136.534  1.00  0.00     0.000 C 
BRANCH  15  16
ATOM     16  C   UNL     1     125.491 136.439 137.861  1.00  0.00     0.000 C 
BRANCH  16  17
ATOM     17  C   UNL     1     126.220 135.610 138.931  1.00  0.00     0.000 C 
BRANCH  17  18
ATOM     18  C   UNL     1     127.261 136.434 139.708  1.00  0.00     0.000 C 
BRANCH  18  19
ATOM     19  C   UNL     1     128.664 135.803 139.676  1.00  0.00     0.000 C 
BRANCH  19  20
ATOM     20  C   UNL     1     129.688 136.621 138.859  1.00  0.00     0.006 C 
BRANCH  20  21
ATOM     21  C   UNL     1     131.125 136.409 139.352  1.00  0.00     0.053 C 
BRANCH  21  22
ATOM     22  C   UNL     1     131.993 135.915 138.238  1.00  0.00     0.041 C 
ATOM     23  O   UNL     1     132.228 134.685 138.116  1.00  0.00    -0.550 OA
ATOM     24  O   UNL     1     132.511 136.811 137.311  1.00  0.00    -0.550 OA
ENDBRANCH  21  22
ENDBRANCH  20  21
ENDBRANCH  19  20
ENDBRANCH  18  19
ENDBRANCH  17  18
ENDBRANCH  16  17
ENDBRANCH  15  16
ENDBRANCH  14  15
ENDBRANCH  13  14
ENDBRANCH   1  13
TORSDOF 20
ENDMDL
MODEL 7
REMARK VINA RESULT:    -4.579      1.647      4.053
REMARK INTER + INTRA:         -12.718
REMARK INTER:                 -10.249
REMARK INTRA:                  -2.470
REMARK UNBOUND:                -2.785
REMARK SMILES CCCCCCCCCCCCCCCCCCCCCC(=O)[O-]
REMARK SMILES IDX 12 1 11 2 10 3 9 4 8 5 7 6 6 7 5 8 4 9 3 10 2 11 1 12 13 13
REMARK SMILES IDX 14 14 15 15 16 16 17 17 18 18 19 19 20 20 21 21 22 22 23 23
REMARK SMILES IDX 24 24
REMARK H PARENT
REMARK Flexibility Score: inf
ROOT
ATOM      1  C   UNL     1     130.929 137.320 138.711  1.00  0.00     0.000 C 
ENDROOT
BRANCH   1   2
ATOM      2  C   UNL     1     131.942 136.315 139.277  1.00  0.00     0.000 C 
BRANCH   2   3
ATOM      3  C   UNL     1     132.263 135.223 138.247  1.00  0.00     0.000 C 
BRANCH   3   4
ATOM      4  C   UNL     1     132.775 133.950 138.935  1.00  0.00    -0.000 C 
BRANCH   4   5
ATOM      5  C   UNL     1     131.792 132.772 138.824  1.00  0.00    -0.000 C 
BRANCH   5   6
ATOM      6  C   UNL     1     131.265 132.274 140.187  1.00  0.00    -0.000 C 
BRANCH   6   7
ATOM      7  C   UNL     1     129.781 132.624 140.397  1.00  0.00    -0.000 C 
BRANCH   7   8
ATOM      8  C   UNL     1     129.573 134.068 140.888  1.00  0.00    -0.000 C 
BRANCH   8   9
ATOM      9  C   UNL     1     128.263 134.731 140.417  1.00  0.00    -0.000 C 
BRANCH   9  10
ATOM     10  C   UNL     1     128.082 136.202 140.845  1.00  0.00    -0.000 C 
BRANCH  10  11
ATOM     11  C   UNL     1     127.426 137.107 139.788  1.00  0.00    -0.003 C 
ATOM     12  C   UNL     1     127.418 136.481 138.393  1.00  0.00     0.004 C 
ENDBRANCH  10  11
ENDBRANCH   9  10
ENDBRANCH   8   9
ENDBRANCH   7   8
ENDBRANCH   6   7
ENDBRANCH   5   6
ENDBRANCH   4   5
ENDBRANCH   3   4
ENDBRANCH   2   3
ENDBRANCH   1   2
BRANCH   1  13
ATOM     13  C   UNL     1     131.499 138.146 137.546  1.00  0.00     0.000 C 
BRANCH  13  14
ATOM     14  C   UNL     1     130.597 139.334 137.167  1.00  0.00     0.000 C 
BRANCH  14  15
ATOM     15  C   UNL     1     130.189 140.182 138.381  1.00  0.00     0.000 C 
BRANCH  15  16
ATOM     16  C   UNL     1     131.322 141.099 138.873  1.00  0.00     0.000 C 
BRANCH  16  17
ATOM     17  C   UNL     1     131.275 141.325 140.392  1.00  0.00     0.000 C 
BRANCH  17  18
ATOM     18  C   UNL     1     129.863 141.137 140.973  1.00  0.00     0.000 C 
BRANCH  18  19
ATOM     19  C   UNL     1     129.193 142.469 141.351  1.00  0.00     0.000 C 
BRANCH  19  20
ATOM     20  C   UNL     1     127.732 142.584 140.865  1.00  0.00     0.006 C 
BRANCH  20  21
ATOM     21  C   UNL     1     127.638 142.756 139.343  1.00  0.00     0.053 C 
BRANCH  21  22
ATOM     22  C   UNL     1     126.539 143.707 138.991  1.00  0.00     0.041 C 
ATOM     23  O   UNL     1     126.004 144.416 139.883  1.00  0.00    -0.550 OA
ATOM     24  O   UNL     1     126.131 143.839 137.670  1.00  0.00    -0.550 OA
ENDBRANCH  21  22
ENDBRANCH  20  21
ENDBRANCH  19  20
ENDBRANCH  18  19
ENDBRANCH  17  18
ENDBRANCH  16  17
ENDBRANCH  15  16
ENDBRANCH  14  15
ENDBRANCH  13  14
ENDBRANCH   1  13
TORSDOF 20
ENDMDL
MODEL 8
REMARK VINA RESULT:    -4.536      1.770      2.686
REMARK INTER + INTRA:         -12.626
REMARK INTER:                  -8.860
REMARK INTRA:                  -3.765
REMARK UNBOUND:                -2.785
REMARK SMILES CCCCCCCCCCCCCCCCCCCCCC(=O)[O-]
REMARK SMILES IDX 12 1 11 2 10 3 9 4 8 5 7 6 6 7 5 8 4 9 3 10 2 11 1 12 13 13
REMARK SMILES IDX 14 14 15 15 16 16 17 17 18 18 19 19 20 20 21 21 22 22 23 23
REMARK SMILES IDX 24 24
REMARK H PARENT
REMARK Flexibility Score: inf
ROOT
ATOM      1  C   UNL     1     129.042 139.088 137.541  1.00  0.00     0.000 C 
ENDROOT
BRANCH   1   2
ATOM      2  C   UNL     1     128.143 137.874 137.813  1.00  0.00     0.000 C 
BRANCH   2   3
ATOM      3  C   UNL     1     128.251 137.429 139.276  1.00  0.00     0.000 C 
BRANCH   3   4
ATOM      4  C   UNL     1     128.828 136.010 139.380  1.00  0.00    -0.000 C 
BRANCH   4   5
ATOM      5  C   UNL     1     129.920 135.884 140.457  1.00  0.00    -0.000 C 
BRANCH   5   6
ATOM      6  C   UNL     1     129.716 136.831 141.660  1.00  0.00    -0.000 C 
BRANCH   6   7
ATOM      7  C   UNL     1     130.935 137.740 141.895  1.00  0.00    -0.000 C 
BRANCH   7   8
ATOM      8  C   UNL     1     132.092 137.449 140.923  1.00  0.00    -0.000 C 
BRANCH   8   9
ATOM      9  C   UNL     1     133.032 138.642 140.656  1.00  0.00    -0.000 C 
BRANCH   9  10
ATOM     10  C   UNL     1     133.699 138.653 139.266  1.00  0.00    -0.000 C 
BRANCH  10  11
ATOM     11  C   UNL     1     133.508 137.364 138.447  1.00  0.00    -0.003 C 
ATOM     12  C   UNL     1     132.480 137.518 137.328  1.00  0.00     0.004 C 
ENDBRANCH  10  11
ENDBRANCH   9  10
ENDBRANCH   8   9
ENDBRANCH   7   8
ENDBRANCH   6   7
ENDBRANCH   5   6
ENDBRANCH   4   5
ENDBRANCH   3   4
ENDBRANCH   2   3
ENDBRANCH   1   2
BRANCH   1  13
ATOM     13  C   UNL     1     129.828 139.534 138.784  1.00  0.00     0.000 C 
BRANCH  13  14
ATOM     14  C   UNL     1     130.751 140.733 138.501  1.00  0.00     0.000 C 
BRANCH  14  15
ATOM     15  C   UNL     1     131.092 141.533 139.768  1.00  0.00     0.000 C 
BRANCH  15  16
ATOM     16  C   UNL     1     130.154 141.212 140.944  1.00  0.00     0.000 C 
BRANCH  16  17
ATOM     17  C   UNL     1     129.300 142.421 141.359  1.00  0.00     0.000 C 
BRANCH  17  18
ATOM     18  C   UNL     1     127.809 142.232 141.029  1.00  0.00     0.000 C 
BRANCH  18  19
ATOM     19  C   UNL     1     127.341 143.120 139.863  1.00  0.00     0.000 C 
BRANCH  19  20
ATOM     20  C   UNL     1     127.369 142.404 138.495  1.00  0.00     0.006 C 
BRANCH  20  21
ATOM     21  C   UNL     1     126.456 143.083 137.465  1.00  0.00     0.053 C 
BRANCH  21  22
ATOM     22  C   UNL     1     125.833 142.064 136.566  1.00  0.00     0.041 C 
ATOM     23  O   UNL     1     125.904 140.839 136.850  1.00  0.00    -0.550 OA
ATOM     24  O   UNL     1     125.140 142.468 135.432  1.00  0.00    -0.550 OA
ENDBRANCH  21  22
ENDBRANCH  20  21
ENDBRANCH  19  20
ENDBRANCH  18  19
ENDBRANCH  17  18
ENDBRANCH  16  17
ENDBRANCH  15  16
ENDBRANCH  14  15
ENDBRANCH  13  14
ENDBRANCH   1  13
TORSDOF 20
ENDMDL
MODEL 9
REMARK VINA RESULT:    -4.533      4.987      8.193
REMARK INTER + INTRA:         -12.619
REMARK INTER:                 -10.044
REMARK INTRA:                  -2.575
REMARK UNBOUND:                -2.785
REMARK SMILES CCCCCCCCCCCCCCCCCCCCCC(=O)[O-]
REMARK SMILES IDX 12 1 11 2 10 3 9 4 8 5 7 6 6 7 5 8 4 9 3 10 2 11 1 12 13 13
REMARK SMILES IDX 14 14 15 15 16 16 17 17 18 18 19 19 20 20 21 21 22 22 23 23
REMARK SMILES IDX 24 24
REMARK H PARENT
REMARK Flexibility Score: inf
ROOT
ATOM      1  C   UNL     1     134.337 135.201 139.616  1.00  0.00     0.000 C 
ENDROOT
BRANCH   1   2
ATOM      2  C   UNL     1     135.726 134.917 140.206  1.00  0.00     0.000 C 
BRANCH   2   3
ATOM      3  C   UNL     1     135.935 135.695 141.511  1.00  0.00     0.000 C 
BRANCH   3   4
ATOM      4  C   UNL     1     137.098 136.688 141.381  1.00  0.00    -0.000 C 
BRANCH   4   5
ATOM      5  C   UNL     1     137.582 136.858 139.931  1.00  0.00    -0.000 C 
BRANCH   5   6
ATOM      6  C   UNL     1     139.111 136.725 139.768  1.00  0.00    -0.000 C 
BRANCH   6   7
ATOM      7  C   UNL     1     139.805 136.351 141.091  1.00  0.00    -0.000 C 
BRANCH   7   8
ATOM      8  C   UNL     1     140.458 134.958 141.049  1.00  0.00    -0.000 C 
BRANCH   8   9
ATOM      9  C   UNL     1     139.472 133.776 141.133  1.00  0.00    -0.000 C 
BRANCH   9  10
ATOM     10  C   UNL     1     139.274 132.993 139.820  1.00  0.00    -0.000 C 
BRANCH  10  11
ATOM     11  C   UNL     1     140.262 133.353 138.697  1.00  0.00    -0.003 C 
ATOM     12  C   UNL     1     139.566 133.737 137.392  1.00  0.00     0.004 C 
ENDBRANCH  10  11
ENDBRANCH   9  10
ENDBRANCH   8   9
ENDBRANCH   7   8
ENDBRANCH   6   7
ENDBRANCH   5   6
ENDBRANCH   4   5
ENDBRANCH   3   4
ENDBRANCH   2   3
ENDBRANCH   1   2
BRANCH   1  13
ATOM     13  C   UNL     1     133.297 134.140 140.012  1.00  0.00     0.000 C 
BRANCH  13  14
ATOM     14  C   UNL     1     132.586 133.525 138.793  1.00  0.00     0.000 C 
BRANCH  14  15
ATOM     15  C   UNL     1     131.726 132.306 139.159  1.00  0.00     0.000 C 
BRANCH  15  16
ATOM     16  C   UNL     1     131.063 132.440 140.541  1.00  0.00     0.000 C 
BRANCH  16  17
ATOM     17  C   UNL     1     129.533 132.311 140.472  1.00  0.00     0.000 C 
BRANCH  17  18
ATOM     18  C   UNL     1     128.811 133.585 140.942  1.00  0.00     0.000 C 
BRANCH  18  19
ATOM     19  C   UNL     1     129.659 134.854 140.753  1.00  0.00     0.000 C 
BRANCH  19  20
ATOM     20  C   UNL     1     129.127 135.791 139.646  1.00  0.00     0.006 C 
BRANCH  20  21
ATOM     21  C   UNL     1     130.241 136.267 138.704  1.00  0.00     0.053 C 
BRANCH  21  22
ATOM     22  C   UNL     1     130.271 137.762 138.644  1.00  0.00     0.041 C 
ATOM     23  O   UNL     1     129.631 138.373 137.750  1.00  0.00    -0.550 OA
ATOM     24  O   UNL     1     130.976 138.482 139.600  1.00  0.00    -0.550 OA
ENDBRANCH  21  22
ENDBRANCH  20  21
ENDBRANCH  19  20
ENDBRANCH  18  19
ENDBRANCH  17  18
ENDBRANCH  16  17
ENDBRANCH  15  16
ENDBRANCH  14  15
ENDBRANCH  13  14
ENDBRANCH   1  13
TORSDOF 20
ENDMDL
