MODEL 1
REMARK VINA RESULT:    -8.964      0.000      0.000
REMARK INTER + INTRA:          -9.991
REMARK INTER:                  -9.750
REMARK INTRA:                  -0.240
REMARK UNBOUND:                -0.240
REMARK SMILES C[C@H]1[C@H](C)CC[C@@]2(C(=O)[O-])CC[C@@]3(C)C(=CC[C@@H]4[C@@]5(C)CC[C@H](O)C(C)(C)[C@H]5CC[C@@]43C)[C@@H]12
REMARK SMILES IDX 7 1 6 2 11 3 33 4 5 5 12 6 15 7 2 8 3 9 13 10 16 11 1 12
REMARK SMILES IDX 4 13 14 14 31 15 17 16 18 17 30 18 32 19 19 20 29 21 28 22
REMARK SMILES IDX 21 23 20 24 25 25 22 26 23 27 26 28 27 29 8 30 9 31 10 32
REMARK SMILES IDX 24 33
REMARK H PARENT 24 34
REMARK Flexibility Score: inf
ROOT
ATOM      1  C   UNL     1     167.981 148.876 146.878  1.00  0.00     0.017 C 
ATOM      2  C   UNL     1     167.995 147.686 145.876  1.00  0.00     0.014 C 
ATOM      3  C   UNL     1     166.876 149.885 146.465  1.00  0.00     0.014 C 
ATOM      4  C   UNL     1     167.763 148.331 148.359  1.00  0.00     0.030 C 
ATOM      5  C   UNL     1     169.034 146.640 146.278  1.00  0.00     0.004 C 
ATOM      6  C   UNL     1     165.510 149.501 147.013  1.00  0.00     0.013 C 
ATOM      7  C   UNL     1     166.689 149.098 149.177  1.00  0.00    -0.063 C 
ATOM      8  C   UNL     1     167.716 146.776 148.553  1.00  0.00    -0.003 C 
ATOM      9  C   UNL     1     168.758 146.005 147.670  1.00  0.00    -0.011 C 
ATOM     10  C   UNL     1     165.399 149.724 148.567  1.00  0.00    -0.006 C 
ATOM     11  C   UNL     1     167.055 149.438 150.414  1.00  0.00    -0.027 C 
ATOM     12  C   UNL     1     166.324 146.135 148.463  1.00  0.00     0.008 C 
ATOM     13  C   UNL     1     170.082 145.811 148.435  1.00  0.00     0.008 C 
ATOM     14  C   UNL     1     164.186 148.848 149.000  1.00  0.00     0.017 C 
ATOM     15  C   UNL     1     165.161 151.291 149.058  1.00  0.00    -0.020 C 
ATOM     16  C   UNL     1     166.889 150.841 150.885  1.00  0.00     0.032 C 
ATOM     17  C   UNL     1     166.484 151.852 149.741  1.00  0.00     0.006 C 
ATOM     18  C   UNL     1     164.049 151.457 150.154  1.00  0.00     0.008 C 
ATOM     19  C   UNL     1     164.646 152.119 147.835  1.00  0.00     0.012 C 
ATOM     20  C   UNL     1     166.465 153.345 150.332  1.00  0.00    -0.025 C 
ATOM     21  C   UNL     1     163.932 152.880 150.750  1.00  0.00     0.005 C 
ATOM     22  C   UNL     1     165.241 153.510 151.326  1.00  0.00     0.003 C 
ATOM     23  C   UNL     1     166.433 154.443 149.219  1.00  0.00     0.010 C 
ATOM     24  C   UNL     1     167.830 153.561 151.076  1.00  0.00     0.012 C 
ATOM     25  C   UNL     1     165.003 155.002 151.837  1.00  0.00    -0.006 C 
ATOM     26  C   UNL     1     166.250 155.873 149.746  1.00  0.00     0.033 C 
ATOM     27  C   UNL     1     165.007 156.007 150.644  1.00  0.00     0.120 C 
ATOM     28  C   UNL     1     166.058 155.415 152.908  1.00  0.00     0.014 C 
ATOM     29  C   UNL     1     163.631 155.125 152.564  1.00  0.00     0.014 C 
ENDROOT
BRANCH   1  30
ATOM     30  C   UNL     1     169.303 149.652 146.713  1.00  0.00     0.048 C 
ATOM     31  O   UNL     1     169.373 150.598 145.879  1.00  0.00    -0.550 OA
ATOM     32  O   UNL     1     170.405 149.412 147.531  1.00  0.00    -0.550 OA
ENDBRANCH   1  30
BRANCH  27  33
ATOM     33  O   UNL     1     164.921 157.327 151.123  1.00  0.00    -0.393 OA
ATOM     34  H   UNL     1     164.393 157.843 150.459  1.00  0.00     0.210 HD
ENDBRANCH  27  33
TORSDOF 2
ENDMDL
MODEL 2
REMARK VINA RESULT:    -8.488     12.051     15.473
REMARK INTER + INTRA:          -9.473
REMARK INTER:                  -9.211
REMARK INTRA:                  -0.261
REMARK UNBOUND:                -0.240
REMARK SMILES C[C@H]1[C@H](C)CC[C@@]2(C(=O)[O-])CC[C@@]3(C)C(=CC[C@@H]4[C@@]5(C)CC[C@H](O)C(C)(C)[C@H]5CC[C@@]43C)[C@@H]12
REMARK SMILES IDX 7 1 6 2 11 3 33 4 5 5 12 6 15 7 2 8 3 9 13 10 16 11 1 12
REMARK SMILES IDX 4 13 14 14 31 15 17 16 18 17 30 18 32 19 19 20 29 21 28 22
REMARK SMILES IDX 21 23 20 24 25 25 22 26 23 27 26 28 27 29 8 30 9 31 10 32
REMARK SMILES IDX 24 33
REMARK H PARENT 24 34
REMARK Flexibility Score: inf
ROOT
ATOM      1  C   UNL     1     166.476 157.892 162.515  1.00  0.00     0.017 C 
ATOM      2  C   UNL     1     167.238 157.368 163.767  1.00  0.00     0.014 C 
ATOM      3  C   UNL     1     165.298 156.934 162.190  1.00  0.00     0.014 C 
ATOM      4  C   UNL     1     165.974 159.382 162.774  1.00  0.00     0.030 C 
ATOM      5  C   UNL     1     168.374 158.313 164.155  1.00  0.00     0.004 C 
ATOM      6  C   UNL     1     164.050 157.259 162.997  1.00  0.00     0.013 C 
ATOM      7  C   UNL     1     164.492 159.640 162.388  1.00  0.00    -0.063 C 
ATOM      8  C   UNL     1     166.407 160.062 164.119  1.00  0.00    -0.003 C 
ATOM      9  C   UNL     1     167.883 159.738 164.536  1.00  0.00    -0.011 C 
ATOM     10  C   UNL     1     163.352 158.587 162.520  1.00  0.00    -0.006 C 
ATOM     11  C   UNL     1     164.279 160.744 161.671  1.00  0.00    -0.027 C 
ATOM     12  C   UNL     1     165.440 159.881 165.298  1.00  0.00     0.008 C 
ATOM     13  C   UNL     1     168.852 160.799 163.977  1.00  0.00     0.008 C 
ATOM     14  C   UNL     1     162.448 159.002 163.718  1.00  0.00     0.017 C 
ATOM     15  C   UNL     1     162.436 158.468 161.142  1.00  0.00    -0.020 C 
ATOM     16  C   UNL     1     163.488 160.676 160.410  1.00  0.00     0.032 C 
ATOM     17  C   UNL     1     163.170 159.204 159.938  1.00  0.00     0.006 C 
ATOM     18  C   UNL     1     161.035 159.170 161.241  1.00  0.00     0.008 C 
ATOM     19  C   UNL     1     162.110 156.957 160.895  1.00  0.00     0.012 C 
ATOM     20  C   UNL     1     162.436 159.249 158.510  1.00  0.00    -0.025 C 
ATOM     21  C   UNL     1     160.239 159.222 159.916  1.00  0.00     0.005 C 
ATOM     22  C   UNL     1     160.972 159.834 158.679  1.00  0.00     0.003 C 
ATOM     23  C   UNL     1     162.403 157.859 157.794  1.00  0.00     0.010 C 
ATOM     24  C   UNL     1     163.306 160.165 157.577  1.00  0.00     0.012 C 
ATOM     25  C   UNL     1     160.075 159.758 157.363  1.00  0.00    -0.006 C 
ATOM     26  C   UNL     1     161.570 157.830 156.506  1.00  0.00     0.033 C 
ATOM     27  C   UNL     1     160.133 158.334 156.731  1.00  0.00     0.120 C 
ATOM     28  C   UNL     1     160.495 160.840 156.321  1.00  0.00     0.014 C 
ATOM     29  C   UNL     1     158.587 160.079 157.689  1.00  0.00     0.014 C 
ENDROOT
BRANCH   1  30
ATOM     30  C   UNL     1     167.419 157.778 161.302  1.00  0.00     0.048 C 
ATOM     31  O   UNL     1     168.005 158.809 160.866  1.00  0.00    -0.550 OA
ATOM     32  O   UNL     1     167.731 156.550 160.724  1.00  0.00    -0.550 OA
ENDBRANCH   1  30
BRANCH  27  33
ATOM     33  O   UNL     1     159.440 158.318 155.507  1.00  0.00    -0.393 OA
ATOM     34  H   UNL     1     159.299 157.365 155.265  1.00  0.00     0.210 HD
ENDBRANCH  27  33
TORSDOF 2
ENDMDL
MODEL 3
REMARK VINA RESULT:    -8.375      4.129      8.692
REMARK INTER + INTRA:          -9.350
REMARK INTER:                  -9.038
REMARK INTRA:                  -0.312
REMARK UNBOUND:                -0.240
REMARK SMILES C[C@H]1[C@H](C)CC[C@@]2(C(=O)[O-])CC[C@@]3(C)C(=CC[C@@H]4[C@@]5(C)CC[C@H](O)C(C)(C)[C@H]5CC[C@@]43C)[C@@H]12
REMARK SMILES IDX 7 1 6 2 11 3 33 4 5 5 12 6 15 7 2 8 3 9 13 10 16 11 1 12
REMARK SMILES IDX 4 13 14 14 31 15 17 16 18 17 30 18 32 19 19 20 29 21 28 22
REMARK SMILES IDX 21 23 20 24 25 25 22 26 23 27 26 28 27 29 8 30 9 31 10 32
REMARK SMILES IDX 24 33
REMARK H PARENT 24 34
REMARK Flexibility Score: inf
ROOT
ATOM      1  C   UNL     1     165.129 147.840 148.541  1.00  0.00     0.017 C 
ATOM      2  C   UNL     1     164.590 148.615 147.304  1.00  0.00     0.014 C 
ATOM      3  C   UNL     1     165.895 146.577 148.064  1.00  0.00     0.014 C 
ATOM      4  C   UNL     1     166.052 148.798 149.418  1.00  0.00     0.030 C 
ATOM      5  C   UNL     1     163.874 149.897 147.728  1.00  0.00     0.004 C 
ATOM      6  C   UNL     1     167.343 146.879 147.713  1.00  0.00     0.013 C 
ATOM      7  C   UNL     1     167.406 148.172 149.849  1.00  0.00    -0.063 C 
ATOM      8  C   UNL     1     166.159 150.297 148.972  1.00  0.00    -0.003 C 
ATOM      9  C   UNL     1     164.801 150.900 148.473  1.00  0.00    -0.011 C 
ATOM     10  C   UNL     1     168.226 147.167 148.985  1.00  0.00    -0.006 C 
ATOM     11  C   UNL     1     167.718 148.328 151.136  1.00  0.00    -0.027 C 
ATOM     12  C   UNL     1     167.305 150.623 148.003  1.00  0.00     0.008 C 
ATOM     13  C   UNL     1     164.038 151.560 149.637  1.00  0.00     0.008 C 
ATOM     14  C   UNL     1     169.474 147.915 148.431  1.00  0.00     0.017 C 
ATOM     15  C   UNL     1     168.708 145.835 149.848  1.00  0.00    -0.020 C 
ATOM     16  C   UNL     1     168.125 147.153 151.956  1.00  0.00     0.032 C 
ATOM     17  C   UNL     1     167.919 145.768 151.228  1.00  0.00     0.006 C 
ATOM     18  C   UNL     1     170.224 145.852 150.259  1.00  0.00     0.008 C 
ATOM     19  C   UNL     1     168.554 144.573 148.935  1.00  0.00     0.012 C 
ATOM     20  C   UNL     1     168.261 144.575 152.246  1.00  0.00    -0.025 C 
ATOM     21  C   UNL     1     170.652 144.709 151.209  1.00  0.00     0.005 C 
ATOM     22  C   UNL     1     169.822 144.539 152.523  1.00  0.00     0.003 C 
ATOM     23  C   UNL     1     167.750 143.182 151.751  1.00  0.00     0.010 C 
ATOM     24  C   UNL     1     167.460 144.855 153.567  1.00  0.00     0.012 C 
ATOM     25  C   UNL     1     170.313 143.283 153.374  1.00  0.00    -0.006 C 
ATOM     26  C   UNL     1     168.200 141.998 152.617  1.00  0.00     0.033 C 
ATOM     27  C   UNL     1     169.728 141.957 152.797  1.00  0.00     0.120 C 
ATOM     28  C   UNL     1     169.948 143.435 154.881  1.00  0.00     0.014 C 
ATOM     29  C   UNL     1     171.866 143.173 153.351  1.00  0.00     0.014 C 
ENDROOT
BRANCH   1  30
ATOM     30  C   UNL     1     163.918 147.292 149.323  1.00  0.00     0.048 C 
ATOM     31  O   UNL     1     163.742 147.637 150.525  1.00  0.00    -0.550 OA
ATOM     32  O   UNL     1     162.946 146.501 148.715  1.00  0.00    -0.550 OA
ENDBRANCH   1  30
BRANCH  27  33
ATOM     33  O   UNL     1     170.068 140.875 153.630  1.00  0.00    -0.393 OA
ATOM     34  H   UNL     1     169.267 140.293 153.691  1.00  0.00     0.210 HD
ENDBRANCH  27  33
TORSDOF 2
ENDMDL
MODEL 4
REMARK VINA RESULT:    -8.066      2.662      4.999
REMARK INTER + INTRA:          -9.013
REMARK INTER:                  -8.891
REMARK INTRA:                  -0.122
REMARK UNBOUND:                -0.240
REMARK SMILES C[C@H]1[C@H](C)CC[C@@]2(C(=O)[O-])CC[C@@]3(C)C(=CC[C@@H]4[C@@]5(C)CC[C@H](O)C(C)(C)[C@H]5CC[C@@]43C)[C@@H]12
REMARK SMILES IDX 7 1 6 2 11 3 33 4 5 5 12 6 15 7 2 8 3 9 13 10 16 11 1 12
REMARK SMILES IDX 4 13 14 14 31 15 17 16 18 17 30 18 32 19 19 20 29 21 28 22
REMARK SMILES IDX 21 23 20 24 25 25 22 26 23 27 26 28 27 29 8 30 9 31 10 32
REMARK SMILES IDX 24 33
REMARK H PARENT 24 34
REMARK Flexibility Score: inf
ROOT
ATOM      1  C   UNL     1     169.833 145.009 150.198  1.00  0.00     0.017 C 
ATOM      2  C   UNL     1     170.701 143.730 150.018  1.00  0.00     0.014 C 
ATOM      3  C   UNL     1     170.531 146.209 149.504  1.00  0.00     0.014 C 
ATOM      4  C   UNL     1     168.371 144.755 149.615  1.00  0.00     0.030 C 
ATOM      5  C   UNL     1     170.021 142.512 150.641  1.00  0.00     0.004 C 
ATOM      6  C   UNL     1     170.207 146.285 148.020  1.00  0.00     0.013 C 
ATOM      7  C   UNL     1     167.837 145.888 148.698  1.00  0.00    -0.063 C 
ATOM      8  C   UNL     1     168.046 143.312 149.096  1.00  0.00    -0.003 C 
ATOM      9  C   UNL     1     168.650 142.175 149.991  1.00  0.00    -0.011 C 
ATOM     10  C   UNL     1     168.726 146.745 147.748  1.00  0.00    -0.006 C 
ATOM     11  C   UNL     1     166.591 146.287 148.958  1.00  0.00    -0.027 C 
ATOM     12  C   UNL     1     168.327 143.061 147.607  1.00  0.00     0.008 C 
ATOM     13  C   UNL     1     167.642 141.743 151.074  1.00  0.00     0.008 C 
ATOM     14  C   UNL     1     168.442 146.295 146.284  1.00  0.00     0.017 C 
ATOM     15  C   UNL     1     168.434 148.371 147.900  1.00  0.00    -0.020 C 
ATOM     16  C   UNL     1     166.291 147.735 149.134  1.00  0.00     0.032 C 
ATOM     17  C   UNL     1     167.577 148.647 149.212  1.00  0.00     0.006 C 
ATOM     18  C   UNL     1     167.579 148.980 146.732  1.00  0.00     0.008 C 
ATOM     19  C   UNL     1     169.802 149.127 147.832  1.00  0.00     0.012 C 
ATOM     20  C   UNL     1     167.141 150.158 149.534  1.00  0.00    -0.025 C 
ATOM     21  C   UNL     1     167.149 150.451 146.942  1.00  0.00     0.005 C 
ATOM     22  C   UNL     1     166.405 150.783 148.276  1.00  0.00     0.003 C 
ATOM     23  C   UNL     1     168.337 151.058 149.985  1.00  0.00     0.010 C 
ATOM     24  C   UNL     1     166.184 150.103 150.778  1.00  0.00     0.012 C 
ATOM     25  C   UNL     1     166.086 152.340 148.404  1.00  0.00    -0.006 C 
ATOM     26  C   UNL     1     167.988 152.544 150.145  1.00  0.00     0.033 C 
ATOM     27  C   UNL     1     167.346 153.130 148.874  1.00  0.00     0.120 C 
ATOM     28  C   UNL     1     164.884 152.601 149.362  1.00  0.00     0.014 C 
ATOM     29  C   UNL     1     165.636 152.926 147.034  1.00  0.00     0.014 C 
ENDROOT
BRANCH   1  30
ATOM     30  C   UNL     1     169.826 145.372 151.696  1.00  0.00     0.048 C 
ATOM     31  O   UNL     1     168.849 146.008 152.182  1.00  0.00    -0.550 OA
ATOM     32  O   UNL     1     170.823 144.933 152.565  1.00  0.00    -0.550 OA
ENDBRANCH   1  30
BRANCH  27  33
ATOM     33  O   UNL     1     167.016 154.478 149.101  1.00  0.00    -0.393 OA
ATOM     34  H   UNL     1     166.183 154.486 149.641  1.00  0.00     0.210 HD
ENDBRANCH  27  33
TORSDOF 2
ENDMDL
MODEL 5
REMARK VINA RESULT:    -7.956      1.654      2.878
REMARK INTER + INTRA:          -8.894
REMARK INTER:                  -8.903
REMARK INTRA:                   0.009
REMARK UNBOUND:                -0.240
REMARK SMILES C[C@H]1[C@H](C)CC[C@@]2(C(=O)[O-])CC[C@@]3(C)C(=CC[C@@H]4[C@@]5(C)CC[C@H](O)C(C)(C)[C@H]5CC[C@@]43C)[C@@H]12
REMARK SMILES IDX 7 1 6 2 11 3 33 4 5 5 12 6 15 7 2 8 3 9 13 10 16 11 1 12
REMARK SMILES IDX 4 13 14 14 31 15 17 16 18 17 30 18 32 19 19 20 29 21 28 22
REMARK SMILES IDX 21 23 20 24 25 25 22 26 23 27 26 28 27 29 8 30 9 31 10 32
REMARK SMILES IDX 24 33
REMARK H PARENT 24 34
REMARK Flexibility Score: inf
ROOT
ATOM      1  C   UNL     1     168.898 146.635 147.265  1.00  0.00     0.017 C 
ATOM      2  C   UNL     1     169.515 145.686 146.197  1.00  0.00     0.014 C 
ATOM      3  C   UNL     1     168.733 148.055 146.659  1.00  0.00     0.014 C 
ATOM      4  C   UNL     1     167.509 146.043 147.774  1.00  0.00     0.030 C 
ATOM      5  C   UNL     1     169.643 144.262 146.735  1.00  0.00     0.004 C 
ATOM      6  C   UNL     1     167.435 148.204 145.881  1.00  0.00     0.013 C 
ATOM      7  C   UNL     1     166.348 147.073 147.824  1.00  0.00    -0.063 C 
ATOM      8  C   UNL     1     167.085 144.636 147.228  1.00  0.00    -0.003 C 
ATOM      9  C   UNL     1     168.277 143.624 147.115  1.00  0.00    -0.011 C 
ATOM     10  C   UNL     1     166.171 148.250 146.819  1.00  0.00    -0.006 C 
ATOM     11  C   UNL     1     165.636 147.068 148.952  1.00  0.00    -0.027 C 
ATOM     12  C   UNL     1     166.236 144.645 145.948  1.00  0.00     0.008 C 
ATOM     13  C   UNL     1     168.418 142.802 148.411  1.00  0.00     0.008 C 
ATOM     14  C   UNL     1     164.978 147.906 145.879  1.00  0.00     0.017 C 
ATOM     15  C   UNL     1     165.887 149.696 147.579  1.00  0.00    -0.020 C 
ATOM     16  C   UNL     1     165.383 148.341 149.684  1.00  0.00     0.032 C 
ATOM     17  C   UNL     1     166.211 149.566 149.131  1.00  0.00     0.006 C 
ATOM     18  C   UNL     1     164.389 150.165 147.525  1.00  0.00     0.008 C 
ATOM     19  C   UNL     1     166.684 150.814 146.828  1.00  0.00     0.012 C 
ATOM     20  C   UNL     1     165.964 150.843 150.072  1.00  0.00    -0.025 C 
ATOM     21  C   UNL     1     164.070 151.419 148.373  1.00  0.00     0.005 C 
ATOM     22  C   UNL     1     164.481 151.371 149.880  1.00  0.00     0.003 C 
ATOM     23  C   UNL     1     167.000 151.990 149.832  1.00  0.00     0.010 C 
ATOM     24  C   UNL     1     166.211 150.377 151.551  1.00  0.00     0.012 C 
ATOM     25  C   UNL     1     164.169 152.748 150.622  1.00  0.00    -0.006 C 
ATOM     26  C   UNL     1     166.698 153.286 150.597  1.00  0.00     0.033 C 
ATOM     27  C   UNL     1     165.275 153.805 150.322  1.00  0.00     0.120 C 
ATOM     28  C   UNL     1     164.005 152.545 152.159  1.00  0.00     0.014 C 
ATOM     29  C   UNL     1     162.805 153.332 150.151  1.00  0.00     0.014 C 
ENDROOT
BRANCH   1  30
ATOM     30  C   UNL     1     169.928 146.809 148.399  1.00  0.00     0.048 C 
ATOM     31  O   UNL     1     170.463 147.936 148.591  1.00  0.00    -0.550 OA
ATOM     32  O   UNL     1     170.218 145.781 149.293  1.00  0.00    -0.550 OA
ENDBRANCH   1  30
BRANCH  27  33
ATOM     33  O   UNL     1     165.052 154.968 151.080  1.00  0.00    -0.393 OA
ATOM     34  H   UNL     1     165.942 155.309 151.359  1.00  0.00     0.210 HD
ENDBRANCH  27  33
TORSDOF 2
ENDMDL
MODEL 6
REMARK VINA RESULT:    -7.752      3.801      8.597
REMARK INTER + INTRA:          -8.672
REMARK INTER:                  -8.387
REMARK INTRA:                  -0.286
REMARK UNBOUND:                -0.240
REMARK SMILES C[C@H]1[C@H](C)CC[C@@]2(C(=O)[O-])CC[C@@]3(C)C(=CC[C@@H]4[C@@]5(C)CC[C@H](O)C(C)(C)[C@H]5CC[C@@]43C)[C@@H]12
REMARK SMILES IDX 7 1 6 2 11 3 33 4 5 5 12 6 15 7 2 8 3 9 13 10 16 11 1 12
REMARK SMILES IDX 4 13 14 14 31 15 17 16 18 17 30 18 32 19 19 20 29 21 28 22
REMARK SMILES IDX 21 23 20 24 25 25 22 26 23 27 26 28 27 29 8 30 9 31 10 32
REMARK SMILES IDX 24 33
REMARK H PARENT 24 34
REMARK Flexibility Score: inf
ROOT
ATOM      1  C   UNL     1     165.774 148.000 147.874  1.00  0.00     0.017 C 
ATOM      2  C   UNL     1     165.143 148.608 146.589  1.00  0.00     0.014 C 
ATOM      3  C   UNL     1     165.993 146.477 147.672  1.00  0.00     0.014 C 
ATOM      4  C   UNL     1     167.136 148.755 148.215  1.00  0.00     0.030 C 
ATOM      5  C   UNL     1     164.961 150.118 146.725  1.00  0.00     0.004 C 
ATOM      6  C   UNL     1     167.307 146.171 146.970  1.00  0.00     0.013 C 
ATOM      7  C   UNL     1     168.328 147.816 148.546  1.00  0.00    -0.063 C 
ATOM      8  C   UNL     1     167.523 149.979 147.315  1.00  0.00    -0.003 C 
ATOM      9  C   UNL     1     166.301 150.882 146.929  1.00  0.00    -0.011 C 
ATOM     10  C   UNL     1     168.558 146.421 147.893  1.00  0.00    -0.006 C 
ATOM     11  C   UNL     1     169.023 148.147 149.635  1.00  0.00    -0.027 C 
ATOM     12  C   UNL     1     168.390 149.657 146.090  1.00  0.00     0.008 C 
ATOM     13  C   UNL     1     166.114 152.014 147.957  1.00  0.00     0.008 C 
ATOM     14  C   UNL     1     169.753 146.542 146.903  1.00  0.00     0.017 C 
ATOM     15  C   UNL     1     168.876 145.241 149.014  1.00  0.00    -0.020 C 
ATOM     16  C   UNL     1     169.304 147.126 150.682  1.00  0.00     0.032 C 
ATOM     17  C   UNL     1     168.525 145.769 150.473  1.00  0.00     0.006 C 
ATOM     18  C   UNL     1     170.389 144.826 149.096  1.00  0.00     0.008 C 
ATOM     19  C   UNL     1     168.127 143.935 148.584  1.00  0.00     0.012 C 
ATOM     20  C   UNL     1     168.798 144.799 151.723  1.00  0.00    -0.025 C 
ATOM     21  C   UNL     1     170.735 143.857 150.251  1.00  0.00     0.005 C 
ATOM     22  C   UNL     1     170.300 144.291 151.688  1.00  0.00     0.003 C 
ATOM     23  C   UNL     1     167.803 143.594 151.792  1.00  0.00     0.010 C 
ATOM     24  C   UNL     1     168.515 145.635 153.022  1.00  0.00     0.012 C 
ATOM     25  C   UNL     1     170.645 143.175 152.773  1.00  0.00    -0.006 C 
ATOM     26  C   UNL     1     168.135 142.561 152.877  1.00  0.00     0.033 C 
ATOM     27  C   UNL     1     169.577 142.038 152.759  1.00  0.00     0.120 C 
ATOM     28  C   UNL     1     170.780 143.786 154.200  1.00  0.00     0.014 C 
ATOM     29  C   UNL     1     172.034 142.533 152.483  1.00  0.00     0.014 C 
ENDROOT
BRANCH   1  30
ATOM     30  C   UNL     1     164.734 148.100 149.008  1.00  0.00     0.048 C 
ATOM     31  O   UNL     1     163.828 147.225 149.105  1.00  0.00    -0.550 OA
ATOM     32  O   UNL     1     164.817 149.074 150.000  1.00  0.00    -0.550 OA
ENDBRANCH   1  30
BRANCH  27  33
ATOM     33  O   UNL     1     169.826 141.128 153.803  1.00  0.00    -0.393 OA
ATOM     34  H   UNL     1     168.953 140.726 154.053  1.00  0.00     0.210 HD
ENDBRANCH  27  33
TORSDOF 2
ENDMDL
MODEL 7
REMARK VINA RESULT:    -7.583     11.392     14.430
REMARK INTER + INTRA:          -8.489
REMARK INTER:                  -8.368
REMARK INTRA:                  -0.121
REMARK UNBOUND:                -0.240
REMARK SMILES C[C@H]1[C@H](C)CC[C@@]2(C(=O)[O-])CC[C@@]3(C)C(=CC[C@@H]4[C@@]5(C)CC[C@H](O)C(C)(C)[C@H]5CC[C@@]43C)[C@@H]12
REMARK SMILES IDX 7 1 6 2 11 3 33 4 5 5 12 6 15 7 2 8 3 9 13 10 16 11 1 12
REMARK SMILES IDX 4 13 14 14 31 15 17 16 18 17 30 18 32 19 19 20 29 21 28 22
REMARK SMILES IDX 21 23 20 24 25 25 22 26 23 27 26 28 27 29 8 30 9 31 10 32
REMARK SMILES IDX 24 33
REMARK H PARENT 24 34
REMARK Flexibility Score: inf
ROOT
ATOM      1  C   UNL     1     162.140 159.842 156.520  1.00  0.00     0.017 C 
ATOM      2  C   UNL     1     161.095 160.570 155.626  1.00  0.00     0.014 C 
ATOM      3  C   UNL     1     162.825 160.872 157.458  1.00  0.00     0.014 C 
ATOM      4  C   UNL     1     161.429 158.674 157.339  1.00  0.00     0.030 C 
ATOM      5  C   UNL     1     160.358 159.582 154.724  1.00  0.00     0.004 C 
ATOM      6  C   UNL     1     162.022 161.120 158.725  1.00  0.00     0.013 C 
ATOM      7  C   UNL     1     161.785 158.638 158.850  1.00  0.00    -0.063 C 
ATOM      8  C   UNL     1     159.915 158.405 157.037  1.00  0.00    -0.003 C 
ATOM      9  C   UNL     1     159.552 158.513 155.515  1.00  0.00    -0.011 C 
ATOM     10  C   UNL     1     162.068 159.900 159.719  1.00  0.00    -0.006 C 
ATOM     11  C   UNL     1     162.106 157.434 159.327  1.00  0.00    -0.027 C 
ATOM     12  C   UNL     1     158.914 159.179 157.906  1.00  0.00     0.008 C 
ATOM     13  C   UNL     1     159.677 157.140 154.827  1.00  0.00     0.008 C 
ATOM     14  C   UNL     1     160.849 160.120 160.662  1.00  0.00     0.017 C 
ATOM     15  C   UNL     1     163.453 159.752 160.619  1.00  0.00    -0.020 C 
ATOM     16  C   UNL     1     163.357 157.250 160.114  1.00  0.00     0.032 C 
ATOM     17  C   UNL     1     164.306 158.512 160.103  1.00  0.00     0.006 C 
ATOM     18  C   UNL     1     163.200 159.452 162.140  1.00  0.00     0.008 C 
ATOM     19  C   UNL     1     164.203 161.125 160.601  1.00  0.00     0.012 C 
ATOM     20  C   UNL     1     165.674 158.156 160.864  1.00  0.00    -0.025 C 
ATOM     21  C   UNL     1     164.473 159.139 162.961  1.00  0.00     0.005 C 
ATOM     22  C   UNL     1     165.397 158.002 162.417  1.00  0.00     0.003 C 
ATOM     23  C   UNL     1     166.810 159.198 160.600  1.00  0.00     0.010 C 
ATOM     24  C   UNL     1     166.205 156.812 160.249  1.00  0.00     0.012 C 
ATOM     25  C   UNL     1     166.709 157.831 163.308  1.00  0.00    -0.006 C 
ATOM     26  C   UNL     1     168.077 158.978 161.438  1.00  0.00     0.033 C 
ATOM     27  C   UNL     1     167.773 158.912 162.945  1.00  0.00     0.120 C 
ATOM     28  C   UNL     1     167.310 156.399 163.171  1.00  0.00     0.014 C 
ATOM     29  C   UNL     1     166.373 157.977 164.821  1.00  0.00     0.014 C 
ENDROOT
BRANCH   1  30
ATOM     30  C   UNL     1     163.272 159.330 155.607  1.00  0.00     0.048 C 
ATOM     31  O   UNL     1     164.369 159.954 155.559  1.00  0.00    -0.550 OA
ATOM     32  O   UNL     1     163.164 158.134 154.900  1.00  0.00    -0.550 OA
ENDBRANCH   1  30
BRANCH  27  33
ATOM     33  O   UNL     1     168.967 158.671 163.649  1.00  0.00    -0.393 OA
ATOM     34  H   UNL     1     168.803 157.893 164.243  1.00  0.00     0.210 HD
ENDBRANCH  27  33
TORSDOF 2
ENDMDL
MODEL 8
REMARK VINA RESULT:    -7.174      8.280     13.338
REMARK INTER + INTRA:          -8.043
REMARK INTER:                  -7.797
REMARK INTRA:                  -0.246
REMARK UNBOUND:                -0.240
REMARK SMILES C[C@H]1[C@H](C)CC[C@@]2(C(=O)[O-])CC[C@@]3(C)C(=CC[C@@H]4[C@@]5(C)CC[C@H](O)C(C)(C)[C@H]5CC[C@@]43C)[C@@H]12
REMARK SMILES IDX 7 1 6 2 11 3 33 4 5 5 12 6 15 7 2 8 3 9 13 10 16 11 1 12
REMARK SMILES IDX 4 13 14 14 31 15 17 16 18 17 30 18 32 19 19 20 29 21 28 22
REMARK SMILES IDX 21 23 20 24 25 25 22 26 23 27 26 28 27 29 8 30 9 31 10 32
REMARK SMILES IDX 24 33
REMARK H PARENT 24 34
REMARK Flexibility Score: inf
ROOT
ATOM      1  C   UNL     1     162.569 157.901 159.680  1.00  0.00     0.017 C 
ATOM      2  C   UNL     1     161.708 157.716 160.963  1.00  0.00     0.014 C 
ATOM      3  C   UNL     1     161.752 157.447 158.441  1.00  0.00     0.014 C 
ATOM      4  C   UNL     1     163.035 159.420 159.558  1.00  0.00     0.030 C 
ATOM      5  C   UNL     1     162.457 158.204 162.202  1.00  0.00     0.004 C 
ATOM      6  C   UNL     1     160.850 158.549 157.908  1.00  0.00     0.013 C 
ATOM      7  C   UNL     1     162.833 160.046 158.151  1.00  0.00    -0.063 C 
ATOM      8  C   UNL     1     162.664 160.382 160.739  1.00  0.00    -0.003 C 
ATOM      9  C   UNL     1     162.804 159.719 162.153  1.00  0.00    -0.011 C 
ATOM     10  C   UNL     1     161.656 159.696 157.192  1.00  0.00    -0.006 C 
ATOM     11  C   UNL     1     163.883 160.717 157.675  1.00  0.00    -0.027 C 
ATOM     12  C   UNL     1     161.327 161.124 160.599  1.00  0.00     0.008 C 
ATOM     13  C   UNL     1     164.213 159.958 162.729  1.00  0.00     0.008 C 
ATOM     14  C   UNL     1     160.676 160.906 157.171  1.00  0.00     0.017 C 
ATOM     15  C   UNL     1     162.171 159.366 155.651  1.00  0.00    -0.020 C 
ATOM     16  C   UNL     1     164.398 160.429 156.307  1.00  0.00     0.032 C 
ATOM     17  C   UNL     1     163.748 159.156 155.638  1.00  0.00     0.006 C 
ATOM     18  C   UNL     1     161.918 160.530 154.627  1.00  0.00     0.008 C 
ATOM     19  C   UNL     1     161.338 158.161 155.099  1.00  0.00     0.012 C 
ATOM     20  C   UNL     1     164.468 158.865 154.233  1.00  0.00    -0.025 C 
ATOM     21  C   UNL     1     162.545 160.313 153.229  1.00  0.00     0.005 C 
ATOM     22  C   UNL     1     164.073 159.988 153.187  1.00  0.00     0.003 C 
ATOM     23  C   UNL     1     164.156 157.441 153.668  1.00  0.00     0.010 C 
ATOM     24  C   UNL     1     166.015 158.864 154.504  1.00  0.00     0.012 C 
ATOM     25  C   UNL     1     164.577 159.712 151.699  1.00  0.00    -0.006 C 
ATOM     26  C   UNL     1     164.695 157.189 152.253  1.00  0.00     0.033 C 
ATOM     27  C   UNL     1     164.224 158.260 151.253  1.00  0.00     0.120 C 
ATOM     28  C   UNL     1     166.107 159.976 151.556  1.00  0.00     0.014 C 
ATOM     29  C   UNL     1     163.908 160.698 150.697  1.00  0.00     0.014 C 
ENDROOT
BRANCH   1  30
ATOM     30  C   UNL     1     163.751 156.915 159.753  1.00  0.00     0.048 C 
ATOM     31  O   UNL     1     164.888 157.326 160.117  1.00  0.00    -0.550 OA
ATOM     32  O   UNL     1     163.586 155.550 159.526  1.00  0.00    -0.550 OA
ENDBRANCH   1  30
BRANCH  27  33
ATOM     33  O   UNL     1     164.784 157.992 149.990  1.00  0.00    -0.393 OA
ATOM     34  H   UNL     1     164.710 158.826 149.457  1.00  0.00     0.210 HD
ENDBRANCH  27  33
TORSDOF 2
ENDMDL
MODEL 9
REMARK VINA RESULT:    -6.932      9.629     13.601
REMARK INTER + INTRA:          -7.780
REMARK INTER:                  -7.498
REMARK INTRA:                  -0.282
REMARK UNBOUND:                -0.240
REMARK SMILES C[C@H]1[C@H](C)CC[C@@]2(C(=O)[O-])CC[C@@]3(C)C(=CC[C@@H]4[C@@]5(C)CC[C@H](O)C(C)(C)[C@H]5CC[C@@]43C)[C@@H]12
REMARK SMILES IDX 7 1 6 2 11 3 33 4 5 5 12 6 15 7 2 8 3 9 13 10 16 11 1 12
REMARK SMILES IDX 4 13 14 14 31 15 17 16 18 17 30 18 32 19 19 20 29 21 28 22
REMARK SMILES IDX 21 23 20 24 25 25 22 26 23 27 26 28 27 29 8 30 9 31 10 32
REMARK SMILES IDX 24 33
REMARK H PARENT 24 34
REMARK Flexibility Score: inf
ROOT
ATOM      1  C   UNL     1     173.259 143.240 159.323  1.00  0.00     0.017 C 
ATOM      2  C   UNL     1     173.674 143.854 160.691  1.00  0.00     0.014 C 
ATOM      3  C   UNL     1     171.926 143.881 158.853  1.00  0.00     0.014 C 
ATOM      4  C   UNL     1     174.427 143.454 158.260  1.00  0.00     0.030 C 
ATOM      5  C   UNL     1     175.012 143.289 161.165  1.00  0.00     0.004 C 
ATOM      6  C   UNL     1     172.145 145.194 158.116  1.00  0.00     0.013 C 
ATOM      7  C   UNL     1     173.955 143.995 156.883  1.00  0.00    -0.063 C 
ATOM      8  C   UNL     1     175.757 144.105 158.776  1.00  0.00    -0.003 C 
ATOM      9  C   UNL     1     176.188 143.604 160.198  1.00  0.00    -0.011 C 
ATOM     10  C   UNL     1     172.770 144.987 156.686  1.00  0.00    -0.006 C 
ATOM     11  C   UNL     1     174.450 143.353 155.824  1.00  0.00    -0.027 C 
ATOM     12  C   UNL     1     175.832 145.635 158.676  1.00  0.00     0.008 C 
ATOM     13  C   UNL     1     177.122 142.383 160.085  1.00  0.00     0.008 C 
ATOM     14  C   UNL     1     173.362 146.378 156.316  1.00  0.00     0.017 C 
ATOM     15  C   UNL     1     171.720 144.492 155.502  1.00  0.00    -0.020 C 
ATOM     16  C   UNL     1     173.539 142.864 154.752  1.00  0.00     0.032 C 
ATOM     17  C   UNL     1     172.008 142.974 155.121  1.00  0.00     0.006 C 
ATOM     18  C   UNL     1     171.865 145.275 154.148  1.00  0.00     0.008 C 
ATOM     19  C   UNL     1     170.260 144.788 155.981  1.00  0.00     0.012 C 
ATOM     20  C   UNL     1     171.130 142.299 153.958  1.00  0.00    -0.025 C 
ATOM     21  C   UNL     1     171.019 144.715 152.980  1.00  0.00     0.005 C 
ATOM     22  C   UNL     1     171.190 143.197 152.653  1.00  0.00     0.003 C 
ATOM     23  C   UNL     1     169.649 142.033 154.385  1.00  0.00     0.010 C 
ATOM     24  C   UNL     1     171.738 140.875 153.693  1.00  0.00     0.012 C 
ATOM     25  C   UNL     1     170.210 142.729 151.485  1.00  0.00    -0.006 C 
ATOM     26  C   UNL     1     168.742 141.540 153.250  1.00  0.00     0.033 C 
ATOM     27  C   UNL     1     168.771 142.480 152.032  1.00  0.00     0.120 C 
ATOM     28  C   UNL     1     170.750 141.460 150.758  1.00  0.00     0.014 C 
ATOM     29  C   UNL     1     170.119 143.815 150.372  1.00  0.00     0.014 C 
ENDROOT
BRANCH   1  30
ATOM     30  C   UNL     1     172.920 141.754 159.551  1.00  0.00     0.048 C 
ATOM     31  O   UNL     1     173.406 140.876 158.785  1.00  0.00    -0.550 OA
ATOM     32  O   UNL     1     172.170 141.330 160.646  1.00  0.00    -0.550 OA
ENDBRANCH   1  30
BRANCH  27  33
ATOM     33  O   UNL     1     167.952 141.951 151.018  1.00  0.00    -0.393 OA
ATOM     34  H   UNL     1     167.657 142.714 150.456  1.00  0.00     0.210 HD
ENDBRANCH  27  33
TORSDOF 2
ENDMDL
