MODEL 1
REMARK VINA RESULT:    11.519      0.000      0.000
REMARK INTER + INTRA:          29.027
REMARK INTER:                  30.375
REMARK INTRA:                  -1.348
REMARK UNBOUND:                -1.348
REMARK SMILES CCCCCCCCCCCCCCCCCCCCCCCCCCCCCC(=O)[O-]
REMARK SMILES IDX 16 1 17 2 18 3 19 4 20 5 21 6 22 7 23 8 24 9 25 10 26 11
REMARK SMILES IDX 27 12 28 13 29 14 30 15 31 16 32 17 15 18 14 19 13 20 12 21
REMARK SMILES IDX 11 22 10 23 9 24 8 25 7 26 6 27 5 28 4 29 3 30 2 31 1 32
REMARK H PARENT
REMARK Flexibility Score: inf
ROOT
ATOM      1  C   UNL     1      10.753   1.469 -14.144  1.00  0.00     0.000 C 
ENDROOT
BRANCH   1   2
ATOM      2  C   UNL     1      10.809   2.750 -14.997  1.00  0.00     0.000 C 
BRANCH   2   3
ATOM      3  C   UNL     1      11.450   2.544 -16.384  1.00  0.00     0.000 C 
BRANCH   3   4
ATOM      4  C   UNL     1      12.898   2.011 -16.306  1.00  0.00     0.000 C 
BRANCH   4   5
ATOM      5  C   UNL     1      13.589   1.842 -17.675  1.00  0.00     0.000 C 
BRANCH   5   6
ATOM      6  C   UNL     1      14.419   0.560 -17.847  1.00  0.00     0.000 C 
BRANCH   6   7
ATOM      7  C   UNL     1      13.837  -0.705 -17.186  1.00  0.00     0.000 C 
BRANCH   7   8
ATOM      8  C   UNL     1      12.303  -0.831 -17.290  1.00  0.00     0.000 C 
BRANCH   8   9
ATOM      9  C   UNL     1      11.724  -1.879 -16.325  1.00  0.00     0.000 C 
BRANCH   9  10
ATOM     10  C   UNL     1      10.441  -2.503 -16.888  1.00  0.00     0.000 C 
BRANCH  10  11
ATOM     11  C   UNL     1      10.762  -3.721 -17.769  1.00  0.00     0.000 C 
BRANCH  11  12
ATOM     12  C   UNL     1      11.755  -4.696 -17.100  1.00  0.00     0.000 C 
BRANCH  12  13
ATOM     13  C   UNL     1      12.400  -5.701 -18.073  1.00  0.00     0.006 C 
BRANCH  13  14
ATOM     14  C   UNL     1      13.605  -6.464 -17.502  1.00  0.00     0.053 C 
BRANCH  14  15
ATOM     15  C   UNL     1      14.604  -6.823 -18.560  1.00  0.00     0.041 C 
ATOM     16  O   UNL     1      15.123  -5.924 -19.275  1.00  0.00    -0.550 OA
ATOM     17  O   UNL     1      14.952  -8.150 -18.766  1.00  0.00    -0.550 OA
ENDBRANCH  14  15
ENDBRANCH  13  14
ENDBRANCH  12  13
ENDBRANCH  11  12
ENDBRANCH  10  11
ENDBRANCH   9  10
ENDBRANCH   8   9
ENDBRANCH   7   8
ENDBRANCH   6   7
ENDBRANCH   5   6
ENDBRANCH   4   5
ENDBRANCH   3   4
ENDBRANCH   2   3
ENDBRANCH   1   2
BRANCH   1  18
ATOM     18  C   UNL     1       9.668   1.465 -13.046  1.00  0.00     0.000 C 
BRANCH  18  19
ATOM     19  C   UNL     1       8.440   0.572 -13.305  1.00  0.00     0.000 C 
BRANCH  19  20
ATOM     20  C   UNL     1       7.114   1.227 -12.885  1.00  0.00     0.000 C 
BRANCH  20  21
ATOM     21  C   UNL     1       6.088   1.304 -14.032  1.00  0.00     0.000 C 
BRANCH  21  22
ATOM     22  C   UNL     1       4.760   1.999 -13.679  1.00  0.00     0.000 C 
BRANCH  22  23
ATOM     23  C   UNL     1       3.662   1.016 -13.243  1.00  0.00     0.000 C 
BRANCH  23  24
ATOM     24  C   UNL     1       2.275   1.500 -13.692  1.00  0.00    -0.000 C 
BRANCH  24  25
ATOM     25  C   UNL     1       1.170   0.459 -13.445  1.00  0.00    -0.000 C 
BRANCH  25  26
ATOM     26  C   UNL     1      -0.086   0.621 -14.323  1.00  0.00    -0.000 C 
BRANCH  26  27
ATOM     27  C   UNL     1       0.210   1.117 -15.754  1.00  0.00    -0.000 C 
BRANCH  27  28
ATOM     28  C   UNL     1      -0.098   0.049 -16.818  1.00  0.00    -0.000 C 
BRANCH  28  29
ATOM     29  C   UNL     1       0.559  -1.309 -16.509  1.00  0.00    -0.000 C 
BRANCH  29  30
ATOM     30  C   UNL     1       0.396  -2.371 -17.612  1.00  0.00    -0.000 C 
BRANCH  30  31
ATOM     31  C   UNL     1      -0.044  -1.774 -18.958  1.00  0.00    -0.003 C 
ATOM     32  C   UNL     1      -0.119  -2.844 -20.041  1.00  0.00     0.004 C 
ENDBRANCH  30  31
ENDBRANCH  29  30
ENDBRANCH  28  29
ENDBRANCH  27  28
ENDBRANCH  26  27
ENDBRANCH  25  26
ENDBRANCH  24  25
ENDBRANCH  23  24
ENDBRANCH  22  23
ENDBRANCH  21  22
ENDBRANCH  20  21
ENDBRANCH  19  20
ENDBRANCH  18  19
ENDBRANCH   1  18
TORSDOF 28
ENDMDL
MODEL 2
REMARK VINA RESULT:    12.295      0.781      1.350
REMARK INTER + INTRA:          31.073
REMARK INTER:                  31.455
REMARK INTRA:                  -0.382
REMARK UNBOUND:                -1.348
REMARK SMILES CCCCCCCCCCCCCCCCCCCCCCCCCCCCCC(=O)[O-]
REMARK SMILES IDX 16 1 17 2 18 3 19 4 20 5 21 6 22 7 23 8 24 9 25 10 26 11
REMARK SMILES IDX 27 12 28 13 29 14 30 15 31 16 32 17 15 18 14 19 13 20 12 21
REMARK SMILES IDX 11 22 10 23 9 24 8 25 7 26 6 27 5 28 4 29 3 30 2 31 1 32
REMARK H PARENT
REMARK Flexibility Score: inf
ROOT
ATOM      1  C   UNL     1      11.032   2.589 -15.089  1.00  0.00     0.000 C 
ENDROOT
BRANCH   1   2
ATOM      2  C   UNL     1      12.424   2.164 -15.591  1.00  0.00     0.000 C 
BRANCH   2   3
ATOM      3  C   UNL     1      12.621   2.354 -17.108  1.00  0.00     0.000 C 
BRANCH   3   4
ATOM      4  C   UNL     1      14.088   2.163 -17.554  1.00  0.00     0.000 C 
BRANCH   4   5
ATOM      5  C   UNL     1      14.551   0.692 -17.607  1.00  0.00     0.000 C 
BRANCH   5   6
ATOM      6  C   UNL     1      13.467  -0.334 -17.979  1.00  0.00     0.000 C 
BRANCH   6   7
ATOM      7  C   UNL     1      12.730  -0.983 -16.792  1.00  0.00     0.000 C 
BRANCH   7   8
ATOM      8  C   UNL     1      11.329  -1.533 -17.135  1.00  0.00     0.000 C 
BRANCH   8   9
ATOM      9  C   UNL     1      10.767  -2.457 -16.042  1.00  0.00     0.000 C 
BRANCH   9  10
ATOM     10  C   UNL     1      11.502  -3.802 -16.020  1.00  0.00     0.000 C 
BRANCH  10  11
ATOM     11  C   UNL     1      10.950  -4.750 -17.097  1.00  0.00     0.000 C 
BRANCH  11  12
ATOM     12  C   UNL     1      11.684  -4.608 -18.448  1.00  0.00     0.000 C 
BRANCH  12  13
ATOM     13  C   UNL     1      12.292  -5.923 -18.973  1.00  0.00     0.006 C 
BRANCH  13  14
ATOM     14  C   UNL     1      13.175  -6.670 -17.962  1.00  0.00     0.053 C 
BRANCH  14  15
ATOM     15  C   UNL     1      14.575  -6.863 -18.463  1.00  0.00     0.041 C 
ATOM     16  O   UNL     1      15.038  -6.107 -19.359  1.00  0.00    -0.550 OA
ATOM     17  O   UNL     1      15.363  -7.884 -17.951  1.00  0.00    -0.550 OA
ENDBRANCH  14  15
ENDBRANCH  13  14
ENDBRANCH  12  13
ENDBRANCH  11  12
ENDBRANCH  10  11
ENDBRANCH   9  10
ENDBRANCH   8   9
ENDBRANCH   7   8
ENDBRANCH   6   7
ENDBRANCH   5   6
ENDBRANCH   4   5
ENDBRANCH   3   4
ENDBRANCH   2   3
ENDBRANCH   1   2
BRANCH   1  18
ATOM     18  C   UNL     1      10.246   1.489 -14.342  1.00  0.00     0.000 C 
BRANCH  18  19
ATOM     19  C   UNL     1       9.474   1.936 -13.087  1.00  0.00     0.000 C 
BRANCH  19  20
ATOM     20  C   UNL     1       8.270   1.036 -12.762  1.00  0.00     0.000 C 
BRANCH  20  21
ATOM     21  C   UNL     1       7.087   1.239 -13.727  1.00  0.00     0.000 C 
BRANCH  21  22
ATOM     22  C   UNL     1       5.749   1.605 -13.056  1.00  0.00     0.000 C 
BRANCH  22  23
ATOM     23  C   UNL     1       4.577   1.675 -14.048  1.00  0.00     0.000 C 
BRANCH  23  24
ATOM     24  C   UNL     1       3.314   1.028 -13.460  1.00  0.00    -0.000 C 
BRANCH  24  25
ATOM     25  C   UNL     1       2.432   0.359 -14.529  1.00  0.00    -0.000 C 
BRANCH  25  26
ATOM     26  C   UNL     1       0.957   0.168 -14.129  1.00  0.00    -0.000 C 
BRANCH  26  27
ATOM     27  C   UNL     1      -0.004   1.190 -14.772  1.00  0.00    -0.000 C 
BRANCH  27  28
ATOM     28  C   UNL     1       0.231   1.341 -16.286  1.00  0.00    -0.000 C 
BRANCH  28  29
ATOM     29  C   UNL     1      -0.123   0.066 -17.075  1.00  0.00    -0.000 C 
BRANCH  29  30
ATOM     30  C   UNL     1       0.307  -1.250 -16.402  1.00  0.00    -0.000 C 
BRANCH  30  31
ATOM     31  C   UNL     1       0.044  -2.485 -17.278  1.00  0.00    -0.003 C 
ATOM     32  C   UNL     1       0.020  -2.119 -18.758  1.00  0.00     0.004 C 
ENDBRANCH  30  31
ENDBRANCH  29  30
ENDBRANCH  28  29
ENDBRANCH  27  28
ENDBRANCH  26  27
ENDBRANCH  25  26
ENDBRANCH  24  25
ENDBRANCH  23  24
ENDBRANCH  22  23
ENDBRANCH  21  22
ENDBRANCH  20  21
ENDBRANCH  19  20
ENDBRANCH  18  19
ENDBRANCH   1  18
TORSDOF 28
ENDMDL
MODEL 3
REMARK VINA RESULT:    12.400      4.030     11.399
REMARK INTER + INTRA:          31.350
REMARK INTER:                  31.255
REMARK INTRA:                   0.095
REMARK UNBOUND:                -1.348
REMARK SMILES CCCCCCCCCCCCCCCCCCCCCCCCCCCCCC(=O)[O-]
REMARK SMILES IDX 16 1 17 2 18 3 19 4 20 5 21 6 22 7 23 8 24 9 25 10 26 11
REMARK SMILES IDX 27 12 28 13 29 14 30 15 31 16 32 17 15 18 14 19 13 20 12 21
REMARK SMILES IDX 11 22 10 23 9 24 8 25 7 26 6 27 5 28 4 29 3 30 2 31 1 32
REMARK H PARENT
REMARK Flexibility Score: inf
ROOT
ATOM      1  C   UNL     1       9.988   1.665 -14.754  1.00  0.00     0.000 C 
ENDROOT
BRANCH   1   2
ATOM      2  C   UNL     1       9.940   1.029 -13.352  1.00  0.00     0.000 C 
BRANCH   2   3
ATOM      3  C   UNL     1       8.544   1.071 -12.699  1.00  0.00     0.000 C 
BRANCH   3   4
ATOM      4  C   UNL     1       7.395   1.019 -13.730  1.00  0.00     0.000 C 
BRANCH   4   5
ATOM      5  C   UNL     1       6.092   1.701 -13.266  1.00  0.00     0.000 C 
BRANCH   5   6
ATOM      6  C   UNL     1       4.902   1.592 -14.233  1.00  0.00     0.000 C 
BRANCH   6   7
ATOM      7  C   UNL     1       3.733   0.709 -13.754  1.00  0.00     0.000 C 
BRANCH   7   8
ATOM      8  C   UNL     1       2.347   1.382 -13.844  1.00  0.00     0.000 C 
BRANCH   8   9
ATOM      9  C   UNL     1       1.298   0.711 -12.941  1.00  0.00     0.000 C 
BRANCH   9  10
ATOM     10  C   UNL     1      -0.125   1.017 -13.421  1.00  0.00     0.000 C 
BRANCH  10  11
ATOM     11  C   UNL     1      -0.109   1.669 -14.813  1.00  0.00     0.000 C 
BRANCH  11  12
ATOM     12  C   UNL     1      -0.123   0.631 -15.957  1.00  0.00     0.000 C 
BRANCH  12  13
ATOM     13  C   UNL     1       0.330  -0.779 -15.531  1.00  0.00     0.006 C 
BRANCH  13  14
ATOM     14  C   UNL     1      -0.067  -1.900 -16.502  1.00  0.00     0.053 C 
BRANCH  14  15
ATOM     15  C   UNL     1       0.114  -1.502 -17.936  1.00  0.00     0.041 C 
ATOM     16  O   UNL     1       0.103  -2.376 -18.844  1.00  0.00    -0.550 OA
ATOM     17  O   UNL     1       0.307  -0.168 -18.268  1.00  0.00    -0.550 OA
ENDBRANCH  14  15
ENDBRANCH  13  14
ENDBRANCH  12  13
ENDBRANCH  11  12
ENDBRANCH  10  11
ENDBRANCH   9  10
ENDBRANCH   8   9
ENDBRANCH   7   8
ENDBRANCH   6   7
ENDBRANCH   5   6
ENDBRANCH   4   5
ENDBRANCH   3   4
ENDBRANCH   2   3
ENDBRANCH   1   2
BRANCH   1  18
ATOM     18  C   UNL     1      11.301   2.405 -15.088  1.00  0.00     0.000 C 
BRANCH  18  19
ATOM     19  C   UNL     1      11.796   2.291 -16.542  1.00  0.00     0.000 C 
BRANCH  19  20
ATOM     20  C   UNL     1      13.208   1.692 -16.658  1.00  0.00     0.000 C 
BRANCH  20  21
ATOM     21  C   UNL     1      13.321   0.624 -17.762  1.00  0.00     0.000 C 
BRANCH  21  22
ATOM     22  C   UNL     1      12.923  -0.803 -17.337  1.00  0.00     0.000 C 
BRANCH  22  23
ATOM     23  C   UNL     1      12.043  -0.834 -16.078  1.00  0.00     0.000 C 
BRANCH  23  24
ATOM     24  C   UNL     1      10.854  -1.789 -16.258  1.00  0.00    -0.000 C 
BRANCH  24  25
ATOM     25  C   UNL     1      11.191  -3.006 -17.137  1.00  0.00    -0.000 C 
BRANCH  25  26
ATOM     26  C   UNL     1      11.237  -4.354 -16.392  1.00  0.00    -0.000 C 
BRANCH  26  27
ATOM     27  C   UNL     1      11.805  -5.516 -17.236  1.00  0.00    -0.000 C 
BRANCH  27  28
ATOM     28  C   UNL     1      12.084  -5.099 -18.691  1.00  0.00    -0.000 C 
BRANCH  28  29
ATOM     29  C   UNL     1      12.795  -6.199 -19.501  1.00  0.00    -0.000 C 
BRANCH  29  30
ATOM     30  C   UNL     1      14.333  -6.170 -19.419  1.00  0.00    -0.000 C 
BRANCH  30  31
ATOM     31  C   UNL     1      14.870  -6.673 -18.070  1.00  0.00    -0.003 C 
ATOM     32  C   UNL     1      14.647  -8.172 -17.909  1.00  0.00     0.004 C 
ENDBRANCH  30  31
ENDBRANCH  29  30
ENDBRANCH  28  29
ENDBRANCH  27  28
ENDBRANCH  26  27
ENDBRANCH  25  26
ENDBRANCH  24  25
ENDBRANCH  23  24
ENDBRANCH  22  23
ENDBRANCH  21  22
ENDBRANCH  20  21
ENDBRANCH  19  20
ENDBRANCH  18  19
ENDBRANCH   1  18
TORSDOF 28
ENDMDL
MODEL 4
REMARK VINA RESULT:    12.476      1.128      1.862
REMARK INTER + INTRA:          31.550
REMARK INTER:                  33.351
REMARK INTRA:                  -1.801
REMARK UNBOUND:                -1.348
REMARK SMILES CCCCCCCCCCCCCCCCCCCCCCCCCCCCCC(=O)[O-]
REMARK SMILES IDX 16 1 17 2 18 3 19 4 20 5 21 6 22 7 23 8 24 9 25 10 26 11
REMARK SMILES IDX 27 12 28 13 29 14 30 15 31 16 32 17 15 18 14 19 13 20 12 21
REMARK SMILES IDX 11 22 10 23 9 24 8 25 7 26 6 27 5 28 4 29 3 30 2 31 1 32
REMARK H PARENT
REMARK Flexibility Score: inf
ROOT
ATOM      1  C   UNL     1      10.430   1.628 -14.760  1.00  0.00     0.000 C 
ENDROOT
BRANCH   1   2
ATOM      2  C   UNL     1      11.586   2.540 -15.212  1.00  0.00     0.000 C 
BRANCH   2   3
ATOM      3  C   UNL     1      11.883   2.462 -16.723  1.00  0.00     0.000 C 
BRANCH   3   4
ATOM      4  C   UNL     1      13.104   1.575 -17.052  1.00  0.00     0.000 C 
BRANCH   4   5
ATOM      5  C   UNL     1      12.748   0.204 -17.663  1.00  0.00     0.000 C 
BRANCH   5   6
ATOM      6  C   UNL     1      12.981  -1.012 -16.750  1.00  0.00     0.000 C 
BRANCH   6   7
ATOM      7  C   UNL     1      11.773  -1.447 -15.898  1.00  0.00     0.000 C 
BRANCH   7   8
ATOM      8  C   UNL     1      10.733  -2.299 -16.654  1.00  0.00     0.000 C 
BRANCH   8   9
ATOM      9  C   UNL     1      11.015  -3.808 -16.559  1.00  0.00     0.000 C 
BRANCH   9  10
ATOM     10  C   UNL     1      11.930  -4.274 -17.698  1.00  0.00     0.000 C 
BRANCH  10  11
ATOM     11  C   UNL     1      11.778  -5.783 -17.945  1.00  0.00     0.000 C 
BRANCH  11  12
ATOM     12  C   UNL     1      12.628  -6.281 -19.134  1.00  0.00     0.000 C 
BRANCH  12  13
ATOM     13  C   UNL     1      14.078  -5.760 -19.132  1.00  0.00     0.006 C 
BRANCH  13  14
ATOM     14  C   UNL     1      15.150  -6.847 -18.968  1.00  0.00     0.053 C 
BRANCH  14  15
ATOM     15  C   UNL     1      14.948  -7.665 -17.728  1.00  0.00     0.041 C 
ATOM     16  O   UNL     1      14.774  -8.910 -17.810  1.00  0.00    -0.550 OA
ATOM     17  O   UNL     1      14.936  -7.051 -16.484  1.00  0.00    -0.550 OA
ENDBRANCH  14  15
ENDBRANCH  13  14
ENDBRANCH  12  13
ENDBRANCH  11  12
ENDBRANCH  10  11
ENDBRANCH   9  10
ENDBRANCH   8   9
ENDBRANCH   7   8
ENDBRANCH   6   7
ENDBRANCH   5   6
ENDBRANCH   4   5
ENDBRANCH   3   4
ENDBRANCH   2   3
ENDBRANCH   1   2
BRANCH   1  18
ATOM     18  C   UNL     1      10.456   1.237 -13.267  1.00  0.00     0.000 C 
BRANCH  18  19
ATOM     19  C   UNL     1       9.095   0.915 -12.623  1.00  0.00     0.000 C 
BRANCH  19  20
ATOM     20  C   UNL     1       7.988   1.908 -13.015  1.00  0.00     0.000 C 
BRANCH  20  21
ATOM     21  C   UNL     1       6.889   1.273 -13.887  1.00  0.00     0.000 C 
BRANCH  21  22
ATOM     22  C   UNL     1       5.736   2.216 -14.282  1.00  0.00     0.000 C 
BRANCH  22  23
ATOM     23  C   UNL     1       4.615   2.271 -13.232  1.00  0.00     0.000 C 
BRANCH  23  24
ATOM     24  C   UNL     1       3.875   0.929 -13.142  1.00  0.00    -0.000 C 
BRANCH  24  25
ATOM     25  C   UNL     1       2.715   0.817 -14.146  1.00  0.00    -0.000 C 
BRANCH  25  26
ATOM     26  C   UNL     1       1.329   0.574 -13.517  1.00  0.00    -0.000 C 
BRANCH  26  27
ATOM     27  C   UNL     1       0.243   1.560 -13.995  1.00  0.00    -0.000 C 
BRANCH  27  28
ATOM     28  C   UNL     1      -0.086   1.388 -15.489  1.00  0.00    -0.000 C 
BRANCH  28  29
ATOM     29  C   UNL     1      -0.125  -0.088 -15.926  1.00  0.00    -0.000 C 
BRANCH  29  30
ATOM     30  C   UNL     1       0.986  -0.501 -16.910  1.00  0.00    -0.000 C 
BRANCH  30  31
ATOM     31  C   UNL     1       0.472  -1.389 -18.054  1.00  0.00    -0.003 C 
ATOM     32  C   UNL     1       0.158  -2.798 -17.563  1.00  0.00     0.004 C 
ENDBRANCH  30  31
ENDBRANCH  29  30
ENDBRANCH  28  29
ENDBRANCH  27  28
ENDBRANCH  26  27
ENDBRANCH  25  26
ENDBRANCH  24  25
ENDBRANCH  23  24
ENDBRANCH  22  23
ENDBRANCH  21  22
ENDBRANCH  20  21
ENDBRANCH  19  20
ENDBRANCH  18  19
ENDBRANCH   1  18
TORSDOF 28
ENDMDL
MODEL 5
REMARK VINA RESULT:    12.499      4.025     11.186
REMARK INTER + INTRA:          31.611
REMARK INTER:                  31.215
REMARK INTRA:                   0.396
REMARK UNBOUND:                -1.348
REMARK SMILES CCCCCCCCCCCCCCCCCCCCCCCCCCCCCC(=O)[O-]
REMARK SMILES IDX 16 1 17 2 18 3 19 4 20 5 21 6 22 7 23 8 24 9 25 10 26 11
REMARK SMILES IDX 27 12 28 13 29 14 30 15 31 16 32 17 15 18 14 19 13 20 12 21
REMARK SMILES IDX 11 22 10 23 9 24 8 25 7 26 6 27 5 28 4 29 3 30 2 31 1 32
REMARK H PARENT
REMARK Flexibility Score: inf
ROOT
ATOM      1  C   UNL     1      11.772   2.701 -16.045  1.00  0.00     0.000 C 
ENDROOT
BRANCH   1   2
ATOM      2  C   UNL     1      11.429   1.561 -15.067  1.00  0.00     0.000 C 
BRANCH   2   3
ATOM      3  C   UNL     1      10.335   1.929 -14.046  1.00  0.00     0.000 C 
BRANCH   3   4
ATOM      4  C   UNL     1       9.540   0.702 -13.547  1.00  0.00     0.000 C 
BRANCH   4   5
ATOM      5  C   UNL     1       8.479   1.024 -12.474  1.00  0.00     0.000 C 
BRANCH   5   6
ATOM      6  C   UNL     1       7.288   1.872 -12.949  1.00  0.00     0.000 C 
BRANCH   6   7
ATOM      7  C   UNL     1       6.303   1.164 -13.900  1.00  0.00     0.000 C 
BRANCH   7   8
ATOM      8  C   UNL     1       4.871   1.738 -13.878  1.00  0.00     0.000 C 
BRANCH   8   9
ATOM      9  C   UNL     1       3.864   0.802 -13.188  1.00  0.00     0.000 C 
BRANCH   9  10
ATOM     10  C   UNL     1       2.828   0.270 -14.185  1.00  0.00     0.000 C 
BRANCH  10  11
ATOM     11  C   UNL     1       1.570   1.154 -14.199  1.00  0.00     0.000 C 
BRANCH  11  12
ATOM     12  C   UNL     1       0.316   0.399 -14.690  1.00  0.00     0.000 C 
BRANCH  12  13
ATOM     13  C   UNL     1      -0.124   0.777 -16.118  1.00  0.00     0.006 C 
BRANCH  13  14
ATOM     14  C   UNL     1       0.675   0.093 -17.237  1.00  0.00     0.053 C 
BRANCH  14  15
ATOM     15  C   UNL     1       0.495  -1.395 -17.238  1.00  0.00     0.041 C 
ATOM     16  O   UNL     1       0.235  -2.003 -18.311  1.00  0.00    -0.550 OA
ATOM     17  O   UNL     1       0.600  -2.109 -16.052  1.00  0.00    -0.550 OA
ENDBRANCH  14  15
ENDBRANCH  13  14
ENDBRANCH  12  13
ENDBRANCH  11  12
ENDBRANCH  10  11
ENDBRANCH   9  10
ENDBRANCH   8   9
ENDBRANCH   7   8
ENDBRANCH   6   7
ENDBRANCH   5   6
ENDBRANCH   4   5
ENDBRANCH   3   4
ENDBRANCH   2   3
ENDBRANCH   1   2
BRANCH   1  18
ATOM     18  C   UNL     1      13.174   2.608 -16.685  1.00  0.00     0.000 C 
BRANCH  18  19
ATOM     19  C   UNL     1      13.228   2.089 -18.134  1.00  0.00     0.000 C 
BRANCH  19  20
ATOM     20  C   UNL     1      14.316   1.024 -18.356  1.00  0.00     0.000 C 
BRANCH  20  21
ATOM     21  C   UNL     1      14.025  -0.298 -17.622  1.00  0.00     0.000 C 
BRANCH  21  22
ATOM     22  C   UNL     1      12.846  -0.253 -16.630  1.00  0.00     0.000 C 
BRANCH  22  23
ATOM     23  C   UNL     1      11.686  -1.178 -17.030  1.00  0.00     0.000 C 
BRANCH  23  24
ATOM     24  C   UNL     1      11.507  -2.314 -16.012  1.00  0.00    -0.000 C 
BRANCH  24  25
ATOM     25  C   UNL     1      10.710  -3.503 -16.576  1.00  0.00    -0.000 C 
BRANCH  25  26
ATOM     26  C   UNL     1      11.368  -4.221 -17.770  1.00  0.00    -0.000 C 
BRANCH  26  27
ATOM     27  C   UNL     1      11.319  -5.761 -17.679  1.00  0.00    -0.000 C 
BRANCH  27  28
ATOM     28  C   UNL     1      12.329  -6.435 -18.625  1.00  0.00    -0.000 C 
BRANCH  28  29
ATOM     29  C   UNL     1      13.653  -5.658 -18.736  1.00  0.00    -0.000 C 
BRANCH  29  30
ATOM     30  C   UNL     1      14.880  -6.519 -19.088  1.00  0.00    -0.000 C 
BRANCH  30  31
ATOM     31  C   UNL     1      15.322  -7.432 -17.933  1.00  0.00    -0.003 C 
ATOM     32  C   UNL     1      15.152  -8.903 -18.292  1.00  0.00     0.004 C 
ENDBRANCH  30  31
ENDBRANCH  29  30
ENDBRANCH  28  29
ENDBRANCH  27  28
ENDBRANCH  26  27
ENDBRANCH  25  26
ENDBRANCH  24  25
ENDBRANCH  23  24
ENDBRANCH  22  23
ENDBRANCH  21  22
ENDBRANCH  20  21
ENDBRANCH  19  20
ENDBRANCH  18  19
ENDBRANCH   1  18
TORSDOF 28
ENDMDL
MODEL 6
REMARK VINA RESULT:    13.713      3.952     11.091
REMARK INTER + INTRA:          34.811
REMARK INTER:                  35.481
REMARK INTRA:                  -0.670
REMARK UNBOUND:                -1.348
REMARK SMILES CCCCCCCCCCCCCCCCCCCCCCCCCCCCCC(=O)[O-]
REMARK SMILES IDX 16 1 17 2 18 3 19 4 20 5 21 6 22 7 23 8 24 9 25 10 26 11
REMARK SMILES IDX 27 12 28 13 29 14 30 15 31 16 32 17 15 18 14 19 13 20 12 21
REMARK SMILES IDX 11 22 10 23 9 24 8 25 7 26 6 27 5 28 4 29 3 30 2 31 1 32
REMARK H PARENT
REMARK Flexibility Score: inf
ROOT
ATOM      1  C   UNL     1      10.801   2.458 -15.756  1.00  0.00     0.000 C 
ENDROOT
BRANCH   1   2
ATOM      2  C   UNL     1      10.556   1.340 -14.726  1.00  0.00     0.000 C 
BRANCH   2   3
ATOM      3  C   UNL     1       9.901   1.832 -13.420  1.00  0.00     0.000 C 
BRANCH   3   4
ATOM      4  C   UNL     1       8.827   0.861 -12.882  1.00  0.00     0.000 C 
BRANCH   4   5
ATOM      5  C   UNL     1       7.443   1.505 -12.655  1.00  0.00     0.000 C 
BRANCH   5   6
ATOM      6  C   UNL     1       6.313   0.991 -13.561  1.00  0.00     0.000 C 
BRANCH   6   7
ATOM      7  C   UNL     1       4.986   1.771 -13.480  1.00  0.00     0.000 C 
BRANCH   7   8
ATOM      8  C   UNL     1       3.812   0.972 -12.878  1.00  0.00     0.000 C 
BRANCH   8   9
ATOM      9  C   UNL     1       2.844   0.437 -13.946  1.00  0.00     0.000 C 
BRANCH   9  10
ATOM     10  C   UNL     1       1.447   1.048 -13.785  1.00  0.00     0.000 C 
BRANCH  10  11
ATOM     11  C   UNL     1       0.820   1.361 -15.153  1.00  0.00     0.000 C 
BRANCH  11  12
ATOM     12  C   UNL     1      -0.125   0.244 -15.645  1.00  0.00     0.000 C 
BRANCH  12  13
ATOM     13  C   UNL     1       0.058  -0.124 -17.131  1.00  0.00     0.006 C 
BRANCH  13  14
ATOM     14  C   UNL     1       0.873  -1.403 -17.379  1.00  0.00     0.053 C 
BRANCH  14  15
ATOM     15  C   UNL     1       0.425  -2.133 -18.609  1.00  0.00     0.041 C 
ATOM     16  O   UNL     1      -0.125  -3.263 -18.511  1.00  0.00    -0.550 OA
ATOM     17  O   UNL     1       0.626  -1.573 -19.862  1.00  0.00    -0.550 OA
ENDBRANCH  14  15
ENDBRANCH  13  14
ENDBRANCH  12  13
ENDBRANCH  11  12
ENDBRANCH  10  11
ENDBRANCH   9  10
ENDBRANCH   8   9
ENDBRANCH   7   8
ENDBRANCH   6   7
ENDBRANCH   5   6
ENDBRANCH   4   5
ENDBRANCH   3   4
ENDBRANCH   2   3
ENDBRANCH   1   2
BRANCH   1  18
ATOM     18  C   UNL     1      12.169   2.398 -16.469  1.00  0.00     0.000 C 
BRANCH  18  19
ATOM     19  C   UNL     1      12.145   2.012 -17.959  1.00  0.00     0.000 C 
BRANCH  19  20
ATOM     20  C   UNL     1      13.531   2.065 -18.623  1.00  0.00     0.000 C 
BRANCH  20  21
ATOM     21  C   UNL     1      14.455   0.914 -18.182  1.00  0.00     0.000 C 
BRANCH  21  22
ATOM     22  C   UNL     1      14.321   0.493 -16.706  1.00  0.00     0.000 C 
BRANCH  22  23
ATOM     23  C   UNL     1      13.745  -0.921 -16.533  1.00  0.00     0.000 C 
BRANCH  23  24
ATOM     24  C   UNL     1      12.224  -0.929 -16.743  1.00  0.00    -0.000 C 
BRANCH  24  25
ATOM     25  C   UNL     1      11.514  -2.027 -15.933  1.00  0.00    -0.000 C 
BRANCH  25  26
ATOM     26  C   UNL     1      10.804  -3.103 -16.776  1.00  0.00    -0.000 C 
BRANCH  26  27
ATOM     27  C   UNL     1      11.343  -4.532 -16.552  1.00  0.00    -0.000 C 
BRANCH  27  28
ATOM     28  C   UNL     1      11.218  -5.408 -17.810  1.00  0.00    -0.000 C 
BRANCH  28  29
ATOM     29  C   UNL     1      12.466  -5.346 -18.709  1.00  0.00    -0.000 C 
BRANCH  29  30
ATOM     30  C   UNL     1      13.226  -6.678 -18.853  1.00  0.00    -0.000 C 
BRANCH  30  31
ATOM     31  C   UNL     1      14.702  -6.573 -18.439  1.00  0.00    -0.003 C 
ATOM     32  C   UNL     1      15.024  -7.521 -17.290  1.00  0.00     0.004 C 
ENDBRANCH  30  31
ENDBRANCH  29  30
ENDBRANCH  28  29
ENDBRANCH  27  28
ENDBRANCH  26  27
ENDBRANCH  25  26
ENDBRANCH  24  25
ENDBRANCH  23  24
ENDBRANCH  22  23
ENDBRANCH  21  22
ENDBRANCH  20  21
ENDBRANCH  19  20
ENDBRANCH  18  19
ENDBRANCH   1  18
TORSDOF 28
ENDMDL
MODEL 7
REMARK VINA RESULT:    14.433      1.248      1.977
REMARK INTER + INTRA:          36.711
REMARK INTER:                  34.981
REMARK INTRA:                   1.730
REMARK UNBOUND:                -1.348
REMARK SMILES CCCCCCCCCCCCCCCCCCCCCCCCCCCCCC(=O)[O-]
REMARK SMILES IDX 16 1 17 2 18 3 19 4 20 5 21 6 22 7 23 8 24 9 25 10 26 11
REMARK SMILES IDX 27 12 28 13 29 14 30 15 31 16 32 17 15 18 14 19 13 20 12 21
REMARK SMILES IDX 11 22 10 23 9 24 8 25 7 26 6 27 5 28 4 29 3 30 2 31 1 32
REMARK H PARENT
REMARK Flexibility Score: inf
ROOT
ATOM      1  C   UNL     1      10.580   1.716 -13.870  1.00  0.00     0.000 C 
ENDROOT
BRANCH   1   2
ATOM      2  C   UNL     1      11.033   2.345 -15.201  1.00  0.00     0.000 C 
BRANCH   2   3
ATOM      3  C   UNL     1      12.343   1.749 -15.754  1.00  0.00     0.000 C 
BRANCH   3   4
ATOM      4  C   UNL     1      12.835   2.459 -17.035  1.00  0.00     0.000 C 
BRANCH   4   5
ATOM      5  C   UNL     1      13.664   1.566 -17.980  1.00  0.00     0.000 C 
BRANCH   5   6
ATOM      6  C   UNL     1      13.721   0.075 -17.608  1.00  0.00     0.000 C 
BRANCH   6   7
ATOM      7  C   UNL     1      12.359  -0.601 -17.354  1.00  0.00     0.000 C 
BRANCH   7   8
ATOM      8  C   UNL     1      12.321  -1.514 -16.111  1.00  0.00     0.000 C 
BRANCH   8   9
ATOM      9  C   UNL     1      10.891  -1.900 -15.698  1.00  0.00     0.000 C 
BRANCH   9  10
ATOM     10  C   UNL     1      10.405  -3.132 -16.470  1.00  0.00     0.000 C 
BRANCH  10  11
ATOM     11  C   UNL     1      11.527  -4.173 -16.611  1.00  0.00     0.000 C 
BRANCH  11  12
ATOM     12  C   UNL     1      11.755  -4.608 -18.075  1.00  0.00     0.000 C 
BRANCH  12  13
ATOM     13  C   UNL     1      12.184  -6.080 -18.234  1.00  0.00     0.006 C 
BRANCH  13  14
ATOM     14  C   UNL     1      13.314  -6.312 -19.248  1.00  0.00     0.053 C 
BRANCH  14  15
ATOM     15  C   UNL     1      14.618  -6.636 -18.583  1.00  0.00     0.041 C 
ATOM     16  O   UNL     1      15.707  -6.378 -19.161  1.00  0.00    -0.550 OA
ATOM     17  O   UNL     1      14.630  -7.237 -17.332  1.00  0.00    -0.550 OA
ENDBRANCH  14  15
ENDBRANCH  13  14
ENDBRANCH  12  13
ENDBRANCH  11  12
ENDBRANCH  10  11
ENDBRANCH   9  10
ENDBRANCH   8   9
ENDBRANCH   7   8
ENDBRANCH   6   7
ENDBRANCH   5   6
ENDBRANCH   4   5
ENDBRANCH   3   4
ENDBRANCH   2   3
ENDBRANCH   1   2
BRANCH   1  18
ATOM     18  C   UNL     1       9.360   0.776 -13.977  1.00  0.00     0.000 C 
BRANCH  18  19
ATOM     19  C   UNL     1       8.249   0.980 -12.930  1.00  0.00     0.000 C 
BRANCH  19  20
ATOM     20  C   UNL     1       7.088   1.851 -13.439  1.00  0.00     0.000 C 
BRANCH  20  21
ATOM     21  C   UNL     1       5.856   1.027 -13.861  1.00  0.00     0.000 C 
BRANCH  21  22
ATOM     22  C   UNL     1       4.533   1.432 -13.184  1.00  0.00     0.000 C 
BRANCH  22  23
ATOM     23  C   UNL     1       3.301   1.174 -14.066  1.00  0.00     0.000 C 
BRANCH  23  24
ATOM     24  C   UNL     1       2.003   1.313 -13.258  1.00  0.00    -0.000 C 
BRANCH  24  25
ATOM     25  C   UNL     1       1.169   0.020 -13.237  1.00  0.00    -0.000 C 
BRANCH  25  26
ATOM     26  C   UNL     1      -0.053   0.017 -14.175  1.00  0.00    -0.000 C 
BRANCH  26  27
ATOM     27  C   UNL     1      -0.032  -1.111 -15.227  1.00  0.00    -0.000 C 
BRANCH  27  28
ATOM     28  C   UNL     1       1.195  -1.025 -16.152  1.00  0.00    -0.000 C 
BRANCH  28  29
ATOM     29  C   UNL     1       1.017   0.002 -17.286  1.00  0.00    -0.000 C 
BRANCH  29  30
ATOM     30  C   UNL     1      -0.125   1.012 -17.069  1.00  0.00    -0.000 C 
BRANCH  30  31
ATOM     31  C   UNL     1      -0.014   1.763 -15.733  1.00  0.00    -0.003 C 
ATOM     32  C   UNL     1      -0.124   3.270 -15.933  1.00  0.00     0.004 C 
ENDBRANCH  30  31
ENDBRANCH  29  30
ENDBRANCH  28  29
ENDBRANCH  27  28
ENDBRANCH  26  27
ENDBRANCH  25  26
ENDBRANCH  24  25
ENDBRANCH  23  24
ENDBRANCH  22  23
ENDBRANCH  21  22
ENDBRANCH  20  21
ENDBRANCH  19  20
ENDBRANCH  18  19
ENDBRANCH   1  18
TORSDOF 28
ENDMDL
