MODEL 1
REMARK VINA RESULT:    -6.410      0.000      0.000
REMARK INTER + INTRA:         -11.387
REMARK INTER:                  -9.782
REMARK INTRA:                  -1.605
REMARK UNBOUND:                -1.605
REMARK SMILES CC(=O)CCC=C(C)CCC=C(C)CCC=C(C)C
REMARK SMILES IDX 10 1 11 2 12 3 13 4 14 5 15 6 16 7 18 8 17 9 19 10 9 11 7 12
REMARK SMILES IDX 6 13 8 14 5 15 4 16 2 17 3 18 1 19
REMARK H PARENT
REMARK Flexibility Score: inf
ROOT
ATOM      1  C   UNL     1      32.667  16.569  27.992  1.00  0.00     0.032 C 
ENDROOT
BRANCH   1   2
ATOM      2  C   UNL     1      31.471  15.645  27.983  1.00  0.00    -0.028 C 
ATOM      3  C   UNL     1      30.333  15.856  27.283  1.00  0.00    -0.077 C 
ATOM      4  C   UNL     1      29.201  14.875  27.452  1.00  0.00     0.039 C 
BRANCH   3   5
ATOM      5  C   UNL     1      30.161  17.011  26.313  1.00  0.00     0.034 C 
BRANCH   5   6
ATOM      6  C   UNL     1      30.645  16.649  24.900  1.00  0.00     0.032 C 
BRANCH   6   7
ATOM      7  C   UNL     1      31.455  17.764  24.282  1.00  0.00    -0.028 C 
ATOM      8  C   UNL     1      31.939  16.478  22.188  1.00  0.00     0.039 C 
ATOM      9  C   UNL     1      32.067  17.691  23.079  1.00  0.00    -0.080 C 
ATOM     10  C   UNL     1      32.884  18.869  22.618  1.00  0.00     0.039 C 
ENDBRANCH   6   7
ENDBRANCH   5   6
ENDBRANCH   3   5
ENDBRANCH   1   2
BRANCH   1  11
ATOM     11  C   UNL     1      32.499  17.698  29.019  1.00  0.00     0.034 C 
BRANCH  11  12
ATOM     12  C   UNL     1      32.370  19.053  28.353  1.00  0.00    -0.077 C 
ATOM     13  C   UNL     1      33.492  19.707  27.972  1.00  0.00    -0.028 C 
ATOM     14  C   UNL     1      30.995  19.644  28.153  1.00  0.00     0.039 C 
BRANCH  13  15
ATOM     15  C   UNL     1      33.508  21.044  27.270  1.00  0.00     0.035 C 
BRANCH  15  16
ATOM     16  C   UNL     1      33.355  20.892  25.751  1.00  0.00     0.079 C 
BRANCH  16  17
ATOM     17  C   UNL     1      32.199  21.701  25.226  1.00  0.00     0.130 C 
ATOM     18  O   UNL     1      31.298  21.143  24.618  1.00  0.00    -0.300 OA
ATOM     19  C   UNL     1      32.155  23.190  25.401  1.00  0.00     0.087 C 
ENDBRANCH  16  17
ENDBRANCH  15  16
ENDBRANCH  13  15
ENDBRANCH  11  12
ENDBRANCH   1  11
TORSDOF 9
ENDMDL
MODEL 2
REMARK VINA RESULT:    -6.389      1.872      4.885
REMARK INTER + INTRA:         -11.355
REMARK INTER:                  -9.734
REMARK INTRA:                  -1.621
REMARK UNBOUND:                -1.605
REMARK SMILES CC(=O)CCC=C(C)CCC=C(C)CCC=C(C)C
REMARK SMILES IDX 10 1 11 2 12 3 13 4 14 5 15 6 16 7 18 8 17 9 19 10 9 11 7 12
REMARK SMILES IDX 6 13 8 14 5 15 4 16 2 17 3 18 1 19
REMARK H PARENT
REMARK Flexibility Score: inf
ROOT
ATOM      1  C   UNL     1      30.520  17.150  25.183  1.00  0.00     0.032 C 
ENDROOT
BRANCH   1   2
ATOM      2  C   UNL     1      29.642  16.502  26.228  1.00  0.00    -0.028 C 
ATOM      3  C   UNL     1      30.047  15.549  27.099  1.00  0.00    -0.077 C 
ATOM      4  C   UNL     1      29.020  14.946  28.022  1.00  0.00     0.039 C 
BRANCH   3   5
ATOM      5  C   UNL     1      31.489  15.088  27.209  1.00  0.00     0.034 C 
BRANCH   5   6
ATOM      6  C   UNL     1      32.144  15.564  28.514  1.00  0.00     0.032 C 
BRANCH   6   7
ATOM      7  C   UNL     1      32.917  16.847  28.319  1.00  0.00    -0.028 C 
ATOM      8  C   UNL     1      31.060  18.294  29.175  1.00  0.00     0.039 C 
ATOM      9  C   UNL     1      32.434  18.081  28.583  1.00  0.00    -0.080 C 
ATOM     10  C   UNL     1      33.309  19.272  28.288  1.00  0.00     0.039 C 
ENDBRANCH   6   7
ENDBRANCH   5   6
ENDBRANCH   3   5
ENDBRANCH   1   2
BRANCH   1  11
ATOM     11  C   UNL     1      30.971  18.552  25.617  1.00  0.00     0.034 C 
BRANCH  11  12
ATOM     12  C   UNL     1      31.459  19.377  24.443  1.00  0.00    -0.077 C 
ATOM     13  C   UNL     1      31.673  18.767  23.255  1.00  0.00    -0.028 C 
ATOM     14  C   UNL     1      31.714  20.853  24.640  1.00  0.00     0.039 C 
BRANCH  13  15
ATOM     15  C   UNL     1      32.125  19.472  21.999  1.00  0.00     0.035 C 
BRANCH  15  16
ATOM     16  C   UNL     1      33.026  18.578  21.137  1.00  0.00     0.079 C 
BRANCH  16  17
ATOM     17  C   UNL     1      32.319  17.315  20.719  1.00  0.00     0.130 C 
ATOM     18  O   UNL     1      31.579  17.330  19.747  1.00  0.00    -0.300 OA
ATOM     19  C   UNL     1      32.477  16.047  21.503  1.00  0.00     0.087 C 
ENDBRANCH  16  17
ENDBRANCH  15  16
ENDBRANCH  13  15
ENDBRANCH  11  12
ENDBRANCH   1  11
TORSDOF 9
ENDMDL
MODEL 3
REMARK VINA RESULT:    -6.154      2.107      4.711
REMARK INTER + INTRA:         -10.996
REMARK INTER:                 -10.250
REMARK INTRA:                  -0.747
REMARK UNBOUND:                -1.605
REMARK SMILES CC(=O)CCC=C(C)CCC=C(C)CCC=C(C)C
REMARK SMILES IDX 10 1 11 2 12 3 13 4 14 5 15 6 16 7 18 8 17 9 19 10 9 11 7 12
REMARK SMILES IDX 6 13 8 14 5 15 4 16 2 17 3 18 1 19
REMARK H PARENT
REMARK Flexibility Score: inf
ROOT
ATOM      1  C   UNL     1      32.006  21.218  24.968  1.00  0.00     0.032 C 
ENDROOT
BRANCH   1   2
ATOM      2  C   UNL     1      31.808  19.720  24.989  1.00  0.00    -0.028 C 
ATOM      3  C   UNL     1      31.664  18.940  23.893  1.00  0.00    -0.077 C 
ATOM      4  C   UNL     1      31.389  17.472  24.095  1.00  0.00     0.039 C 
BRANCH   3   5
ATOM      5  C   UNL     1      31.800  19.471  22.478  1.00  0.00     0.034 C 
BRANCH   5   6
ATOM      6  C   UNL     1      32.781  18.632  21.644  1.00  0.00     0.032 C 
BRANCH   6   7
ATOM      7  C   UNL     1      32.084  17.912  20.514  1.00  0.00    -0.028 C 
ATOM      8  C   UNL     1      32.764  15.639  21.318  1.00  0.00     0.039 C 
ATOM      9  C   UNL     1      32.093  16.572  20.338  1.00  0.00    -0.080 C 
ATOM     10  C   UNL     1      31.393  16.004  19.131  1.00  0.00     0.039 C 
ENDBRANCH   6   7
ENDBRANCH   5   6
ENDBRANCH   3   5
ENDBRANCH   1   2
BRANCH   1  11
ATOM     11  C   UNL     1      32.409  21.753  26.349  1.00  0.00     0.034 C 
BRANCH  11  12
ATOM     12  C   UNL     1      33.244  20.751  27.121  1.00  0.00    -0.077 C 
ATOM     13  C   UNL     1      32.621  19.762  27.801  1.00  0.00    -0.028 C 
ATOM     14  C   UNL     1      34.748  20.899  27.128  1.00  0.00     0.039 C 
BRANCH  13  15
ATOM     15  C   UNL     1      33.329  18.680  28.582  1.00  0.00     0.035 C 
BRANCH  15  16
ATOM     16  C   UNL     1      32.357  17.594  29.061  1.00  0.00     0.079 C 
BRANCH  16  17
ATOM     17  C   UNL     1      32.625  16.273  28.388  1.00  0.00     0.130 C 
ATOM     18  O   UNL     1      33.731  15.761  28.481  1.00  0.00    -0.300 OA
ATOM     19  C   UNL     1      31.567  15.594  27.570  1.00  0.00     0.087 C 
ENDBRANCH  16  17
ENDBRANCH  15  16
ENDBRANCH  13  15
ENDBRANCH  11  12
ENDBRANCH   1  11
TORSDOF 9
ENDMDL
MODEL 4
REMARK VINA RESULT:    -6.136      1.713      5.128
REMARK INTER + INTRA:         -10.969
REMARK INTER:                  -9.641
REMARK INTRA:                  -1.327
REMARK UNBOUND:                -1.605
REMARK SMILES CC(=O)CCC=C(C)CCC=C(C)CCC=C(C)C
REMARK SMILES IDX 10 1 11 2 12 3 13 4 14 5 15 6 16 7 18 8 17 9 19 10 9 11 7 12
REMARK SMILES IDX 6 13 8 14 5 15 4 16 2 17 3 18 1 19
REMARK H PARENT
REMARK Flexibility Score: inf
ROOT
ATOM      1  C   UNL     1      30.622  17.913  25.320  1.00  0.00     0.032 C 
ENDROOT
BRANCH   1   2
ATOM      2  C   UNL     1      31.627  17.723  24.208  1.00  0.00    -0.028 C 
ATOM      3  C   UNL     1      31.798  18.566  23.164  1.00  0.00    -0.077 C 
ATOM      4  C   UNL     1      32.790  18.183  22.095  1.00  0.00     0.039 C 
BRANCH   3   5
ATOM      5  C   UNL     1      31.065  19.889  23.040  1.00  0.00     0.034 C 
BRANCH   5   6
ATOM      6  C   UNL     1      31.870  21.048  23.647  1.00  0.00     0.032 C 
BRANCH   6   7
ATOM      7  C   UNL     1      31.457  21.333  25.072  1.00  0.00    -0.028 C 
ATOM      8  C   UNL     1      33.728  20.836  26.006  1.00  0.00     0.039 C 
ATOM      9  C   UNL     1      32.272  21.213  26.144  1.00  0.00    -0.080 C 
ATOM     10  C   UNL     1      31.700  21.483  27.512  1.00  0.00     0.039 C 
ENDBRANCH   6   7
ENDBRANCH   5   6
ENDBRANCH   3   5
ENDBRANCH   1   2
BRANCH   1  11
ATOM     11  C   UNL     1      29.850  16.618  25.610  1.00  0.00     0.034 C 
BRANCH  11  12
ATOM     12  C   UNL     1      30.388  15.902  26.832  1.00  0.00    -0.077 C 
ATOM     13  C   UNL     1      31.698  16.031  27.146  1.00  0.00    -0.028 C 
ATOM     14  C   UNL     1      29.451  15.046  27.652  1.00  0.00     0.039 C 
BRANCH  13  15
ATOM     15  C   UNL     1      32.357  15.401  28.350  1.00  0.00     0.035 C 
BRANCH  15  16
ATOM     16  C   UNL     1      33.344  16.361  29.027  1.00  0.00     0.079 C 
BRANCH  16  17
ATOM     17  C   UNL     1      32.850  17.783  28.988  1.00  0.00     0.130 C 
ATOM     18  O   UNL     1      33.603  18.675  28.627  1.00  0.00    -0.300 OA
ATOM     19  C   UNL     1      31.457  18.129  29.426  1.00  0.00     0.087 C 
ENDBRANCH  16  17
ENDBRANCH  15  16
ENDBRANCH  13  15
ENDBRANCH  11  12
ENDBRANCH   1  11
TORSDOF 9
ENDMDL
MODEL 5
REMARK VINA RESULT:    -6.060      2.536      5.888
REMARK INTER + INTRA:         -10.853
REMARK INTER:                  -9.636
REMARK INTRA:                  -1.217
REMARK UNBOUND:                -1.605
REMARK SMILES CC(=O)CCC=C(C)CCC=C(C)CCC=C(C)C
REMARK SMILES IDX 10 1 11 2 12 3 13 4 14 5 15 6 16 7 18 8 17 9 19 10 9 11 7 12
REMARK SMILES IDX 6 13 8 14 5 15 4 16 2 17 3 18 1 19
REMARK H PARENT
REMARK Flexibility Score: inf
ROOT
ATOM      1  C   UNL     1      30.979  17.594  25.400  1.00  0.00     0.032 C 
ENDROOT
BRANCH   1   2
ATOM      2  C   UNL     1      31.605  17.075  26.674  1.00  0.00    -0.028 C 
ATOM      3  C   UNL     1      31.633  17.739  27.852  1.00  0.00    -0.077 C 
ATOM      4  C   UNL     1      32.374  17.113  29.005  1.00  0.00     0.039 C 
BRANCH   3   5
ATOM      5  C   UNL     1      30.925  19.064  28.071  1.00  0.00     0.034 C 
BRANCH   5   6
ATOM      6  C   UNL     1      31.916  20.233  28.168  1.00  0.00     0.032 C 
BRANCH   6   7
ATOM      7  C   UNL     1      31.663  21.274  27.102  1.00  0.00    -0.028 C 
ATOM      8  C   UNL     1      34.082  21.469  26.481  1.00  0.00     0.039 C 
ATOM      9  C   UNL     1      32.628  21.859  26.358  1.00  0.00    -0.080 C 
ATOM     10  C   UNL     1      32.224  22.920  25.368  1.00  0.00     0.039 C 
ENDBRANCH   6   7
ENDBRANCH   5   6
ENDBRANCH   3   5
ENDBRANCH   1   2
BRANCH   1  11
ATOM     11  C   UNL     1      31.823  18.712  24.773  1.00  0.00     0.034 C 
BRANCH  11  12
ATOM     12  C   UNL     1      31.819  18.641  23.259  1.00  0.00    -0.077 C 
ATOM     13  C   UNL     1      32.154  17.477  22.655  1.00  0.00    -0.028 C 
ATOM     14  C   UNL     1      31.463  19.877  22.467  1.00  0.00     0.039 C 
BRANCH  13  15
ATOM     15  C   UNL     1      32.159  17.257  21.161  1.00  0.00     0.035 C 
BRANCH  15  16
ATOM     16  C   UNL     1      31.854  15.798  20.798  1.00  0.00     0.079 C 
BRANCH  16  17
ATOM     17  C   UNL     1      31.909  15.572  19.311  1.00  0.00     0.130 C 
ATOM     18  O   UNL     1      32.856  14.971  18.825  1.00  0.00    -0.300 OA
ATOM     19  C   UNL     1      30.839  16.110  18.408  1.00  0.00     0.087 C 
ENDBRANCH  16  17
ENDBRANCH  15  16
ENDBRANCH  13  15
ENDBRANCH  11  12
ENDBRANCH   1  11
TORSDOF 9
ENDMDL
MODEL 6
REMARK VINA RESULT:    -6.037      1.851      6.331
REMARK INTER + INTRA:         -10.818
REMARK INTER:                  -9.397
REMARK INTRA:                  -1.421
REMARK UNBOUND:                -1.605
REMARK SMILES CC(=O)CCC=C(C)CCC=C(C)CCC=C(C)C
REMARK SMILES IDX 10 1 11 2 12 3 13 4 14 5 15 6 16 7 18 8 17 9 19 10 9 11 7 12
REMARK SMILES IDX 6 13 8 14 5 15 4 16 2 17 3 18 1 19
REMARK H PARENT
REMARK Flexibility Score: inf
ROOT
ATOM      1  C   UNL     1      30.942  20.842  23.790  1.00  0.00     0.032 C 
ENDROOT
BRANCH   1   2
ATOM      2  C   UNL     1      31.966  21.682  24.516  1.00  0.00    -0.028 C 
ATOM      3  C   UNL     1      32.411  21.449  25.772  1.00  0.00    -0.077 C 
ATOM      4  C   UNL     1      33.374  22.436  26.381  1.00  0.00     0.039 C 
BRANCH   3   5
ATOM      5  C   UNL     1      32.012  20.225  26.577  1.00  0.00     0.034 C 
BRANCH   5   6
ATOM      6  C   UNL     1      32.705  20.190  27.947  1.00  0.00     0.032 C 
BRANCH   6   7
ATOM      7  C   UNL     1      33.329  18.843  28.227  1.00  0.00    -0.028 C 
ATOM      8  C   UNL     1      31.310  17.969  29.426  1.00  0.00     0.039 C 
ATOM      9  C   UNL     1      32.726  17.847  28.914  1.00  0.00    -0.080 C 
ATOM     10  C   UNL     1      33.498  16.576  29.157  1.00  0.00     0.039 C 
ENDBRANCH   6   7
ENDBRANCH   5   6
ENDBRANCH   3   5
ENDBRANCH   1   2
BRANCH   1  11
ATOM     11  C   UNL     1      31.603  19.898  22.776  1.00  0.00     0.034 C 
BRANCH  11  12
ATOM     12  C   UNL     1      31.630  18.466  23.272  1.00  0.00    -0.077 C 
ATOM     13  C   UNL     1      31.067  18.174  24.466  1.00  0.00    -0.028 C 
ATOM     14  C   UNL     1      32.305  17.410  22.428  1.00  0.00     0.039 C 
BRANCH  13  15
ATOM     15  C   UNL     1      30.993  16.789  25.064  1.00  0.00     0.035 C 
BRANCH  15  16
ATOM     16  C   UNL     1      29.991  16.721  26.224  1.00  0.00     0.079 C 
BRANCH  16  17
ATOM     17  C   UNL     1      30.258  15.541  27.120  1.00  0.00     0.130 C 
ATOM     18  O   UNL     1      31.382  15.064  27.173  1.00  0.00    -0.300 OA
ATOM     19  C   UNL     1      29.156  14.913  27.920  1.00  0.00     0.087 C 
ENDBRANCH  16  17
ENDBRANCH  15  16
ENDBRANCH  13  15
ENDBRANCH  11  12
ENDBRANCH   1  11
TORSDOF 9
ENDMDL
MODEL 7
REMARK VINA RESULT:    -5.973     11.814     13.757
REMARK INTER + INTRA:         -10.721
REMARK INTER:                  -9.223
REMARK INTRA:                  -1.498
REMARK UNBOUND:                -1.605
REMARK SMILES CC(=O)CCC=C(C)CCC=C(C)CCC=C(C)C
REMARK SMILES IDX 10 1 11 2 12 3 13 4 14 5 15 6 16 7 18 8 17 9 19 10 9 11 7 12
REMARK SMILES IDX 6 13 8 14 5 15 4 16 2 17 3 18 1 19
REMARK H PARENT
REMARK Flexibility Score: inf
ROOT
ATOM      1  C   UNL     1      21.571  25.557  28.695  1.00  0.00     0.032 C 
ENDROOT
BRANCH   1   2
ATOM      2  C   UNL     1      21.216  26.960  28.260  1.00  0.00    -0.028 C 
ATOM      3  C   UNL     1      19.972  27.491  28.290  1.00  0.00    -0.077 C 
ATOM      4  C   UNL     1      19.777  28.880  27.740  1.00  0.00     0.039 C 
BRANCH   3   5
ATOM      5  C   UNL     1      18.778  26.765  28.883  1.00  0.00     0.034 C 
BRANCH   5   6
ATOM      6  C   UNL     1      17.776  26.332  27.802  1.00  0.00     0.032 C 
BRANCH   6   7
ATOM      7  C   UNL     1      17.975  24.890  27.397  1.00  0.00    -0.028 C 
ATOM      8  C   UNL     1      16.198  24.036  28.943  1.00  0.00     0.039 C 
ATOM      9  C   UNL     1      17.295  23.846  27.922  1.00  0.00    -0.080 C 
ATOM     10  C   UNL     1      17.642  22.457  27.453  1.00  0.00     0.039 C 
ENDBRANCH   6   7
ENDBRANCH   5   6
ENDBRANCH   3   5
ENDBRANCH   1   2
BRANCH   1  11
ATOM     11  C   UNL     1      22.844  25.056  27.998  1.00  0.00     0.034 C 
BRANCH  11  12
ATOM     12  C   UNL     1      22.572  24.618  26.573  1.00  0.00    -0.077 C 
ATOM     13  C   UNL     1      23.369  25.077  25.581  1.00  0.00    -0.028 C 
ATOM     14  C   UNL     1      21.406  23.697  26.298  1.00  0.00     0.039 C 
BRANCH  13  15
ATOM     15  C   UNL     1      23.233  24.696  24.126  1.00  0.00     0.035 C 
BRANCH  15  16
ATOM     16  C   UNL     1      24.287  23.663  23.706  1.00  0.00     0.079 C 
BRANCH  16  17
ATOM     17  C   UNL     1      23.769  22.749  22.627  1.00  0.00     0.130 C 
ATOM     18  O   UNL     1      24.557  22.189  21.880  1.00  0.00    -0.300 OA
ATOM     19  C   UNL     1      22.296  22.547  22.428  1.00  0.00     0.087 C 
ENDBRANCH  16  17
ENDBRANCH  15  16
ENDBRANCH  13  15
ENDBRANCH  11  12
ENDBRANCH   1  11
TORSDOF 9
ENDMDL
MODEL 8
REMARK VINA RESULT:    -5.923      2.496      6.566
REMARK INTER + INTRA:         -10.644
REMARK INTER:                  -9.660
REMARK INTRA:                  -0.984
REMARK UNBOUND:                -1.605
REMARK SMILES CC(=O)CCC=C(C)CCC=C(C)CCC=C(C)C
REMARK SMILES IDX 10 1 11 2 12 3 13 4 14 5 15 6 16 7 18 8 17 9 19 10 9 11 7 12
REMARK SMILES IDX 6 13 8 14 5 15 4 16 2 17 3 18 1 19
REMARK H PARENT
REMARK Flexibility Score: inf
ROOT
ATOM      1  C   UNL     1      31.752  20.646  24.893  1.00  0.00     0.032 C 
ENDROOT
BRANCH   1   2
ATOM      2  C   UNL     1      32.907  21.289  25.624  1.00  0.00    -0.028 C 
ATOM      3  C   UNL     1      33.114  21.223  26.959  1.00  0.00    -0.077 C 
ATOM      4  C   UNL     1      34.272  21.994  27.539  1.00  0.00     0.039 C 
BRANCH   3   5
ATOM      5  C   UNL     1      32.257  20.382  27.888  1.00  0.00     0.034 C 
BRANCH   5   6
ATOM      6  C   UNL     1      32.860  18.988  28.117  1.00  0.00     0.032 C 
BRANCH   6   7
ATOM      7  C   UNL     1      31.825  17.897  27.968  1.00  0.00    -0.028 C 
ATOM      8  C   UNL     1      33.397  16.077  28.670  1.00  0.00     0.039 C 
ATOM      9  C   UNL     1      32.060  16.584  28.184  1.00  0.00    -0.080 C 
ATOM     10  C   UNL     1      30.938  15.607  27.944  1.00  0.00     0.039 C 
ENDBRANCH   6   7
ENDBRANCH   5   6
ENDBRANCH   3   5
ENDBRANCH   1   2
BRANCH   1  11
ATOM     11  C   UNL     1      32.070  19.196  24.500  1.00  0.00     0.034 C 
BRANCH  11  12
ATOM     12  C   UNL     1      31.987  18.986  23.001  1.00  0.00    -0.077 C 
ATOM     13  C   UNL     1      32.456  17.833  22.473  1.00  0.00    -0.028 C 
ATOM     14  C   UNL     1      31.403  20.080  22.139  1.00  0.00     0.039 C 
BRANCH  13  15
ATOM     15  C   UNL     1      32.407  17.480  21.005  1.00  0.00     0.035 C 
BRANCH  15  16
ATOM     16  C   UNL     1      31.779  16.099  20.772  1.00  0.00     0.079 C 
BRANCH  16  17
ATOM     17  C   UNL     1      31.889  15.675  19.332  1.00  0.00     0.130 C 
ATOM     18  O   UNL     1      32.902  15.114  18.942  1.00  0.00    -0.300 OA
ATOM     19  C   UNL     1      30.789  15.968  18.355  1.00  0.00     0.087 C 
ENDBRANCH  16  17
ENDBRANCH  15  16
ENDBRANCH  13  15
ENDBRANCH  11  12
ENDBRANCH   1  11
TORSDOF 9
ENDMDL
MODEL 9
REMARK VINA RESULT:    -5.867     11.765     13.429
REMARK INTER + INTRA:         -10.559
REMARK INTER:                  -9.637
REMARK INTRA:                  -0.922
REMARK UNBOUND:                -1.605
REMARK SMILES CC(=O)CCC=C(C)CCC=C(C)CCC=C(C)C
REMARK SMILES IDX 10 1 11 2 12 3 13 4 14 5 15 6 16 7 18 8 17 9 19 10 9 11 7 12
REMARK SMILES IDX 6 13 8 14 5 15 4 16 2 17 3 18 1 19
REMARK H PARENT
REMARK Flexibility Score: inf
ROOT
ATOM      1  C   UNL     1      20.184  23.042  25.898  1.00  0.00     0.032 C 
ENDROOT
BRANCH   1   2
ATOM      2  C   UNL     1      19.087  22.417  26.727  1.00  0.00    -0.028 C 
ATOM      3  C   UNL     1      17.981  23.061  27.165  1.00  0.00    -0.077 C 
ATOM      4  C   UNL     1      17.025  22.310  28.054  1.00  0.00     0.039 C 
BRANCH   3   5
ATOM      5  C   UNL     1      17.647  24.488  26.771  1.00  0.00     0.034 C 
BRANCH   5   6
ATOM      6  C   UNL     1      17.222  25.332  27.983  1.00  0.00     0.032 C 
BRANCH   6   7
ATOM      7  C   UNL     1      17.754  26.743  27.899  1.00  0.00    -0.028 C 
ATOM      8  C   UNL     1      19.946  26.161  28.962  1.00  0.00     0.039 C 
ATOM      9  C   UNL     1      18.962  27.136  28.361  1.00  0.00    -0.080 C 
ATOM     10  C   UNL     1      19.331  28.593  28.251  1.00  0.00     0.039 C 
ENDBRANCH   6   7
ENDBRANCH   5   6
ENDBRANCH   3   5
ENDBRANCH   1   2
BRANCH   1  11
ATOM     11  C   UNL     1      21.258  23.692  26.782  1.00  0.00     0.034 C 
BRANCH  11  12
ATOM     12  C   UNL     1      22.321  24.391  25.958  1.00  0.00    -0.077 C 
ATOM     13  C   UNL     1      22.615  23.916  24.726  1.00  0.00    -0.028 C 
ATOM     14  C   UNL     1      23.038  25.584  26.545  1.00  0.00     0.039 C 
BRANCH  13  15
ATOM     15  C   UNL     1      23.625  24.533  23.788  1.00  0.00     0.035 C 
BRANCH  15  16
ATOM     16  C   UNL     1      24.754  23.553  23.442  1.00  0.00     0.079 C 
BRANCH  16  17
ATOM     17  C   UNL     1      24.339  22.586  22.364  1.00  0.00     0.130 C 
ATOM     18  O   UNL     1      25.188  22.080  21.646  1.00  0.00    -0.300 OA
ATOM     19  C   UNL     1      22.892  22.265  22.130  1.00  0.00     0.087 C 
ENDBRANCH  16  17
ENDBRANCH  15  16
ENDBRANCH  13  15
ENDBRANCH  11  12
ENDBRANCH   1  11
TORSDOF 9
ENDMDL
