MODEL 1
REMARK VINA RESULT:     4.989      0.000      0.000
REMARK INTER + INTRA:           4.989
REMARK INTER:                   4.989
REMARK INTRA:                   0.000
REMARK UNBOUND:                 0.000
REMARK SMILES CC1(C)O[C@]2(C)CC[C@H]1CC2
REMARK SMILES IDX 1 1 2 2 9 3 10 4 11 5 5 6 4 7 7 8 8 9 6 10 3 11
REMARK H PARENT
REMARK Flexibility Score: inf
ROOT
ATOM      1  C   UNL     1      -1.389 -11.182 -15.391  1.00  0.00     0.042 C 
ATOM      2  C   UNL     1      -0.625 -12.395 -14.818  1.00  0.00     0.066 C 
ATOM      3  C   UNL     1      -0.815 -13.661 -15.740  1.00  0.00     0.021 C 
ATOM      4  C   UNL     1      -0.073 -14.854 -15.091  1.00  0.00     0.009 C 
ATOM      5  C   UNL     1      -0.523 -14.992 -13.617  1.00  0.00     0.035 C 
ATOM      6  C   UNL     1      -1.633 -13.946 -13.304  1.00  0.00     0.066 C 
ATOM      7  O   UNL     1      -1.103 -12.632 -13.484  1.00  0.00    -0.369 OA
ATOM      8  C   UNL     1      -2.818 -14.158 -14.290  1.00  0.00     0.035 C 
ATOM      9  C   UNL     1      -2.315 -14.041 -15.749  1.00  0.00     0.009 C 
ATOM     10  C   UNL     1      -2.111 -14.093 -11.857  1.00  0.00     0.042 C 
ATOM     11  C   UNL     1       0.865 -12.000 -14.730  1.00  0.00     0.042 C 
ENDROOT
TORSDOF 0
ENDMDL
MODEL 2
REMARK VINA RESULT:     7.724      0.954      3.306
REMARK INTER + INTRA:           7.724
REMARK INTER:                   7.724
REMARK INTRA:                   0.000
REMARK UNBOUND:                 0.000
REMARK SMILES CC1(C)O[C@]2(C)CC[C@H]1CC2
REMARK SMILES IDX 1 1 2 2 9 3 10 4 11 5 5 6 4 7 7 8 8 9 6 10 3 11
REMARK H PARENT
REMARK Flexibility Score: inf
ROOT
ATOM      1  C   UNL     1      -1.176 -14.556 -12.236  1.00  0.00     0.042 C 
ATOM      2  C   UNL     1      -1.903 -14.055 -13.503  1.00  0.00     0.066 C 
ATOM      3  C   UNL     1      -1.409 -14.842 -14.777  1.00  0.00     0.021 C 
ATOM      4  C   UNL     1      -2.131 -14.264 -16.019  1.00  0.00     0.009 C 
ATOM      5  C   UNL     1      -1.956 -12.726 -16.038  1.00  0.00     0.035 C 
ATOM      6  C   UNL     1      -1.043 -12.284 -14.858  1.00  0.00     0.066 C 
ATOM      7  O   UNL     1      -1.665 -12.644 -13.624  1.00  0.00    -0.369 OA
ATOM      8  C   UNL     1       0.323 -13.019 -14.975  1.00  0.00     0.035 C 
ATOM      9  C   UNL     1       0.096 -14.551 -14.981  1.00  0.00     0.009 C 
ATOM     10  C   UNL     1      -0.835 -10.767 -14.885  1.00  0.00     0.042 C 
ATOM     11  C   UNL     1      -3.416 -14.268 -13.280  1.00  0.00     0.042 C 
ENDROOT
TORSDOF 0
ENDMDL
