MODEL 1
REMARK VINA RESULT:    -4.635      0.000      0.000
REMARK INTER + INTRA:          -6.243
REMARK INTER:                  -6.532
REMARK INTRA:                   0.289
REMARK UNBOUND:                 0.289
REMARK SMILES CC1=CCC(=C(C)C)C(=O)CC(C)=CCC1
REMARK SMILES IDX 12 1 14 2 13 3 15 4 16 5 2 6 1 7 3 8 11 10 9 11 10 12 5 13
REMARK SMILES IDX 6 14 7 15 8 16 4 17
REMARK H PARENT
REMARK Flexibility Score: 60.00
ROOT
ATOM      1  C   UNL     1       1.700 -21.260  -7.398  1.00  0.00    -0.070 C 
ATOM      2  C   UNL     1       0.568 -21.393  -6.668  1.00  0.00    -0.027 C 
ATOM      3  C   UNL     1       1.561 -21.001  -8.876  1.00  0.00     0.039 C 
ENDROOT
BRANCH   2   4
ATOM      4  C   UNL     1       0.489 -21.726  -5.196  1.00  0.00     0.032 C 
BRANCH   4   5
ATOM      5  C   UNL     1       0.295 -20.483  -4.311  1.00  0.00     0.034 C 
BRANCH   5   6
ATOM      6  C   UNL     1       1.078 -20.562  -3.012  1.00  0.00    -0.077 C 
ATOM      7  C   UNL     1       0.506 -21.377  -1.881  1.00  0.00     0.039 C 
ATOM      8  C   UNL     1       2.272 -19.959  -2.815  1.00  0.00    -0.023 CG0
ATOM      9  G   UNL     1       3.036 -19.150  -3.837  1.00  0.00     0.000 G0
ENDBRANCH   5   6
ENDBRANCH   4   5
ENDBRANCH   2   4
BRANCH   1  10
ATOM     10  C   UNL     1       3.097 -21.379  -6.818  1.00  0.00     0.111 C 
BRANCH  10  11
ATOM     11  C   UNL     1       3.564 -20.094  -6.179  1.00  0.00     0.163 C 
ATOM     12  O   UNL     1       3.719 -19.084  -6.918  1.00  0.00    -0.294 OA
BRANCH  11  13
ATOM     13  C   UNL     1       3.925 -20.004  -4.731  1.00  0.00    -0.002 C 
ATOM     14  C   UNL     1       5.077 -20.576  -4.270  1.00  0.00    -0.069 C 
ATOM     15  C   UNL     1       5.517 -20.407  -2.833  1.00  0.00     0.039 C 
ATOM     16  C   UNL     1       5.988 -21.360  -5.187  1.00  0.00     0.039 C 
BRANCH  13  17
ATOM     17  C   UNL     1       3.064 -19.137  -3.823  1.00  0.00     0.066 CG0
ATOM     18  G   UNL     1       2.270 -19.968  -2.842  1.00  0.00     0.000 G0
ENDBRANCH  13  17
ENDBRANCH  11  13
ENDBRANCH  10  11
ENDBRANCH   1  10
TORSDOF 0
ENDMDL
MODEL 2
REMARK VINA RESULT:    -4.282      1.948      2.561
REMARK INTER + INTRA:          -5.746
REMARK INTER:                  -6.040
REMARK INTRA:                   0.294
REMARK UNBOUND:                 0.289
REMARK SMILES CC1=CCC(=C(C)C)C(=O)CC(C)=CCC1
REMARK SMILES IDX 12 1 14 2 13 3 15 4 16 5 2 6 1 7 3 8 11 10 9 11 10 12 5 13
REMARK SMILES IDX 6 14 7 15 8 16 4 17
REMARK H PARENT
REMARK Flexibility Score: 60.00
ROOT
ATOM      1  C   UNL     1       1.316 -21.728  -6.127  1.00  0.00    -0.070 C 
ATOM      2  C   UNL     1       0.453 -21.374  -5.146  1.00  0.00    -0.027 C 
ATOM      3  C   UNL     1       0.794 -22.584  -7.253  1.00  0.00     0.039 C 
ENDROOT
BRANCH   2   4
ATOM      4  C   UNL     1       0.791 -20.587  -3.902  1.00  0.00     0.032 C 
BRANCH   4   5
ATOM      5  C   UNL     1       0.995 -19.087  -4.179  1.00  0.00     0.034 C 
BRANCH   5   6
ATOM      6  C   UNL     1       2.340 -18.580  -3.690  1.00  0.00    -0.077 C 
ATOM      7  C   UNL     1       2.664 -18.713  -2.224  1.00  0.00     0.039 C 
ATOM      8  C   UNL     1       3.277 -18.031  -4.497  1.00  0.00    -0.023 CG0
ATOM      9  G   UNL     1       3.168 -17.864  -5.994  1.00  0.00     0.000 G0
ENDBRANCH   5   6
ENDBRANCH   4   5
ENDBRANCH   2   4
BRANCH   1  10
ATOM     10  C   UNL     1       2.780 -21.329  -6.148  1.00  0.00     0.111 C 
BRANCH  10  11
ATOM     11  C   UNL     1       3.055 -20.204  -7.115  1.00  0.00     0.163 C 
ATOM     12  O   UNL     1       2.639 -20.322  -8.299  1.00  0.00    -0.294 OA
BRANCH  11  13
ATOM     13  C   UNL     1       3.868 -19.005  -6.741  1.00  0.00    -0.002 C 
ATOM     14  C   UNL     1       5.157 -18.883  -7.175  1.00  0.00    -0.069 C 
ATOM     15  C   UNL     1       5.963 -17.633  -6.900  1.00  0.00     0.039 C 
ATOM     16  C   UNL     1       5.819 -19.970  -7.991  1.00  0.00     0.039 C 
BRANCH  13  17
ATOM     17  C   UNL     1       3.178 -17.866  -6.002  1.00  0.00     0.066 CG0
ATOM     18  G   UNL     1       3.269 -18.035  -4.503  1.00  0.00     0.000 G0
ENDBRANCH  13  17
ENDBRANCH  11  13
ENDBRANCH  10  11
ENDBRANCH   1  10
TORSDOF 0
ENDMDL
MODEL 3
REMARK VINA RESULT:    -4.139      1.908      3.623
REMARK INTER + INTRA:          -5.545
REMARK INTER:                  -6.100
REMARK INTRA:                   0.555
REMARK UNBOUND:                 0.289
REMARK SMILES CC1=CCC(=C(C)C)C(=O)CC(C)=CCC1
REMARK SMILES IDX 12 1 14 2 13 3 15 4 16 5 2 6 1 7 3 8 11 10 9 11 10 12 5 13
REMARK SMILES IDX 6 14 7 15 8 16 4 17
REMARK H PARENT
REMARK Flexibility Score: 60.00
ROOT
ATOM      1  C   UNL     1       4.703 -20.971  -6.412  1.00  0.00    -0.070 C 
ATOM      2  C   UNL     1       3.849 -21.172  -7.443  1.00  0.00    -0.027 C 
ATOM      3  C   UNL     1       5.691 -22.063  -6.090  1.00  0.00     0.039 C 
ENDROOT
BRANCH   2   4
ATOM      4  C   UNL     1       2.743 -20.241  -7.879  1.00  0.00     0.032 C 
BRANCH   4   5
ATOM      5  C   UNL     1       1.357 -20.910  -7.871  1.00  0.00     0.034 C 
BRANCH   5   6
ATOM      6  C   UNL     1       0.962 -21.419  -6.496  1.00  0.00    -0.077 C 
ATOM      7  C   UNL     1       0.528 -22.856  -6.363  1.00  0.00     0.039 C 
ATOM      8  C   UNL     1       0.995 -20.663  -5.375  1.00  0.00    -0.023 CG0
ATOM      9  G   UNL     1       1.453 -19.226  -5.289  1.00  0.00     0.000 G0
ENDBRANCH   5   6
ENDBRANCH   4   5
ENDBRANCH   2   4
BRANCH   1  10
ATOM     10  C   UNL     1       4.709 -19.721  -5.552  1.00  0.00     0.111 C 
BRANCH  10  11
ATOM     11  C   UNL     1       3.774 -19.830  -4.374  1.00  0.00     0.163 C 
ATOM     12  O   UNL     1       4.022 -20.700  -3.495  1.00  0.00    -0.294 OA
BRANCH  11  13
ATOM     13  C   UNL     1       2.530 -19.007  -4.258  1.00  0.00    -0.002 C 
ATOM     14  C   UNL     1       2.450 -18.004  -3.335  1.00  0.00    -0.069 C 
ATOM     15  C   UNL     1       1.247 -17.089  -3.271  1.00  0.00     0.039 C 
ATOM     16  C   UNL     1       3.582 -17.730  -2.370  1.00  0.00     0.039 C 
BRANCH  13  17
ATOM     17  C   UNL     1       1.428 -19.214  -5.288  1.00  0.00     0.066 CG0
ATOM     18  G   UNL     1       0.999 -20.661  -5.367  1.00  0.00     0.000 G0
ENDBRANCH  13  17
ENDBRANCH  11  13
ENDBRANCH  10  11
ENDBRANCH   1  10
TORSDOF 0
ENDMDL
MODEL 4
REMARK VINA RESULT:    -4.132      1.777      3.728
REMARK INTER + INTRA:          -5.534
REMARK INTER:                  -5.738
REMARK INTRA:                   0.204
REMARK UNBOUND:                 0.289
REMARK SMILES CC1=CCC(=C(C)C)C(=O)CC(C)=CCC1
REMARK SMILES IDX 12 1 14 2 13 3 15 4 16 5 2 6 1 7 3 8 11 10 9 11 10 12 5 13
REMARK SMILES IDX 6 14 7 15 8 16 4 17
REMARK H PARENT
REMARK Flexibility Score: 60.00
ROOT
ATOM      1  C   UNL     1       2.158 -20.684  -6.877  1.00  0.00    -0.070 C 
ATOM      2  C   UNL     1       3.358 -21.287  -7.047  1.00  0.00    -0.027 C 
ATOM      3  C   UNL     1       0.982 -21.220  -7.652  1.00  0.00     0.039 C 
ENDROOT
BRANCH   2   4
ATOM      4  C   UNL     1       4.667 -20.861  -6.423  1.00  0.00     0.032 C 
BRANCH   4   5
ATOM      5  C   UNL     1       4.961 -21.583  -5.096  1.00  0.00     0.034 C 
BRANCH   5   6
ATOM      6  C   UNL     1       5.577 -20.665  -4.056  1.00  0.00    -0.077 C 
ATOM      7  C   UNL     1       7.022 -20.268  -4.219  1.00  0.00     0.039 C 
ATOM      8  C   UNL     1       4.900 -20.163  -2.998  1.00  0.00    -0.023 CG0
ATOM      9  G   UNL     1       3.438 -20.393  -2.692  1.00  0.00     0.000 G0
ENDBRANCH   5   6
ENDBRANCH   4   5
ENDBRANCH   2   4
BRANCH   1  10
ATOM     10  C   UNL     1       1.935 -19.490  -5.968  1.00  0.00     0.111 C 
BRANCH  10  11
ATOM     11  C   UNL     1       1.681 -19.897  -4.537  1.00  0.00     0.163 C 
ATOM     12  O   UNL     1       0.683 -20.628  -4.294  1.00  0.00    -0.294 OA
BRANCH  11  13
ATOM     13  C   UNL     1       2.517 -19.398  -3.401  1.00  0.00    -0.002 C 
ATOM     14  C   UNL     1       2.357 -18.125  -2.933  1.00  0.00    -0.069 C 
ATOM     15  C   UNL     1       3.112 -17.634  -1.718  1.00  0.00     0.039 C 
ATOM     16  C   UNL     1       1.380 -17.167  -3.577  1.00  0.00     0.039 C 
BRANCH  13  17
ATOM     17  C   UNL     1       3.432 -20.385  -2.689  1.00  0.00     0.066 CG0
ATOM     18  G   UNL     1       4.884 -20.154  -3.035  1.00  0.00     0.000 G0
ENDBRANCH  13  17
ENDBRANCH  11  13
ENDBRANCH  10  11
ENDBRANCH   1  10
TORSDOF 0
ENDMDL
MODEL 5
REMARK VINA RESULT:    -3.849      2.157      4.092
REMARK INTER + INTRA:          -5.136
REMARK INTER:                  -5.385
REMARK INTRA:                   0.249
REMARK UNBOUND:                 0.289
REMARK SMILES CC1=CCC(=C(C)C)C(=O)CC(C)=CCC1
REMARK SMILES IDX 12 1 14 2 13 3 15 4 16 5 2 6 1 7 3 8 11 10 9 11 10 12 5 13
REMARK SMILES IDX 6 14 7 15 8 16 4 17
REMARK H PARENT
REMARK Flexibility Score: 60.00
ROOT
ATOM      1  C   UNL     1       1.376 -20.494  -5.400  1.00  0.00    -0.070 C 
ATOM      2  C   UNL     1       1.936 -20.990  -6.529  1.00  0.00    -0.027 C 
ATOM      3  C   UNL     1       0.125 -21.157  -4.882  1.00  0.00     0.039 C 
ENDROOT
BRANCH   2   4
ATOM      4  C   UNL     1       3.140 -20.429  -7.247  1.00  0.00     0.032 C 
BRANCH   4   5
ATOM      5  C   UNL     1       4.470 -21.000  -6.723  1.00  0.00     0.034 C 
BRANCH   5   6
ATOM      6  C   UNL     1       5.462 -19.917  -6.342  1.00  0.00    -0.077 C 
ATOM      7  C   UNL     1       6.127 -19.135  -7.446  1.00  0.00     0.039 C 
ATOM      8  C   UNL     1       5.772 -19.595  -5.065  1.00  0.00    -0.023 CG0
ATOM      9  G   UNL     1       5.174 -20.216  -3.825  1.00  0.00     0.000 G0
ENDBRANCH   5   6
ENDBRANCH   4   5
ENDBRANCH   2   4
BRANCH   1  10
ATOM     10  C   UNL     1       1.922 -19.300  -4.641  1.00  0.00     0.111 C 
BRANCH  10  11
ATOM     11  C   UNL     1       2.679 -19.706  -3.400  1.00  0.00     0.163 C 
ATOM     12  O   UNL     1       2.048 -20.307  -2.488  1.00  0.00    -0.294 OA
BRANCH  11  13
ATOM     13  C   UNL     1       4.115 -19.349  -3.183  1.00  0.00    -0.002 C 
ATOM     14  C   UNL     1       4.454 -18.344  -2.323  1.00  0.00    -0.069 C 
ATOM     15  C   UNL     1       5.900 -18.036  -2.005  1.00  0.00     0.039 C 
ATOM     16  C   UNL     1       3.399 -17.528  -1.611  1.00  0.00     0.039 C 
BRANCH  13  17
ATOM     17  C   UNL     1       5.183 -20.227  -3.821  1.00  0.00     0.066 CG0
ATOM     18  G   UNL     1       5.773 -19.584  -5.055  1.00  0.00     0.000 G0
ENDBRANCH  13  17
ENDBRANCH  11  13
ENDBRANCH  10  11
ENDBRANCH   1  10
TORSDOF 0
ENDMDL
MODEL 6
REMARK VINA RESULT:    -3.838      1.953      4.980
REMARK INTER + INTRA:          -5.120
REMARK INTER:                  -5.449
REMARK INTRA:                   0.329
REMARK UNBOUND:                 0.289
REMARK SMILES CC1=CCC(=C(C)C)C(=O)CC(C)=CCC1
REMARK SMILES IDX 12 1 14 2 13 3 15 4 16 5 2 6 1 7 3 8 11 10 9 11 10 12 5 13
REMARK SMILES IDX 6 14 7 15 8 16 4 17
REMARK H PARENT
REMARK Flexibility Score: 60.00
ROOT
ATOM      1  C   UNL     1       4.133 -19.340  -3.833  1.00  0.00    -0.070 C 
ATOM      2  C   UNL     1       5.220 -19.348  -4.640  1.00  0.00    -0.027 C 
ATOM      3  C   UNL     1       3.977 -20.468  -2.846  1.00  0.00     0.039 C 
ENDROOT
BRANCH   2   4
ATOM      4  C   UNL     1       5.524 -18.355  -5.737  1.00  0.00     0.032 C 
BRANCH   4   5
ATOM      5  C   UNL     1       5.083 -18.846  -7.128  1.00  0.00     0.034 C 
BRANCH   5   6
ATOM      6  C   UNL     1       4.750 -20.327  -7.146  1.00  0.00    -0.077 C 
ATOM      7  C   UNL     1       5.887 -21.316  -7.119  1.00  0.00     0.039 C 
ATOM      8  C   UNL     1       3.489 -20.816  -7.166  1.00  0.00    -0.023 CG0
ATOM      9  G   UNL     1       2.220 -19.995  -7.137  1.00  0.00     0.000 G0
ENDBRANCH   5   6
ENDBRANCH   4   5
ENDBRANCH   2   4
BRANCH   1  10
ATOM     10  C   UNL     1       3.056 -18.272  -3.879  1.00  0.00     0.111 C 
BRANCH  10  11
ATOM     11  C   UNL     1       2.207 -18.367  -5.122  1.00  0.00     0.163 C 
ATOM     12  O   UNL     1       1.794 -17.296  -5.644  1.00  0.00    -0.294 OA
BRANCH  11  13
ATOM     13  C   UNL     1       1.775 -19.677  -5.701  1.00  0.00    -0.002 C 
ATOM     14  C   UNL     1       0.911 -20.482  -5.017  1.00  0.00    -0.069 C 
ATOM     15  C   UNL     1       0.376 -21.759  -5.627  1.00  0.00     0.039 C 
ATOM     16  C   UNL     1       0.409 -20.109  -3.640  1.00  0.00     0.039 C 
BRANCH  13  17
ATOM     17  C   UNL     1       2.199 -20.013  -7.125  1.00  0.00     0.066 CG0
ATOM     18  G   UNL     1       3.484 -20.806  -7.154  1.00  0.00     0.000 G0
ENDBRANCH  13  17
ENDBRANCH  11  13
ENDBRANCH  10  11
ENDBRANCH   1  10
TORSDOF 0
ENDMDL
MODEL 7
REMARK VINA RESULT:    -3.737     11.963     14.155
REMARK INTER + INTRA:          -4.978
REMARK INTER:                  -5.652
REMARK INTRA:                   0.674
REMARK UNBOUND:                 0.289
REMARK SMILES CC1=CCC(=C(C)C)C(=O)CC(C)=CCC1
REMARK SMILES IDX 12 1 14 2 13 3 15 4 16 5 2 6 1 7 3 8 11 10 9 11 10 12 5 13
REMARK SMILES IDX 6 14 7 15 8 16 4 17
REMARK H PARENT
REMARK Flexibility Score: 60.00
ROOT
ATOM      1  C   UNL     1      -6.545 -27.681  -3.115  1.00  0.00    -0.070 C 
ATOM      2  C   UNL     1      -6.126 -28.926  -2.788  1.00  0.00    -0.027 C 
ATOM      3  C   UNL     1      -5.977 -26.519  -2.341  1.00  0.00     0.039 C 
ENDROOT
BRANCH   2   4
ATOM      4  C   UNL     1      -6.623 -30.220  -3.388  1.00  0.00     0.032 C 
BRANCH   4   5
ATOM      5  C   UNL     1      -8.145 -30.398  -3.250  1.00  0.00     0.034 C 
BRANCH   5   6
ATOM      6  C   UNL     1      -8.620 -30.274  -1.814  1.00  0.00    -0.077 C 
ATOM      7  C   UNL     1      -8.019 -31.190  -0.779  1.00  0.00     0.039 C 
ATOM      8  C   UNL     1      -9.541 -29.373  -1.400  1.00  0.00    -0.023 CG0
ATOM      9  G   UNL     1     -10.214 -28.334  -2.266  1.00  0.00     0.000 G0
ENDBRANCH   5   6
ENDBRANCH   4   5
ENDBRANCH   2   4
BRANCH   1  10
ATOM     10  C   UNL     1      -7.566 -27.391  -4.199  1.00  0.00     0.111 C 
BRANCH  10  11
ATOM     11  C   UNL     1      -8.786 -26.682  -3.664  1.00  0.00     0.163 C 
ATOM     12  O   UNL     1      -9.239 -25.703  -4.316  1.00  0.00    -0.294 OA
BRANCH  11  13
ATOM     13  C   UNL     1      -9.416 -27.046  -2.357  1.00  0.00    -0.002 C 
ATOM     14  C   UNL     1      -9.383 -26.173  -1.308  1.00  0.00    -0.069 C 
ATOM     15  C   UNL     1     -10.106 -26.473  -0.013  1.00  0.00     0.039 C 
ATOM     16  C   UNL     1      -8.667 -24.845  -1.411  1.00  0.00     0.039 C 
BRANCH  13  17
ATOM     17  C   UNL     1     -10.220 -28.337  -2.277  1.00  0.00     0.066 CG0
ATOM     18  G   UNL     1      -9.551 -29.359  -1.388  1.00  0.00     0.000 G0
ENDBRANCH  13  17
ENDBRANCH  11  13
ENDBRANCH  10  11
ENDBRANCH   1  10
TORSDOF 0
ENDMDL
MODEL 8
REMARK VINA RESULT:    -3.698     11.826     14.086
REMARK INTER + INTRA:          -4.922
REMARK INTER:                  -5.318
REMARK INTRA:                   0.396
REMARK UNBOUND:                 0.289
REMARK SMILES CC1=CCC(=C(C)C)C(=O)CC(C)=CCC1
REMARK SMILES IDX 12 1 14 2 13 3 15 4 16 5 2 6 1 7 3 8 11 10 9 11 10 12 5 13
REMARK SMILES IDX 6 14 7 15 8 16 4 17
REMARK H PARENT
REMARK Flexibility Score: 60.00
ROOT
ATOM      1  C   UNL     1      -6.733 -28.829  -3.222  1.00  0.00    -0.070 C 
ATOM      2  C   UNL     1      -6.731 -27.559  -3.691  1.00  0.00    -0.027 C 
ATOM      3  C   UNL     1      -7.249 -29.915  -4.131  1.00  0.00     0.039 C 
ENDROOT
BRANCH   2   4
ATOM      4  C   UNL     1      -6.326 -26.325  -2.919  1.00  0.00     0.032 C 
BRANCH   4   5
ATOM      5  C   UNL     1      -7.528 -25.566  -2.329  1.00  0.00     0.034 C 
BRANCH   5   6
ATOM      6  C   UNL     1      -8.856 -26.064  -2.870  1.00  0.00    -0.077 C 
ATOM      7  C   UNL     1      -9.264 -25.648  -4.260  1.00  0.00     0.039 C 
ATOM      8  C   UNL     1      -9.691 -26.878  -2.184  1.00  0.00    -0.023 CG0
ATOM      9  G   UNL     1      -9.439 -27.450  -0.808  1.00  0.00     0.000 G0
ENDBRANCH   5   6
ENDBRANCH   4   5
ENDBRANCH   2   4
BRANCH   1  10
ATOM     10  C   UNL     1      -6.268 -29.217  -1.831  1.00  0.00     0.111 C 
BRANCH  10  11
ATOM     11  C   UNL     1      -7.170 -28.673  -0.751  1.00  0.00     0.163 C 
ATOM     12  O   UNL     1      -6.637 -28.207   0.292  1.00  0.00    -0.294 OA
BRANCH  11  13
ATOM     13  C   UNL     1      -8.662 -28.745  -0.841  1.00  0.00    -0.002 C 
ATOM     14  C   UNL     1      -9.297 -29.953  -0.820  1.00  0.00    -0.069 C 
ATOM     15  C   UNL     1     -10.807 -30.047  -0.800  1.00  0.00     0.039 C 
ATOM     16  C   UNL     1      -8.521 -31.250  -0.763  1.00  0.00     0.039 C 
BRANCH  13  17
ATOM     17  C   UNL     1      -9.451 -27.443  -0.801  1.00  0.00     0.066 CG0
ATOM     18  G   UNL     1      -9.690 -26.890  -2.187  1.00  0.00     0.000 G0
ENDBRANCH  13  17
ENDBRANCH  11  13
ENDBRANCH  10  11
ENDBRANCH   1  10
TORSDOF 0
ENDMDL
MODEL 9
REMARK VINA RESULT:    -3.686     10.107     12.143
REMARK INTER + INTRA:          -4.905
REMARK INTER:                  -5.052
REMARK INTRA:                   0.146
REMARK UNBOUND:                 0.289
REMARK SMILES CC1=CCC(=C(C)C)C(=O)CC(C)=CCC1
REMARK SMILES IDX 12 1 14 2 13 3 15 4 16 5 2 6 1 7 3 8 11 10 9 11 10 12 5 13
REMARK SMILES IDX 6 14 7 15 8 16 4 17
REMARK H PARENT
REMARK Flexibility Score: 60.00
ROOT
ATOM      1  C   UNL     1       7.378 -22.976   4.665  1.00  0.00    -0.070 C 
ATOM      2  C   UNL     1       7.230 -23.350   3.373  1.00  0.00    -0.027 C 
ATOM      3  C   UNL     1       7.956 -21.613   4.945  1.00  0.00     0.039 C 
ENDROOT
BRANCH   2   4
ATOM      4  C   UNL     1       6.742 -24.692   2.883  1.00  0.00     0.032 C 
BRANCH   4   5
ATOM      5  C   UNL     1       5.219 -24.864   3.024  1.00  0.00     0.034 C 
BRANCH   5   6
ATOM      6  C   UNL     1       4.836 -26.193   3.651  1.00  0.00    -0.077 C 
ATOM      7  C   UNL     1       5.281 -27.460   2.967  1.00  0.00     0.039 C 
ATOM      8  C   UNL     1       4.134 -26.309   4.801  1.00  0.00    -0.023 CG0
ATOM      9  G   UNL     1       3.650 -25.166   5.663  1.00  0.00     0.000 G0
ENDBRANCH   5   6
ENDBRANCH   4   5
ENDBRANCH   2   4
BRANCH   1  10
ATOM     10  C   UNL     1       7.015 -23.858   5.846  1.00  0.00     0.111 C 
BRANCH  10  11
ATOM     11  C   UNL     1       5.607 -23.617   6.331  1.00  0.00     0.163 C 
ATOM     12  O   UNL     1       5.231 -22.426   6.498  1.00  0.00    -0.294 OA
BRANCH  11  13
ATOM     13  C   UNL     1       4.682 -24.735   6.695  1.00  0.00    -0.002 C 
ATOM     14  C   UNL     1       4.684 -25.249   7.960  1.00  0.00    -0.069 C 
ATOM     15  C   UNL     1       3.685 -26.303   8.382  1.00  0.00     0.039 C 
ATOM     16  C   UNL     1       5.651 -24.750   9.010  1.00  0.00     0.039 C 
BRANCH  13  17
ATOM     17  C   UNL     1       3.642 -25.175   5.673  1.00  0.00     0.066 CG0
ATOM     18  G   UNL     1       4.150 -26.305   4.808  1.00  0.00     0.000 G0
ENDBRANCH  13  17
ENDBRANCH  11  13
ENDBRANCH  10  11
ENDBRANCH   1  10
TORSDOF 0
ENDMDL
