MODEL 1
REMARK VINA RESULT:    -2.882      0.000      0.000
REMARK INTER + INTRA:          -3.179
REMARK INTER:                  -3.051
REMARK INTRA:                  -0.129
REMARK UNBOUND:                -0.129
REMARK SMILES C=C(C)[C@@H]1CC=C(C)CC1
REMARK SMILES IDX 8 1 7 2 6 3 5 4 4 5 10 6 9 7 2 8 1 9 3 10
REMARK H PARENT
REMARK Flexibility Score: inf
ROOT
ATOM      1  C   UNL     1       5.873   5.786  16.125  1.00  0.00     0.039 C 
ATOM      2  C   UNL     1       4.948   6.759  15.449  1.00  0.00    -0.077 C 
ATOM      3  C   UNL     1       5.151   8.083  15.619  1.00  0.00    -0.027 C 
ATOM      4  C   UNL     1       4.311   9.138  14.941  1.00  0.00     0.035 C 
ATOM      5  C   UNL     1       2.932   8.601  14.521  1.00  0.00     0.018 C 
ATOM      6  C   UNL     1       3.094   7.265  13.782  1.00  0.00     0.013 C 
ATOM      7  C   UNL     1       3.737   6.224  14.707  1.00  0.00     0.031 C 
ENDROOT
BRANCH   5   8
ATOM      8  C   UNL     1       2.174   9.618  13.677  1.00  0.00    -0.077 C 
ATOM      9  C   UNL     1       2.733  10.119  12.563  1.00  0.00     0.008 C 
ATOM     10  C   UNL     1       0.788  10.078  14.056  1.00  0.00     0.039 C 
ENDBRANCH   5   8
TORSDOF 1
ENDMDL
MODEL 2
REMARK VINA RESULT:    -2.730      9.630     11.602
REMARK INTER + INTRA:          -3.018
REMARK INTER:                  -2.890
REMARK INTRA:                  -0.128
REMARK UNBOUND:                -0.129
REMARK SMILES C=C(C)[C@@H]1CC=C(C)CC1
REMARK SMILES IDX 8 1 7 2 6 3 5 4 4 5 10 6 9 7 2 8 1 9 3 10
REMARK H PARENT
REMARK Flexibility Score: inf
ROOT
ATOM      1  C   UNL     1      -0.329   7.251   6.373  1.00  0.00     0.039 C 
ATOM      2  C   UNL     1      -1.655   7.907   6.107  1.00  0.00    -0.077 C 
ATOM      3  C   UNL     1      -2.636   7.190   5.517  1.00  0.00    -0.027 C 
ATOM      4  C   UNL     1      -4.016   7.742   5.256  1.00  0.00     0.035 C 
ATOM      5  C   UNL     1      -4.025   9.280   5.205  1.00  0.00     0.018 C 
ATOM      6  C   UNL     1      -3.269   9.849   6.413  1.00  0.00     0.013 C 
ATOM      7  C   UNL     1      -1.806   9.391   6.385  1.00  0.00     0.031 C 
ENDROOT
BRANCH   5   8
ATOM      8  C   UNL     1      -5.446   9.823   5.127  1.00  0.00    -0.077 C 
ATOM      9  C   UNL     1      -6.121  10.107   6.253  1.00  0.00     0.008 C 
ATOM     10  C   UNL     1      -6.125  10.065   3.801  1.00  0.00     0.039 C 
ENDBRANCH   5   8
TORSDOF 1
ENDMDL
MODEL 3
REMARK VINA RESULT:    -2.684      1.157      4.604
REMARK INTER + INTRA:          -2.970
REMARK INTER:                  -2.841
REMARK INTRA:                  -0.128
REMARK UNBOUND:                -0.129
REMARK SMILES C=C(C)[C@@H]1CC=C(C)CC1
REMARK SMILES IDX 8 1 7 2 6 3 5 4 4 5 10 6 9 7 2 8 1 9 3 10
REMARK H PARENT
REMARK Flexibility Score: inf
ROOT
ATOM      1  C   UNL     1      -0.379  10.125  13.664  1.00  0.00     0.039 C 
ATOM      2  C   UNL     1       0.934   9.614  14.189  1.00  0.00    -0.077 C 
ATOM      3  C   UNL     1       1.669   8.783  13.419  1.00  0.00    -0.027 C 
ATOM      4  C   UNL     1       3.023   8.260  13.834  1.00  0.00     0.035 C 
ATOM      5  C   UNL     1       3.217   8.299  15.360  1.00  0.00     0.018 C 
ATOM      6  C   UNL     1       2.811   9.675  15.904  1.00  0.00     0.013 C 
ATOM      7  C   UNL     1       1.328   9.940  15.617  1.00  0.00     0.031 C 
ENDROOT
BRANCH   5   8
ATOM      8  C   UNL     1       4.647   7.945  15.745  1.00  0.00    -0.077 C 
ATOM      9  C   UNL     1       5.505   8.911  16.112  1.00  0.00     0.008 C 
ATOM     10  C   UNL     1       5.134   6.516  15.736  1.00  0.00     0.039 C 
ENDBRANCH   5   8
TORSDOF 1
ENDMDL
MODEL 4
REMARK VINA RESULT:    -2.244      0.997      2.064
REMARK INTER + INTRA:          -2.504
REMARK INTER:                  -2.374
REMARK INTRA:                  -0.129
REMARK UNBOUND:                -0.129
REMARK SMILES C=C(C)[C@@H]1CC=C(C)CC1
REMARK SMILES IDX 8 1 7 2 6 3 5 4 4 5 10 6 9 7 2 8 1 9 3 10
REMARK H PARENT
REMARK Flexibility Score: inf
ROOT
ATOM      1  C   UNL     1       6.180   5.966  15.811  1.00  0.00     0.039 C 
ATOM      2  C   UNL     1       4.993   6.857  15.570  1.00  0.00    -0.077 C 
ATOM      3  C   UNL     1       3.989   6.413  14.784  1.00  0.00    -0.027 C 
ATOM      4  C   UNL     1       2.733   7.210  14.524  1.00  0.00     0.035 C 
ATOM      5  C   UNL     1       2.943   8.716  14.759  1.00  0.00     0.018 C 
ATOM      6  C   UNL     1       3.641   8.943  16.107  1.00  0.00     0.013 C 
ATOM      7  C   UNL     1       5.022   8.276  16.107  1.00  0.00     0.031 C 
ENDROOT
BRANCH   5   8
ATOM      8  C   UNL     1       1.627   9.478  14.675  1.00  0.00    -0.077 C 
ATOM      9  C   UNL     1       1.153  10.125  15.752  1.00  0.00     0.008 C 
ATOM     10  C   UNL     1       0.833   9.537  13.393  1.00  0.00     0.039 C 
ENDBRANCH   5   8
TORSDOF 1
ENDMDL
MODEL 5
REMARK VINA RESULT:    -2.094      1.149      4.421
REMARK INTER + INTRA:          -2.345
REMARK INTER:                  -2.222
REMARK INTRA:                  -0.123
REMARK UNBOUND:                -0.129
REMARK SMILES C=C(C)[C@@H]1CC=C(C)CC1
REMARK SMILES IDX 8 1 7 2 6 3 5 4 4 5 10 6 9 7 2 8 1 9 3 10
REMARK H PARENT
REMARK Flexibility Score: inf
ROOT
ATOM      1  C   UNL     1      -0.563  10.087  13.481  1.00  0.00     0.039 C 
ATOM      2  C   UNL     1       0.788   9.657  13.980  1.00  0.00    -0.077 C 
ATOM      3  C   UNL     1       1.183  10.036  15.214  1.00  0.00    -0.027 C 
ATOM      4  C   UNL     1       2.497   9.611  15.824  1.00  0.00     0.035 C 
ATOM      5  C   UNL     1       3.529   9.207  14.757  1.00  0.00     0.018 C 
ATOM      6  C   UNL     1       2.889   8.240  13.750  1.00  0.00     0.013 C 
ATOM      7  C   UNL     1       1.719   8.924  13.032  1.00  0.00     0.031 C 
ENDROOT
BRANCH   5   8
ATOM      8  C   UNL     1       4.777   8.608  15.392  1.00  0.00    -0.077 C 
ATOM      9  C   UNL     1       5.609   9.385  16.105  1.00  0.00     0.008 C 
ATOM     10  C   UNL     1       5.105   7.142  15.251  1.00  0.00     0.039 C 
ENDBRANCH   5   8
TORSDOF 1
ENDMDL
MODEL 6
REMARK VINA RESULT:    -1.628      9.379     11.209
REMARK INTER + INTRA:          -1.852
REMARK INTER:                  -1.729
REMARK INTRA:                  -0.123
REMARK UNBOUND:                -0.129
REMARK SMILES C=C(C)[C@@H]1CC=C(C)CC1
REMARK SMILES IDX 8 1 7 2 6 3 5 4 4 5 10 6 9 7 2 8 1 9 3 10
REMARK H PARENT
REMARK Flexibility Score: inf
ROOT
ATOM      1  C   UNL     1      -0.071   7.153   6.395  1.00  0.00     0.039 C 
ATOM      2  C   UNL     1      -1.456   7.701   6.187  1.00  0.00    -0.077 C 
ATOM      3  C   UNL     1      -1.698   8.998   6.474  1.00  0.00    -0.027 C 
ATOM      4  C   UNL     1      -3.038   9.655   6.249  1.00  0.00     0.035 C 
ATOM      5  C   UNL     1      -4.186   8.630   6.204  1.00  0.00     0.018 C 
ATOM      6  C   UNL     1      -3.816   7.471   5.268  1.00  0.00     0.013 C 
ATOM      7  C   UNL     1      -2.567   6.749   5.788  1.00  0.00     0.031 C 
ENDROOT
BRANCH   5   8
ATOM      8  C   UNL     1      -5.497   9.286   5.793  1.00  0.00    -0.077 C 
ATOM      9  C   UNL     1      -6.125  10.123   6.635  1.00  0.00     0.008 C 
ATOM     10  C   UNL     1      -6.117   9.027   4.442  1.00  0.00     0.039 C 
ENDBRANCH   5   8
TORSDOF 1
ENDMDL
MODEL 7
REMARK VINA RESULT:    -0.860     10.251     12.246
REMARK INTER + INTRA:          -1.039
REMARK INTER:                  -0.912
REMARK INTRA:                  -0.127
REMARK UNBOUND:                -0.129
REMARK SMILES C=C(C)[C@@H]1CC=C(C)CC1
REMARK SMILES IDX 8 1 7 2 6 3 5 4 4 5 10 6 9 7 2 8 1 9 3 10
REMARK H PARENT
REMARK Flexibility Score: inf
ROOT
ATOM      1  C   UNL     1      -6.082   4.895   3.942  1.00  0.00     0.039 C 
ATOM      2  C   UNL     1      -5.168   5.894   4.597  1.00  0.00    -0.077 C 
ATOM      3  C   UNL     1      -5.705   6.876   5.352  1.00  0.00    -0.027 C 
ATOM      4  C   UNL     1      -4.870   7.893   6.093  1.00  0.00     0.035 C 
ATOM      5  C   UNL     1      -3.465   8.045   5.485  1.00  0.00     0.018 C 
ATOM      6  C   UNL     1      -2.837   6.661   5.266  1.00  0.00     0.013 C 
ATOM      7  C   UNL     1      -3.685   5.846   4.282  1.00  0.00     0.031 C 
ENDROOT
BRANCH   5   8
ATOM      8  C   UNL     1      -2.579   8.930   6.351  1.00  0.00    -0.077 C 
ATOM      9  C   UNL     1      -3.027  10.125   6.772  1.00  0.00     0.008 C 
ATOM     10  C   UNL     1      -1.196   8.494   6.767  1.00  0.00     0.039 C 
ENDBRANCH   5   8
TORSDOF 1
ENDMDL
MODEL 8
REMARK VINA RESULT:    -0.778      9.800     11.899
REMARK INTER + INTRA:          -0.953
REMARK INTER:                  -0.823
REMARK INTRA:                  -0.130
REMARK UNBOUND:                -0.129
REMARK SMILES C=C(C)[C@@H]1CC=C(C)CC1
REMARK SMILES IDX 8 1 7 2 6 3 5 4 4 5 10 6 9 7 2 8 1 9 3 10
REMARK H PARENT
REMARK Flexibility Score: inf
ROOT
ATOM      1  C   UNL     1      -6.125   5.291   4.549  1.00  0.00     0.039 C 
ATOM      2  C   UNL     1      -5.085   6.265   5.026  1.00  0.00    -0.077 C 
ATOM      3  C   UNL     1      -3.781   5.996   4.800  1.00  0.00    -0.027 C 
ATOM      4  C   UNL     1      -2.666   6.936   5.192  1.00  0.00     0.035 C 
ATOM      5  C   UNL     1      -3.088   7.900   6.314  1.00  0.00     0.018 C 
ATOM      6  C   UNL     1      -4.444   8.537   5.975  1.00  0.00     0.013 C 
ATOM      7  C   UNL     1      -5.523   7.453   5.862  1.00  0.00     0.031 C 
ENDROOT
BRANCH   5   8
ATOM      8  C   UNL     1      -2.021   8.957   6.566  1.00  0.00    -0.077 C 
ATOM      9  C   UNL     1      -2.352  10.124   7.144  1.00  0.00     0.008 C 
ATOM     10  C   UNL     1      -0.578   8.723   6.191  1.00  0.00     0.039 C 
ENDBRANCH   5   8
TORSDOF 1
ENDMDL
