MODEL 1
REMARK VINA RESULT:    -3.751      0.000      0.000
REMARK INTER + INTRA:          -5.845
REMARK INTER:                  -5.286
REMARK INTRA:                  -0.559
REMARK UNBOUND:                -0.559
REMARK SMILES CCCCCCCCC(=O)[O-]
REMARK SMILES IDX 6 1 7 2 8 3 9 4 10 5 11 6 5 7 4 8 3 9 2 10 1 11
REMARK H PARENT
REMARK Flexibility Score: inf
ROOT
ATOM      1  C   UNL     1       3.952 -10.335   5.817  1.00  0.00     0.000 C 
ENDROOT
BRANCH   1   2
ATOM      2  C   UNL     1       4.671 -10.671   4.502  1.00  0.00     0.006 C 
BRANCH   2   3
ATOM      3  C   UNL     1       4.758  -9.463   3.561  1.00  0.00     0.053 C 
BRANCH   3   4
ATOM      4  C   UNL     1       3.619  -9.434   2.588  1.00  0.00     0.041 C 
ATOM      5  O   UNL     1       3.383  -8.395   1.920  1.00  0.00    -0.550 OA
ATOM      6  O   UNL     1       2.840 -10.567   2.397  1.00  0.00    -0.550 OA
ENDBRANCH   3   4
ENDBRANCH   2   3
ENDBRANCH   1   2
BRANCH   1   7
ATOM      7  C   UNL     1       4.817  -9.429   6.701  1.00  0.00     0.000 C 
BRANCH   7   8
ATOM      8  C   UNL     1       6.229 -10.008   6.867  1.00  0.00    -0.000 C 
BRANCH   8   9
ATOM      9  C   UNL     1       7.338  -8.983   6.569  1.00  0.00    -0.000 C 
BRANCH   9  10
ATOM     10  C   UNL     1       6.852  -7.531   6.417  1.00  0.00    -0.003 C 
ATOM     11  C   UNL     1       7.185  -6.658   7.627  1.00  0.00     0.004 C 
ENDBRANCH   9  10
ENDBRANCH   8   9
ENDBRANCH   7   8
ENDBRANCH   1   7
TORSDOF 7
ENDMDL
MODEL 2
REMARK VINA RESULT:    -3.748     21.975     23.236
REMARK INTER + INTRA:          -5.841
REMARK INTER:                  -5.334
REMARK INTRA:                  -0.506
REMARK UNBOUND:                -0.559
REMARK SMILES CCCCCCCCC(=O)[O-]
REMARK SMILES IDX 6 1 7 2 8 3 9 4 10 5 11 6 5 7 4 8 3 9 2 10 1 11
REMARK H PARENT
REMARK Flexibility Score: inf
ROOT
ATOM      1  C   UNL     1      -5.268   4.459  -9.632  1.00  0.00     0.000 C 
ENDROOT
BRANCH   1   2
ATOM      2  C   UNL     1      -5.264   5.682  -8.702  1.00  0.00     0.006 C 
BRANCH   2   3
ATOM      3  C   UNL     1      -5.201   7.003  -9.479  1.00  0.00     0.053 C 
BRANCH   3   4
ATOM      4  C   UNL     1      -5.004   8.175  -8.567  1.00  0.00     0.041 C 
ATOM      5  O   UNL     1      -3.876   8.726  -8.478  1.00  0.00    -0.550 OA
ATOM      6  O   UNL     1      -6.074   8.676  -7.839  1.00  0.00    -0.550 OA
ENDBRANCH   3   4
ENDBRANCH   2   3
ENDBRANCH   1   2
BRANCH   1   7
ATOM      7  C   UNL     1      -5.161   3.157  -8.829  1.00  0.00     0.000 C 
BRANCH   7   8
ATOM      8  C   UNL     1      -6.150   2.106  -9.353  1.00  0.00    -0.000 C 
BRANCH   8   9
ATOM      9  C   UNL     1      -7.613   2.584  -9.313  1.00  0.00    -0.000 C 
BRANCH   9  10
ATOM     10  C   UNL     1      -8.242   2.621  -7.909  1.00  0.00    -0.003 C 
ATOM     11  C   UNL     1      -8.585   4.037  -7.444  1.00  0.00     0.004 C 
ENDBRANCH   9  10
ENDBRANCH   8   9
ENDBRANCH   7   8
ENDBRANCH   1   7
TORSDOF 7
ENDMDL
MODEL 3
REMARK VINA RESULT:    -3.709      1.372      2.278
REMARK INTER + INTRA:          -5.786
REMARK INTER:                  -5.274
REMARK INTRA:                  -0.512
REMARK UNBOUND:                -0.559
REMARK SMILES CCCCCCCCC(=O)[O-]
REMARK SMILES IDX 6 1 7 2 8 3 9 4 10 5 11 6 5 7 4 8 3 9 2 10 1 11
REMARK H PARENT
REMARK Flexibility Score: inf
ROOT
ATOM      1  C   UNL     1       5.625  -9.911   5.824  1.00  0.00     0.000 C 
ENDROOT
BRANCH   1   2
ATOM      2  C   UNL     1       4.630 -10.255   4.705  1.00  0.00     0.006 C 
BRANCH   2   3
ATOM      3  C   UNL     1       4.842  -9.394   3.454  1.00  0.00     0.053 C 
BRANCH   3   4
ATOM      4  C   UNL     1       3.636  -9.397   2.566  1.00  0.00     0.041 C 
ATOM      5  O   UNL     1       2.924 -10.430   2.468  1.00  0.00    -0.550 OA
ATOM      6  O   UNL     1       3.279  -8.248   1.873  1.00  0.00    -0.550 OA
ENDBRANCH   3   4
ENDBRANCH   2   3
ENDBRANCH   1   2
BRANCH   1   7
ATOM      7  C   UNL     1       6.297  -8.557   5.565  1.00  0.00     0.000 C 
BRANCH   7   8
ATOM      8  C   UNL     1       6.253  -7.673   6.820  1.00  0.00    -0.000 C 
BRANCH   8   9
ATOM      9  C   UNL     1       5.884  -8.457   8.094  1.00  0.00    -0.000 C 
BRANCH   9  10
ATOM     10  C   UNL     1       4.637  -7.941   8.832  1.00  0.00    -0.003 C 
ATOM     11  C   UNL     1       3.329  -8.359   8.161  1.00  0.00     0.004 C 
ENDBRANCH   9  10
ENDBRANCH   8   9
ENDBRANCH   7   8
ENDBRANCH   1   7
TORSDOF 7
ENDMDL
MODEL 4
REMARK VINA RESULT:    -3.679      0.863      1.718
REMARK INTER + INTRA:          -5.744
REMARK INTER:                  -5.440
REMARK INTRA:                  -0.305
REMARK UNBOUND:                -0.559
REMARK SMILES CCCCCCCCC(=O)[O-]
REMARK SMILES IDX 6 1 7 2 8 3 9 4 10 5 11 6 5 7 4 8 3 9 2 10 1 11
REMARK H PARENT
REMARK Flexibility Score: inf
ROOT
ATOM      1  C   UNL     1       5.190  -8.989   5.927  1.00  0.00     0.000 C 
ENDROOT
BRANCH   1   2
ATOM      2  C   UNL     1       4.713  -9.956   4.834  1.00  0.00     0.006 C 
BRANCH   2   3
ATOM      3  C   UNL     1       4.960  -9.405   3.423  1.00  0.00     0.053 C 
BRANCH   3   4
ATOM      4  C   UNL     1       3.714  -9.429   2.592  1.00  0.00     0.041 C 
ATOM      5  O   UNL     1       3.008 -10.470   2.537  1.00  0.00    -0.550 OA
ATOM      6  O   UNL     1       3.315  -8.291   1.905  1.00  0.00    -0.550 OA
ENDBRANCH   3   4
ENDBRANCH   2   3
ENDBRANCH   1   2
BRANCH   1   7
ATOM      7  C   UNL     1       6.476  -8.269   5.503  1.00  0.00     0.000 C 
BRANCH   7   8
ATOM      8  C   UNL     1       7.650  -8.658   6.413  1.00  0.00    -0.000 C 
BRANCH   8   9
ATOM      9  C   UNL     1       7.614  -7.942   7.776  1.00  0.00    -0.000 C 
BRANCH   9  10
ATOM     10  C   UNL     1       7.171  -6.470   7.722  1.00  0.00    -0.003 C 
ATOM     11  C   UNL     1       8.233  -5.506   8.252  1.00  0.00     0.004 C 
ENDBRANCH   9  10
ENDBRANCH   8   9
ENDBRANCH   7   8
ENDBRANCH   1   7
TORSDOF 7
ENDMDL
MODEL 5
REMARK VINA RESULT:    -3.585     21.520     22.351
REMARK INTER + INTRA:          -5.611
REMARK INTER:                  -4.995
REMARK INTRA:                  -0.617
REMARK UNBOUND:                -0.559
REMARK SMILES CCCCCCCCC(=O)[O-]
REMARK SMILES IDX 6 1 7 2 8 3 9 4 10 5 11 6 5 7 4 8 3 9 2 10 1 11
REMARK H PARENT
REMARK Flexibility Score: inf
ROOT
ATOM      1  C   UNL     1      -6.851   2.005  -8.608  1.00  0.00     0.000 C 
ENDROOT
BRANCH   1   2
ATOM      2  C   UNL     1      -8.321   2.447  -8.639  1.00  0.00     0.006 C 
BRANCH   2   3
ATOM      3  C   UNL     1      -8.621   3.541  -7.607  1.00  0.00     0.053 C 
BRANCH   3   4
ATOM      4  C   UNL     1      -9.199   2.971  -6.347  1.00  0.00     0.041 C 
ATOM      5  O   UNL     1      -9.061   3.581  -5.255  1.00  0.00    -0.550 OA
ATOM      6  O   UNL     1      -9.918   1.784  -6.387  1.00  0.00    -0.550 OA
ENDBRANCH   3   4
ENDBRANCH   2   3
ENDBRANCH   1   2
BRANCH   1   7
ATOM      7  C   UNL     1      -6.021   2.782  -9.637  1.00  0.00     0.000 C 
BRANCH   7   8
ATOM      8  C   UNL     1      -4.911   3.590  -8.950  1.00  0.00    -0.000 C 
BRANCH   8   9
ATOM      9  C   UNL     1      -4.970   5.093  -9.281  1.00  0.00    -0.000 C 
BRANCH   9  10
ATOM     10  C   UNL     1      -5.685   5.959  -8.229  1.00  0.00    -0.003 C 
ATOM     11  C   UNL     1      -6.973   6.594  -8.754  1.00  0.00     0.004 C 
ENDBRANCH   9  10
ENDBRANCH   8   9
ENDBRANCH   7   8
ENDBRANCH   1   7
TORSDOF 7
ENDMDL
MODEL 6
REMARK VINA RESULT:    -3.525      1.384      2.856
REMARK INTER + INTRA:          -5.527
REMARK INTER:                  -4.970
REMARK INTRA:                  -0.557
REMARK UNBOUND:                -0.559
REMARK SMILES CCCCCCCCC(=O)[O-]
REMARK SMILES IDX 6 1 7 2 8 3 9 4 10 5 11 6 5 7 4 8 3 9 2 10 1 11
REMARK H PARENT
REMARK Flexibility Score: inf
ROOT
ATOM      1  C   UNL     1       5.720 -10.070   5.852  1.00  0.00     0.000 C 
ENDROOT
BRANCH   1   2
ATOM      2  C   UNL     1       4.733 -10.376   4.715  1.00  0.00     0.006 C 
BRANCH   2   3
ATOM      3  C   UNL     1       4.877  -9.399   3.542  1.00  0.00     0.053 C 
BRANCH   3   4
ATOM      4  C   UNL     1       3.685  -9.440   2.636  1.00  0.00     0.041 C 
ATOM      5  O   UNL     1       3.381  -8.435   1.943  1.00  0.00    -0.550 OA
ATOM      6  O   UNL     1       2.928 -10.600   2.535  1.00  0.00    -0.550 OA
ENDBRANCH   3   4
ENDBRANCH   2   3
ENDBRANCH   1   2
BRANCH   1   7
ATOM      7  C   UNL     1       5.555  -8.629   6.351  1.00  0.00     0.000 C 
BRANCH   7   8
ATOM      8  C   UNL     1       5.111  -8.604   7.821  1.00  0.00    -0.000 C 
BRANCH   8   9
ATOM      9  C   UNL     1       3.586  -8.471   7.985  1.00  0.00    -0.000 C 
BRANCH   9  10
ATOM     10  C   UNL     1       2.818  -9.804   8.002  1.00  0.00    -0.003 C 
ATOM     11  C   UNL     1       1.734  -9.883   6.927  1.00  0.00     0.004 C 
ENDBRANCH   9  10
ENDBRANCH   8   9
ENDBRANCH   7   8
ENDBRANCH   1   7
TORSDOF 7
ENDMDL
MODEL 7
REMARK VINA RESULT:    -3.515     15.334     16.792
REMARK INTER + INTRA:          -5.513
REMARK INTER:                  -5.178
REMARK INTRA:                  -0.335
REMARK UNBOUND:                -0.559
REMARK SMILES CCCCCCCCC(=O)[O-]
REMARK SMILES IDX 6 1 7 2 8 3 9 4 10 5 11 6 5 7 4 8 3 9 2 10 1 11
REMARK H PARENT
REMARK Flexibility Score: inf
ROOT
ATOM      1  C   UNL     1      -5.194  -7.754  -6.844  1.00  0.00     0.000 C 
ENDROOT
BRANCH   1   2
ATOM      2  C   UNL     1      -6.484  -7.478  -7.631  1.00  0.00     0.006 C 
BRANCH   2   3
ATOM      3  C   UNL     1      -6.631  -5.997  -8.004  1.00  0.00     0.053 C 
BRANCH   3   4
ATOM      4  C   UNL     1      -8.066  -5.566  -8.009  1.00  0.00     0.041 C 
ATOM      5  O   UNL     1      -8.475  -4.718  -7.174  1.00  0.00    -0.550 OA
ATOM      6  O   UNL     1      -8.941  -6.076  -8.958  1.00  0.00    -0.550 OA
ENDBRANCH   3   4
ENDBRANCH   2   3
ENDBRANCH   1   2
BRANCH   1   7
ATOM      7  C   UNL     1      -4.808  -9.236  -6.924  1.00  0.00     0.000 C 
BRANCH   7   8
ATOM      8  C   UNL     1      -4.811  -9.881  -5.531  1.00  0.00    -0.000 C 
BRANCH   8   9
ATOM      9  C   UNL     1      -6.227 -10.049  -4.950  1.00  0.00    -0.000 C 
BRANCH   9  10
ATOM     10  C   UNL     1      -6.450  -9.377  -3.584  1.00  0.00    -0.003 C 
ATOM     11  C   UNL     1      -7.929  -9.202  -3.239  1.00  0.00     0.004 C 
ENDBRANCH   9  10
ENDBRANCH   8   9
ENDBRANCH   7   8
ENDBRANCH   1   7
TORSDOF 7
ENDMDL
MODEL 8
REMARK VINA RESULT:    -3.310     15.179     17.191
REMARK INTER + INTRA:          -5.224
REMARK INTER:                  -4.774
REMARK INTRA:                  -0.450
REMARK UNBOUND:                -0.559
REMARK SMILES CCCCCCCCC(=O)[O-]
REMARK SMILES IDX 6 1 7 2 8 3 9 4 10 5 11 6 5 7 4 8 3 9 2 10 1 11
REMARK H PARENT
REMARK Flexibility Score: inf
ROOT
ATOM      1  C   UNL     1      -8.035  -8.421  -7.375  1.00  0.00     0.000 C 
ENDROOT
BRANCH   1   2
ATOM      2  C   UNL     1      -7.388  -7.827  -8.635  1.00  0.00     0.006 C 
BRANCH   2   3
ATOM      3  C   UNL     1      -7.876  -6.402  -8.923  1.00  0.00     0.053 C 
BRANCH   3   4
ATOM      4  C   UNL     1      -7.520  -5.459  -7.815  1.00  0.00     0.041 C 
ATOM      5  O   UNL     1      -6.320  -5.318  -7.463  1.00  0.00    -0.550 OA
ATOM      6  O   UNL     1      -8.512  -4.712  -7.193  1.00  0.00    -0.550 OA
ENDBRANCH   3   4
ENDBRANCH   2   3
ENDBRANCH   1   2
BRANCH   1   7
ATOM      7  C   UNL     1      -7.269  -9.658  -6.894  1.00  0.00     0.000 C 
BRANCH   7   8
ATOM      8  C   UNL     1      -6.550  -9.377  -5.566  1.00  0.00    -0.000 C 
BRANCH   8   9
ATOM      9  C   UNL     1      -5.063  -9.776  -5.592  1.00  0.00    -0.000 C 
BRANCH   9  10
ATOM     10  C   UNL     1      -4.383  -9.646  -6.967  1.00  0.00    -0.003 C 
ATOM     11  C   UNL     1      -3.104  -8.810  -6.924  1.00  0.00     0.004 C 
ENDBRANCH   9  10
ENDBRANCH   8   9
ENDBRANCH   7   8
ENDBRANCH   1   7
TORSDOF 7
ENDMDL
MODEL 9
REMARK VINA RESULT:    -3.138     21.518     22.960
REMARK INTER + INTRA:          -4.981
REMARK INTER:                  -4.566
REMARK INTRA:                  -0.415
REMARK UNBOUND:                -0.559
REMARK SMILES CCCCCCCCC(=O)[O-]
REMARK SMILES IDX 6 1 7 2 8 3 9 4 10 5 11 6 5 7 4 8 3 9 2 10 1 11
REMARK H PARENT
REMARK Flexibility Score: inf
ROOT
ATOM      1  C   UNL     1      -4.908   3.838 -10.068  1.00  0.00     0.000 C 
ENDROOT
BRANCH   1   2
ATOM      2  C   UNL     1      -5.384   3.175  -8.768  1.00  0.00     0.006 C 
BRANCH   2   3
ATOM      3  C   UNL     1      -6.257   1.941  -9.030  1.00  0.00     0.053 C 
BRANCH   3   4
ATOM      4  C   UNL     1      -7.717   2.270  -8.968  1.00  0.00     0.041 C 
ATOM      5  O   UNL     1      -8.490   1.899  -9.888  1.00  0.00    -0.550 OA
ATOM      6  O   UNL     1      -8.227   2.959  -7.876  1.00  0.00    -0.550 OA
ENDBRANCH   3   4
ENDBRANCH   2   3
ENDBRANCH   1   2
BRANCH   1   7
ATOM      7  C   UNL     1      -4.949   5.367  -9.953  1.00  0.00     0.000 C 
BRANCH   7   8
ATOM      8  C   UNL     1      -5.703   5.803  -8.688  1.00  0.00    -0.000 C 
BRANCH   8   9
ATOM      9  C   UNL     1      -5.740   7.332  -8.509  1.00  0.00    -0.000 C 
BRANCH   9  10
ATOM     10  C   UNL     1      -5.074   8.132  -9.642  1.00  0.00    -0.003 C 
ATOM     11  C   UNL     1      -4.025   9.123  -9.137  1.00  0.00     0.004 C 
ENDBRANCH   9  10
ENDBRANCH   8   9
ENDBRANCH   7   8
ENDBRANCH   1   7
TORSDOF 7
ENDMDL
