MODEL 1
REMARK VINA RESULT:    -4.505      0.000      0.000
REMARK INTER + INTRA:          -5.701
REMARK INTER:                  -5.427
REMARK INTRA:                  -0.273
REMARK UNBOUND:                -0.273
REMARK SMILES O=c1c(O)c(-c2ccc(O)cc2O)oc2cc(O)cc(O)c12
REMARK SMILES IDX 5 1 3 2 2 3 1 4 22 5 20 6 19 7 17 8 16 9 15 10 14 11 6 12
REMARK SMILES IDX 8 13 7 14 9 15 11 16 12 17 10 18 13 20 4 22 21 24 18 26
REMARK H PARENT 10 19 13 21 4 23 21 25 18 27
REMARK Flexibility Score: inf
ROOT
ATOM      1  C   UNL     1       1.891  23.231   4.067  1.00  0.00     0.184 A 
ATOM      2  C   UNL     1       2.166  22.853   5.393  1.00  0.00     0.208 A 
ATOM      3  C   UNL     1       3.427  23.146   5.934  1.00  0.00     0.238 A 
ATOM      4  O   UNL     1       3.685  22.816   7.123  1.00  0.00    -0.285 OA
ATOM      5  C   UNL     1       4.390  23.803   5.139  1.00  0.00     0.111 A 
ATOM      6  C   UNL     1       5.684  24.134   5.606  1.00  0.00     0.134 A 
ATOM      7  C   UNL     1       6.587  24.785   4.752  1.00  0.00     0.093 A 
ATOM      8  C   UNL     1       6.220  25.111   3.441  1.00  0.00     0.123 A 
ATOM      9  C   UNL     1       4.944  24.788   2.978  1.00  0.00     0.094 A 
ATOM     10  C   UNL     1       4.030  24.140   3.812  1.00  0.00     0.146 A 
ATOM     11  O   UNL     1       2.822  23.847   3.345  1.00  0.00    -0.451 OA
ENDROOT
BRANCH   1  12
ATOM     12  C   UNL     1       0.574  22.964   3.450  1.00  0.00     0.063 A 
ATOM     13  C   UNL     1      -1.170  21.371   2.864  1.00  0.00     0.047 A 
ATOM     14  C   UNL     1       0.095  21.644   3.392  1.00  0.00     0.020 A 
ATOM     15  C   UNL     1      -1.974  22.411   2.394  1.00  0.00     0.119 A 
ATOM     16  C   UNL     1      -1.508  23.731   2.448  1.00  0.00     0.093 A 
ATOM     17  C   UNL     1      -0.238  24.016   2.966  1.00  0.00     0.130 A 
BRANCH  15  18
ATOM     18  O   UNL     1      -3.235  22.124   1.875  1.00  0.00    -0.508 OA
ATOM     19  H   UNL     1      -3.369  21.398   1.180  1.00  0.00     0.293 HD
ENDBRANCH  15  18
BRANCH  17  20
ATOM     20  O   UNL     1       0.191  25.345   2.963  1.00  0.00    -0.507 OA
ATOM     21  H   UNL     1      -0.441  26.129   2.864  1.00  0.00     0.293 HD
ENDBRANCH  17  20
ENDBRANCH   1  12
BRANCH   2  22
ATOM     22  O   UNL     1       1.198  22.183   6.146  1.00  0.00    -0.502 OA
ATOM     23  H   UNL     1       0.887  21.247   5.917  1.00  0.00     0.293 HD
ENDBRANCH   2  22
BRANCH   6  24
ATOM     24  O   UNL     1       6.080  23.820   6.907  1.00  0.00    -0.507 OA
ATOM     25  H   UNL     1       6.358  22.881   7.169  1.00  0.00     0.293 HD
ENDBRANCH   6  24
BRANCH   8  26
ATOM     26  O   UNL     1       7.116  25.758   2.593  1.00  0.00    -0.508 OA
ATOM     27  H   UNL     1       7.839  25.248   2.098  1.00  0.00     0.293 HD
ENDBRANCH   8  26
TORSDOF 6
ENDMDL
MODEL 2
REMARK VINA RESULT:    -4.476      1.239      2.871
REMARK INTER + INTRA:          -5.665
REMARK INTER:                  -5.622
REMARK INTRA:                  -0.043
REMARK UNBOUND:                -0.273
REMARK SMILES O=c1c(O)c(-c2ccc(O)cc2O)oc2cc(O)cc(O)c12
REMARK SMILES IDX 5 1 3 2 2 3 1 4 22 5 20 6 19 7 17 8 16 9 15 10 14 11 6 12
REMARK SMILES IDX 8 13 7 14 9 15 11 16 12 17 10 18 13 20 4 22 21 24 18 26
REMARK H PARENT 10 19 13 21 4 23 21 25 18 27
REMARK Flexibility Score: inf
ROOT
ATOM      1  C   UNL     1       2.069  23.423   3.832  1.00  0.00     0.184 A 
ATOM      2  C   UNL     1       2.953  24.239   3.104  1.00  0.00     0.208 A 
ATOM      3  C   UNL     1       4.219  24.515   3.642  1.00  0.00     0.238 A 
ATOM      4  O   UNL     1       5.022  25.243   2.997  1.00  0.00    -0.285 OA
ATOM      5  C   UNL     1       4.575  23.977   4.896  1.00  0.00     0.111 A 
ATOM      6  C   UNL     1       5.830  24.207   5.510  1.00  0.00     0.134 A 
ATOM      7  C   UNL     1       6.107  23.639   6.762  1.00  0.00     0.093 A 
ATOM      8  C   UNL     1       5.154  22.846   7.412  1.00  0.00     0.123 A 
ATOM      9  C   UNL     1       3.916  22.615   6.810  1.00  0.00     0.094 A 
ATOM     10  C   UNL     1       3.620  23.172   5.563  1.00  0.00     0.146 A 
ATOM     11  O   UNL     1       2.435  22.934   5.013  1.00  0.00    -0.451 OA
ENDROOT
BRANCH   1  12
ATOM     12  C   UNL     1       0.728  23.084   3.309  1.00  0.00     0.063 A 
ATOM     13  C   UNL     1      -0.934  21.388   2.776  1.00  0.00     0.047 A 
ATOM     14  C   UNL     1       0.347  21.734   3.215  1.00  0.00     0.020 A 
ATOM     15  C   UNL     1      -1.852  22.382   2.432  1.00  0.00     0.119 A 
ATOM     16  C   UNL     1      -1.483  23.731   2.523  1.00  0.00     0.093 A 
ATOM     17  C   UNL     1      -0.199  24.090   2.952  1.00  0.00     0.130 A 
BRANCH  15  18
ATOM     18  O   UNL     1      -3.126  22.022   2.001  1.00  0.00    -0.508 OA
ATOM     19  H   UNL     1      -3.803  21.612   2.635  1.00  0.00     0.293 HD
ENDBRANCH  15  18
BRANCH  17  20
ATOM     20  O   UNL     1       0.127  25.448   2.990  1.00  0.00    -0.507 OA
ATOM     21  H   UNL     1       1.021  25.810   2.686  1.00  0.00     0.293 HD
ENDBRANCH  17  20
ENDBRANCH   1  12
BRANCH   2  22
ATOM     22  O   UNL     1       2.560  24.775   1.875  1.00  0.00    -0.502 OA
ATOM     23  H   UNL     1       3.206  25.266   1.268  1.00  0.00     0.293 HD
ENDBRANCH   2  22
BRANCH   6  24
ATOM     24  O   UNL     1       6.800  24.994   4.887  1.00  0.00    -0.507 OA
ATOM     25  H   UNL     1       7.428  25.587   5.418  1.00  0.00     0.293 HD
ENDBRANCH   6  24
BRANCH   8  26
ATOM     26  O   UNL     1       5.429  22.281   8.655  1.00  0.00    -0.508 OA
ATOM     27  H   UNL     1       4.757  22.318   9.414  1.00  0.00     0.293 HD
ENDBRANCH   8  26
TORSDOF 6
ENDMDL
MODEL 3
REMARK VINA RESULT:    -4.080      2.226      6.670
REMARK INTER + INTRA:          -5.188
REMARK INTER:                  -4.948
REMARK INTRA:                  -0.240
REMARK UNBOUND:                -0.273
REMARK SMILES O=c1c(O)c(-c2ccc(O)cc2O)oc2cc(O)cc(O)c12
REMARK SMILES IDX 5 1 3 2 2 3 1 4 22 5 20 6 19 7 17 8 16 9 15 10 14 11 6 12
REMARK SMILES IDX 8 13 7 14 9 15 11 16 12 17 10 18 13 20 4 22 21 24 18 26
REMARK H PARENT 10 19 13 21 4 23 21 25 18 27
REMARK Flexibility Score: inf
ROOT
ATOM      1  C   UNL     1       2.125  22.965   4.267  1.00  0.00     0.184 A 
ATOM      2  C   UNL     1       1.098  22.617   3.372  1.00  0.00     0.208 A 
ATOM      3  C   UNL     1      -0.079  22.046   3.879  1.00  0.00     0.238 A 
ATOM      4  O   UNL     1      -1.008  21.733   3.087  1.00  0.00    -0.285 OA
ATOM      5  C   UNL     1      -0.205  21.829   5.267  1.00  0.00     0.111 A 
ATOM      6  C   UNL     1      -1.357  21.258   5.860  1.00  0.00     0.134 A 
ATOM      7  C   UNL     1      -1.404  21.071   7.250  1.00  0.00     0.093 A 
ATOM      8  C   UNL     1      -0.322  21.443   8.057  1.00  0.00     0.123 A 
ATOM      9  C   UNL     1       0.814  22.008   7.476  1.00  0.00     0.094 A 
ATOM     10  C   UNL     1       0.881  22.203   6.094  1.00  0.00     0.146 A 
ATOM     11  O   UNL     1       1.974  22.745   5.569  1.00  0.00    -0.451 OA
ENDROOT
BRANCH   1  12
ATOM     12  C   UNL     1       3.381  23.585   3.793  1.00  0.00     0.063 A 
ATOM     13  C   UNL     1       4.491  25.380   2.582  1.00  0.00     0.047 A 
ATOM     14  C   UNL     1       3.320  24.742   2.997  1.00  0.00     0.020 A 
ATOM     15  C   UNL     1       5.737  24.877   2.960  1.00  0.00     0.119 A 
ATOM     16  C   UNL     1       5.810  23.726   3.755  1.00  0.00     0.093 A 
ATOM     17  C   UNL     1       4.643  23.071   4.169  1.00  0.00     0.130 A 
BRANCH  15  18
ATOM     18  O   UNL     1       6.896  25.527   2.543  1.00  0.00    -0.508 OA
ATOM     19  H   UNL     1       7.019  25.829   1.583  1.00  0.00     0.293 HD
ENDBRANCH  15  18
BRANCH  17  20
ATOM     20  O   UNL     1       4.775  21.908   4.930  1.00  0.00    -0.507 OA
ATOM     21  H   UNL     1       3.986  21.425   5.342  1.00  0.00     0.293 HD
ENDBRANCH  17  20
ENDBRANCH   1  12
BRANCH   2  22
ATOM     22  O   UNL     1       1.264  22.824   2.000  1.00  0.00    -0.502 OA
ATOM     23  H   UNL     1       1.373  22.058   1.346  1.00  0.00     0.293 HD
ENDBRANCH   2  22
BRANCH   6  24
ATOM     24  O   UNL     1      -2.450  20.875   5.082  1.00  0.00    -0.507 OA
ATOM     25  H   UNL     1      -2.499  19.963   4.642  1.00  0.00     0.293 HD
ENDBRANCH   6  24
BRANCH   8  26
ATOM     26  O   UNL     1      -0.369  21.258   9.437  1.00  0.00    -0.508 OA
ATOM     27  H   UNL     1       0.402  20.835   9.940  1.00  0.00     0.293 HD
ENDBRANCH   8  26
TORSDOF 6
ENDMDL
MODEL 4
REMARK VINA RESULT:    -4.013      1.520      6.251
REMARK INTER + INTRA:          -5.108
REMARK INTER:                  -4.751
REMARK INTRA:                  -0.357
REMARK UNBOUND:                -0.273
REMARK SMILES O=c1c(O)c(-c2ccc(O)cc2O)oc2cc(O)cc(O)c12
REMARK SMILES IDX 5 1 3 2 2 3 1 4 22 5 20 6 19 7 17 8 16 9 15 10 14 11 6 12
REMARK SMILES IDX 8 13 7 14 9 15 11 16 12 17 10 18 13 20 4 22 21 24 18 26
REMARK H PARENT 10 19 13 21 4 23 21 25 18 27
REMARK Flexibility Score: inf
ROOT
ATOM      1  C   UNL     1       2.232  23.280   4.058  1.00  0.00     0.184 A 
ATOM      2  C   UNL     1       2.033  23.134   5.442  1.00  0.00     0.208 A 
ATOM      3  C   UNL     1       0.849  22.533   5.898  1.00  0.00     0.238 A 
ATOM      4  O   UNL     1       0.660  22.394   7.136  1.00  0.00    -0.285 OA
ATOM      5  C   UNL     1      -0.113  22.096   4.963  1.00  0.00     0.111 A 
ATOM      6  C   UNL     1      -1.333  21.482   5.338  1.00  0.00     0.134 A 
ATOM      7  C   UNL     1      -2.241  21.078   4.348  1.00  0.00     0.093 A 
ATOM      8  C   UNL     1      -1.953  21.276   2.992  1.00  0.00     0.123 A 
ATOM      9  C   UNL     1      -0.751  21.880   2.619  1.00  0.00     0.094 A 
ATOM     10  C   UNL     1       0.167  22.289   3.589  1.00  0.00     0.146 A 
ATOM     11  O   UNL     1       1.303  22.859   3.205  1.00  0.00    -0.451 OA
ENDROOT
BRANCH   1  12
ATOM     12  C   UNL     1       3.467  23.889   3.519  1.00  0.00     0.063 A 
ATOM     13  C   UNL     1       5.874  23.772   3.182  1.00  0.00     0.047 A 
ATOM     14  C   UNL     1       4.699  23.247   3.728  1.00  0.00     0.020 A 
ATOM     15  C   UNL     1       5.833  24.939   2.417  1.00  0.00     0.119 A 
ATOM     16  C   UNL     1       4.609  25.587   2.201  1.00  0.00     0.093 A 
ATOM     17  C   UNL     1       3.427  25.076   2.751  1.00  0.00     0.130 A 
BRANCH  15  18
ATOM     18  O   UNL     1       7.011  25.448   1.875  1.00  0.00    -0.508 OA
ATOM     19  H   UNL     1       7.880  25.442   2.397  1.00  0.00     0.293 HD
ENDBRANCH  15  18
BRANCH  17  20
ATOM     20  O   UNL     1       2.241  25.781   2.533  1.00  0.00    -0.507 OA
ATOM     21  H   UNL     1       1.947  26.099   1.618  1.00  0.00     0.293 HD
ENDBRANCH  17  20
ENDBRANCH   1  12
BRANCH   2  22
ATOM     22  O   UNL     1       2.996  23.599   6.342  1.00  0.00    -0.502 OA
ATOM     23  H   UNL     1       3.404  23.004   7.052  1.00  0.00     0.293 HD
ENDBRANCH   2  22
BRANCH   6  24
ATOM     24  O   UNL     1      -1.649  21.273   6.681  1.00  0.00    -0.507 OA
ATOM     25  H   UNL     1      -2.040  22.008   7.258  1.00  0.00     0.293 HD
ENDBRANCH   6  24
BRANCH   8  26
ATOM     26  O   UNL     1      -2.855  20.875   2.009  1.00  0.00    -0.508 OA
ATOM     27  H   UNL     1      -2.572  20.771   1.041  1.00  0.00     0.293 HD
ENDBRANCH   8  26
TORSDOF 6
ENDMDL
MODEL 5
REMARK VINA RESULT:    -3.153     23.298     24.769
REMARK INTER + INTRA:          -4.072
REMARK INTER:                  -4.608
REMARK INTRA:                   0.536
REMARK UNBOUND:                -0.273
REMARK SMILES O=c1c(O)c(-c2ccc(O)cc2O)oc2cc(O)cc(O)c12
REMARK SMILES IDX 5 1 3 2 2 3 1 4 22 5 20 6 19 7 17 8 16 9 15 10 14 11 6 12
REMARK SMILES IDX 8 13 7 14 9 15 11 16 12 17 10 18 13 20 4 22 21 24 18 26
REMARK H PARENT 10 19 13 21 4 23 21 25 18 27
REMARK Flexibility Score: inf
ROOT
ATOM      1  C   UNL     1      -6.120  40.943  18.261  1.00  0.00     0.184 A 
ATOM      2  C   UNL     1      -6.879  40.972  19.445  1.00  0.00     0.208 A 
ATOM      3  C   UNL     1      -8.275  40.861  19.359  1.00  0.00     0.238 A 
ATOM      4  O   UNL     1      -8.966  40.882  20.413  1.00  0.00    -0.285 OA
ATOM      5  C   UNL     1      -8.886  40.731  18.094  1.00  0.00     0.111 A 
ATOM      6  C   UNL     1     -10.286  40.616  17.918  1.00  0.00     0.134 A 
ATOM      7  C   UNL     1     -10.818  40.494  16.625  1.00  0.00     0.093 A 
ATOM      8  C   UNL     1      -9.976  40.485  15.507  1.00  0.00     0.123 A 
ATOM      9  C   UNL     1      -8.596  40.596  15.675  1.00  0.00     0.094 A 
ATOM     10  C   UNL     1      -8.046  40.719  16.954  1.00  0.00     0.146 A 
ATOM     11  O   UNL     1      -6.728  40.821  17.086  1.00  0.00    -0.451 OA
ENDROOT
BRANCH   1  12
ATOM     12  C   UNL     1      -4.645  41.037  18.291  1.00  0.00     0.063 A 
ATOM     13  C   UNL     1      -2.583  41.061  19.584  1.00  0.00     0.047 A 
ATOM     14  C   UNL     1      -3.979  41.028  19.529  1.00  0.00     0.020 A 
ATOM     15  C   UNL     1      -1.835  41.095  18.406  1.00  0.00     0.119 A 
ATOM     16  C   UNL     1      -2.488  41.102  17.167  1.00  0.00     0.093 A 
ATOM     17  C   UNL     1      -3.887  41.081  17.099  1.00  0.00     0.130 A 
BRANCH  15  18
ATOM     18  O   UNL     1      -0.444  41.121  18.476  1.00  0.00    -0.508 OA
ATOM     19  H   UNL     1       0.045  41.802  19.048  1.00  0.00     0.293 HD
ENDBRANCH  15  18
BRANCH  17  20
ATOM     20  O   UNL     1      -4.486  41.125  15.838  1.00  0.00    -0.507 OA
ATOM     21  H   UNL     1      -3.956  41.169  14.976  1.00  0.00     0.293 HD
ENDBRANCH  17  20
ENDBRANCH   1  12
BRANCH   2  22
ATOM     22  O   UNL     1      -6.244  41.125  20.680  1.00  0.00    -0.502 OA
ATOM     23  H   UNL     1      -5.532  41.827  20.840  1.00  0.00     0.293 HD
ENDBRANCH   2  22
BRANCH   6  24
ATOM     24  O   UNL     1     -11.150  40.624  19.014  1.00  0.00    -0.507 OA
ATOM     25  H   UNL     1     -11.420  41.485  19.475  1.00  0.00     0.293 HD
ENDBRANCH   6  24
BRANCH   8  26
ATOM     26  O   UNL     1     -10.504  40.363  14.223  1.00  0.00    -0.508 OA
ATOM     27  H   UNL     1     -11.253  40.964  13.899  1.00  0.00     0.293 HD
ENDBRANCH   8  26
TORSDOF 6
ENDMDL
MODEL 6
REMARK VINA RESULT:    -2.931      1.330      3.080
REMARK INTER + INTRA:          -3.805
REMARK INTER:                  -4.172
REMARK INTRA:                   0.367
REMARK UNBOUND:                -0.273
REMARK SMILES O=c1c(O)c(-c2ccc(O)cc2O)oc2cc(O)cc(O)c12
REMARK SMILES IDX 5 1 3 2 2 3 1 4 22 5 20 6 19 7 17 8 16 9 15 10 14 11 6 12
REMARK SMILES IDX 8 13 7 14 9 15 11 16 12 17 10 18 13 20 4 22 21 24 18 26
REMARK H PARENT 10 19 13 21 4 23 21 25 18 27
REMARK Flexibility Score: inf
ROOT
ATOM      1  C   UNL     1       1.783  23.415   3.699  1.00  0.00     0.184 A 
ATOM      2  C   UNL     1       2.107  24.408   2.757  1.00  0.00     0.208 A 
ATOM      3  C   UNL     1       3.420  24.902   2.717  1.00  0.00     0.238 A 
ATOM      4  O   UNL     1       3.723  25.790   1.875  1.00  0.00    -0.285 OA
ATOM      5  C   UNL     1       4.380  24.401   3.621  1.00  0.00     0.111 A 
ATOM      6  C   UNL     1       5.723  24.845   3.649  1.00  0.00     0.134 A 
ATOM      7  C   UNL     1       6.618  24.299   4.581  1.00  0.00     0.093 A 
ATOM      8  C   UNL     1       6.194  23.319   5.486  1.00  0.00     0.123 A 
ATOM      9  C   UNL     1       4.871  22.876   5.461  1.00  0.00     0.094 A 
ATOM     10  C   UNL     1       3.964  23.407   4.540  1.00  0.00     0.146 A 
ATOM     11  O   UNL     1       2.711  22.967   4.538  1.00  0.00    -0.451 OA
ENDROOT
BRANCH   1  12
ATOM     12  C   UNL     1       0.421  22.845   3.776  1.00  0.00     0.063 A 
ATOM     13  C   UNL     1      -1.721  22.408   2.706  1.00  0.00     0.047 A 
ATOM     14  C   UNL     1      -0.448  22.986   2.681  1.00  0.00     0.020 A 
ATOM     15  C   UNL     1      -2.139  21.678   3.820  1.00  0.00     0.119 A 
ATOM     16  C   UNL     1      -1.280  21.529   4.917  1.00  0.00     0.093 A 
ATOM     17  C   UNL     1      -0.007  22.112   4.908  1.00  0.00     0.130 A 
BRANCH  15  18
ATOM     18  O   UNL     1      -3.408  21.104   3.828  1.00  0.00    -0.508 OA
ATOM     19  H   UNL     1      -3.609  20.271   4.370  1.00  0.00     0.293 HD
ENDBRANCH  15  18
BRANCH  17  20
ATOM     20  O   UNL     1       0.795  21.962   6.042  1.00  0.00    -0.507 OA
ATOM     21  H   UNL     1       0.719  22.560   6.855  1.00  0.00     0.293 HD
ENDBRANCH  17  20
ENDBRANCH   1  12
BRANCH   2  22
ATOM     22  O   UNL     1       1.126  24.900   1.892  1.00  0.00    -0.502 OA
ATOM     23  H   UNL     1       1.202  24.817   0.885  1.00  0.00     0.293 HD
ENDBRANCH   2  22
BRANCH   6  24
ATOM     24  O   UNL     1       6.175  25.822   2.760  1.00  0.00    -0.507 OA
ATOM     25  H   UNL     1       6.502  25.587   1.830  1.00  0.00     0.293 HD
ENDBRANCH   6  24
BRANCH   8  26
ATOM     26  O   UNL     1       7.082  22.776   6.413  1.00  0.00    -0.508 OA
ATOM     27  H   UNL     1       6.770  22.459   7.323  1.00  0.00     0.293 HD
ENDBRANCH   8  26
TORSDOF 6
ENDMDL
MODEL 7
REMARK VINA RESULT:    -2.632      2.539      3.395
REMARK INTER + INTRA:          -3.444
REMARK INTER:                  -3.235
REMARK INTRA:                  -0.209
REMARK UNBOUND:                -0.273
REMARK SMILES O=c1c(O)c(-c2ccc(O)cc2O)oc2cc(O)cc(O)c12
REMARK SMILES IDX 5 1 3 2 2 3 1 4 22 5 20 6 19 7 17 8 16 9 15 10 14 11 6 12
REMARK SMILES IDX 8 13 7 14 9 15 11 16 12 17 10 18 13 20 4 22 21 24 18 26
REMARK H PARENT 10 19 13 21 4 23 21 25 18 27
REMARK Flexibility Score: inf
ROOT
ATOM      1  C   UNL     1       2.245  22.309   6.280  1.00  0.00     0.184 A 
ATOM      2  C   UNL     1       3.434  21.817   6.846  1.00  0.00     0.208 A 
ATOM      3  C   UNL     1       4.663  22.266   6.341  1.00  0.00     0.238 A 
ATOM      4  O   UNL     1       5.736  21.833   6.842  1.00  0.00    -0.285 OA
ATOM      5  C   UNL     1       4.681  23.192   5.277  1.00  0.00     0.111 A 
ATOM      6  C   UNL     1       5.876  23.694   4.707  1.00  0.00     0.134 A 
ATOM      7  C   UNL     1       5.811  24.611   3.647  1.00  0.00     0.093 A 
ATOM      8  C   UNL     1       4.574  25.034   3.147  1.00  0.00     0.123 A 
ATOM      9  C   UNL     1       3.393  24.543   3.706  1.00  0.00     0.094 A 
ATOM     10  C   UNL     1       3.437  23.629   4.762  1.00  0.00     0.146 A 
ATOM     11  O   UNL     1       2.298  23.180   5.277  1.00  0.00    -0.451 OA
ENDROOT
BRANCH   1  12
ATOM     12  C   UNL     1       0.921  21.886   6.783  1.00  0.00     0.063 A 
ATOM     13  C   UNL     1      -0.610  21.619   8.656  1.00  0.00     0.047 A 
ATOM     14  C   UNL     1       0.651  21.960   8.160  1.00  0.00     0.020 A 
ATOM     15  C   UNL     1      -1.619  21.207   7.784  1.00  0.00     0.119 A 
ATOM     16  C   UNL     1      -1.363  21.131   6.409  1.00  0.00     0.093 A 
ATOM     17  C   UNL     1      -0.100  21.461   5.901  1.00  0.00     0.130 A 
BRANCH  15  18
ATOM     18  O   UNL     1      -2.873  20.875   8.292  1.00  0.00    -0.508 OA
ATOM     19  H   UNL     1      -3.509  21.585   8.639  1.00  0.00     0.293 HD
ENDBRANCH  15  18
BRANCH  17  20
ATOM     20  O   UNL     1       0.112  21.333   4.526  1.00  0.00    -0.507 OA
ATOM     21  H   UNL     1      -0.354  20.637   3.959  1.00  0.00     0.293 HD
ENDBRANCH  17  20
ENDBRANCH   1  12
BRANCH   2  22
ATOM     22  O   UNL     1       3.381  20.882   7.884  1.00  0.00    -0.502 OA
ATOM     23  H   UNL     1       3.067  21.126   8.816  1.00  0.00     0.293 HD
ENDBRANCH   2  22
BRANCH   6  24
ATOM     24  O   UNL     1       7.124  23.289   5.184  1.00  0.00    -0.507 OA
ATOM     25  H   UNL     1       7.250  22.952   6.132  1.00  0.00     0.293 HD
ENDBRANCH   6  24
BRANCH   8  26
ATOM     26  O   UNL     1       4.508  25.944   2.094  1.00  0.00    -0.508 OA
ATOM     27  H   UNL     1       4.030  26.833   2.192  1.00  0.00     0.293 HD
ENDBRANCH   8  26
TORSDOF 6
ENDMDL
MODEL 8
REMARK VINA RESULT:    -2.470      2.954      4.366
REMARK INTER + INTRA:          -3.249
REMARK INTER:                  -3.148
REMARK INTRA:                  -0.101
REMARK UNBOUND:                -0.273
REMARK SMILES O=c1c(O)c(-c2ccc(O)cc2O)oc2cc(O)cc(O)c12
REMARK SMILES IDX 5 1 3 2 2 3 1 4 22 5 20 6 19 7 17 8 16 9 15 10 14 11 6 12
REMARK SMILES IDX 8 13 7 14 9 15 11 16 12 17 10 18 13 20 4 22 21 24 18 26
REMARK H PARENT 10 19 13 21 4 23 21 25 18 27
REMARK Flexibility Score: inf
ROOT
ATOM      1  C   UNL     1       1.130  22.182   5.778  1.00  0.00     0.184 A 
ATOM      2  C   UNL     1       0.852  23.042   4.701  1.00  0.00     0.208 A 
ATOM      3  C   UNL     1       1.884  23.367   3.808  1.00  0.00     0.238 A 
ATOM      4  O   UNL     1       1.646  24.134   2.837  1.00  0.00    -0.285 OA
ATOM      5  C   UNL     1       3.175  22.835   4.013  1.00  0.00     0.111 A 
ATOM      6  C   UNL     1       4.271  23.114   3.162  1.00  0.00     0.134 A 
ATOM      7  C   UNL     1       5.526  22.547   3.435  1.00  0.00     0.093 A 
ATOM      8  C   UNL     1       5.703  21.709   4.542  1.00  0.00     0.123 A 
ATOM      9  C   UNL     1       4.625  21.430   5.382  1.00  0.00     0.094 A 
ATOM     10  C   UNL     1       3.367  21.984   5.128  1.00  0.00     0.146 A 
ATOM     11  O   UNL     1       2.358  21.700   5.943  1.00  0.00    -0.451 OA
ENDROOT
BRANCH   1  12
ATOM     12  C   UNL     1       0.079  21.790   6.741  1.00  0.00     0.063 A 
ATOM     13  C   UNL     1      -0.741  21.749   9.032  1.00  0.00     0.047 A 
ATOM     14  C   UNL     1       0.261  22.059   8.108  1.00  0.00     0.020 A 
ATOM     15  C   UNL     1      -1.938  21.173   8.603  1.00  0.00     0.119 A 
ATOM     16  C   UNL     1      -2.131  20.902   7.242  1.00  0.00     0.093 A 
ATOM     17  C   UNL     1      -1.131  21.199   6.308  1.00  0.00     0.130 A 
BRANCH  15  18
ATOM     18  O   UNL     1      -2.930  20.875   9.534  1.00  0.00    -0.508 OA
ATOM     19  H   UNL     1      -3.912  21.004   9.321  1.00  0.00     0.293 HD
ENDBRANCH  15  18
BRANCH  17  20
ATOM     20  O   UNL     1      -1.363  20.875   4.969  1.00  0.00    -0.507 OA
ATOM     21  H   UNL     1      -2.216  20.436   4.647  1.00  0.00     0.293 HD
ENDBRANCH  17  20
ENDBRANCH   1  12
BRANCH   2  22
ATOM     22  O   UNL     1      -0.432  23.571   4.540  1.00  0.00    -0.502 OA
ATOM     23  H   UNL     1      -1.195  23.337   5.163  1.00  0.00     0.293 HD
ENDBRANCH   2  22
BRANCH   6  24
ATOM     24  O   UNL     1       4.125  23.947   2.052  1.00  0.00    -0.507 OA
ATOM     25  H   UNL     1       3.859  23.584   1.144  1.00  0.00     0.293 HD
ENDBRANCH   6  24
BRANCH   8  26
ATOM     26  O   UNL     1       6.949  21.146   4.813  1.00  0.00    -0.508 OA
ATOM     27  H   UNL     1       7.549  20.805   4.071  1.00  0.00     0.293 HD
ENDBRANCH   8  26
TORSDOF 6
ENDMDL
MODEL 9
REMARK VINA RESULT:    -2.395     23.792     25.475
REMARK INTER + INTRA:          -3.159
REMARK INTER:                  -3.333
REMARK INTRA:                   0.175
REMARK UNBOUND:                -0.273
REMARK SMILES O=c1c(O)c(-c2ccc(O)cc2O)oc2cc(O)cc(O)c12
REMARK SMILES IDX 5 1 3 2 2 3 1 4 22 5 20 6 19 7 17 8 16 9 15 10 14 11 6 12
REMARK SMILES IDX 8 13 7 14 9 15 11 16 12 17 10 18 13 20 4 22 21 24 18 26
REMARK H PARENT 10 19 13 21 4 23 21 25 18 27
REMARK Flexibility Score: inf
ROOT
ATOM      1  C   UNL     1      -7.782  40.450  18.035  1.00  0.00     0.184 A 
ATOM      2  C   UNL     1      -8.229  40.738  16.733  1.00  0.00     0.208 A 
ATOM      3  C   UNL     1      -9.596  40.614  16.442  1.00  0.00     0.238 A 
ATOM      4  O   UNL     1     -10.009  40.873  15.279  1.00  0.00    -0.285 OA
ATOM      5  C   UNL     1     -10.488  40.199  17.453  1.00  0.00     0.111 A 
ATOM      6  C   UNL     1     -11.879  40.046  17.243  1.00  0.00     0.134 A 
ATOM      7  C   UNL     1     -12.701  39.625  18.300  1.00  0.00     0.093 A 
ATOM      8  C   UNL     1     -12.157  39.354  19.561  1.00  0.00     0.123 A 
ATOM      9  C   UNL     1     -10.786  39.504  19.772  1.00  0.00     0.094 A 
ATOM     10  C   UNL     1      -9.950  39.922  18.733  1.00  0.00     0.146 A 
ATOM     11  O   UNL     1      -8.650  40.059  18.963  1.00  0.00    -0.451 OA
ENDROOT
BRANCH   1  12
ATOM     12  C   UNL     1      -6.357  40.580  18.405  1.00  0.00     0.063 A 
ATOM     13  C   UNL     1      -4.018  40.560  17.732  1.00  0.00     0.047 A 
ATOM     14  C   UNL     1      -5.370  40.389  17.422  1.00  0.00     0.020 A 
ATOM     15  C   UNL     1      -3.634  40.930  19.022  1.00  0.00     0.119 A 
ATOM     16  C   UNL     1      -4.610  41.125  20.009  1.00  0.00     0.093 A 
ATOM     17  C   UNL     1      -5.967  40.946  19.714  1.00  0.00     0.130 A 
BRANCH  15  18
ATOM     18  O   UNL     1      -2.284  41.103  19.315  1.00  0.00    -0.508 OA
ATOM     19  H   UNL     1      -1.559  40.782  18.682  1.00  0.00     0.293 HD
ENDBRANCH  15  18
BRANCH  17  20
ATOM     20  O   UNL     1      -6.894  41.119  20.744  1.00  0.00    -0.507 OA
ATOM     21  H   UNL     1      -7.371  41.995  20.917  1.00  0.00     0.293 HD
ENDBRANCH  17  20
ENDBRANCH   1  12
BRANCH   2  22
ATOM     22  O   UNL     1      -7.316  41.125  15.749  1.00  0.00    -0.502 OA
ATOM     23  H   UNL     1      -6.314  41.052  15.881  1.00  0.00     0.293 HD
ENDBRANCH   2  22
BRANCH   6  24
ATOM     24  O   UNL     1     -12.451  40.308  15.997  1.00  0.00    -0.507 OA
ATOM     25  H   UNL     1     -12.405  39.638  15.238  1.00  0.00     0.293 HD
ENDBRANCH   6  24
BRANCH   8  26
ATOM     26  O   UNL     1     -12.972  38.936  20.610  1.00  0.00    -0.508 OA
ATOM     27  H   UNL     1     -12.584  38.667  21.508  1.00  0.00     0.293 HD
ENDBRANCH   8  26
TORSDOF 6
ENDMDL
