MODEL 1
REMARK VINA RESULT:    -5.598      0.000      0.000
REMARK INTER + INTRA:          -7.552
REMARK INTER:                  -7.071
REMARK INTRA:                  -0.482
REMARK UNBOUND:                -0.482
REMARK SMILES COc1cc(O)c2c(=O)c(OC)c(-c3ccc(O)c(O)c3)oc2c1
REMARK SMILES IDX 3 1 4 2 5 3 7 4 23 5 24 6 22 7 13 8 10 9 8 10 9 11 2 12 1 13
REMARK SMILES IDX 6 14 14 16 21 17 15 18 19 19 16 20 17 21 20 22 18 24 11 26
REMARK SMILES IDX 12 27
REMARK H PARENT 6 15 20 23 18 25
REMARK Flexibility Score: inf
ROOT
ATOM      1  C   UNL     1       6.692  49.154  58.934  1.00  0.00     0.126 A 
ATOM      2  C   UNL     1       6.078  49.447  60.154  1.00  0.00     0.093 A 
ATOM      3  C   UNL     1       6.839  49.710  61.302  1.00  0.00     0.134 A 
ATOM      4  C   UNL     1       8.253  49.679  61.231  1.00  0.00     0.111 A 
ATOM      5  C   UNL     1       8.869  49.384  59.995  1.00  0.00     0.146 A 
ATOM      6  C   UNL     1       8.094  49.124  58.862  1.00  0.00     0.094 A 
ATOM      7  O   UNL     1      10.190  49.355  59.891  1.00  0.00    -0.452 OA
ATOM      8  C   UNL     1      11.011  49.592  60.909  1.00  0.00     0.180 A 
ATOM      9  C   UNL     1      10.492  49.866  62.191  1.00  0.00     0.210 A 
ATOM     10  C   UNL     1       9.086  49.923  62.344  1.00  0.00     0.239 A 
ATOM     11  O   UNL     1       8.579  50.183  63.467  1.00  0.00    -0.285 OA
ENDROOT
BRANCH   1  12
ATOM     12  O   UNL     1       5.875  48.899  57.822  1.00  0.00    -0.496 OA
ATOM     13  C   UNL     1       6.206  48.000  56.769  1.00  0.00     0.278 C 
ENDBRANCH   1  12
BRANCH   3  14
ATOM     14  O   UNL     1       6.185  49.998  62.501  1.00  0.00    -0.507 OA
ATOM     15  H   UNL     1       6.351  49.458  63.342  1.00  0.00     0.293 HD
ENDBRANCH   3  14
BRANCH   8  16
ATOM     16  C   UNL     1      12.467  49.540  60.648  1.00  0.00     0.025 A 
ATOM     17  C   UNL     1      13.218  50.714  60.457  1.00  0.00     0.062 A 
ATOM     18  C   UNL     1      13.104  48.295  60.530  1.00  0.00     0.016 A 
ATOM     19  C   UNL     1      14.590  50.645  60.187  1.00  0.00     0.158 A 
ATOM     20  C   UNL     1      14.474  48.223  60.263  1.00  0.00     0.051 A 
ATOM     21  C   UNL     1      15.224  49.394  60.093  1.00  0.00     0.157 A 
BRANCH  19  22
ATOM     22  O   UNL     1      15.306  51.829  60.009  1.00  0.00    -0.504 OA
ATOM     23  H   UNL     1      14.857  52.737  60.018  1.00  0.00     0.293 HD
ENDBRANCH  19  22
BRANCH  21  24
ATOM     24  O   UNL     1      16.590  49.320  59.828  1.00  0.00    -0.504 OA
ATOM     25  H   UNL     1      17.174  50.148  59.822  1.00  0.00     0.293 HD
ENDBRANCH  21  24
ENDBRANCH   8  16
BRANCH   9  26
ATOM     26  O   UNL     1      11.399  50.042  63.256  1.00  0.00    -0.490 OA
ATOM     27  C   UNL     1      11.818  49.049  64.186  1.00  0.00     0.278 C 
ENDBRANCH   9  26
TORSDOF 6
ENDMDL
MODEL 2
REMARK VINA RESULT:    -5.401      2.345      7.611
REMARK INTER + INTRA:          -7.304
REMARK INTER:                  -7.207
REMARK INTRA:                  -0.096
REMARK UNBOUND:                -0.482
REMARK SMILES COc1cc(O)c2c(=O)c(OC)c(-c3ccc(O)c(O)c3)oc2c1
REMARK SMILES IDX 3 1 4 2 5 3 7 4 23 5 24 6 22 7 13 8 10 9 8 10 9 11 2 12 1 13
REMARK SMILES IDX 6 14 14 16 21 17 15 18 19 19 16 20 17 21 20 22 18 24 11 26
REMARK SMILES IDX 12 27
REMARK H PARENT 6 15 20 23 18 25
REMARK Flexibility Score: inf
ROOT
ATOM      1  C   UNL     1      15.572  51.363  61.470  1.00  0.00     0.126 A 
ATOM      2  C   UNL     1      15.565  50.431  60.429  1.00  0.00     0.093 A 
ATOM      3  C   UNL     1      14.435  49.642  60.172  1.00  0.00     0.134 A 
ATOM      4  C   UNL     1      13.280  49.785  60.977  1.00  0.00     0.111 A 
ATOM      5  C   UNL     1      13.290  50.730  62.027  1.00  0.00     0.146 A 
ATOM      6  C   UNL     1      14.426  51.508  62.269  1.00  0.00     0.094 A 
ATOM      7  O   UNL     1      12.222  50.896  62.795  1.00  0.00    -0.452 OA
ATOM      8  C   UNL     1      11.096  50.208  62.642  1.00  0.00     0.180 A 
ATOM      9  C   UNL     1      10.997  49.221  61.641  1.00  0.00     0.210 A 
ATOM     10  C   UNL     1      12.108  49.020  60.788  1.00  0.00     0.239 A 
ATOM     11  O   UNL     1      12.057  48.162  59.868  1.00  0.00    -0.285 OA
ENDROOT
BRANCH   1  12
ATOM     12  O   UNL     1      16.734  52.123  61.676  1.00  0.00    -0.496 OA
ATOM     13  C   UNL     1      17.777  51.769  62.578  1.00  0.00     0.278 C 
ENDBRANCH   1  12
BRANCH   3  14
ATOM     14  O   UNL     1      14.471  48.722  59.123  1.00  0.00    -0.507 OA
ATOM     15  H   UNL     1      15.128  47.951  59.112  1.00  0.00     0.293 HD
ENDBRANCH   3  14
BRANCH   8  16
ATOM     16  C   UNL     1       9.975  50.506  63.563  1.00  0.00     0.025 A 
ATOM     17  C   UNL     1       9.345  49.489  64.302  1.00  0.00     0.062 A 
ATOM     18  C   UNL     1       9.490  51.820  63.658  1.00  0.00     0.016 A 
ATOM     19  C   UNL     1       8.271  49.784  65.149  1.00  0.00     0.158 A 
ATOM     20  C   UNL     1       8.419  52.120  64.505  1.00  0.00     0.051 A 
ATOM     21  C   UNL     1       7.807  51.107  65.255  1.00  0.00     0.157 A 
BRANCH  19  22
ATOM     22  O   UNL     1       7.674  48.752  65.872  1.00  0.00    -0.504 OA
ATOM     23  H   UNL     1       6.782  48.353  65.605  1.00  0.00     0.293 HD
ENDBRANCH  19  22
BRANCH  21  24
ATOM     24  O   UNL     1       6.741  51.408  66.100  1.00  0.00    -0.504 OA
ATOM     25  H   UNL     1       6.394  50.738  66.777  1.00  0.00     0.293 HD
ENDBRANCH  21  24
ENDBRANCH   8  16
BRANCH   9  26
ATOM     26  O   UNL     1       9.808  48.467  61.561  1.00  0.00    -0.490 OA
ATOM     27  C   UNL     1       8.658  48.776  60.781  1.00  0.00     0.278 C 
ENDBRANCH   9  26
TORSDOF 6
ENDMDL
MODEL 3
REMARK VINA RESULT:    -4.849      1.856      2.178
REMARK INTER + INTRA:          -6.606
REMARK INTER:                  -6.136
REMARK INTRA:                  -0.471
REMARK UNBOUND:                -0.482
REMARK SMILES COc1cc(O)c2c(=O)c(OC)c(-c3ccc(O)c(O)c3)oc2c1
REMARK SMILES IDX 3 1 4 2 5 3 7 4 23 5 24 6 22 7 13 8 10 9 8 10 9 11 2 12 1 13
REMARK SMILES IDX 6 14 14 16 21 17 15 18 19 19 16 20 17 21 20 22 18 24 11 26
REMARK SMILES IDX 12 27
REMARK H PARENT 6 15 20 23 18 25
REMARK Flexibility Score: inf
ROOT
ATOM      1  C   UNL     1       6.651  50.727  58.725  1.00  0.00     0.126 A 
ATOM      2  C   UNL     1       6.034  49.610  59.294  1.00  0.00     0.093 A 
ATOM      3  C   UNL     1       6.738  48.755  60.153  1.00  0.00     0.134 A 
ATOM      4  C   UNL     1       8.096  49.019  60.452  1.00  0.00     0.111 A 
ATOM      5  C   UNL     1       8.715  50.151  59.877  1.00  0.00     0.146 A 
ATOM      6  C   UNL     1       7.998  50.993  59.022  1.00  0.00     0.094 A 
ATOM      7  O   UNL     1       9.983  50.434  60.142  1.00  0.00    -0.452 OA
ATOM      8  C   UNL     1      10.745  49.698  60.944  1.00  0.00     0.180 A 
ATOM      9  C   UNL     1      10.227  48.531  61.543  1.00  0.00     0.210 A 
ATOM     10  C   UNL     1       8.873  48.200  61.299  1.00  0.00     0.239 A 
ATOM     11  O   UNL     1       8.363  47.178  61.829  1.00  0.00    -0.285 OA
ENDROOT
BRANCH   1  12
ATOM     12  O   UNL     1       5.893  51.545  57.872  1.00  0.00    -0.496 OA
ATOM     13  C   UNL     1       5.978  51.524  56.451  1.00  0.00     0.278 C 
ENDBRANCH   1  12
BRANCH   3  14
ATOM     14  O   UNL     1       6.083  47.649  60.699  1.00  0.00    -0.507 OA
ATOM     15  H   UNL     1       5.791  47.628  61.669  1.00  0.00     0.293 HD
ENDBRANCH   3  14
BRANCH   8  16
ATOM     16  C   UNL     1      12.142  50.138  61.164  1.00  0.00     0.025 A 
ATOM     17  C   UNL     1      13.184  49.714  60.320  1.00  0.00     0.062 A 
ATOM     18  C   UNL     1      12.445  50.947  62.269  1.00  0.00     0.016 A 
ATOM     19  C   UNL     1      14.502  50.120  60.557  1.00  0.00     0.158 A 
ATOM     20  C   UNL     1      13.759  51.356  62.508  1.00  0.00     0.051 A 
ATOM     21  C   UNL     1      14.793  50.949  61.654  1.00  0.00     0.157 A 
BRANCH  19  22
ATOM     22  O   UNL     1      15.510  49.686  59.696  1.00  0.00    -0.504 OA
ATOM     23  H   UNL     1      15.457  48.801  59.207  1.00  0.00     0.293 HD
ENDBRANCH  19  22
BRANCH  21  24
ATOM     24  O   UNL     1      16.103  51.360  61.892  1.00  0.00    -0.504 OA
ATOM     25  H   UNL     1      16.337  52.338  62.021  1.00  0.00     0.293 HD
ENDBRANCH  21  24
ENDBRANCH   8  16
BRANCH   9  26
ATOM     26  O   UNL     1      11.093  47.743  62.329  1.00  0.00    -0.490 OA
ATOM     27  C   UNL     1      11.118  47.671  63.751  1.00  0.00     0.278 C 
ENDBRANCH   9  26
TORSDOF 6
ENDMDL
MODEL 4
REMARK VINA RESULT:    -4.806      1.530      6.629
REMARK INTER + INTRA:          -6.552
REMARK INTER:                  -6.061
REMARK INTRA:                  -0.491
REMARK UNBOUND:                -0.482
REMARK SMILES COc1cc(O)c2c(=O)c(OC)c(-c3ccc(O)c(O)c3)oc2c1
REMARK SMILES IDX 3 1 4 2 5 3 7 4 23 5 24 6 22 7 13 8 10 9 8 10 9 11 2 12 1 13
REMARK SMILES IDX 6 14 14 16 21 17 15 18 19 19 16 20 17 21 20 22 18 24 11 26
REMARK SMILES IDX 12 27
REMARK H PARENT 6 15 20 23 18 25
REMARK Flexibility Score: inf
ROOT
ATOM      1  C   UNL     1      13.413  50.449  61.964  1.00  0.00     0.126 A 
ATOM      2  C   UNL     1      12.974  50.131  63.251  1.00  0.00     0.093 A 
ATOM      3  C   UNL     1      11.628  49.828  63.501  1.00  0.00     0.134 A 
ATOM      4  C   UNL     1      10.693  49.843  62.438  1.00  0.00     0.111 A 
ATOM      5  C   UNL     1      11.143  50.162  61.137  1.00  0.00     0.146 A 
ATOM      6  C   UNL     1      12.488  50.463  60.907  1.00  0.00     0.094 A 
ATOM      7  O   UNL     1      10.297  50.178  60.117  1.00  0.00    -0.452 OA
ATOM      8  C   UNL     1       9.002  49.904  60.234  1.00  0.00     0.180 A 
ATOM      9  C   UNL     1       8.451  49.602  61.497  1.00  0.00     0.210 A 
ATOM     10  C   UNL     1       9.322  49.559  62.612  1.00  0.00     0.239 A 
ATOM     11  O   UNL     1       8.877  49.275  63.756  1.00  0.00    -0.285 OA
ENDROOT
BRANCH   1  12
ATOM     12  O   UNL     1      14.773  50.743  61.778  1.00  0.00    -0.496 OA
ATOM     13  C   UNL     1      15.366  51.050  60.520  1.00  0.00     0.278 C 
ENDBRANCH   1  12
BRANCH   3  14
ATOM     14  O   UNL     1      11.231  49.516  64.803  1.00  0.00    -0.507 OA
ATOM     15  H   UNL     1      10.500  50.035  65.276  1.00  0.00     0.293 HD
ENDBRANCH   3  14
BRANCH   8  16
ATOM     16  C   UNL     1       8.174  49.944  59.008  1.00  0.00     0.025 A 
ATOM     17  C   UNL     1       7.923  48.782  58.256  1.00  0.00     0.062 A 
ATOM     18  C   UNL     1       7.676  51.174  58.551  1.00  0.00     0.016 A 
ATOM     19  C   UNL     1       7.158  48.842  57.085  1.00  0.00     0.158 A 
ATOM     20  C   UNL     1       6.910  51.238  57.383  1.00  0.00     0.051 A 
ATOM     21  C   UNL     1       6.645  50.075  56.647  1.00  0.00     0.157 A 
BRANCH  19  22
ATOM     22  O   UNL     1       6.923  47.670  56.368  1.00  0.00    -0.504 OA
ATOM     23  H   UNL     1       7.359  46.790  56.616  1.00  0.00     0.293 HD
ENDBRANCH  19  22
BRANCH  21  24
ATOM     24  O   UNL     1       5.879  50.141  55.485  1.00  0.00    -0.504 OA
ATOM     25  H   UNL     1       5.670  49.312  54.940  1.00  0.00     0.293 HD
ENDBRANCH  21  24
ENDBRANCH   8  16
BRANCH   9  26
ATOM     26  O   UNL     1       7.061  49.387  61.585  1.00  0.00    -0.490 OA
ATOM     27  C   UNL     1       6.065  50.371  61.841  1.00  0.00     0.278 C 
ENDBRANCH   9  26
TORSDOF 6
ENDMDL
MODEL 5
REMARK VINA RESULT:    -4.804      3.386      8.508
REMARK INTER + INTRA:          -6.549
REMARK INTER:                  -6.321
REMARK INTRA:                  -0.228
REMARK UNBOUND:                -0.482
REMARK SMILES COc1cc(O)c2c(=O)c(OC)c(-c3ccc(O)c(O)c3)oc2c1
REMARK SMILES IDX 3 1 4 2 5 3 7 4 23 5 24 6 22 7 13 8 10 9 8 10 9 11 2 12 1 13
REMARK SMILES IDX 6 14 14 16 21 17 15 18 19 19 16 20 17 21 20 22 18 24 11 26
REMARK SMILES IDX 12 27
REMARK H PARENT 6 15 20 23 18 25
REMARK Flexibility Score: inf
ROOT
ATOM      1  C   UNL     1      18.228  51.920  62.195  1.00  0.00     0.126 A 
ATOM      2  C   UNL     1      18.268  52.011  60.802  1.00  0.00     0.093 A 
ATOM      3  C   UNL     1      17.113  51.816  60.030  1.00  0.00     0.134 A 
ATOM      4  C   UNL     1      15.883  51.521  60.667  1.00  0.00     0.111 A 
ATOM      5  C   UNL     1      15.847  51.432  62.076  1.00  0.00     0.146 A 
ATOM      6  C   UNL     1      17.008  51.628  62.829  1.00  0.00     0.094 A 
ATOM      7  O   UNL     1      14.711  51.165  62.706  1.00  0.00    -0.452 OA
ATOM      8  C   UNL     1      13.556  50.967  62.080  1.00  0.00     0.180 A 
ATOM      9  C   UNL     1      13.495  51.005  60.671  1.00  0.00     0.210 A 
ATOM     10  C   UNL     1      14.682  51.302  59.959  1.00  0.00     0.239 A 
ATOM     11  O   UNL     1      14.670  51.366  58.702  1.00  0.00    -0.285 OA
ENDROOT
BRANCH   1  12
ATOM     12  O   UNL     1      19.417  52.125  62.911  1.00  0.00    -0.496 OA
ATOM     13  C   UNL     1      19.818  51.360  64.043  1.00  0.00     0.278 C 
ENDBRANCH   1  12
BRANCH   3  14
ATOM     14  O   UNL     1      17.198  51.915  58.641  1.00  0.00    -0.507 OA
ATOM     15  H   UNL     1      16.370  51.965  58.058  1.00  0.00     0.293 HD
ENDBRANCH   3  14
BRANCH   8  16
ATOM     16  C   UNL     1      12.360  50.692  62.908  1.00  0.00     0.025 A 
ATOM     17  C   UNL     1      12.139  49.424  63.475  1.00  0.00     0.062 A 
ATOM     18  C   UNL     1      11.397  51.697  63.086  1.00  0.00     0.016 A 
ATOM     19  C   UNL     1      10.991  49.174  64.235  1.00  0.00     0.158 A 
ATOM     20  C   UNL     1      10.250  51.453  63.846  1.00  0.00     0.051 A 
ATOM     21  C   UNL     1      10.042  50.194  64.427  1.00  0.00     0.157 A 
BRANCH  19  22
ATOM     22  O   UNL     1      10.806  47.907  64.789  1.00  0.00    -0.504 OA
ATOM     23  H   UNL     1      10.219  47.208  64.350  1.00  0.00     0.293 HD
ENDBRANCH  19  22
BRANCH  21  24
ATOM     24  O   UNL     1       8.900  49.953  65.187  1.00  0.00    -0.504 OA
ATOM     25  H   UNL     1       8.326  50.712  65.538  1.00  0.00     0.293 HD
ENDBRANCH  21  24
ENDBRANCH   8  16
BRANCH   9  26
ATOM     26  O   UNL     1      12.263  50.719  60.048  1.00  0.00    -0.490 OA
ATOM     27  C   UNL     1      11.651  49.440  59.927  1.00  0.00     0.278 C 
ENDBRANCH   9  26
TORSDOF 6
ENDMDL
MODEL 6
REMARK VINA RESULT:    -4.663      1.423      2.292
REMARK INTER + INTRA:          -6.371
REMARK INTER:                  -6.339
REMARK INTRA:                  -0.032
REMARK UNBOUND:                -0.482
REMARK SMILES COc1cc(O)c2c(=O)c(OC)c(-c3ccc(O)c(O)c3)oc2c1
REMARK SMILES IDX 3 1 4 2 5 3 7 4 23 5 24 6 22 7 13 8 10 9 8 10 9 11 2 12 1 13
REMARK SMILES IDX 6 14 14 16 21 17 15 18 19 19 16 20 17 21 20 22 18 24 11 26
REMARK SMILES IDX 12 27
REMARK H PARENT 6 15 20 23 18 25
REMARK Flexibility Score: inf
ROOT
ATOM      1  C   UNL     1       7.525  49.561  60.187  1.00  0.00     0.126 A 
ATOM      2  C   UNL     1       7.374  49.527  61.576  1.00  0.00     0.093 A 
ATOM      3  C   UNL     1       8.479  49.673  62.427  1.00  0.00     0.134 A 
ATOM      4  C   UNL     1       9.770  49.858  61.878  1.00  0.00     0.111 A 
ATOM      5  C   UNL     1       9.918  49.895  60.473  1.00  0.00     0.146 A 
ATOM      6  C   UNL     1       8.805  49.746  59.641  1.00  0.00     0.094 A 
ATOM      7  O   UNL     1      11.111  50.074  59.925  1.00  0.00    -0.452 OA
ATOM      8  C   UNL     1      12.226  50.229  60.632  1.00  0.00     0.180 A 
ATOM      9  C   UNL     1      12.187  50.178  62.041  1.00  0.00     0.210 A 
ATOM     10  C   UNL     1      10.931  50.003  62.668  1.00  0.00     0.239 A 
ATOM     11  O   UNL     1      10.846  49.971  63.924  1.00  0.00    -0.285 OA
ENDROOT
BRANCH   1  12
ATOM     12  O   UNL     1       6.381  49.408  59.389  1.00  0.00    -0.496 OA
ATOM     13  C   UNL     1       6.394  48.946  58.043  1.00  0.00     0.278 C 
ENDBRANCH   1  12
BRANCH   3  14
ATOM     14  O   UNL     1       8.284  49.632  63.809  1.00  0.00    -0.507 OA
ATOM     15  H   UNL     1       8.689  50.327  64.425  1.00  0.00     0.293 HD
ENDBRANCH   3  14
BRANCH   8  16
ATOM     16  C   UNL     1      13.490  50.436  59.890  1.00  0.00     0.025 A 
ATOM     17  C   UNL     1      14.430  49.400  59.743  1.00  0.00     0.062 A 
ATOM     18  C   UNL     1      13.787  51.706  59.372  1.00  0.00     0.016 A 
ATOM     19  C   UNL     1      15.632  49.620  59.059  1.00  0.00     0.158 A 
ATOM     20  C   UNL     1      14.984  51.930  58.687  1.00  0.00     0.051 A 
ATOM     21  C   UNL     1      15.910  50.890  58.524  1.00  0.00     0.157 A 
BRANCH  19  22
ATOM     22  O   UNL     1      16.538  48.569  58.926  1.00  0.00    -0.504 OA
ATOM     23  H   UNL     1      17.262  48.569  58.217  1.00  0.00     0.293 HD
ENDBRANCH  19  22
BRANCH  21  24
ATOM     24  O   UNL     1      17.102  51.114  57.838  1.00  0.00    -0.504 OA
ATOM     25  H   UNL     1      17.831  51.706  58.221  1.00  0.00     0.293 HD
ENDBRANCH  21  24
ENDBRANCH   8  16
BRANCH   9  26
ATOM     26  O   UNL     1      13.404  50.276  62.747  1.00  0.00    -0.490 OA
ATOM     27  C   UNL     1      14.257  51.413  62.813  1.00  0.00     0.278 C 
ENDBRANCH   9  26
TORSDOF 6
ENDMDL
MODEL 7
REMARK VINA RESULT:    -4.437      2.074      6.974
REMARK INTER + INTRA:          -6.085
REMARK INTER:                  -5.583
REMARK INTRA:                  -0.503
REMARK UNBOUND:                -0.482
REMARK SMILES COc1cc(O)c2c(=O)c(OC)c(-c3ccc(O)c(O)c3)oc2c1
REMARK SMILES IDX 3 1 4 2 5 3 7 4 23 5 24 6 22 7 13 8 10 9 8 10 9 11 2 12 1 13
REMARK SMILES IDX 6 14 14 16 21 17 15 18 19 19 16 20 17 21 20 22 18 24 11 26
REMARK SMILES IDX 12 27
REMARK H PARENT 6 15 20 23 18 25
REMARK Flexibility Score: inf
ROOT
ATOM      1  C   UNL     1      15.954  49.755  58.881  1.00  0.00     0.126 A 
ATOM      2  C   UNL     1      16.529  50.541  59.884  1.00  0.00     0.093 A 
ATOM      3  C   UNL     1      15.786  50.941  61.004  1.00  0.00     0.134 A 
ATOM      4  C   UNL     1      14.432  50.548  61.127  1.00  0.00     0.111 A 
ATOM      5  C   UNL     1      13.855  49.752  60.113  1.00  0.00     0.146 A 
ATOM      6  C   UNL     1      14.610  49.363  59.003  1.00  0.00     0.094 A 
ATOM      7  O   UNL     1      12.592  49.360  60.200  1.00  0.00    -0.452 OA
ATOM      8  C   UNL     1      11.796  49.674  61.216  1.00  0.00     0.180 A 
ATOM      9  C   UNL     1      12.270  50.490  62.264  1.00  0.00     0.210 A 
ATOM     10  C   UNL     1      13.617  50.920  62.219  1.00  0.00     0.239 A 
ATOM     11  O   UNL     1      14.089  51.634  63.143  1.00  0.00    -0.285 OA
ENDROOT
BRANCH   1  12
ATOM     12  O   UNL     1      16.749  49.388  57.785  1.00  0.00    -0.496 OA
ATOM     13  C   UNL     1      16.355  48.459  56.780  1.00  0.00     0.278 C 
ENDBRANCH   1  12
BRANCH   3  14
ATOM     14  O   UNL     1      16.399  51.726  61.982  1.00  0.00    -0.507 OA
ATOM     15  H   UNL     1      17.200  52.310  61.771  1.00  0.00     0.293 HD
ENDBRANCH   3  14
BRANCH   8  16
ATOM     16  C   UNL     1      10.409  49.155  61.193  1.00  0.00     0.025 A 
ATOM     17  C   UNL     1      10.087  47.905  61.751  1.00  0.00     0.062 A 
ATOM     18  C   UNL     1       9.405  49.896  60.550  1.00  0.00     0.016 A 
ATOM     19  C   UNL     1       8.775  47.419  61.698  1.00  0.00     0.158 A 
ATOM     20  C   UNL     1       8.094  49.415  60.498  1.00  0.00     0.051 A 
ATOM     21  C   UNL     1       7.772  48.178  61.073  1.00  0.00     0.157 A 
BRANCH  19  22
ATOM     22  O   UNL     1       8.489  46.178  62.268  1.00  0.00    -0.504 OA
ATOM     23  H   UNL     1       8.101  46.090  63.199  1.00  0.00     0.293 HD
ENDBRANCH  19  22
BRANCH  21  24
ATOM     24  O   UNL     1       6.463  47.701  61.021  1.00  0.00    -0.504 OA
ATOM     25  H   UNL     1       6.241  46.737  61.240  1.00  0.00     0.293 HD
ENDBRANCH  21  24
ENDBRANCH   8  16
BRANCH   9  26
ATOM     26  O   UNL     1      11.369  50.857  63.285  1.00  0.00    -0.490 OA
ATOM     27  C   UNL     1      10.633  52.072  63.371  1.00  0.00     0.278 C 
ENDBRANCH   9  26
TORSDOF 6
ENDMDL
MODEL 8
REMARK VINA RESULT:    -4.386      2.796      6.628
REMARK INTER + INTRA:          -6.021
REMARK INTER:                  -5.601
REMARK INTRA:                  -0.419
REMARK UNBOUND:                -0.482
REMARK SMILES COc1cc(O)c2c(=O)c(OC)c(-c3ccc(O)c(O)c3)oc2c1
REMARK SMILES IDX 3 1 4 2 5 3 7 4 23 5 24 6 22 7 13 8 10 9 8 10 9 11 2 12 1 13
REMARK SMILES IDX 6 14 14 16 21 17 15 18 19 19 16 20 17 21 20 22 18 24 11 26
REMARK SMILES IDX 12 27
REMARK H PARENT 6 15 20 23 18 25
REMARK Flexibility Score: inf
ROOT
ATOM      1  C   UNL     1       6.836  50.773  65.250  1.00  0.00     0.126 A 
ATOM      2  C   UNL     1       8.170  50.588  65.622  1.00  0.00     0.093 A 
ATOM      3  C   UNL     1       9.148  50.266  64.670  1.00  0.00     0.134 A 
ATOM      4  C   UNL     1       8.785  50.122  63.309  1.00  0.00     0.111 A 
ATOM      5  C   UNL     1       7.436  50.312  62.937  1.00  0.00     0.146 A 
ATOM      6  C   UNL     1       6.474  50.632  63.900  1.00  0.00     0.094 A 
ATOM      7  O   UNL     1       7.062  50.193  61.671  1.00  0.00    -0.452 OA
ATOM      8  C   UNL     1       7.902  49.896  60.685  1.00  0.00     0.180 A 
ATOM      9  C   UNL     1       9.265  49.659  60.959  1.00  0.00     0.210 A 
ATOM     10  C   UNL     1       9.710  49.789  62.295  1.00  0.00     0.239 A 
ATOM     11  O   UNL     1      10.922  49.606  62.583  1.00  0.00    -0.285 OA
ENDROOT
BRANCH   1  12
ATOM     12  O   UNL     1       5.905  51.093  66.249  1.00  0.00    -0.496 OA
ATOM     13  C   UNL     1       6.072  50.796  67.632  1.00  0.00     0.278 C 
ENDBRANCH   1  12
BRANCH   3  14
ATOM     14  O   UNL     1      10.469  50.089  65.085  1.00  0.00    -0.507 OA
ATOM     15  H   UNL     1      11.103  49.468  64.596  1.00  0.00     0.293 HD
ENDBRANCH   3  14
BRANCH   8  16
ATOM     16  C   UNL     1       7.352  49.809  59.313  1.00  0.00     0.025 A 
ATOM     17  C   UNL     1       6.858  48.597  58.798  1.00  0.00     0.062 A 
ATOM     18  C   UNL     1       7.375  50.943  58.486  1.00  0.00     0.016 A 
ATOM     19  C   UNL     1       6.364  48.527  57.490  1.00  0.00     0.158 A 
ATOM     20  C   UNL     1       6.881  50.878  57.181  1.00  0.00     0.051 A 
ATOM     21  C   UNL     1       6.370  49.674  56.677  1.00  0.00     0.157 A 
BRANCH  19  22
ATOM     22  O   UNL     1       5.875  47.311  57.014  1.00  0.00    -0.504 OA
ATOM     23  H   UNL     1       6.393  46.446  57.115  1.00  0.00     0.293 HD
ENDBRANCH  19  22
BRANCH  21  24
ATOM     24  O   UNL     1       5.876  49.612  55.376  1.00  0.00    -0.504 OA
ATOM     25  H   UNL     1       6.491  49.484  54.581  1.00  0.00     0.293 HD
ENDBRANCH  21  24
ENDBRANCH   8  16
BRANCH   9  26
ATOM     26  O   UNL     1      10.104  49.277  59.892  1.00  0.00    -0.490 OA
ATOM     27  C   UNL     1      10.730  48.011  59.716  1.00  0.00     0.278 C 
ENDBRANCH   9  26
TORSDOF 6
ENDMDL
MODEL 9
REMARK VINA RESULT:    -4.326      3.350      4.397
REMARK INTER + INTRA:          -5.945
REMARK INTER:                  -5.819
REMARK INTRA:                  -0.126
REMARK UNBOUND:                -0.482
REMARK SMILES COc1cc(O)c2c(=O)c(OC)c(-c3ccc(O)c(O)c3)oc2c1
REMARK SMILES IDX 3 1 4 2 5 3 7 4 23 5 24 6 22 7 13 8 10 9 8 10 9 11 2 12 1 13
REMARK SMILES IDX 6 14 14 16 21 17 15 18 19 19 16 20 17 21 20 22 18 24 11 26
REMARK SMILES IDX 12 27
REMARK H PARENT 6 15 20 23 18 25
REMARK Flexibility Score: inf
ROOT
ATOM      1  C   UNL     1       9.076  51.172  64.580  1.00  0.00     0.126 A 
ATOM      2  C   UNL     1       8.601  49.862  64.484  1.00  0.00     0.093 A 
ATOM      3  C   UNL     1       9.278  48.901  63.720  1.00  0.00     0.134 A 
ATOM      4  C   UNL     1      10.462  49.257  63.030  1.00  0.00     0.111 A 
ATOM      5  C   UNL     1      10.940  50.582  63.131  1.00  0.00     0.146 A 
ATOM      6  C   UNL     1      10.252  51.527  63.897  1.00  0.00     0.094 A 
ATOM      7  O   UNL     1      12.050  50.948  62.505  1.00  0.00    -0.452 OA
ATOM      8  C   UNL     1      12.775  50.123  61.757  1.00  0.00     0.180 A 
ATOM      9  C   UNL     1      12.364  48.787  61.570  1.00  0.00     0.210 A 
ATOM     10  C   UNL     1      11.192  48.349  62.233  1.00  0.00     0.239 A 
ATOM     11  O   UNL     1      10.799  47.159  62.110  1.00  0.00    -0.285 OA
ENDROOT
BRANCH   1  12
ATOM     12  O   UNL     1       8.354  52.088  65.360  1.00  0.00    -0.496 OA
ATOM     13  C   UNL     1       6.996  51.916  65.752  1.00  0.00     0.278 C 
ENDBRANCH   1  12
BRANCH   3  14
ATOM     14  O   UNL     1       8.768  47.603  63.651  1.00  0.00    -0.507 OA
ATOM     15  H   UNL     1       8.675  47.022  64.476  1.00  0.00     0.293 HD
ENDBRANCH   3  14
BRANCH   8  16
ATOM     16  C   UNL     1      14.001  50.661  61.126  1.00  0.00     0.025 A 
ATOM     17  C   UNL     1      14.131  50.739  59.728  1.00  0.00     0.062 A 
ATOM     18  C   UNL     1      15.081  51.047  61.935  1.00  0.00     0.016 A 
ATOM     19  C   UNL     1      15.307  51.227  59.148  1.00  0.00     0.158 A 
ATOM     20  C   UNL     1      16.257  51.538  61.360  1.00  0.00     0.051 A 
ATOM     21  C   UNL     1      16.375  51.633  59.967  1.00  0.00     0.157 A 
BRANCH  19  22
ATOM     22  O   UNL     1      15.399  51.298  57.758  1.00  0.00    -0.504 OA
ATOM     23  H   UNL     1      14.989  52.058  57.229  1.00  0.00     0.293 HD
ENDBRANCH  19  22
BRANCH  21  24
ATOM     24  O   UNL     1      17.547  52.125  59.395  1.00  0.00    -0.504 OA
ATOM     25  H   UNL     1      18.249  52.602  59.950  1.00  0.00     0.293 HD
ENDBRANCH  21  24
ENDBRANCH   8  16
BRANCH   9  26
ATOM     26  O   UNL     1      13.126  47.967  60.712  1.00  0.00    -0.490 OA
ATOM     27  C   UNL     1      12.823  47.643  59.360  1.00  0.00     0.278 C 
ENDBRANCH   9  26
TORSDOF 6
ENDMDL
