MODEL 1
REMARK VINA RESULT:    -4.655      0.000      0.000
REMARK INTER + INTRA:         -10.244
REMARK INTER:                  -8.193
REMARK INTRA:                  -2.051
REMARK UNBOUND:                -2.051
REMARK SMILES CCCCCCCCCCCCCCC(=O)[O-]
REMARK SMILES IDX 9 1 10 2 11 3 12 4 13 5 14 6 15 7 16 8 17 9 8 10 7 11 6 12
REMARK SMILES IDX 5 13 4 14 3 15 2 16 1 17
REMARK H PARENT
REMARK Flexibility Score: inf
ROOT
ATOM      1  C   UNL     1       4.524   3.230  13.278  1.00  0.00     0.000 C 
ENDROOT
BRANCH   1   2
ATOM      2  C   UNL     1       3.647   3.419  14.527  1.00  0.00     0.000 C 
BRANCH   2   3
ATOM      3  C   UNL     1       4.373   3.022  15.822  1.00  0.00     0.000 C 
BRANCH   3   4
ATOM      4  C   UNL     1       3.622   1.902  16.551  1.00  0.00     0.000 C 
BRANCH   4   5
ATOM      5  C   UNL     1       4.419   1.400  17.761  1.00  0.00     0.006 C 
BRANCH   5   6
ATOM      6  C   UNL     1       5.509   0.415  17.329  1.00  0.00     0.053 C 
BRANCH   6   7
ATOM      7  C   UNL     1       5.546  -0.762  18.253  1.00  0.00     0.041 C 
ATOM      8  O   UNL     1       4.725  -1.706  18.110  1.00  0.00    -0.550 OA
ATOM      9  O   UNL     1       6.455  -0.793  19.303  1.00  0.00    -0.550 OA
ENDBRANCH   6   7
ENDBRANCH   5   6
ENDBRANCH   4   5
ENDBRANCH   3   4
ENDBRANCH   2   3
ENDBRANCH   1   2
BRANCH   1  10
ATOM     10  C   UNL     1       4.677   1.752  12.880  1.00  0.00     0.000 C 
BRANCH  10  11
ATOM     11  C   UNL     1       6.104   1.218  13.128  1.00  0.00    -0.000 C 
BRANCH  11  12
ATOM     12  C   UNL     1       6.161  -0.296  13.407  1.00  0.00    -0.000 C 
BRANCH  12  13
ATOM     13  C   UNL     1       4.805  -1.023  13.337  1.00  0.00    -0.000 C 
BRANCH  13  14
ATOM     14  C   UNL     1       4.404  -1.775  14.620  1.00  0.00    -0.000 C 
BRANCH  14  15
ATOM     15  C   UNL     1       2.899  -1.691  14.916  1.00  0.00    -0.000 C 
BRANCH  15  16
ATOM     16  C   UNL     1       2.257  -0.520  14.165  1.00  0.00    -0.003 C 
ATOM     17  C   UNL     1       0.954  -0.086  14.830  1.00  0.00     0.004 C 
ENDBRANCH  15  16
ENDBRANCH  14  15
ENDBRANCH  13  14
ENDBRANCH  12  13
ENDBRANCH  11  12
ENDBRANCH  10  11
ENDBRANCH   1  10
TORSDOF 13
ENDMDL
MODEL 2
REMARK VINA RESULT:    -4.298      1.087      3.226
REMARK INTER + INTRA:          -9.615
REMARK INTER:                  -7.865
REMARK INTRA:                  -1.750
REMARK UNBOUND:                -2.051
REMARK SMILES CCCCCCCCCCCCCCC(=O)[O-]
REMARK SMILES IDX 9 1 10 2 11 3 12 4 13 5 14 6 15 7 16 8 17 9 8 10 7 11 6 12
REMARK SMILES IDX 5 13 4 14 3 15 2 16 1 17
REMARK H PARENT
REMARK Flexibility Score: inf
ROOT
ATOM      1  C   UNL     1       6.374   0.991  12.981  1.00  0.00     0.000 C 
ENDROOT
BRANCH   1   2
ATOM      2  C   UNL     1       6.477  -0.368  13.693  1.00  0.00     0.000 C 
BRANCH   2   3
ATOM      3  C   UNL     1       5.173  -1.178  13.608  1.00  0.00     0.000 C 
BRANCH   3   4
ATOM      4  C   UNL     1       4.913  -1.938  14.913  1.00  0.00     0.000 C 
BRANCH   4   5
ATOM      5  C   UNL     1       5.674  -1.302  16.082  1.00  0.00     0.006 C 
BRANCH   5   6
ATOM      6  C   UNL     1       4.918  -1.495  17.400  1.00  0.00     0.053 C 
BRANCH   6   7
ATOM      7  C   UNL     1       5.491  -0.616  18.467  1.00  0.00     0.041 C 
ATOM      8  O   UNL     1       4.996   0.521  18.685  1.00  0.00    -0.550 OA
ATOM      9  O   UNL     1       6.605  -1.032  19.185  1.00  0.00    -0.550 OA
ENDBRANCH   6   7
ENDBRANCH   5   6
ENDBRANCH   4   5
ENDBRANCH   3   4
ENDBRANCH   2   3
ENDBRANCH   1   2
BRANCH   1  10
ATOM     10  C   UNL     1       4.924   1.496  12.875  1.00  0.00     0.000 C 
BRANCH  10  11
ATOM     11  C   UNL     1       4.834   3.037  12.886  1.00  0.00    -0.000 C 
BRANCH  11  12
ATOM     12  C   UNL     1       3.901   3.597  13.976  1.00  0.00    -0.000 C 
BRANCH  12  13
ATOM     13  C   UNL     1       4.353   3.328  15.424  1.00  0.00    -0.000 C 
BRANCH  13  14
ATOM     14  C   UNL     1       3.622   2.170  16.129  1.00  0.00    -0.000 C 
BRANCH  14  15
ATOM     15  C   UNL     1       2.363   1.713  15.378  1.00  0.00    -0.000 C 
BRANCH  15  16
ATOM     16  C   UNL     1       2.216   0.189  15.429  1.00  0.00    -0.003 C 
ATOM     17  C   UNL     1       0.943  -0.268  14.724  1.00  0.00     0.004 C 
ENDBRANCH  15  16
ENDBRANCH  14  15
ENDBRANCH  13  14
ENDBRANCH  12  13
ENDBRANCH  11  12
ENDBRANCH  10  11
ENDBRANCH   1  10
TORSDOF 13
ENDMDL
MODEL 3
REMARK VINA RESULT:    -4.282      1.245      4.171
REMARK INTER + INTRA:          -9.587
REMARK INTER:                  -7.449
REMARK INTRA:                  -2.137
REMARK UNBOUND:                -2.051
REMARK SMILES CCCCCCCCCCCCCCC(=O)[O-]
REMARK SMILES IDX 9 1 10 2 11 3 12 4 13 5 14 6 15 7 16 8 17 9 8 10 7 11 6 12
REMARK SMILES IDX 5 13 4 14 3 15 2 16 1 17
REMARK H PARENT
REMARK Flexibility Score: inf
ROOT
ATOM      1  C   UNL     1       3.812  -1.197  13.409  1.00  0.00     0.000 C 
ENDROOT
BRANCH   1   2
ATOM      2  C   UNL     1       5.059  -2.057  13.145  1.00  0.00     0.000 C 
BRANCH   2   3
ATOM      3  C   UNL     1       6.302  -1.534  13.881  1.00  0.00     0.000 C 
BRANCH   3   4
ATOM      4  C   UNL     1       5.911  -0.819  15.180  1.00  0.00     0.000 C 
BRANCH   4   5
ATOM      5  C   UNL     1       5.914  -1.791  16.366  1.00  0.00     0.006 C 
BRANCH   5   6
ATOM      6  C   UNL     1       4.847  -1.404  17.394  1.00  0.00     0.053 C 
BRANCH   6   7
ATOM      7  C   UNL     1       5.426  -0.497  18.434  1.00  0.00     0.041 C 
ATOM      8  O   UNL     1       6.357  -0.900  19.179  1.00  0.00    -0.550 OA
ATOM      9  O   UNL     1       4.901   0.776  18.615  1.00  0.00    -0.550 OA
ENDBRANCH   6   7
ENDBRANCH   5   6
ENDBRANCH   4   5
ENDBRANCH   3   4
ENDBRANCH   2   3
ENDBRANCH   1   2
BRANCH   1  10
ATOM     10  C   UNL     1       2.690  -1.981  14.113  1.00  0.00     0.000 C 
BRANCH  10  11
ATOM     11  C   UNL     1       1.938  -1.125  15.155  1.00  0.00    -0.000 C 
BRANCH  11  12
ATOM     12  C   UNL     1       1.942   0.383  14.839  1.00  0.00    -0.000 C 
BRANCH  12  13
ATOM     13  C   UNL     1       2.609   1.272  15.905  1.00  0.00    -0.000 C 
BRANCH  13  14
ATOM     14  C   UNL     1       3.813   2.091  15.406  1.00  0.00    -0.000 C 
BRANCH  14  15
ATOM     15  C   UNL     1       3.401   3.300  14.553  1.00  0.00    -0.000 C 
BRANCH  15  16
ATOM     16  C   UNL     1       4.344   3.475  13.357  1.00  0.00    -0.003 C 
ATOM     17  C   UNL     1       5.083   2.178  13.042  1.00  0.00     0.004 C 
ENDBRANCH  15  16
ENDBRANCH  14  15
ENDBRANCH  13  14
ENDBRANCH  12  13
ENDBRANCH  11  12
ENDBRANCH  10  11
ENDBRANCH   1  10
TORSDOF 13
ENDMDL
MODEL 4
REMARK VINA RESULT:    -4.238      1.821      4.545
REMARK INTER + INTRA:          -9.509
REMARK INTER:                  -7.858
REMARK INTRA:                  -1.651
REMARK UNBOUND:                -2.051
REMARK SMILES CCCCCCCCCCCCCCC(=O)[O-]
REMARK SMILES IDX 9 1 10 2 11 3 12 4 13 5 14 6 15 7 16 8 17 9 8 10 7 11 6 12
REMARK SMILES IDX 5 13 4 14 3 15 2 16 1 17
REMARK H PARENT
REMARK Flexibility Score: inf
ROOT
ATOM      1  C   UNL     1       4.678   1.900  13.008  1.00  0.00     0.000 C 
ENDROOT
BRANCH   1   2
ATOM      2  C   UNL     1       6.038   1.183  13.014  1.00  0.00     0.000 C 
BRANCH   2   3
ATOM      3  C   UNL     1       6.072  -0.007  13.986  1.00  0.00     0.000 C 
BRANCH   3   4
ATOM      4  C   UNL     1       5.480  -1.264  13.338  1.00  0.00     0.000 C 
BRANCH   4   5
ATOM      5  C   UNL     1       4.281  -1.784  14.138  1.00  0.00     0.006 C 
BRANCH   5   6
ATOM      6  C   UNL     1       2.993  -1.063  13.728  1.00  0.00     0.053 C 
BRANCH   6   7
ATOM      7  C   UNL     1       1.925  -1.272  14.755  1.00  0.00     0.041 C 
ATOM      8  O   UNL     1       2.083  -2.124  15.669  1.00  0.00    -0.550 OA
ATOM      9  O   UNL     1       0.734  -0.562  14.673  1.00  0.00    -0.550 OA
ENDBRANCH   6   7
ENDBRANCH   5   6
ENDBRANCH   4   5
ENDBRANCH   3   4
ENDBRANCH   2   3
ENDBRANCH   1   2
BRANCH   1  10
ATOM     10  C   UNL     1       4.773   3.353  13.509  1.00  0.00     0.000 C 
BRANCH  10  11
ATOM     11  C   UNL     1       4.070   3.554  14.869  1.00  0.00    -0.000 C 
BRANCH  11  12
ATOM     12  C   UNL     1       2.936   2.546  15.136  1.00  0.00    -0.000 C 
BRANCH  12  13
ATOM     13  C   UNL     1       3.216   1.533  16.262  1.00  0.00    -0.000 C 
BRANCH  13  14
ATOM     14  C   UNL     1       4.373   1.912  17.204  1.00  0.00    -0.000 C 
BRANCH  14  15
ATOM     15  C   UNL     1       5.432   0.807  17.325  1.00  0.00    -0.000 C 
BRANCH  15  16
ATOM     16  C   UNL     1       5.146  -0.099  18.528  1.00  0.00    -0.003 C 
ATOM     17  C   UNL     1       5.848  -1.446  18.386  1.00  0.00     0.004 C 
ENDBRANCH  15  16
ENDBRANCH  14  15
ENDBRANCH  13  14
ENDBRANCH  12  13
ENDBRANCH  11  12
ENDBRANCH  10  11
ENDBRANCH   1  10
TORSDOF 13
ENDMDL
MODEL 5
REMARK VINA RESULT:    -4.224      2.018      3.497
REMARK INTER + INTRA:          -9.485
REMARK INTER:                  -7.825
REMARK INTRA:                  -1.660
REMARK UNBOUND:                -2.051
REMARK SMILES CCCCCCCCCCCCCCC(=O)[O-]
REMARK SMILES IDX 9 1 10 2 11 3 12 4 13 5 14 6 15 7 16 8 17 9 8 10 7 11 6 12
REMARK SMILES IDX 5 13 4 14 3 15 2 16 1 17
REMARK H PARENT
REMARK Flexibility Score: inf
ROOT
ATOM      1  C   UNL     1       4.840   2.102  12.875  1.00  0.00     0.000 C 
ENDROOT
BRANCH   1   2
ATOM      2  C   UNL     1       4.735   3.439  13.627  1.00  0.00     0.000 C 
BRANCH   2   3
ATOM      3  C   UNL     1       3.614   3.437  14.679  1.00  0.00     0.000 C 
BRANCH   3   4
ATOM      4  C   UNL     1       3.924   2.449  15.810  1.00  0.00     0.000 C 
BRANCH   4   5
ATOM      5  C   UNL     1       2.745   1.499  16.049  1.00  0.00     0.006 C 
BRANCH   5   6
ATOM      6  C   UNL     1       2.480   0.632  14.815  1.00  0.00     0.053 C 
BRANCH   6   7
ATOM      7  C   UNL     1       1.477  -0.434  15.129  1.00  0.00     0.041 C 
ATOM      8  O   UNL     1       1.846  -1.631  15.264  1.00  0.00    -0.550 OA
ATOM      9  O   UNL     1       0.129  -0.114  15.220  1.00  0.00    -0.550 OA
ENDBRANCH   6   7
ENDBRANCH   5   6
ENDBRANCH   4   5
ENDBRANCH   3   4
ENDBRANCH   2   3
ENDBRANCH   1   2
BRANCH   1  10
ATOM     10  C   UNL     1       6.264   1.519  12.900  1.00  0.00     0.000 C 
BRANCH  10  11
ATOM     11  C   UNL     1       6.376   0.275  13.807  1.00  0.00    -0.000 C 
BRANCH  11  12
ATOM     12  C   UNL     1       5.187  -0.696  13.678  1.00  0.00    -0.000 C 
BRANCH  12  13
ATOM     13  C   UNL     1       5.360  -2.040  14.409  1.00  0.00    -0.000 C 
BRANCH  13  14
ATOM     14  C   UNL     1       5.969  -1.939  15.819  1.00  0.00    -0.000 C 
BRANCH  14  15
ATOM     15  C   UNL     1       5.007  -1.318  16.843  1.00  0.00    -0.000 C 
BRANCH  15  16
ATOM     16  C   UNL     1       5.760  -0.859  18.096  1.00  0.00    -0.003 C 
ATOM     17  C   UNL     1       5.047   0.308  18.773  1.00  0.00     0.004 C 
ENDBRANCH  15  16
ENDBRANCH  14  15
ENDBRANCH  13  14
ENDBRANCH  12  13
ENDBRANCH  11  12
ENDBRANCH  10  11
ENDBRANCH   1  10
TORSDOF 13
ENDMDL
MODEL 6
REMARK VINA RESULT:    -4.146      2.146      3.958
REMARK INTER + INTRA:          -9.348
REMARK INTER:                  -7.424
REMARK INTRA:                  -1.925
REMARK UNBOUND:                -2.051
REMARK SMILES CCCCCCCCCCCCCCC(=O)[O-]
REMARK SMILES IDX 9 1 10 2 11 3 12 4 13 5 14 6 15 7 16 8 17 9 8 10 7 11 6 12
REMARK SMILES IDX 5 13 4 14 3 15 2 16 1 17
REMARK H PARENT
REMARK Flexibility Score: inf
ROOT
ATOM      1  C   UNL     1       6.178   1.251  13.598  1.00  0.00     0.000 C 
ENDROOT
BRANCH   1   2
ATOM      2  C   UNL     1       5.197   2.211  12.906  1.00  0.00     0.000 C 
BRANCH   2   3
ATOM      3  C   UNL     1       4.030   2.620  13.818  1.00  0.00     0.000 C 
BRANCH   3   4
ATOM      4  C   UNL     1       4.237   2.094  15.243  1.00  0.00     0.000 C 
BRANCH   4   5
ATOM      5  C   UNL     1       3.123   1.117  15.637  1.00  0.00     0.006 C 
BRANCH   5   6
ATOM      6  C   UNL     1       2.696   0.261  14.441  1.00  0.00     0.053 C 
BRANCH   6   7
ATOM      7  C   UNL     1       1.540  -0.614  14.810  1.00  0.00     0.041 C 
ATOM      8  O   UNL     1       0.380  -0.131  14.894  1.00  0.00    -0.550 OA
ATOM      9  O   UNL     1       1.750  -1.954  15.111  1.00  0.00    -0.550 OA
ENDBRANCH   6   7
ENDBRANCH   5   6
ENDBRANCH   4   5
ENDBRANCH   3   4
ENDBRANCH   2   3
ENDBRANCH   1   2
BRANCH   1  10
ATOM     10  C   UNL     1       6.292  -0.103  12.875  1.00  0.00     0.000 C 
BRANCH  10  11
ATOM     11  C   UNL     1       6.045  -1.298  13.821  1.00  0.00    -0.000 C 
BRANCH  11  12
ATOM     12  C   UNL     1       6.208  -0.952  15.313  1.00  0.00    -0.000 C 
BRANCH  12  13
ATOM     13  C   UNL     1       5.345  -1.790  16.275  1.00  0.00    -0.000 C 
BRANCH  13  14
ATOM     14  C   UNL     1       5.654  -1.587  17.770  1.00  0.00    -0.000 C 
BRANCH  14  15
ATOM     15  C   UNL     1       5.793  -0.107  18.156  1.00  0.00    -0.000 C 
BRANCH  15  16
ATOM     16  C   UNL     1       4.850   0.250  19.311  1.00  0.00    -0.003 C 
ATOM     17  C   UNL     1       4.101   1.549  19.032  1.00  0.00     0.004 C 
ENDBRANCH  15  16
ENDBRANCH  14  15
ENDBRANCH  13  14
ENDBRANCH  12  13
ENDBRANCH  11  12
ENDBRANCH  10  11
ENDBRANCH   1  10
TORSDOF 13
ENDMDL
MODEL 7
REMARK VINA RESULT:    -4.104      2.099      5.228
REMARK INTER + INTRA:          -9.273
REMARK INTER:                  -7.534
REMARK INTRA:                  -1.739
REMARK UNBOUND:                -2.051
REMARK SMILES CCCCCCCCCCCCCCC(=O)[O-]
REMARK SMILES IDX 9 1 10 2 11 3 12 4 13 5 14 6 15 7 16 8 17 9 8 10 7 11 6 12
REMARK SMILES IDX 5 13 4 14 3 15 2 16 1 17
REMARK H PARENT
REMARK Flexibility Score: inf
ROOT
ATOM      1  C   UNL     1       5.204  -1.715  16.659  1.00  0.00     0.000 C 
ENDROOT
BRANCH   1   2
ATOM      2  C   UNL     1       6.399  -2.125  15.782  1.00  0.00     0.000 C 
BRANCH   2   3
ATOM      3  C   UNL     1       6.336  -1.510  14.375  1.00  0.00     0.000 C 
BRANCH   3   4
ATOM      4  C   UNL     1       5.213  -0.471  14.280  1.00  0.00     0.000 C 
BRANCH   4   5
ATOM      5  C   UNL     1       4.022  -1.017  13.484  1.00  0.00     0.006 C 
BRANCH   5   6
ATOM      6  C   UNL     1       2.776  -0.152  13.696  1.00  0.00     0.053 C 
BRANCH   6   7
ATOM      7  C   UNL     1       1.841  -0.807  14.663  1.00  0.00     0.041 C 
ATOM      8  O   UNL     1       1.987  -2.021  14.962  1.00  0.00    -0.550 OA
ATOM      9  O   UNL     1       0.777  -0.089  15.194  1.00  0.00    -0.550 OA
ENDBRANCH   6   7
ENDBRANCH   5   6
ENDBRANCH   4   5
ENDBRANCH   3   4
ENDBRANCH   2   3
ENDBRANCH   1   2
BRANCH   1  10
ATOM     10  C   UNL     1       5.541  -1.726  18.161  1.00  0.00     0.000 C 
BRANCH  10  11
ATOM     11  C   UNL     1       5.554  -0.309  18.772  1.00  0.00    -0.000 C 
BRANCH  11  12
ATOM     12  C   UNL     1       5.359   0.816  17.737  1.00  0.00    -0.000 C 
BRANCH  12  13
ATOM     13  C   UNL     1       4.020   1.570  17.837  1.00  0.00    -0.000 C 
BRANCH  13  14
ATOM     14  C   UNL     1       3.410   1.993  16.488  1.00  0.00    -0.000 C 
BRANCH  14  15
ATOM     15  C   UNL     1       4.371   2.834  15.635  1.00  0.00    -0.000 C 
BRANCH  15  16
ATOM     16  C   UNL     1       3.623   3.537  14.497  1.00  0.00    -0.003 C 
ATOM     17  C   UNL     1       4.335   3.340  13.162  1.00  0.00     0.004 C 
ENDBRANCH  15  16
ENDBRANCH  14  15
ENDBRANCH  13  14
ENDBRANCH  12  13
ENDBRANCH  11  12
ENDBRANCH  10  11
ENDBRANCH   1  10
TORSDOF 13
ENDMDL
MODEL 8
REMARK VINA RESULT:    -4.062      1.941      4.415
REMARK INTER + INTRA:          -9.199
REMARK INTER:                  -7.536
REMARK INTRA:                  -1.663
REMARK UNBOUND:                -2.051
REMARK SMILES CCCCCCCCCCCCCCC(=O)[O-]
REMARK SMILES IDX 9 1 10 2 11 3 12 4 13 5 14 6 15 7 16 8 17 9 8 10 7 11 6 12
REMARK SMILES IDX 5 13 4 14 3 15 2 16 1 17
REMARK H PARENT
REMARK Flexibility Score: inf
ROOT
ATOM      1  C   UNL     1       4.052   3.602  14.356  1.00  0.00     0.000 C 
ENDROOT
BRANCH   1   2
ATOM      2  C   UNL     1       4.422   2.775  13.114  1.00  0.00     0.000 C 
BRANCH   2   3
ATOM      3  C   UNL     1       5.584   1.805  13.377  1.00  0.00     0.000 C 
BRANCH   3   4
ATOM      4  C   UNL     1       5.168   0.358  13.086  1.00  0.00     0.000 C 
BRANCH   4   5
ATOM      5  C   UNL     1       3.649   0.187  13.210  1.00  0.00     0.006 C 
BRANCH   5   6
ATOM      6  C   UNL     1       3.296  -1.197  13.763  1.00  0.00     0.053 C 
BRANCH   6   7
ATOM      7  C   UNL     1       2.117  -1.110  14.680  1.00  0.00     0.041 C 
ATOM      8  O   UNL     1       1.924  -1.998  15.551  1.00  0.00    -0.550 OA
ATOM      9  O   UNL     1       1.202  -0.074  14.538  1.00  0.00    -0.550 OA
ENDBRANCH   6   7
ENDBRANCH   5   6
ENDBRANCH   4   5
ENDBRANCH   3   4
ENDBRANCH   2   3
ENDBRANCH   1   2
BRANCH   1  10
ATOM     10  C   UNL     1       4.602   2.993  15.659  1.00  0.00     0.000 C 
BRANCH  10  11
ATOM     11  C   UNL     1       3.563   2.106  16.378  1.00  0.00    -0.000 C 
BRANCH  11  12
ATOM     12  C   UNL     1       4.005   1.647  17.781  1.00  0.00    -0.000 C 
BRANCH  12  13
ATOM     13  C   UNL     1       5.331   0.866  17.826  1.00  0.00    -0.000 C 
BRANCH  13  14
ATOM     14  C   UNL     1       5.333  -0.358  18.760  1.00  0.00    -0.000 C 
BRANCH  14  15
ATOM     15  C   UNL     1       5.859  -1.630  18.079  1.00  0.00    -0.000 C 
BRANCH  15  16
ATOM     16  C   UNL     1       5.274  -1.779  16.670  1.00  0.00    -0.003 C 
ATOM     17  C   UNL     1       6.369  -2.044  15.641  1.00  0.00     0.004 C 
ENDBRANCH  15  16
ENDBRANCH  14  15
ENDBRANCH  13  14
ENDBRANCH  12  13
ENDBRANCH  11  12
ENDBRANCH  10  11
ENDBRANCH   1  10
TORSDOF 13
ENDMDL
MODEL 9
REMARK VINA RESULT:    -3.950      2.682      4.460
REMARK INTER + INTRA:          -9.004
REMARK INTER:                  -7.317
REMARK INTRA:                  -1.686
REMARK UNBOUND:                -2.051
REMARK SMILES CCCCCCCCCCCCCCC(=O)[O-]
REMARK SMILES IDX 9 1 10 2 11 3 12 4 13 5 14 6 15 7 16 8 17 9 8 10 7 11 6 12
REMARK SMILES IDX 5 13 4 14 3 15 2 16 1 17
REMARK H PARENT
REMARK Flexibility Score: inf
ROOT
ATOM      1  C   UNL     1       5.810  -0.253  19.332  1.00  0.00     0.000 C 
ENDROOT
BRANCH   1   2
ATOM      2  C   UNL     1       4.378   0.246  19.080  1.00  0.00     0.000 C 
BRANCH   2   3
ATOM      3  C   UNL     1       4.344   1.666  18.492  1.00  0.00     0.000 C 
BRANCH   3   4
ATOM      4  C   UNL     1       3.807   1.652  17.056  1.00  0.00     0.000 C 
BRANCH   4   5
ATOM      5  C   UNL     1       4.872   2.140  16.066  1.00  0.00     0.006 C 
BRANCH   5   6
ATOM      6  C   UNL     1       4.543   3.547  15.556  1.00  0.00     0.053 C 
BRANCH   6   7
ATOM      7  C   UNL     1       3.863   3.476  14.225  1.00  0.00     0.041 C 
ATOM      8  O   UNL     1       2.864   4.204  13.984  1.00  0.00    -0.550 OA
ATOM      9  O   UNL     1       4.300   2.568  13.269  1.00  0.00    -0.550 OA
ENDBRANCH   6   7
ENDBRANCH   5   6
ENDBRANCH   4   5
ENDBRANCH   3   4
ENDBRANCH   2   3
ENDBRANCH   1   2
BRANCH   1  10
ATOM     10  C   UNL     1       6.171  -1.477  18.470  1.00  0.00     0.000 C 
BRANCH  10  11
ATOM     11  C   UNL     1       5.239  -1.633  17.250  1.00  0.00    -0.000 C 
BRANCH  11  12
ATOM     12  C   UNL     1       5.985  -1.924  15.933  1.00  0.00    -0.000 C 
BRANCH  12  13
ATOM     13  C   UNL     1       5.523  -1.089  14.724  1.00  0.00    -0.000 C 
BRANCH  13  14
ATOM     14  C   UNL     1       4.280  -1.634  13.996  1.00  0.00    -0.000 C 
BRANCH  14  15
ATOM     15  C   UNL     1       3.113  -0.635  13.977  1.00  0.00    -0.000 C 
BRANCH  15  16
ATOM     16  C   UNL     1       2.051  -1.011  15.016  1.00  0.00    -0.003 C 
ATOM     17  C   UNL     1       0.881  -0.033  14.990  1.00  0.00     0.004 C 
ENDBRANCH  15  16
ENDBRANCH  14  15
ENDBRANCH  13  14
ENDBRANCH  12  13
ENDBRANCH  11  12
ENDBRANCH  10  11
ENDBRANCH   1  10
TORSDOF 13
ENDMDL
