MODEL 1
REMARK VINA RESULT:    -8.222      0.000      0.000
REMARK INTER + INTRA:         -13.381
REMARK INTER:                 -11.346
REMARK INTRA:                  -2.035
REMARK UNBOUND:                -2.035
REMARK SMILES CC[C@@H](CC[C@@H](C)[C@@H]1CC[C@H]2[C@H]3CC=C4C[C@H](O)CC[C@@]4(C)[C@H]3CC[C@]21C)C(C)C
REMARK SMILES IDX 5 1 4 2 3 3 2 4 1 5 28 6 29 7 30 8 6 9 7 10 8 11 9 12 26 13
REMARK SMILES IDX 10 14 11 15 25 16 27 17 12 18 24 19 23 20 13 21 21 22 14 23
REMARK SMILES IDX 15 24 20 25 22 26 16 27 19 28 17 29 18 30
REMARK H PARENT 18 31
REMARK Flexibility Score: inf
ROOT
ATOM      1  C   UNL     1      -1.491  25.938  49.564  1.00  0.00     0.004 C 
ENDROOT
BRANCH   1   2
ATOM      2  C   UNL     1      -0.868  25.975  50.982  1.00  0.00     0.004 C 
BRANCH   2   3
ATOM      3  C   UNL     1      -1.592  25.110  52.053  1.00  0.00    -0.009 C 
BRANCH   3   4
ATOM      4  C   UNL     1      -1.961  25.956  53.303  1.00  0.00     0.000 C 
ATOM      5  C   UNL     1      -3.441  26.345  53.353  1.00  0.00     0.004 C 
ENDBRANCH   3   4
BRANCH   3   6
ATOM      6  C   UNL     1      -0.925  23.727  52.376  1.00  0.00    -0.014 C 
ATOM      7  C   UNL     1      -0.529  23.511  53.846  1.00  0.00     0.007 C 
ATOM      8  C   UNL     1       0.272  23.430  51.459  1.00  0.00     0.007 C 
ENDBRANCH   3   6
ENDBRANCH   2   3
ENDBRANCH   1   2
BRANCH   1   9
ATOM      9  C   UNL     1      -3.045  25.966  49.566  1.00  0.00    -0.011 C 
ATOM     10  C   UNL     1      -3.533  27.389  49.202  1.00  0.00     0.008 C 
BRANCH   9  11
ATOM     11  C   UNL     1      -3.614  24.841  48.624  1.00  0.00    -0.002 C 
ATOM     12  C   UNL     1      -4.930  25.161  47.919  1.00  0.00     0.005 C 
ATOM     13  C   UNL     1      -3.795  23.399  49.205  1.00  0.00    -0.026 C 
ATOM     14  C   UNL     1      -5.319  23.845  47.268  1.00  0.00     0.005 C 
ATOM     15  C   UNL     1      -4.869  22.758  48.261  1.00  0.00    -0.001 C 
ATOM     16  C   UNL     1      -2.441  22.636  49.179  1.00  0.00     0.007 C 
ATOM     17  C   UNL     1      -4.334  23.396  50.660  1.00  0.00     0.012 C 
ATOM     18  C   UNL     1      -4.485  21.390  47.624  1.00  0.00     0.000 C 
ATOM     19  C   UNL     1      -2.568  21.103  49.308  1.00  0.00     0.005 C 
ATOM     20  C   UNL     1      -3.862  20.471  48.702  1.00  0.00     0.003 C 
ATOM     21  C   UNL     1      -3.603  21.450  46.351  1.00  0.00     0.031 C 
ATOM     22  C   UNL     1      -3.642  19.017  48.133  1.00  0.00    -0.008 C 
ATOM     23  C   UNL     1      -2.865  20.166  46.037  1.00  0.00    -0.027 C 
ATOM     24  C   UNL     1      -2.806  19.088  46.854  1.00  0.00    -0.065 C 
ATOM     25  C   UNL     1      -2.949  18.111  49.208  1.00  0.00     0.014 C 
ATOM     26  C   UNL     1      -5.014  18.374  47.778  1.00  0.00     0.016 C 
ATOM     27  C   UNL     1      -2.115  17.835  46.356  1.00  0.00     0.063 C 
ATOM     28  C   UNL     1      -2.377  16.804  48.641  1.00  0.00     0.033 C 
ATOM     29  C   UNL     1      -1.404  17.091  47.491  1.00  0.00     0.118 C 
BRANCH  29  30
ATOM     30  O   UNL     1      -0.887  15.884  46.992  1.00  0.00    -0.393 OA
ATOM     31  H   UNL     1      -0.921  15.228  47.735  1.00  0.00     0.210 HD
ENDBRANCH  29  30
ENDBRANCH   9  11
ENDBRANCH   1   9
TORSDOF 7
ENDMDL
MODEL 2
REMARK VINA RESULT:    -7.663      1.338      1.997
REMARK INTER + INTRA:         -12.610
REMARK INTER:                 -10.431
REMARK INTRA:                  -2.179
REMARK UNBOUND:                -2.035
REMARK SMILES CC[C@@H](CC[C@@H](C)[C@@H]1CC[C@H]2[C@H]3CC=C4C[C@H](O)CC[C@@]4(C)[C@H]3CC[C@]21C)C(C)C
REMARK SMILES IDX 5 1 4 2 3 3 2 4 1 5 28 6 29 7 30 8 6 9 7 10 8 11 9 12 26 13
REMARK SMILES IDX 10 14 11 15 25 16 27 17 12 18 24 19 23 20 13 21 21 22 14 23
REMARK SMILES IDX 15 24 20 25 22 26 16 27 19 28 17 29 18 30
REMARK H PARENT 18 31
REMARK Flexibility Score: inf
ROOT
ATOM      1  C   UNL     1      -3.562  26.428  51.501  1.00  0.00     0.004 C 
ENDROOT
BRANCH   1   2
ATOM      2  C   UNL     1      -3.140  25.198  52.341  1.00  0.00     0.004 C 
BRANCH   2   3
ATOM      3  C   UNL     1      -1.618  24.877  52.339  1.00  0.00    -0.009 C 
BRANCH   3   4
ATOM      4  C   UNL     1      -0.840  25.848  51.408  1.00  0.00     0.000 C 
ATOM      5  C   UNL     1       0.163  26.728  52.157  1.00  0.00     0.004 C 
ENDBRANCH   3   4
BRANCH   3   6
ATOM      6  C   UNL     1      -1.241  23.364  52.163  1.00  0.00    -0.014 C 
ATOM      7  C   UNL     1      -0.592  22.697  53.387  1.00  0.00     0.007 C 
ATOM      8  C   UNL     1      -0.381  23.120  50.913  1.00  0.00     0.007 C 
ENDBRANCH   3   6
ENDBRANCH   2   3
ENDBRANCH   1   2
BRANCH   1   9
ATOM      9  C   UNL     1      -4.515  26.081  50.323  1.00  0.00    -0.011 C 
ATOM     10  C   UNL     1      -5.225  27.370  49.841  1.00  0.00     0.008 C 
BRANCH   9  11
ATOM     11  C   UNL     1      -3.730  25.328  49.186  1.00  0.00    -0.002 C 
ATOM     12  C   UNL     1      -3.411  26.147  47.937  1.00  0.00     0.005 C 
ATOM     13  C   UNL     1      -4.300  23.970  48.656  1.00  0.00    -0.026 C 
ATOM     14  C   UNL     1      -2.852  25.121  46.967  1.00  0.00     0.005 C 
ATOM     15  C   UNL     1      -3.661  23.837  47.232  1.00  0.00    -0.001 C 
ATOM     16  C   UNL     1      -3.894  22.809  49.607  1.00  0.00     0.007 C 
ATOM     17  C   UNL     1      -5.845  23.975  48.518  1.00  0.00     0.012 C 
ATOM     18  C   UNL     1      -2.908  22.504  46.946  1.00  0.00     0.000 C 
ATOM     19  C   UNL     1      -4.011  21.402  48.985  1.00  0.00     0.005 C 
ATOM     20  C   UNL     1      -3.756  21.311  47.446  1.00  0.00     0.003 C 
ATOM     21  C   UNL     1      -1.448  22.418  47.458  1.00  0.00     0.031 C 
ATOM     22  C   UNL     1      -3.111  19.944  46.998  1.00  0.00    -0.008 C 
ATOM     23  C   UNL     1      -0.915  21.008  47.600  1.00  0.00    -0.027 C 
ATOM     24  C   UNL     1      -1.658  19.883  47.471  1.00  0.00    -0.065 C 
ATOM     25  C   UNL     1      -3.938  18.740  47.566  1.00  0.00     0.014 C 
ATOM     26  C   UNL     1      -3.118  19.839  45.445  1.00  0.00     0.016 C 
ATOM     27  C   UNL     1      -0.960  18.540  47.536  1.00  0.00     0.063 C 
ATOM     28  C   UNL     1      -3.204  17.393  47.488  1.00  0.00     0.033 C 
ATOM     29  C   UNL     1      -1.844  17.474  48.193  1.00  0.00     0.118 C 
BRANCH  29  30
ATOM     30  O   UNL     1      -1.194  16.232  48.116  1.00  0.00    -0.393 OA
ATOM     31  H   UNL     1      -1.250  15.821  49.017  1.00  0.00     0.210 HD
ENDBRANCH  29  30
ENDBRANCH   9  11
ENDBRANCH   1   9
TORSDOF 7
ENDMDL
MODEL 3
REMARK VINA RESULT:    -7.499      1.768      3.521
REMARK INTER + INTRA:         -12.383
REMARK INTER:                 -10.013
REMARK INTRA:                  -2.370
REMARK UNBOUND:                -2.035
REMARK SMILES CC[C@@H](CC[C@@H](C)[C@@H]1CC[C@H]2[C@H]3CC=C4C[C@H](O)CC[C@@]4(C)[C@H]3CC[C@]21C)C(C)C
REMARK SMILES IDX 5 1 4 2 3 3 2 4 1 5 28 6 29 7 30 8 6 9 7 10 8 11 9 12 26 13
REMARK SMILES IDX 10 14 11 15 25 16 27 17 12 18 24 19 23 20 13 21 21 22 14 23
REMARK SMILES IDX 15 24 20 25 22 26 16 27 19 28 17 29 18 30
REMARK H PARENT 18 31
REMARK Flexibility Score: inf
ROOT
ATOM      1  C   UNL     1      -2.311  27.152  49.110  1.00  0.00     0.004 C 
ENDROOT
BRANCH   1   2
ATOM      2  C   UNL     1      -1.912  26.495  47.766  1.00  0.00     0.004 C 
BRANCH   2   3
ATOM      3  C   UNL     1      -2.383  27.248  46.488  1.00  0.00    -0.009 C 
BRANCH   3   4
ATOM      4  C   UNL     1      -3.525  28.249  46.814  1.00  0.00     0.000 C 
ATOM      5  C   UNL     1      -4.857  27.880  46.158  1.00  0.00     0.004 C 
ENDBRANCH   3   4
BRANCH   3   6
ATOM      6  C   UNL     1      -2.644  26.351  45.227  1.00  0.00    -0.014 C 
ATOM      7  C   UNL     1      -2.854  24.854  45.511  1.00  0.00     0.007 C 
ATOM      8  C   UNL     1      -1.565  26.535  44.148  1.00  0.00     0.007 C 
ENDBRANCH   3   6
ENDBRANCH   2   3
ENDBRANCH   1   2
BRANCH   1   9
ATOM      9  C   UNL     1      -3.243  26.268  49.983  1.00  0.00    -0.011 C 
ATOM     10  C   UNL     1      -4.282  27.166  50.698  1.00  0.00     0.008 C 
BRANCH   9  11
ATOM     11  C   UNL     1      -3.886  25.124  49.114  1.00  0.00    -0.002 C 
ATOM     12  C   UNL     1      -5.350  25.322  48.725  1.00  0.00     0.005 C 
ATOM     13  C   UNL     1      -3.790  23.649  49.627  1.00  0.00    -0.026 C 
ATOM     14  C   UNL     1      -5.735  23.999  48.088  1.00  0.00     0.005 C 
ATOM     15  C   UNL     1      -4.972  22.930  48.893  1.00  0.00    -0.001 C 
ATOM     16  C   UNL     1      -2.404  23.045  49.267  1.00  0.00     0.007 C 
ATOM     17  C   UNL     1      -3.997  23.526  51.159  1.00  0.00     0.012 C 
ATOM     18  C   UNL     1      -4.599  21.640  48.103  1.00  0.00     0.000 C 
ATOM     19  C   UNL     1      -2.344  21.504  49.321  1.00  0.00     0.005 C 
ATOM     20  C   UNL     1      -3.668  20.754  48.964  1.00  0.00     0.003 C 
ATOM     21  C   UNL     1      -4.026  21.851  46.679  1.00  0.00     0.031 C 
ATOM     22  C   UNL     1      -3.431  19.359  48.271  1.00  0.00    -0.008 C 
ATOM     23  C   UNL     1      -3.248  20.672  46.135  1.00  0.00    -0.027 C 
ATOM     24  C   UNL     1      -2.903  19.575  46.851  1.00  0.00    -0.065 C 
ATOM     25  C   UNL     1      -2.433  18.494  49.114  1.00  0.00     0.014 C 
ATOM     26  C   UNL     1      -4.774  18.581  48.173  1.00  0.00     0.016 C 
ATOM     27  C   UNL     1      -2.214  18.429  46.139  1.00  0.00     0.063 C 
ATOM     28  C   UNL     1      -1.868  17.284  48.357  1.00  0.00     0.033 C 
ATOM     29  C   UNL     1      -1.201  17.725  47.048  1.00  0.00     0.118 C 
BRANCH  29  30
ATOM     30  O   UNL     1      -0.686  16.605  46.375  1.00  0.00    -0.393 OA
ATOM     31  H   UNL     1       0.062  16.927  45.810  1.00  0.00     0.210 HD
ENDBRANCH  29  30
ENDBRANCH   9  11
ENDBRANCH   1   9
TORSDOF 7
ENDMDL
MODEL 4
REMARK VINA RESULT:    -7.274      3.174      8.047
REMARK INTER + INTRA:         -12.073
REMARK INTER:                 -10.681
REMARK INTRA:                  -1.393
REMARK UNBOUND:                -2.035
REMARK SMILES CC[C@@H](CC[C@@H](C)[C@@H]1CC[C@H]2[C@H]3CC=C4C[C@H](O)CC[C@@]4(C)[C@H]3CC[C@]21C)C(C)C
REMARK SMILES IDX 5 1 4 2 3 3 2 4 1 5 28 6 29 7 30 8 6 9 7 10 8 11 9 12 26 13
REMARK SMILES IDX 10 14 11 15 25 16 27 17 12 18 24 19 23 20 13 21 21 22 14 23
REMARK SMILES IDX 15 24 20 25 22 26 16 27 19 28 17 29 18 30
REMARK H PARENT 18 31
REMARK Flexibility Score: inf
ROOT
ATOM      1  C   UNL     1      -1.440  19.835  47.219  1.00  0.00     0.004 C 
ENDROOT
BRANCH   1   2
ATOM      2  C   UNL     1      -1.376  18.494  46.447  1.00  0.00     0.004 C 
BRANCH   2   3
ATOM      3  C   UNL     1      -2.362  17.394  46.936  1.00  0.00    -0.009 C 
BRANCH   3   4
ATOM      4  C   UNL     1      -3.512  17.174  45.914  1.00  0.00     0.000 C 
ATOM      5  C   UNL     1      -3.051  16.484  44.628  1.00  0.00     0.004 C 
ENDBRANCH   3   4
BRANCH   3   6
ATOM      6  C   UNL     1      -2.833  17.516  48.428  1.00  0.00    -0.014 C 
ATOM      7  C   UNL     1      -2.626  16.261  49.292  1.00  0.00     0.007 C 
ATOM      8  C   UNL     1      -4.287  18.000  48.542  1.00  0.00     0.007 C 
ENDBRANCH   3   6
ENDBRANCH   2   3
ENDBRANCH   1   2
BRANCH   1   9
ATOM      9  C   UNL     1      -2.196  20.958  46.454  1.00  0.00    -0.011 C 
ATOM     10  C   UNL     1      -2.826  20.370  45.169  1.00  0.00     0.008 C 
BRANCH   9  11
ATOM     11  C   UNL     1      -3.234  21.664  47.404  1.00  0.00    -0.002 C 
ATOM     12  C   UNL     1      -4.701  21.307  47.173  1.00  0.00     0.005 C 
ATOM     13  C   UNL     1      -3.200  23.224  47.522  1.00  0.00    -0.026 C 
ATOM     14  C   UNL     1      -5.452  22.274  48.072  1.00  0.00     0.005 C 
ATOM     15  C   UNL     1      -4.642  23.583  48.017  1.00  0.00    -0.001 C 
ATOM     16  C   UNL     1      -2.095  23.663  48.523  1.00  0.00     0.007 C 
ATOM     17  C   UNL     1      -2.942  23.928  46.164  1.00  0.00     0.012 C 
ATOM     18  C   UNL     1      -4.722  24.471  49.294  1.00  0.00     0.000 C 
ATOM     19  C   UNL     1      -2.246  25.105  49.050  1.00  0.00     0.005 C 
ATOM     20  C   UNL     1      -3.710  25.636  49.181  1.00  0.00     0.003 C 
ATOM     21  C   UNL     1      -4.590  23.733  50.650  1.00  0.00     0.031 C 
ATOM     22  C   UNL     1      -3.903  26.656  50.367  1.00  0.00    -0.008 C 
ATOM     23  C   UNL     1      -4.196  24.620  51.812  1.00  0.00    -0.027 C 
ATOM     24  C   UNL     1      -3.812  25.914  51.702  1.00  0.00    -0.065 C 
ATOM     25  C   UNL     1      -2.831  27.797  50.284  1.00  0.00     0.014 C 
ATOM     26  C   UNL     1      -5.310  27.314  50.276  1.00  0.00     0.016 C 
ATOM     27  C   UNL     1      -3.549  26.705  52.968  1.00  0.00     0.063 C 
ATOM     28  C   UNL     1      -2.709  28.627  51.570  1.00  0.00     0.033 C 
ATOM     29  C   UNL     1      -2.420  27.723  52.775  1.00  0.00     0.118 C 
BRANCH  29  30
ATOM     30  O   UNL     1      -2.305  28.502  53.938  1.00  0.00    -0.393 OA
ATOM     31  H   UNL     1      -2.101  29.427  53.645  1.00  0.00     0.210 HD
ENDBRANCH  29  30
ENDBRANCH   9  11
ENDBRANCH   1   9
TORSDOF 7
ENDMDL
MODEL 5
REMARK VINA RESULT:    -7.219      1.746      2.992
REMARK INTER + INTRA:         -11.997
REMARK INTER:                  -9.522
REMARK INTRA:                  -2.475
REMARK UNBOUND:                -2.035
REMARK SMILES CC[C@@H](CC[C@@H](C)[C@@H]1CC[C@H]2[C@H]3CC=C4C[C@H](O)CC[C@@]4(C)[C@H]3CC[C@]21C)C(C)C
REMARK SMILES IDX 5 1 4 2 3 3 2 4 1 5 28 6 29 7 30 8 6 9 7 10 8 11 9 12 26 13
REMARK SMILES IDX 10 14 11 15 25 16 27 17 12 18 24 19 23 20 13 21 21 22 14 23
REMARK SMILES IDX 15 24 20 25 22 26 16 27 19 28 17 29 18 30
REMARK H PARENT 18 31
REMARK Flexibility Score: inf
ROOT
ATOM      1  C   UNL     1      -1.975  26.840  48.675  1.00  0.00     0.004 C 
ENDROOT
BRANCH   1   2
ATOM      2  C   UNL     1      -1.993  26.428  47.183  1.00  0.00     0.004 C 
BRANCH   2   3
ATOM      3  C   UNL     1      -0.778  25.580  46.710  1.00  0.00    -0.009 C 
BRANCH   3   4
ATOM      4  C   UNL     1      -1.243  24.289  45.979  1.00  0.00     0.000 C 
ATOM      5  C   UNL     1      -2.480  24.504  45.104  1.00  0.00     0.004 C 
ENDBRANCH   3   4
BRANCH   3   6
ATOM      6  C   UNL     1       0.350  25.353  47.776  1.00  0.00    -0.014 C 
ATOM      7  C   UNL     1       1.555  26.304  47.678  1.00  0.00     0.007 C 
ATOM      8  C   UNL     1       0.833  23.894  47.812  1.00  0.00     0.007 C 
ENDBRANCH   3   6
ENDBRANCH   2   3
ENDBRANCH   1   2
BRANCH   1   9
ATOM      9  C   UNL     1      -2.975  26.039  49.555  1.00  0.00    -0.011 C 
ATOM     10  C   UNL     1      -3.995  27.014  50.192  1.00  0.00     0.008 C 
BRANCH   9  11
ATOM     11  C   UNL     1      -3.641  24.886  48.715  1.00  0.00    -0.002 C 
ATOM     12  C   UNL     1      -5.058  25.157  48.212  1.00  0.00     0.005 C 
ATOM     13  C   UNL     1      -3.687  23.446  49.326  1.00  0.00    -0.026 C 
ATOM     14  C   UNL     1      -5.495  23.823  47.634  1.00  0.00     0.005 C 
ATOM     15  C   UNL     1      -4.867  22.761  48.556  1.00  0.00    -0.001 C 
ATOM     16  C   UNL     1      -2.328  22.725  49.104  1.00  0.00     0.007 C 
ATOM     17  C   UNL     1      -4.003  23.442  50.844  1.00  0.00     0.012 C 
ATOM     18  C   UNL     1      -4.538  21.399  47.878  1.00  0.00     0.000 C 
ATOM     19  C   UNL     1      -2.384  21.191  49.259  1.00  0.00     0.005 C 
ATOM     20  C   UNL     1      -3.733  20.512  48.857  1.00  0.00     0.003 C 
ATOM     21  C   UNL     1      -3.858  21.472  46.488  1.00  0.00     0.031 C 
ATOM     22  C   UNL     1      -3.552  19.059  48.271  1.00  0.00    -0.008 C 
ATOM     23  C   UNL     1      -3.133  20.209  46.075  1.00  0.00    -0.027 C 
ATOM     24  C   UNL     1      -2.918  19.142  46.881  1.00  0.00    -0.065 C 
ATOM     25  C   UNL     1      -2.678  18.187  49.236  1.00  0.00     0.014 C 
ATOM     26  C   UNL     1      -4.940  18.370  48.128  1.00  0.00     0.016 C 
ATOM     27  C   UNL     1      -2.268  17.906  46.293  1.00  0.00     0.063 C 
ATOM     28  C   UNL     1      -2.154  16.893  48.598  1.00  0.00     0.033 C 
ATOM     29  C   UNL     1      -1.372  17.198  47.314  1.00  0.00     0.118 C 
BRANCH  29  30
ATOM     30  O   UNL     1      -0.896  16.002  46.752  1.00  0.00    -0.393 OA
ATOM     31  H   UNL     1      -1.671  15.387  46.685  1.00  0.00     0.210 HD
ENDBRANCH  29  30
ENDBRANCH   9  11
ENDBRANCH   1   9
TORSDOF 7
ENDMDL
MODEL 6
REMARK VINA RESULT:    -7.063      3.322      6.093
REMARK INTER + INTRA:         -11.782
REMARK INTER:                 -10.093
REMARK INTRA:                  -1.689
REMARK UNBOUND:                -2.035
REMARK SMILES CC[C@@H](CC[C@@H](C)[C@@H]1CC[C@H]2[C@H]3CC=C4C[C@H](O)CC[C@@]4(C)[C@H]3CC[C@]21C)C(C)C
REMARK SMILES IDX 5 1 4 2 3 3 2 4 1 5 28 6 29 7 30 8 6 9 7 10 8 11 9 12 26 13
REMARK SMILES IDX 10 14 11 15 25 16 27 17 12 18 24 19 23 20 13 21 21 22 14 23
REMARK SMILES IDX 15 24 20 25 22 26 16 27 19 28 17 29 18 30
REMARK H PARENT 18 31
REMARK Flexibility Score: inf
ROOT
ATOM      1  C   UNL     1      -5.948  28.790  46.426  1.00  0.00     0.004 C 
ENDROOT
BRANCH   1   2
ATOM      2  C   UNL     1      -7.179  27.859  46.312  1.00  0.00     0.004 C 
BRANCH   2   3
ATOM      3  C   UNL     1      -8.554  28.579  46.210  1.00  0.00    -0.009 C 
BRANCH   3   4
ATOM      4  C   UNL     1      -8.423  30.091  46.543  1.00  0.00     0.000 C 
ATOM      5  C   UNL     1      -8.811  31.002  45.376  1.00  0.00     0.004 C 
ENDBRANCH   3   4
BRANCH   3   6
ATOM      6  C   UNL     1      -9.755  27.858  46.918  1.00  0.00    -0.014 C 
ATOM      7  C   UNL     1     -11.094  28.612  46.882  1.00  0.00     0.007 C 
ATOM      8  C   UNL     1      -9.419  27.449  48.361  1.00  0.00     0.007 C 
ENDBRANCH   3   6
ENDBRANCH   2   3
ENDBRANCH   1   2
BRANCH   1   9
ATOM      9  C   UNL     1      -5.208  28.681  47.789  1.00  0.00    -0.011 C 
ATOM     10  C   UNL     1      -5.699  29.807  48.731  1.00  0.00     0.008 C 
BRANCH   9  11
ATOM     11  C   UNL     1      -5.375  27.235  48.388  1.00  0.00    -0.002 C 
ATOM     12  C   UNL     1      -6.003  27.156  49.779  1.00  0.00     0.005 C 
ATOM     13  C   UNL     1      -4.122  26.299  48.445  1.00  0.00    -0.026 C 
ATOM     14  C   UNL     1      -5.843  25.695  50.162  1.00  0.00     0.005 C 
ATOM     15  C   UNL     1      -4.486  25.271  49.570  1.00  0.00    -0.001 C 
ATOM     16  C   UNL     1      -3.894  25.622  47.065  1.00  0.00     0.007 C 
ATOM     17  C   UNL     1      -2.824  27.049  48.846  1.00  0.00     0.012 C 
ATOM     18  C   UNL     1      -4.368  23.768  49.182  1.00  0.00     0.000 C 
ATOM     19  C   UNL     1      -2.987  24.376  47.105  1.00  0.00     0.005 C 
ATOM     20  C   UNL     1      -3.044  23.530  48.419  1.00  0.00     0.003 C 
ATOM     21  C   UNL     1      -5.576  23.159  48.427  1.00  0.00     0.031 C 
ATOM     22  C   UNL     1      -2.807  21.990  48.183  1.00  0.00    -0.008 C 
ATOM     23  C   UNL     1      -5.264  21.891  47.660  1.00  0.00    -0.027 C 
ATOM     24  C   UNL     1      -4.020  21.387  47.473  1.00  0.00    -0.065 C 
ATOM     25  C   UNL     1      -1.499  21.761  47.350  1.00  0.00     0.014 C 
ATOM     26  C   UNL     1      -2.637  21.265  49.549  1.00  0.00     0.016 C 
ATOM     27  C   UNL     1      -3.875  20.051  46.773  1.00  0.00     0.063 C 
ATOM     28  C   UNL     1      -1.372  20.345  46.771  1.00  0.00     0.033 C 
ATOM     29  C   UNL     1      -2.601  19.993  45.924  1.00  0.00     0.118 C 
BRANCH  29  30
ATOM     30  O   UNL     1      -2.462  18.698  45.398  1.00  0.00    -0.393 OA
ATOM     31  H   UNL     1      -1.494  18.553  45.243  1.00  0.00     0.210 HD
ENDBRANCH  29  30
ENDBRANCH   9  11
ENDBRANCH   1   9
TORSDOF 7
ENDMDL
MODEL 7
REMARK VINA RESULT:    -7.025      3.340      8.109
REMARK INTER + INTRA:         -11.730
REMARK INTER:                 -10.266
REMARK INTRA:                  -1.464
REMARK UNBOUND:                -2.035
REMARK SMILES CC[C@@H](CC[C@@H](C)[C@@H]1CC[C@H]2[C@H]3CC=C4C[C@H](O)CC[C@@]4(C)[C@H]3CC[C@]21C)C(C)C
REMARK SMILES IDX 5 1 4 2 3 3 2 4 1 5 28 6 29 7 30 8 6 9 7 10 8 11 9 12 26 13
REMARK SMILES IDX 10 14 11 15 25 16 27 17 12 18 24 19 23 20 13 21 21 22 14 23
REMARK SMILES IDX 15 24 20 25 22 26 16 27 19 28 17 29 18 30
REMARK H PARENT 18 31
REMARK Flexibility Score: inf
ROOT
ATOM      1  C   UNL     1      -2.171  20.614  45.864  1.00  0.00     0.004 C 
ENDROOT
BRANCH   1   2
ATOM      2  C   UNL     1      -3.233  19.490  45.778  1.00  0.00     0.004 C 
BRANCH   2   3
ATOM      3  C   UNL     1      -2.702  18.049  46.025  1.00  0.00    -0.009 C 
BRANCH   3   4
ATOM      4  C   UNL     1      -2.899  17.154  44.771  1.00  0.00     0.000 C 
ATOM      5  C   UNL     1      -1.662  16.323  44.422  1.00  0.00     0.004 C 
ENDBRANCH   3   4
BRANCH   3   6
ATOM      6  C   UNL     1      -3.143  17.384  47.376  1.00  0.00    -0.014 C 
ATOM      7  C   UNL     1      -4.225  18.140  48.164  1.00  0.00     0.007 C 
ATOM      8  C   UNL     1      -1.947  17.073  48.290  1.00  0.00     0.007 C 
ENDBRANCH   3   6
ENDBRANCH   2   3
ENDBRANCH   1   2
BRANCH   1   9
ATOM      9  C   UNL     1      -1.414  20.653  47.221  1.00  0.00    -0.011 C 
ATOM     10  C   UNL     1       0.035  20.151  47.014  1.00  0.00     0.008 C 
BRANCH   9  11
ATOM     11  C   UNL     1      -1.503  22.091  47.856  1.00  0.00    -0.002 C 
ATOM     12  C   UNL     1      -0.408  22.446  48.860  1.00  0.00     0.005 C 
ATOM     13  C   UNL     1      -2.844  22.529  48.532  1.00  0.00    -0.026 C 
ATOM     14  C   UNL     1      -0.867  23.774  49.437  1.00  0.00     0.005 C 
ATOM     15  C   UNL     1      -2.402  23.668  49.513  1.00  0.00    -0.001 C 
ATOM     16  C   UNL     1      -3.852  23.022  47.456  1.00  0.00     0.007 C 
ATOM     17  C   UNL     1      -3.512  21.391  49.347  1.00  0.00     0.012 C 
ATOM     18  C   UNL     1      -3.171  25.016  49.380  1.00  0.00     0.000 C 
ATOM     19  C   UNL     1      -5.014  23.872  48.009  1.00  0.00     0.005 C 
ATOM     20  C   UNL     1      -4.689  24.740  49.267  1.00  0.00     0.003 C 
ATOM     21  C   UNL     1      -2.683  25.976  48.266  1.00  0.00     0.031 C 
ATOM     22  C   UNL     1      -5.505  26.088  49.326  1.00  0.00    -0.008 C 
ATOM     23  C   UNL     1      -3.697  27.018  47.846  1.00  0.00    -0.027 C 
ATOM     24  C   UNL     1      -4.990  27.046  48.250  1.00  0.00    -0.065 C 
ATOM     25  C   UNL     1      -7.035  25.806  49.141  1.00  0.00     0.014 C 
ATOM     26  C   UNL     1      -5.306  26.767  50.711  1.00  0.00     0.016 C 
ATOM     27  C   UNL     1      -5.859  28.214  47.827  1.00  0.00     0.063 C 
ATOM     28  C   UNL     1      -7.863  27.061  48.830  1.00  0.00     0.033 C 
ATOM     29  C   UNL     1      -7.311  27.784  47.595  1.00  0.00     0.118 C 
BRANCH  29  30
ATOM     30  O   UNL     1      -8.086  28.924  47.325  1.00  0.00    -0.393 OA
ATOM     31  H   UNL     1      -8.461  28.808  46.414  1.00  0.00     0.210 HD
ENDBRANCH  29  30
ENDBRANCH   9  11
ENDBRANCH   1   9
TORSDOF 7
ENDMDL
MODEL 8
REMARK VINA RESULT:    -6.896      2.730      7.302
REMARK INTER + INTRA:         -11.552
REMARK INTER:                  -9.781
REMARK INTRA:                  -1.771
REMARK UNBOUND:                -2.035
REMARK SMILES CC[C@@H](CC[C@@H](C)[C@@H]1CC[C@H]2[C@H]3CC=C4C[C@H](O)CC[C@@]4(C)[C@H]3CC[C@]21C)C(C)C
REMARK SMILES IDX 5 1 4 2 3 3 2 4 1 5 28 6 29 7 30 8 6 9 7 10 8 11 9 12 26 13
REMARK SMILES IDX 10 14 11 15 25 16 27 17 12 18 24 19 23 20 13 21 21 22 14 23
REMARK SMILES IDX 15 24 20 25 22 26 16 27 19 28 17 29 18 30
REMARK H PARENT 18 31
REMARK Flexibility Score: inf
ROOT
ATOM      1  C   UNL     1      -4.272  20.660  48.444  1.00  0.00     0.004 C 
ENDROOT
BRANCH   1   2
ATOM      2  C   UNL     1      -3.786  19.907  47.182  1.00  0.00     0.004 C 
BRANCH   2   3
ATOM      3  C   UNL     1      -2.414  19.187  47.320  1.00  0.00    -0.009 C 
BRANCH   3   4
ATOM      4  C   UNL     1      -2.443  18.136  48.464  1.00  0.00     0.000 C 
ATOM      5  C   UNL     1      -2.550  16.696  47.957  1.00  0.00     0.004 C 
ENDBRANCH   3   4
BRANCH   3   6
ATOM      6  C   UNL     1      -1.153  20.121  47.327  1.00  0.00    -0.014 C 
ATOM      7  C   UNL     1      -1.169  21.263  46.296  1.00  0.00     0.007 C 
ATOM      8  C   UNL     1       0.160  19.329  47.213  1.00  0.00     0.007 C 
ENDBRANCH   3   6
ENDBRANCH   2   3
ENDBRANCH   1   2
BRANCH   1   9
ATOM      9  C   UNL     1      -4.147  22.205  48.335  1.00  0.00    -0.011 C 
ATOM     10  C   UNL     1      -5.496  22.797  47.857  1.00  0.00     0.008 C 
BRANCH   9  11
ATOM     11  C   UNL     1      -3.636  22.811  49.695  1.00  0.00    -0.002 C 
ATOM     12  C   UNL     1      -4.604  23.747  50.416  1.00  0.00     0.005 C 
ATOM     13  C   UNL     1      -2.255  23.548  49.714  1.00  0.00    -0.026 C 
ATOM     14  C   UNL     1      -3.773  24.317  51.552  1.00  0.00     0.005 C 
ATOM     15  C   UNL     1      -2.356  24.477  50.971  1.00  0.00    -0.001 C 
ATOM     16  C   UNL     1      -1.097  22.516  49.821  1.00  0.00     0.007 C 
ATOM     17  C   UNL     1      -2.019  24.424  48.455  1.00  0.00     0.012 C 
ATOM     18  C   UNL     1      -1.194  24.355  52.001  1.00  0.00     0.000 C 
ATOM     19  C   UNL     1       0.249  23.112  50.281  1.00  0.00     0.005 C 
ATOM     20  C   UNL     1       0.162  24.330  51.256  1.00  0.00     0.003 C 
ATOM     21  C   UNL     1      -1.303  23.195  53.022  1.00  0.00     0.031 C 
ATOM     22  C   UNL     1       1.359  24.401  52.279  1.00  0.00    -0.008 C 
ATOM     23  C   UNL     1       0.006  22.806  53.674  1.00  0.00    -0.027 C 
ATOM     24  C   UNL     1       1.223  23.278  53.308  1.00  0.00    -0.065 C 
ATOM     25  C   UNL     1       2.728  24.306  51.522  1.00  0.00     0.014 C 
ATOM     26  C   UNL     1       1.326  25.759  53.039  1.00  0.00     0.016 C 
ATOM     27  C   UNL     1       2.434  22.876  54.125  1.00  0.00     0.063 C 
ATOM     28  C   UNL     1       3.924  24.011  52.438  1.00  0.00     0.033 C 
ATOM     29  C   UNL     1       3.684  22.732  53.250  1.00  0.00     0.118 C 
BRANCH  29  30
ATOM     30  O   UNL     1       4.791  22.477  54.075  1.00  0.00    -0.393 OA
ATOM     31  H   UNL     1       5.415  23.239  53.963  1.00  0.00     0.210 HD
ENDBRANCH  29  30
ENDBRANCH   9  11
ENDBRANCH   1   9
TORSDOF 7
ENDMDL
MODEL 9
REMARK VINA RESULT:    -6.738      1.793      4.033
REMARK INTER + INTRA:         -11.333
REMARK INTER:                 -10.143
REMARK INTRA:                  -1.190
REMARK UNBOUND:                -2.035
REMARK SMILES CC[C@@H](CC[C@@H](C)[C@@H]1CC[C@H]2[C@H]3CC=C4C[C@H](O)CC[C@@]4(C)[C@H]3CC[C@]21C)C(C)C
REMARK SMILES IDX 5 1 4 2 3 3 2 4 1 5 28 6 29 7 30 8 6 9 7 10 8 11 9 12 26 13
REMARK SMILES IDX 10 14 11 15 25 16 27 17 12 18 24 19 23 20 13 21 21 22 14 23
REMARK SMILES IDX 15 24 20 25 22 26 16 27 19 28 17 29 18 30
REMARK H PARENT 18 31
REMARK Flexibility Score: inf
ROOT
ATOM      1  C   UNL     1      -2.694  27.375  48.848  1.00  0.00     0.004 C 
ENDROOT
BRANCH   1   2
ATOM      2  C   UNL     1      -3.229  28.794  49.162  1.00  0.00     0.004 C 
BRANCH   2   3
ATOM      3  C   UNL     1      -4.369  29.299  48.232  1.00  0.00    -0.009 C 
BRANCH   3   4
ATOM      4  C   UNL     1      -4.278  28.646  46.825  1.00  0.00     0.000 C 
ATOM      5  C   UNL     1      -5.608  28.057  46.347  1.00  0.00     0.004 C 
ENDBRANCH   3   4
BRANCH   3   6
ATOM      6  C   UNL     1      -4.596  30.851  48.215  1.00  0.00    -0.014 C 
ATOM      7  C   UNL     1      -5.971  31.325  48.718  1.00  0.00     0.007 C 
ATOM      8  C   UNL     1      -4.298  31.469  46.840  1.00  0.00     0.007 C 
ENDBRANCH   3   6
ENDBRANCH   2   3
ENDBRANCH   1   2
BRANCH   1   9
ATOM      9  C   UNL     1      -3.247  26.276  49.797  1.00  0.00    -0.011 C 
ATOM     10  C   UNL     1      -4.216  26.920  50.818  1.00  0.00     0.008 C 
BRANCH   9  11
ATOM     11  C   UNL     1      -3.889  25.105  48.964  1.00  0.00    -0.002 C 
ATOM     12  C   UNL     1      -5.357  25.284  48.581  1.00  0.00     0.005 C 
ATOM     13  C   UNL     1      -3.780  23.646  49.517  1.00  0.00    -0.026 C 
ATOM     14  C   UNL     1      -5.739  23.941  47.984  1.00  0.00     0.005 C 
ATOM     15  C   UNL     1      -4.963  22.900  48.812  1.00  0.00    -0.001 C 
ATOM     16  C   UNL     1      -2.393  23.040  49.163  1.00  0.00     0.007 C 
ATOM     17  C   UNL     1      -3.975  23.564  51.054  1.00  0.00     0.012 C 
ATOM     18  C   UNL     1      -4.589  21.591  48.055  1.00  0.00     0.000 C 
ATOM     19  C   UNL     1      -2.323  21.501  49.260  1.00  0.00     0.005 C 
ATOM     20  C   UNL     1      -3.645  20.735  48.933  1.00  0.00     0.003 C 
ATOM     21  C   UNL     1      -4.027  21.765  46.622  1.00  0.00     0.031 C 
ATOM     22  C   UNL     1      -3.405  19.322  48.276  1.00  0.00    -0.008 C 
ATOM     23  C   UNL     1      -3.245  20.577  46.104  1.00  0.00    -0.027 C 
ATOM     24  C   UNL     1      -2.889  19.502  46.847  1.00  0.00    -0.065 C 
ATOM     25  C   UNL     1      -2.395  18.487  49.136  1.00  0.00     0.014 C 
ATOM     26  C   UNL     1      -4.744  18.533  48.211  1.00  0.00     0.016 C 
ATOM     27  C   UNL     1      -2.198  18.341  46.162  1.00  0.00     0.063 C 
ATOM     28  C   UNL     1      -1.829  17.259  48.408  1.00  0.00     0.033 C 
ATOM     29  C   UNL     1      -1.175  17.668  47.082  1.00  0.00     0.118 C 
BRANCH  29  30
ATOM     30  O   UNL     1      -0.658  16.533  46.437  1.00  0.00    -0.393 OA
ATOM     31  H   UNL     1       0.259  16.394  46.789  1.00  0.00     0.210 HD
ENDBRANCH  29  30
ENDBRANCH   9  11
ENDBRANCH   1   9
TORSDOF 7
ENDMDL
