MODEL 1
REMARK VINA RESULT:    -3.698      0.000      0.000
REMARK INTER + INTRA:          -7.386
REMARK INTER:                  -6.508
REMARK INTRA:                  -0.878
REMARK UNBOUND:                -0.878
REMARK SMILES CCCCCCCCCCCCCCC(=O)[O-]
REMARK SMILES IDX 9 1 10 2 11 3 12 4 13 5 14 6 15 7 16 8 17 9 8 10 7 11 6 12
REMARK SMILES IDX 5 13 4 14 3 15 2 16 1 17
REMARK H PARENT
REMARK Flexibility Score: inf
ROOT
ATOM      1  C   UNL     1       4.289   1.322  -9.113  1.00  0.00     0.000 C 
ENDROOT
BRANCH   1   2
ATOM      2  C   UNL     1       2.959   2.035  -9.402  1.00  0.00     0.000 C 
BRANCH   2   3
ATOM      3  C   UNL     1       1.768   1.064  -9.436  1.00  0.00     0.000 C 
BRANCH   3   4
ATOM      4  C   UNL     1       0.449   1.720  -8.989  1.00  0.00     0.000 C 
BRANCH   4   5
ATOM      5  C   UNL     1      -0.677   0.706  -8.699  1.00  0.00     0.006 C 
BRANCH   5   6
ATOM      6  C   UNL     1      -0.132  -0.692  -8.377  1.00  0.00     0.053 C 
BRANCH   6   7
ATOM      7  C   UNL     1      -0.199  -0.954  -6.906  1.00  0.00     0.041 C 
ATOM      8  O   UNL     1      -1.231  -0.645  -6.253  1.00  0.00    -0.550 OA
ATOM      9  O   UNL     1       0.859  -1.585  -6.263  1.00  0.00    -0.550 OA
ENDBRANCH   6   7
ENDBRANCH   5   6
ENDBRANCH   4   5
ENDBRANCH   3   4
ENDBRANCH   2   3
ENDBRANCH   1   2
BRANCH   1  10
ATOM     10  C   UNL     1       5.369   2.281  -8.582  1.00  0.00     0.000 C 
BRANCH  10  11
ATOM     11  C   UNL     1       6.251   1.642  -7.496  1.00  0.00    -0.000 C 
BRANCH  11  12
ATOM     12  C   UNL     1       5.533   0.613  -6.600  1.00  0.00    -0.000 C 
BRANCH  12  13
ATOM     13  C   UNL     1       5.798   0.763  -5.089  1.00  0.00    -0.000 C 
BRANCH  13  14
ATOM     14  C   UNL     1       5.372  -0.442  -4.232  1.00  0.00    -0.000 C 
BRANCH  14  15
ATOM     15  C   UNL     1       4.467  -1.422  -4.990  1.00  0.00    -0.000 C 
BRANCH  15  16
ATOM     16  C   UNL     1       3.607  -2.240  -4.018  1.00  0.00    -0.003 C 
ATOM     17  C   UNL     1       3.661  -1.658  -2.609  1.00  0.00     0.004 C 
ENDBRANCH  15  16
ENDBRANCH  14  15
ENDBRANCH  13  14
ENDBRANCH  12  13
ENDBRANCH  11  12
ENDBRANCH  10  11
ENDBRANCH   1  10
TORSDOF 13
ENDMDL
MODEL 2
REMARK VINA RESULT:    -3.573      6.186      9.708
REMARK INTER + INTRA:          -7.167
REMARK INTER:                  -5.024
REMARK INTRA:                  -2.142
REMARK UNBOUND:                -0.878
REMARK SMILES CCCCCCCCCCCCCCC(=O)[O-]
REMARK SMILES IDX 9 1 10 2 11 3 12 4 13 5 14 6 15 7 16 8 17 9 8 10 7 11 6 12
REMARK SMILES IDX 5 13 4 14 3 15 2 16 1 17
REMARK H PARENT
REMARK Flexibility Score: inf
ROOT
ATOM      1  C   UNL     1      -7.427  -2.543  -5.799  1.00  0.00     0.000 C 
ENDROOT
BRANCH   1   2
ATOM      2  C   UNL     1      -7.824  -1.527  -6.882  1.00  0.00     0.000 C 
BRANCH   2   3
ATOM      3  C   UNL     1      -6.604  -0.932  -7.604  1.00  0.00     0.000 C 
BRANCH   3   4
ATOM      4  C   UNL     1      -5.294  -1.668  -7.270  1.00  0.00     0.000 C 
BRANCH   4   5
ATOM      5  C   UNL     1      -4.186  -0.740  -6.730  1.00  0.00     0.006 C 
BRANCH   5   6
ATOM      6  C   UNL     1      -2.906  -0.812  -7.574  1.00  0.00     0.053 C 
BRANCH   6   7
ATOM      7  C   UNL     1      -1.780  -1.378  -6.769  1.00  0.00     0.041 C 
ATOM      8  O   UNL     1      -1.694  -2.620  -6.583  1.00  0.00    -0.550 OA
ATOM      9  O   UNL     1      -0.795  -0.537  -6.265  1.00  0.00    -0.550 OA
ENDBRANCH   6   7
ENDBRANCH   5   6
ENDBRANCH   4   5
ENDBRANCH   3   4
ENDBRANCH   2   3
ENDBRANCH   1   2
BRANCH   1  10
ATOM     10  C   UNL     1      -8.244  -2.375  -4.506  1.00  0.00     0.000 C 
BRANCH  10  11
ATOM     11  C   UNL     1      -7.376  -1.963  -3.303  1.00  0.00    -0.000 C 
BRANCH  11  12
ATOM     12  C   UNL     1      -5.909  -1.637  -3.644  1.00  0.00    -0.000 C 
BRANCH  12  13
ATOM     13  C   UNL     1      -4.869  -2.630  -3.087  1.00  0.00    -0.000 C 
BRANCH  13  14
ATOM     14  C   UNL     1      -4.179  -3.509  -4.143  1.00  0.00    -0.000 C 
BRANCH  14  15
ATOM     15  C   UNL     1      -4.913  -4.834  -4.388  1.00  0.00    -0.000 C 
BRANCH  15  16
ATOM     16  C   UNL     1      -5.592  -5.331  -3.106  1.00  0.00    -0.003 C 
ATOM     17  C   UNL     1      -7.033  -5.755  -3.372  1.00  0.00     0.004 C 
ENDBRANCH  15  16
ENDBRANCH  14  15
ENDBRANCH  13  14
ENDBRANCH  12  13
ENDBRANCH  11  12
ENDBRANCH  10  11
ENDBRANCH   1  10
TORSDOF 13
ENDMDL
MODEL 3
REMARK VINA RESULT:    -3.532      1.585      2.447
REMARK INTER + INTRA:          -7.094
REMARK INTER:                  -6.059
REMARK INTRA:                  -1.035
REMARK UNBOUND:                -0.878
REMARK SMILES CCCCCCCCCCCCCCC(=O)[O-]
REMARK SMILES IDX 9 1 10 2 11 3 12 4 13 5 14 6 15 7 16 8 17 9 8 10 7 11 6 12
REMARK SMILES IDX 5 13 4 14 3 15 2 16 1 17
REMARK H PARENT
REMARK Flexibility Score: inf
ROOT
ATOM      1  C   UNL     1       3.720   2.524  -9.140  1.00  0.00     0.000 C 
ENDROOT
BRANCH   1   2
ATOM      2  C   UNL     1       2.417   1.850  -9.597  1.00  0.00     0.000 C 
BRANCH   2   3
ATOM      3  C   UNL     1       1.193   2.766  -9.435  1.00  0.00     0.000 C 
BRANCH   3   4
ATOM      4  C   UNL     1      -0.080   1.998  -9.038  1.00  0.00     0.000 C 
BRANCH   4   5
ATOM      5  C   UNL     1       0.196   0.564  -8.539  1.00  0.00     0.006 C 
BRANCH   5   6
ATOM      6  C   UNL     1      -1.097  -0.208  -8.243  1.00  0.00     0.053 C 
BRANCH   6   7
ATOM      7  C   UNL     1      -1.045  -0.811  -6.875  1.00  0.00     0.041 C 
ATOM      8  O   UNL     1       0.064  -1.066  -6.336  1.00  0.00    -0.550 OA
ATOM      9  O   UNL     1      -2.221  -1.045  -6.174  1.00  0.00    -0.550 OA
ENDBRANCH   6   7
ENDBRANCH   5   6
ENDBRANCH   4   5
ENDBRANCH   3   4
ENDBRANCH   2   3
ENDBRANCH   1   2
BRANCH   1  10
ATOM     10  C   UNL     1       4.785   1.507  -8.693  1.00  0.00     0.000 C 
BRANCH  10  11
ATOM     11  C   UNL     1       4.241   0.070  -8.618  1.00  0.00    -0.000 C 
BRANCH  11  12
ATOM     12  C   UNL     1       4.646  -0.711  -7.352  1.00  0.00    -0.000 C 
BRANCH  12  13
ATOM     13  C   UNL     1       6.086  -0.460  -6.860  1.00  0.00    -0.000 C 
BRANCH  13  14
ATOM     14  C   UNL     1       6.301  -0.662  -5.350  1.00  0.00    -0.000 C 
BRANCH  14  15
ATOM     15  C   UNL     1       5.734   0.489  -4.508  1.00  0.00    -0.000 C 
BRANCH  15  16
ATOM     16  C   UNL     1       6.468   1.801  -4.808  1.00  0.00    -0.003 C 
ATOM     17  C   UNL     1       7.889   1.779  -4.255  1.00  0.00     0.004 C 
ENDBRANCH  15  16
ENDBRANCH  14  15
ENDBRANCH  13  14
ENDBRANCH  12  13
ENDBRANCH  11  12
ENDBRANCH  10  11
ENDBRANCH   1  10
TORSDOF 13
ENDMDL
MODEL 4
REMARK VINA RESULT:    -3.498      6.118      9.887
REMARK INTER + INTRA:          -7.034
REMARK INTER:                  -4.787
REMARK INTRA:                  -2.247
REMARK UNBOUND:                -0.878
REMARK SMILES CCCCCCCCCCCCCCC(=O)[O-]
REMARK SMILES IDX 9 1 10 2 11 3 12 4 13 5 14 6 15 7 16 8 17 9 8 10 7 11 6 12
REMARK SMILES IDX 5 13 4 14 3 15 2 16 1 17
REMARK H PARENT
REMARK Flexibility Score: inf
ROOT
ATOM      1  C   UNL     1      -6.754  -3.409  -7.150  1.00  0.00     0.000 C 
ENDROOT
BRANCH   1   2
ATOM      2  C   UNL     1      -7.461  -2.046  -7.080  1.00  0.00     0.000 C 
BRANCH   2   3
ATOM      3  C   UNL     1      -6.516  -0.877  -7.402  1.00  0.00     0.000 C 
BRANCH   3   4
ATOM      4  C   UNL     1      -5.120  -1.344  -7.852  1.00  0.00     0.000 C 
BRANCH   4   5
ATOM      5  C   UNL     1      -3.977  -0.429  -7.363  1.00  0.00     0.006 C 
BRANCH   5   6
ATOM      6  C   UNL     1      -2.620  -0.826  -7.961  1.00  0.00     0.053 C 
BRANCH   6   7
ATOM      7  C   UNL     1      -1.719  -1.368  -6.897  1.00  0.00     0.041 C 
ATOM      8  O   UNL     1      -1.718  -2.600  -6.633  1.00  0.00    -0.550 OA
ATOM      9  O   UNL     1      -0.843  -0.521  -6.230  1.00  0.00    -0.550 OA
ENDBRANCH   6   7
ENDBRANCH   5   6
ENDBRANCH   4   5
ENDBRANCH   3   4
ENDBRANCH   2   3
ENDBRANCH   1   2
BRANCH   1  10
ATOM     10  C   UNL     1      -7.149  -4.339  -5.990  1.00  0.00     0.000 C 
BRANCH  10  11
ATOM     11  C   UNL     1      -8.377  -3.833  -5.214  1.00  0.00    -0.000 C 
BRANCH  11  12
ATOM     12  C   UNL     1      -8.129  -3.551  -3.719  1.00  0.00    -0.000 C 
BRANCH  12  13
ATOM     13  C   UNL     1      -7.746  -2.097  -3.380  1.00  0.00    -0.000 C 
BRANCH  13  14
ATOM     14  C   UNL     1      -6.305  -1.905  -2.876  1.00  0.00    -0.000 C 
BRANCH  14  15
ATOM     15  C   UNL     1      -5.341  -1.453  -3.982  1.00  0.00    -0.000 C 
BRANCH  15  16
ATOM     16  C   UNL     1      -4.375  -2.581  -4.363  1.00  0.00    -0.003 C 
ATOM     17  C   UNL     1      -4.369  -3.683  -3.308  1.00  0.00     0.004 C 
ENDBRANCH  15  16
ENDBRANCH  14  15
ENDBRANCH  13  14
ENDBRANCH  12  13
ENDBRANCH  11  12
ENDBRANCH  10  11
ENDBRANCH   1  10
TORSDOF 13
ENDMDL
MODEL 5
REMARK VINA RESULT:    -3.488      4.496      6.773
REMARK INTER + INTRA:          -7.016
REMARK INTER:                  -5.861
REMARK INTRA:                  -1.155
REMARK UNBOUND:                -0.878
REMARK SMILES CCCCCCCCCCCCCCC(=O)[O-]
REMARK SMILES IDX 9 1 10 2 11 3 12 4 13 5 14 6 15 7 16 8 17 9 8 10 7 11 6 12
REMARK SMILES IDX 5 13 4 14 3 15 2 16 1 17
REMARK H PARENT
REMARK Flexibility Score: inf
ROOT
ATOM      1  C   UNL     1       7.527   3.745  -5.036  1.00  0.00     0.000 C 
ENDROOT
BRANCH   1   2
ATOM      2  C   UNL     1       6.866   2.618  -4.227  1.00  0.00     0.000 C 
BRANCH   2   3
ATOM      3  C   UNL     1       7.074   1.236  -4.868  1.00  0.00     0.000 C 
BRANCH   3   4
ATOM      4  C   UNL     1       5.751   0.496  -5.132  1.00  0.00     0.000 C 
BRANCH   4   5
ATOM      5  C   UNL     1       5.283  -0.374  -3.946  1.00  0.00     0.006 C 
BRANCH   5   6
ATOM      6  C   UNL     1       4.484  -1.601  -4.405  1.00  0.00     0.053 C 
BRANCH   6   7
ATOM      7  C   UNL     1       3.382  -1.899  -3.439  1.00  0.00     0.041 C 
ATOM      8  O   UNL     1       3.562  -1.741  -2.203  1.00  0.00    -0.550 OA
ATOM      9  O   UNL     1       2.138  -2.304  -3.907  1.00  0.00    -0.550 OA
ENDBRANCH   6   7
ENDBRANCH   5   6
ENDBRANCH   4   5
ENDBRANCH   3   4
ENDBRANCH   2   3
ENDBRANCH   1   2
BRANCH   1  10
ATOM     10  C   UNL     1       8.670   4.430  -4.268  1.00  0.00     0.000 C 
BRANCH  10  11
ATOM     11  C   UNL     1       9.005   3.723  -2.943  1.00  0.00    -0.000 C 
BRANCH  11  12
ATOM     12  C   UNL     1       9.154   4.660  -1.728  1.00  0.00    -0.000 C 
BRANCH  12  13
ATOM     13  C   UNL     1       8.280   5.930  -1.767  1.00  0.00    -0.000 C 
BRANCH  13  14
ATOM     14  C   UNL     1       6.888   5.780  -1.130  1.00  0.00    -0.000 C 
BRANCH  14  15
ATOM     15  C   UNL     1       5.776   5.572  -2.168  1.00  0.00    -0.000 C 
BRANCH  15  16
ATOM     16  C   UNL     1       5.539   6.850  -2.981  1.00  0.00    -0.003 C 
ATOM     17  C   UNL     1       4.059   7.218  -3.012  1.00  0.00     0.004 C 
ENDBRANCH  15  16
ENDBRANCH  14  15
ENDBRANCH  13  14
ENDBRANCH  12  13
ENDBRANCH  11  12
ENDBRANCH  10  11
ENDBRANCH   1  10
TORSDOF 13
ENDMDL
MODEL 6
REMARK VINA RESULT:    -3.471      7.664     10.931
REMARK INTER + INTRA:          -6.987
REMARK INTER:                  -4.547
REMARK INTRA:                  -2.441
REMARK UNBOUND:                -0.878
REMARK SMILES CCCCCCCCCCCCCCC(=O)[O-]
REMARK SMILES IDX 9 1 10 2 11 3 12 4 13 5 14 6 15 7 16 8 17 9 8 10 7 11 6 12
REMARK SMILES IDX 5 13 4 14 3 15 2 16 1 17
REMARK H PARENT
REMARK Flexibility Score: inf
ROOT
ATOM      1  C   UNL     1      -8.134  -3.491  -5.333  1.00  0.00     0.000 C 
ENDROOT
BRANCH   1   2
ATOM      2  C   UNL     1      -7.268  -4.539  -6.049  1.00  0.00     0.000 C 
BRANCH   2   3
ATOM      3  C   UNL     1      -6.375  -5.327  -5.077  1.00  0.00     0.000 C 
BRANCH   3   4
ATOM      4  C   UNL     1      -4.930  -5.479  -5.584  1.00  0.00     0.000 C 
BRANCH   4   5
ATOM      5  C   UNL     1      -3.961  -6.047  -4.525  1.00  0.00     0.006 C 
BRANCH   5   6
ATOM      6  C   UNL     1      -4.535  -5.952  -3.104  1.00  0.00     0.053 C 
BRANCH   6   7
ATOM      7  C   UNL     1      -3.431  -5.838  -2.101  1.00  0.00     0.041 C 
ATOM      8  O   UNL     1      -3.465  -6.515  -1.040  1.00  0.00    -0.550 OA
ATOM      9  O   UNL     1      -2.338  -5.020  -2.361  1.00  0.00    -0.550 OA
ENDBRANCH   6   7
ENDBRANCH   5   6
ENDBRANCH   4   5
ENDBRANCH   3   4
ENDBRANCH   2   3
ENDBRANCH   1   2
BRANCH   1  10
ATOM     10  C   UNL     1      -8.147  -3.680  -3.806  1.00  0.00     0.000 C 
BRANCH  10  11
ATOM     11  C   UNL     1      -8.310  -2.354  -3.043  1.00  0.00    -0.000 C 
BRANCH  11  12
ATOM     12  C   UNL     1      -6.991  -1.709  -2.575  1.00  0.00    -0.000 C 
BRANCH  12  13
ATOM     13  C   UNL     1      -5.753  -2.626  -2.640  1.00  0.00    -0.000 C 
BRANCH  13  14
ATOM     14  C   UNL     1      -4.679  -2.197  -3.654  1.00  0.00    -0.000 C 
BRANCH  14  15
ATOM     15  C   UNL     1      -5.219  -1.241  -4.726  1.00  0.00    -0.000 C 
BRANCH  15  16
ATOM     16  C   UNL     1      -4.750  -1.661  -6.124  1.00  0.00    -0.003 C 
ATOM     17  C   UNL     1      -3.304  -2.148  -6.098  1.00  0.00     0.004 C 
ENDBRANCH  15  16
ENDBRANCH  14  15
ENDBRANCH  13  14
ENDBRANCH  12  13
ENDBRANCH  11  12
ENDBRANCH  10  11
ENDBRANCH   1  10
TORSDOF 13
ENDMDL
MODEL 7
REMARK VINA RESULT:    -3.439      4.707      6.778
REMARK INTER + INTRA:          -6.930
REMARK INTER:                  -6.015
REMARK INTRA:                  -0.915
REMARK UNBOUND:                -0.878
REMARK SMILES CCCCCCCCCCCCCCC(=O)[O-]
REMARK SMILES IDX 9 1 10 2 11 3 12 4 13 5 14 6 15 7 16 8 17 9 8 10 7 11 6 12
REMARK SMILES IDX 5 13 4 14 3 15 2 16 1 17
REMARK H PARENT
REMARK Flexibility Score: inf
ROOT
ATOM      1  C   UNL     1       6.719   2.634  -4.070  1.00  0.00     0.000 C 
ENDROOT
BRANCH   1   2
ATOM      2  C   UNL     1       7.043   2.049  -5.454  1.00  0.00     0.000 C 
BRANCH   2   3
ATOM      3  C   UNL     1       5.993   1.027  -5.921  1.00  0.00     0.000 C 
BRANCH   3   4
ATOM      4  C   UNL     1       5.555   0.067  -4.801  1.00  0.00     0.000 C 
BRANCH   4   5
ATOM      5  C   UNL     1       4.769  -1.159  -5.312  1.00  0.00     0.006 C 
BRANCH   5   6
ATOM      6  C   UNL     1       4.631  -2.248  -4.240  1.00  0.00     0.053 C 
BRANCH   6   7
ATOM      7  C   UNL     1       3.406  -2.016  -3.413  1.00  0.00     0.041 C 
ATOM      8  O   UNL     1       3.503  -1.508  -2.265  1.00  0.00    -0.550 OA
ATOM      9  O   UNL     1       2.152  -2.315  -3.930  1.00  0.00    -0.550 OA
ENDBRANCH   6   7
ENDBRANCH   5   6
ENDBRANCH   4   5
ENDBRANCH   3   4
ENDBRANCH   2   3
ENDBRANCH   1   2
BRANCH   1  10
ATOM     10  C   UNL     1       7.402   3.991  -3.829  1.00  0.00     0.000 C 
BRANCH  10  11
ATOM     11  C   UNL     1       6.406   5.164  -3.812  1.00  0.00    -0.000 C 
BRANCH  11  12
ATOM     12  C   UNL     1       5.659   5.360  -2.477  1.00  0.00    -0.000 C 
BRANCH  12  13
ATOM     13  C   UNL     1       5.550   6.821  -1.996  1.00  0.00    -0.000 C 
BRANCH  13  14
ATOM     14  C   UNL     1       6.247   7.118  -0.657  1.00  0.00    -0.000 C 
BRANCH  14  15
ATOM     15  C   UNL     1       6.693   5.846   0.077  1.00  0.00    -0.000 C 
BRANCH  15  16
ATOM     16  C   UNL     1       8.197   5.885   0.378  1.00  0.00    -0.003 C 
ATOM     17  C   UNL     1       8.983   5.052  -0.630  1.00  0.00     0.004 C 
ENDBRANCH  15  16
ENDBRANCH  14  15
ENDBRANCH  13  14
ENDBRANCH  12  13
ENDBRANCH  11  12
ENDBRANCH  10  11
ENDBRANCH   1  10
TORSDOF 13
ENDMDL
MODEL 8
REMARK VINA RESULT:    -3.414      5.322      7.238
REMARK INTER + INTRA:          -6.886
REMARK INTER:                  -6.140
REMARK INTRA:                  -0.747
REMARK UNBOUND:                -0.878
REMARK SMILES CCCCCCCCCCCCCCC(=O)[O-]
REMARK SMILES IDX 9 1 10 2 11 3 12 4 13 5 14 6 15 7 16 8 17 9 8 10 7 11 6 12
REMARK SMILES IDX 5 13 4 14 3 15 2 16 1 17
REMARK H PARENT
REMARK Flexibility Score: inf
ROOT
ATOM      1  C   UNL     1       6.988   3.997  -5.108  1.00  0.00     0.000 C 
ENDROOT
BRANCH   1   2
ATOM      2  C   UNL     1       7.104   2.648  -4.382  1.00  0.00     0.000 C 
BRANCH   2   3
ATOM      3  C   UNL     1       6.361   1.520  -5.116  1.00  0.00     0.000 C 
BRANCH   3   4
ATOM      4  C   UNL     1       5.696   0.519  -4.154  1.00  0.00     0.000 C 
BRANCH   4   5
ATOM      5  C   UNL     1       5.108  -0.719  -4.863  1.00  0.00     0.006 C 
BRANCH   5   6
ATOM      6  C   UNL     1       4.986  -1.925  -3.922  1.00  0.00     0.053 C 
BRANCH   6   7
ATOM      7  C   UNL     1       3.611  -1.995  -3.338  1.00  0.00     0.041 C 
ATOM      8  O   UNL     1       3.390  -1.552  -2.180  1.00  0.00    -0.550 OA
ATOM      9  O   UNL     1       2.560  -2.504  -4.091  1.00  0.00    -0.550 OA
ENDBRANCH   6   7
ENDBRANCH   5   6
ENDBRANCH   4   5
ENDBRANCH   3   4
ENDBRANCH   2   3
ENDBRANCH   1   2
BRANCH   1  10
ATOM     10  C   UNL     1       6.790   5.174  -4.137  1.00  0.00     0.000 C 
BRANCH  10  11
ATOM     11  C   UNL     1       6.582   4.718  -2.682  1.00  0.00    -0.000 C 
BRANCH  11  12
ATOM     12  C   UNL     1       5.627   5.602  -1.856  1.00  0.00    -0.000 C 
BRANCH  12  13
ATOM     13  C   UNL     1       4.536   6.326  -2.669  1.00  0.00    -0.000 C 
BRANCH  13  14
ATOM     14  C   UNL     1       3.792   7.439  -1.911  1.00  0.00    -0.000 C 
BRANCH  14  15
ATOM     15  C   UNL     1       4.476   7.822  -0.592  1.00  0.00    -0.000 C 
BRANCH  15  16
ATOM     16  C   UNL     1       3.443   8.037   0.520  1.00  0.00    -0.003 C 
ATOM     17  C   UNL     1       2.020   7.966  -0.026  1.00  0.00     0.004 C 
ENDBRANCH  15  16
ENDBRANCH  14  15
ENDBRANCH  13  14
ENDBRANCH  12  13
ENDBRANCH  11  12
ENDBRANCH  10  11
ENDBRANCH   1  10
TORSDOF 13
ENDMDL
MODEL 9
REMARK VINA RESULT:    -3.321      5.942      9.910
REMARK INTER + INTRA:          -6.722
REMARK INTER:                  -4.541
REMARK INTRA:                  -2.181
REMARK UNBOUND:                -0.878
REMARK SMILES CCCCCCCCCCCCCCC(=O)[O-]
REMARK SMILES IDX 9 1 10 2 11 3 12 4 13 5 14 6 15 7 16 8 17 9 8 10 7 11 6 12
REMARK SMILES IDX 5 13 4 14 3 15 2 16 1 17
REMARK H PARENT
REMARK Flexibility Score: inf
ROOT
ATOM      1  C   UNL     1      -4.534  -4.734  -4.566  1.00  0.00     0.000 C 
ENDROOT
BRANCH   1   2
ATOM      2  C   UNL     1      -3.456  -3.895  -5.269  1.00  0.00     0.000 C 
BRANCH   2   3
ATOM      3  C   UNL     1      -3.796  -3.616  -6.742  1.00  0.00     0.000 C 
BRANCH   3   4
ATOM      4  C   UNL     1      -4.490  -2.257  -6.947  1.00  0.00     0.000 C 
BRANCH   4   5
ATOM      5  C   UNL     1      -3.573  -1.048  -6.667  1.00  0.00     0.006 C 
BRANCH   5   6
ATOM      6  C   UNL     1      -2.634  -0.747  -7.843  1.00  0.00     0.053 C 
BRANCH   6   7
ATOM      7  C   UNL     1      -1.212  -0.712  -7.380  1.00  0.00     0.041 C 
ATOM      8  O   UNL     1      -0.944  -0.710  -6.150  1.00  0.00    -0.550 OA
ATOM      9  O   UNL     1      -0.178  -0.733  -8.309  1.00  0.00    -0.550 OA
ENDBRANCH   6   7
ENDBRANCH   5   6
ENDBRANCH   4   5
ENDBRANCH   3   4
ENDBRANCH   2   3
ENDBRANCH   1   2
BRANCH   1  10
ATOM     10  C   UNL     1      -5.013  -4.097  -3.250  1.00  0.00     0.000 C 
BRANCH  10  11
ATOM     11  C   UNL     1      -4.752  -2.582  -3.193  1.00  0.00    -0.000 C 
BRANCH  11  12
ATOM     12  C   UNL     1      -5.964  -1.700  -3.554  1.00  0.00    -0.000 C 
BRANCH  12  13
ATOM     13  C   UNL     1      -7.332  -2.253  -3.107  1.00  0.00    -0.000 C 
BRANCH  13  14
ATOM     14  C   UNL     1      -8.433  -2.210  -4.182  1.00  0.00    -0.000 C 
BRANCH  14  15
ATOM     15  C   UNL     1      -7.937  -2.667  -5.561  1.00  0.00    -0.000 C 
BRANCH  15  16
ATOM     16  C   UNL     1      -7.972  -4.195  -5.678  1.00  0.00    -0.003 C 
ATOM     17  C   UNL     1      -7.380  -4.661  -7.005  1.00  0.00     0.004 C 
ENDBRANCH  15  16
ENDBRANCH  14  15
ENDBRANCH  13  14
ENDBRANCH  12  13
ENDBRANCH  11  12
ENDBRANCH  10  11
ENDBRANCH   1  10
TORSDOF 13
ENDMDL
