MODEL 1
REMARK VINA RESULT:    -3.671      0.000      0.000
REMARK INTER + INTRA:          -7.870
REMARK INTER:                  -6.246
REMARK INTRA:                  -1.624
REMARK UNBOUND:                -1.624
REMARK SMILES CCCCCCCCCCCCCC(=O)[O-]
REMARK SMILES IDX 8 1 9 2 10 3 11 4 12 5 13 6 14 7 15 8 16 9 7 10 6 11 5 12
REMARK SMILES IDX 4 13 3 14 2 15 1 16
REMARK H PARENT
REMARK Flexibility Score: inf
ROOT
ATOM      1  C   UNL     1       6.476  -7.232   7.492  1.00  0.00     0.000 C 
ENDROOT
BRANCH   1   2
ATOM      2  C   UNL     1       6.395  -7.992   6.160  1.00  0.00     0.000 C 
BRANCH   2   3
ATOM      3  C   UNL     1       6.659  -9.491   6.366  1.00  0.00     0.000 C 
BRANCH   3   4
ATOM      4  C   UNL     1       5.610 -10.379   5.680  1.00  0.00     0.000 C 
BRANCH   4   5
ATOM      5  C   UNL     1       4.577  -9.567   4.883  1.00  0.00     0.006 C 
BRANCH   5   6
ATOM      6  C   UNL     1       4.889  -9.604   3.384  1.00  0.00     0.053 C 
BRANCH   6   7
ATOM      7  C   UNL     1       3.631  -9.492   2.583  1.00  0.00     0.041 C 
ATOM      8  O   UNL     1       3.380  -8.439   1.941  1.00  0.00    -0.550 OA
ATOM      9  O   UNL     1       2.757 -10.570   2.507  1.00  0.00    -0.550 OA
ENDBRANCH   6   7
ENDBRANCH   5   6
ENDBRANCH   4   5
ENDBRANCH   3   4
ENDBRANCH   2   3
ENDBRANCH   1   2
BRANCH   1  10
ATOM     10  C   UNL     1       6.678  -8.164   8.698  1.00  0.00     0.000 C 
BRANCH  10  11
ATOM     11  C   UNL     1       5.422  -8.272   9.578  1.00  0.00    -0.000 C 
BRANCH  11  12
ATOM     12  C   UNL     1       4.818  -9.686   9.585  1.00  0.00    -0.000 C 
BRANCH  12  13
ATOM     13  C   UNL     1       3.570  -9.830   8.688  1.00  0.00    -0.000 C 
BRANCH  13  14
ATOM     14  C   UNL     1       3.102  -8.477   8.125  1.00  0.00    -0.000 C 
BRANCH  14  15
ATOM     15  C   UNL     1       1.846  -7.945   8.832  1.00  0.00    -0.003 C 
ATOM     16  C   UNL     1       2.092  -6.624   9.562  1.00  0.00     0.004 C 
ENDBRANCH  14  15
ENDBRANCH  13  14
ENDBRANCH  12  13
ENDBRANCH  11  12
ENDBRANCH  10  11
ENDBRANCH   1  10
TORSDOF 12
ENDMDL
MODEL 2
REMARK VINA RESULT:    -3.614      1.986      3.603
REMARK INTER + INTRA:          -7.774
REMARK INTER:                  -6.313
REMARK INTRA:                  -1.461
REMARK UNBOUND:                -1.624
REMARK SMILES CCCCCCCCCCCCCC(=O)[O-]
REMARK SMILES IDX 8 1 9 2 10 3 11 4 12 5 13 6 14 7 15 8 16 9 7 10 6 11 5 12
REMARK SMILES IDX 4 13 3 14 2 15 1 16
REMARK H PARENT
REMARK Flexibility Score: inf
ROOT
ATOM      1  C   UNL     1       6.159  -8.078   6.383  1.00  0.00     0.000 C 
ENDROOT
BRANCH   1   2
ATOM      2  C   UNL     1       5.317  -8.683   7.517  1.00  0.00     0.000 C 
BRANCH   2   3
ATOM      3  C   UNL     1       4.649  -9.991   7.066  1.00  0.00     0.000 C 
BRANCH   3   4
ATOM      4  C   UNL     1       3.921  -9.852   5.720  1.00  0.00     0.000 C 
BRANCH   4   5
ATOM      5  C   UNL     1       4.550 -10.714   4.615  1.00  0.00     0.006 C 
BRANCH   5   6
ATOM      6  C   UNL     1       4.851  -9.874   3.369  1.00  0.00     0.053 C 
BRANCH   6   7
ATOM      7  C   UNL     1       3.600  -9.631   2.586  1.00  0.00     0.041 C 
ATOM      8  O   UNL     1       3.406  -8.516   2.034  1.00  0.00    -0.550 OA
ATOM      9  O   UNL     1       2.671 -10.650   2.426  1.00  0.00    -0.550 OA
ENDBRANCH   6   7
ENDBRANCH   5   6
ENDBRANCH   4   5
ENDBRANCH   3   4
ENDBRANCH   2   3
ENDBRANCH   1   2
BRANCH   1  10
ATOM     10  C   UNL     1       7.569  -8.681   6.301  1.00  0.00     0.000 C 
BRANCH  10  11
ATOM     11  C   UNL     1       8.105  -9.122   7.672  1.00  0.00    -0.000 C 
BRANCH  11  12
ATOM     12  C   UNL     1       9.385  -8.375   8.082  1.00  0.00    -0.000 C 
BRANCH  12  13
ATOM     13  C   UNL     1       9.156  -7.306   9.172  1.00  0.00    -0.000 C 
BRANCH  13  14
ATOM     14  C   UNL     1       9.247  -5.877   8.610  1.00  0.00    -0.000 C 
BRANCH  14  15
ATOM     15  C   UNL     1       7.895  -5.355   8.100  1.00  0.00    -0.003 C 
ATOM     16  C   UNL     1       6.762  -5.569   9.103  1.00  0.00     0.004 C 
ENDBRANCH  14  15
ENDBRANCH  13  14
ENDBRANCH  12  13
ENDBRANCH  11  12
ENDBRANCH  10  11
ENDBRANCH   1  10
TORSDOF 12
ENDMDL
MODEL 3
REMARK VINA RESULT:    -3.501      1.297      1.746
REMARK INTER + INTRA:          -7.581
REMARK INTER:                  -5.789
REMARK INTRA:                  -1.792
REMARK UNBOUND:                -1.624
REMARK SMILES CCCCCCCCCCCCCC(=O)[O-]
REMARK SMILES IDX 8 1 9 2 10 3 11 4 12 5 13 6 14 7 15 8 16 9 7 10 6 11 5 12
REMARK SMILES IDX 4 13 3 14 2 15 1 16
REMARK H PARENT
REMARK Flexibility Score: inf
ROOT
ATOM      1  C   UNL     1       7.094  -7.232   8.058  1.00  0.00     0.000 C 
ENDROOT
BRANCH   1   2
ATOM      2  C   UNL     1       6.609  -7.461   6.618  1.00  0.00     0.000 C 
BRANCH   2   3
ATOM      3  C   UNL     1       7.097  -8.815   6.084  1.00  0.00     0.000 C 
BRANCH   3   4
ATOM      4  C   UNL     1       6.072  -9.941   6.291  1.00  0.00     0.000 C 
BRANCH   4   5
ATOM      5  C   UNL     1       4.705  -9.619   5.667  1.00  0.00     0.006 C 
BRANCH   5   6
ATOM      6  C   UNL     1       4.467 -10.455   4.406  1.00  0.00     0.053 C 
BRANCH   6   7
ATOM      7  C   UNL     1       4.409  -9.577   3.197  1.00  0.00     0.041 C 
ATOM      8  O   UNL     1       5.342  -8.767   2.958  1.00  0.00    -0.550 OA
ATOM      9  O   UNL     1       3.347  -9.687   2.308  1.00  0.00    -0.550 OA
ENDBRANCH   6   7
ENDBRANCH   5   6
ENDBRANCH   4   5
ENDBRANCH   3   4
ENDBRANCH   2   3
ENDBRANCH   1   2
BRANCH   1  10
ATOM     10  C   UNL     1       5.942  -7.178   9.073  1.00  0.00     0.000 C 
BRANCH  10  11
ATOM     11  C   UNL     1       5.637  -8.550   9.695  1.00  0.00    -0.000 C 
BRANCH  11  12
ATOM     12  C   UNL     1       4.190  -9.010   9.447  1.00  0.00    -0.000 C 
BRANCH  12  13
ATOM     13  C   UNL     1       3.328  -7.966   8.705  1.00  0.00    -0.000 C 
BRANCH  13  14
ATOM     14  C   UNL     1       1.989  -8.554   8.229  1.00  0.00    -0.000 C 
BRANCH  14  15
ATOM     15  C   UNL     1       2.048 -10.078   8.033  1.00  0.00    -0.003 C 
ATOM     16  C   UNL     1       1.229 -10.551   6.832  1.00  0.00     0.004 C 
ENDBRANCH  14  15
ENDBRANCH  13  14
ENDBRANCH  12  13
ENDBRANCH  11  12
ENDBRANCH  10  11
ENDBRANCH   1  10
TORSDOF 12
ENDMDL
MODEL 4
REMARK VINA RESULT:    -3.359      1.711      3.719
REMARK INTER + INTRA:          -7.339
REMARK INTER:                  -5.850
REMARK INTRA:                  -1.490
REMARK UNBOUND:                -1.624
REMARK SMILES CCCCCCCCCCCCCC(=O)[O-]
REMARK SMILES IDX 8 1 9 2 10 3 11 4 12 5 13 6 14 7 15 8 16 9 7 10 6 11 5 12
REMARK SMILES IDX 4 13 3 14 2 15 1 16
REMARK H PARENT
REMARK Flexibility Score: inf
ROOT
ATOM      1  C   UNL     1       5.308  -8.148   7.827  1.00  0.00     0.000 C 
ENDROOT
BRANCH   1   2
ATOM      2  C   UNL     1       6.324  -7.630   6.797  1.00  0.00     0.000 C 
BRANCH   2   3
ATOM      3  C   UNL     1       6.405  -8.572   5.586  1.00  0.00     0.000 C 
BRANCH   3   4
ATOM      4  C   UNL     1       5.696  -9.913   5.828  1.00  0.00     0.000 C 
BRANCH   4   5
ATOM      5  C   UNL     1       4.738 -10.290   4.687  1.00  0.00     0.006 C 
BRANCH   5   6
ATOM      6  C   UNL     1       4.893  -9.332   3.502  1.00  0.00     0.053 C 
BRANCH   6   7
ATOM      7  C   UNL     1       3.697  -9.408   2.607  1.00  0.00     0.041 C 
ATOM      8  O   UNL     1       3.034 -10.475   2.525  1.00  0.00    -0.550 OA
ATOM      9  O   UNL     1       3.287  -8.286   1.898  1.00  0.00    -0.550 OA
ENDBRANCH   6   7
ENDBRANCH   5   6
ENDBRANCH   4   5
ENDBRANCH   3   4
ENDBRANCH   2   3
ENDBRANCH   1   2
BRANCH   1  10
ATOM     10  C   UNL     1       5.323  -7.341   9.135  1.00  0.00     0.000 C 
BRANCH  10  11
ATOM     11  C   UNL     1       6.542  -7.662  10.013  1.00  0.00    -0.000 C 
BRANCH  11  12
ATOM     12  C   UNL     1       6.882  -9.162  10.039  1.00  0.00    -0.000 C 
BRANCH  12  13
ATOM     13  C   UNL     1       8.308  -9.482   9.542  1.00  0.00    -0.000 C 
BRANCH  13  14
ATOM     14  C   UNL     1       9.231  -8.253   9.603  1.00  0.00    -0.000 C 
BRANCH  14  15
ATOM     15  C   UNL     1       9.739  -7.825   8.217  1.00  0.00    -0.003 C 
ATOM     16  C   UNL     1       9.801  -8.987   7.225  1.00  0.00     0.004 C 
ENDBRANCH  14  15
ENDBRANCH  13  14
ENDBRANCH  12  13
ENDBRANCH  11  12
ENDBRANCH  10  11
ENDBRANCH   1  10
TORSDOF 12
ENDMDL
MODEL 5
REMARK VINA RESULT:    -3.344      1.430      3.618
REMARK INTER + INTRA:          -7.314
REMARK INTER:                  -6.017
REMARK INTRA:                  -1.297
REMARK UNBOUND:                -1.624
REMARK SMILES CCCCCCCCCCCCCC(=O)[O-]
REMARK SMILES IDX 8 1 9 2 10 3 11 4 12 5 13 6 14 7 15 8 16 9 7 10 6 11 5 12
REMARK SMILES IDX 4 13 3 14 2 15 1 16
REMARK H PARENT
REMARK Flexibility Score: inf
ROOT
ATOM      1  C   UNL     1       2.930  -8.874   8.716  1.00  0.00     0.000 C 
ENDROOT
BRANCH   1   2
ATOM      2  C   UNL     1       1.945  -9.268   7.606  1.00  0.00     0.000 C 
BRANCH   2   3
ATOM      3  C   UNL     1       2.639 -10.121   6.534  1.00  0.00     0.000 C 
BRANCH   3   4
ATOM      4  C   UNL     1       4.165  -9.943   6.529  1.00  0.00     0.000 C 
BRANCH   4   5
ATOM      5  C   UNL     1       4.821 -10.491   5.252  1.00  0.00     0.006 C 
BRANCH   5   6
ATOM      6  C   UNL     1       3.843 -10.450   4.073  1.00  0.00     0.053 C 
BRANCH   6   7
ATOM      7  C   UNL     1       4.277  -9.432   3.067  1.00  0.00     0.041 C 
ATOM      8  O   UNL     1       5.382  -8.842   3.199  1.00  0.00    -0.550 OA
ATOM      9  O   UNL     1       3.484  -9.168   1.958  1.00  0.00    -0.550 OA
ENDBRANCH   6   7
ENDBRANCH   5   6
ENDBRANCH   4   5
ENDBRANCH   3   4
ENDBRANCH   2   3
ENDBRANCH   1   2
BRANCH   1  10
ATOM     10  C   UNL     1       2.685  -7.455   9.254  1.00  0.00     0.000 C 
BRANCH  10  11
ATOM     11  C   UNL     1       3.982  -6.759   9.697  1.00  0.00    -0.000 C 
BRANCH  11  12
ATOM     12  C   UNL     1       5.247  -7.510   9.248  1.00  0.00    -0.000 C 
BRANCH  12  13
ATOM     13  C   UNL     1       6.529  -6.651   9.304  1.00  0.00    -0.000 C 
BRANCH  13  14
ATOM     14  C   UNL     1       7.129  -6.414   7.908  1.00  0.00    -0.000 C 
BRANCH  14  15
ATOM     15  C   UNL     1       6.667  -7.459   6.880  1.00  0.00    -0.003 C 
ATOM     16  C   UNL     1       7.711  -8.548   6.633  1.00  0.00     0.004 C 
ENDBRANCH  14  15
ENDBRANCH  13  14
ENDBRANCH  12  13
ENDBRANCH  11  12
ENDBRANCH  10  11
ENDBRANCH   1  10
TORSDOF 12
ENDMDL
MODEL 6
REMARK VINA RESULT:    -3.328     22.024     23.767
REMARK INTER + INTRA:          -7.287
REMARK INTER:                  -5.507
REMARK INTRA:                  -1.780
REMARK UNBOUND:                -1.624
REMARK SMILES CCCCCCCCCCCCCC(=O)[O-]
REMARK SMILES IDX 8 1 9 2 10 3 11 4 12 5 13 6 14 7 15 8 16 9 7 10 6 11 5 12
REMARK SMILES IDX 4 13 3 14 2 15 1 16
REMARK H PARENT
REMARK Flexibility Score: inf
ROOT
ATOM      1  C   UNL     1      -5.169   3.207  -8.930  1.00  0.00     0.000 C 
ENDROOT
BRANCH   1   2
ATOM      2  C   UNL     1      -6.177   2.260  -9.598  1.00  0.00     0.000 C 
BRANCH   2   3
ATOM      3  C   UNL     1      -7.440   3.020 -10.032  1.00  0.00     0.000 C 
BRANCH   3   4
ATOM      4  C   UNL     1      -8.731   2.234  -9.755  1.00  0.00     0.000 C 
BRANCH   4   5
ATOM      5  C   UNL     1      -9.572   2.856  -8.630  1.00  0.00     0.006 C 
BRANCH   5   6
ATOM      6  C   UNL     1      -8.677   3.397  -7.511  1.00  0.00     0.053 C 
BRANCH   6   7
ATOM      7  C   UNL     1      -9.213   3.000  -6.172  1.00  0.00     0.041 C 
ATOM      8  O   UNL     1      -9.108   3.782  -5.191  1.00  0.00    -0.550 OA
ATOM      9  O   UNL     1      -9.871   1.787  -6.019  1.00  0.00    -0.550 OA
ENDBRANCH   6   7
ENDBRANCH   5   6
ENDBRANCH   4   5
ENDBRANCH   3   4
ENDBRANCH   2   3
ENDBRANCH   1   2
BRANCH   1  10
ATOM     10  C   UNL     1      -4.596   4.249  -9.904  1.00  0.00     0.000 C 
BRANCH  10  11
ATOM     11  C   UNL     1      -4.960   5.689  -9.511  1.00  0.00    -0.000 C 
BRANCH  11  12
ATOM     12  C   UNL     1      -5.761   5.766  -8.200  1.00  0.00    -0.000 C 
BRANCH  12  13
ATOM     13  C   UNL     1      -7.012   6.666  -8.292  1.00  0.00    -0.000 C 
BRANCH  13  14
ATOM     14  C   UNL     1      -7.457   6.891  -9.747  1.00  0.00    -0.000 C 
BRANCH  14  15
ATOM     15  C   UNL     1      -8.847   6.304 -10.039  1.00  0.00    -0.003 C 
ATOM     16  C   UNL     1      -9.878   6.666  -8.969  1.00  0.00     0.004 C 
ENDBRANCH  14  15
ENDBRANCH  13  14
ENDBRANCH  12  13
ENDBRANCH  11  12
ENDBRANCH  10  11
ENDBRANCH   1  10
TORSDOF 12
ENDMDL
MODEL 7
REMARK VINA RESULT:    -3.324     15.409     17.725
REMARK INTER + INTRA:          -7.280
REMARK INTER:                  -5.973
REMARK INTRA:                  -1.307
REMARK UNBOUND:                -1.624
REMARK SMILES CCCCCCCCCCCCCC(=O)[O-]
REMARK SMILES IDX 8 1 9 2 10 3 11 4 12 5 13 6 14 7 15 8 16 9 7 10 6 11 5 12
REMARK SMILES IDX 4 13 3 14 2 15 1 16
REMARK H PARENT
REMARK Flexibility Score: inf
ROOT
ATOM      1  C   UNL     1      -4.910  -8.849  -6.875  1.00  0.00     0.000 C 
ENDROOT
BRANCH   1   2
ATOM      2  C   UNL     1      -5.269  -9.603  -8.164  1.00  0.00     0.000 C 
BRANCH   2   3
ATOM      3  C   UNL     1      -6.792  -9.675  -8.351  1.00  0.00     0.000 C 
BRANCH   3   4
ATOM      4  C   UNL     1      -7.309  -8.686  -9.407  1.00  0.00     0.000 C 
BRANCH   4   5
ATOM      5  C   UNL     1      -8.257  -7.631  -8.817  1.00  0.00     0.006 C 
BRANCH   5   6
ATOM      6  C   UNL     1      -7.775  -6.215  -9.147  1.00  0.00     0.053 C 
BRANCH   6   7
ATOM      7  C   UNL     1      -7.438  -5.471  -7.894  1.00  0.00     0.041 C 
ATOM      8  O   UNL     1      -6.270  -5.516  -7.425  1.00  0.00    -0.550 OA
ATOM      9  O   UNL     1      -8.400  -4.688  -7.270  1.00  0.00    -0.550 OA
ENDBRANCH   6   7
ENDBRANCH   5   6
ENDBRANCH   4   5
ENDBRANCH   3   4
ENDBRANCH   2   3
ENDBRANCH   1   2
BRANCH   1  10
ATOM     10  C   UNL     1      -6.085  -8.761  -5.889  1.00  0.00     0.000 C 
BRANCH  10  11
ATOM     11  C   UNL     1      -5.980  -9.788  -4.750  1.00  0.00    -0.000 C 
BRANCH  11  12
ATOM     12  C   UNL     1      -6.431  -9.222  -3.393  1.00  0.00    -0.000 C 
BRANCH  12  13
ATOM     13  C   UNL     1      -7.386 -10.156  -2.619  1.00  0.00    -0.000 C 
BRANCH  13  14
ATOM     14  C   UNL     1      -8.781 -10.221  -3.265  1.00  0.00    -0.000 C 
BRANCH  14  15
ATOM     15  C   UNL     1      -9.326  -8.833  -3.636  1.00  0.00    -0.003 C 
ATOM     16  C   UNL     1      -9.762  -8.742  -5.099  1.00  0.00     0.004 C 
ENDBRANCH  14  15
ENDBRANCH  13  14
ENDBRANCH  12  13
ENDBRANCH  11  12
ENDBRANCH  10  11
ENDBRANCH   1  10
TORSDOF 12
ENDMDL
MODEL 8
REMARK VINA RESULT:    -3.291     22.331     23.875
REMARK INTER + INTRA:          -7.224
REMARK INTER:                  -5.864
REMARK INTRA:                  -1.360
REMARK UNBOUND:                -1.624
REMARK SMILES CCCCCCCCCCCCCC(=O)[O-]
REMARK SMILES IDX 8 1 9 2 10 3 11 4 12 5 13 6 14 7 15 8 16 9 7 10 6 11 5 12
REMARK SMILES IDX 4 13 3 14 2 15 1 16
REMARK H PARENT
REMARK Flexibility Score: inf
ROOT
ATOM      1  C   UNL     1      -5.952   2.526  -8.676  1.00  0.00     0.000 C 
ENDROOT
BRANCH   1   2
ATOM      2  C   UNL     1      -4.863   3.544  -9.047  1.00  0.00     0.000 C 
BRANCH   2   3
ATOM      3  C   UNL     1      -5.250   4.956  -8.581  1.00  0.00     0.000 C 
BRANCH   3   4
ATOM      4  C   UNL     1      -5.791   5.830  -9.723  1.00  0.00     0.000 C 
BRANCH   4   5
ATOM      5  C   UNL     1      -7.093   6.554  -9.349  1.00  0.00     0.006 C 
BRANCH   5   6
ATOM      6  C   UNL     1      -6.910   8.074  -9.399  1.00  0.00     0.053 C 
BRANCH   6   7
ATOM      7  C   UNL     1      -6.186   8.555  -8.182  1.00  0.00     0.041 C 
ATOM      8  O   UNL     1      -6.821   8.807  -7.125  1.00  0.00    -0.550 OA
ATOM      9  O   UNL     1      -4.802   8.678  -8.201  1.00  0.00    -0.550 OA
ENDBRANCH   6   7
ENDBRANCH   5   6
ENDBRANCH   4   5
ENDBRANCH   3   4
ENDBRANCH   2   3
ENDBRANCH   1   2
BRANCH   1  10
ATOM     10  C   UNL     1      -6.866   2.175  -9.861  1.00  0.00     0.000 C 
BRANCH  10  11
ATOM     11  C   UNL     1      -8.206   2.926  -9.815  1.00  0.00    -0.000 C 
BRANCH  11  12
ATOM     12  C   UNL     1      -9.363   2.052  -9.299  1.00  0.00    -0.000 C 
BRANCH  12  13
ATOM     13  C   UNL     1     -10.037   2.608  -8.027  1.00  0.00    -0.000 C 
BRANCH  13  14
ATOM     14  C   UNL     1      -9.136   2.472  -6.788  1.00  0.00    -0.000 C 
BRANCH  14  15
ATOM     15  C   UNL     1      -9.158   3.727  -5.900  1.00  0.00    -0.003 C 
ATOM     16  C   UNL     1      -9.533   4.991  -6.673  1.00  0.00     0.004 C 
ENDBRANCH  14  15
ENDBRANCH  13  14
ENDBRANCH  12  13
ENDBRANCH  11  12
ENDBRANCH  10  11
ENDBRANCH   1  10
TORSDOF 12
ENDMDL
MODEL 9
REMARK VINA RESULT:    -3.248     15.580     18.147
REMARK INTER + INTRA:          -7.150
REMARK INTER:                  -5.337
REMARK INTRA:                  -1.813
REMARK UNBOUND:                -1.624
REMARK SMILES CCCCCCCCCCCCCC(=O)[O-]
REMARK SMILES IDX 8 1 9 2 10 3 11 4 12 5 13 6 14 7 15 8 16 9 7 10 6 11 5 12
REMARK SMILES IDX 4 13 3 14 2 15 1 16
REMARK H PARENT
REMARK Flexibility Score: inf
ROOT
ATOM      1  C   UNL     1      -7.141 -10.040  -8.575  1.00  0.00     0.000 C 
ENDROOT
BRANCH   1   2
ATOM      2  C   UNL     1      -7.910 -10.289  -7.269  1.00  0.00     0.000 C 
BRANCH   2   3
ATOM      3  C   UNL     1      -9.256  -9.550  -7.275  1.00  0.00     0.000 C 
BRANCH   3   4
ATOM      4  C   UNL     1      -9.113  -8.052  -6.964  1.00  0.00     0.000 C 
BRANCH   4   5
ATOM      5  C   UNL     1      -9.508  -7.161  -8.151  1.00  0.00     0.006 C 
BRANCH   5   6
ATOM      6  C   UNL     1      -8.281  -6.458  -8.741  1.00  0.00     0.053 C 
BRANCH   6   7
ATOM      7  C   UNL     1      -7.747  -5.442  -7.782  1.00  0.00     0.041 C 
ATOM      8  O   UNL     1      -8.529  -4.637  -7.211  1.00  0.00    -0.550 OA
ATOM      9  O   UNL     1      -6.391  -5.415  -7.481  1.00  0.00    -0.550 OA
ENDBRANCH   6   7
ENDBRANCH   5   6
ENDBRANCH   4   5
ENDBRANCH   3   4
ENDBRANCH   2   3
ENDBRANCH   1   2
BRANCH   1  10
ATOM     10  C   UNL     1      -5.699  -9.568  -8.336  1.00  0.00     0.000 C 
BRANCH  10  11
ATOM     11  C   UNL     1      -5.527  -8.851  -6.988  1.00  0.00    -0.000 C 
BRANCH  11  12
ATOM     12  C   UNL     1      -4.534  -9.564  -6.054  1.00  0.00    -0.000 C 
BRANCH  12  13
ATOM     13  C   UNL     1      -5.180 -10.103  -4.760  1.00  0.00    -0.000 C 
BRANCH  13  14
ATOM     14  C   UNL     1      -6.257  -9.152  -4.211  1.00  0.00    -0.000 C 
BRANCH  14  15
ATOM     15  C   UNL     1      -7.365  -9.892  -3.445  1.00  0.00    -0.003 C 
ATOM     16  C   UNL     1      -8.668  -9.096  -3.374  1.00  0.00     0.004 C 
ENDBRANCH  14  15
ENDBRANCH  13  14
ENDBRANCH  12  13
ENDBRANCH  11  12
ENDBRANCH  10  11
ENDBRANCH   1  10
TORSDOF 12
ENDMDL
