MODEL 1
REMARK VINA RESULT:     1.090      0.000      0.000
REMARK INTER + INTRA:           3.082
REMARK INTER:                   1.664
REMARK INTRA:                   1.418
REMARK UNBOUND:                 1.418
REMARK SMILES CC1=CCC[C@@H](C)C(=O)C[C@@H](C(C)C)C(=O)C1
REMARK SMILES IDX 8 1 9 2 6 3 7 4 5 5 4 6 3 7 2 8 1 9 10 11 11 12 15 13 16 14
REMARK SMILES IDX 17 15 12 17 13 18 14 19
REMARK H PARENT
REMARK Flexibility Score: 70.00
ROOT
ATOM      1  C   UNL     1      73.686  74.186  75.530  1.00  0.00     0.136 C 
ATOM      2  O   UNL     1      72.665  73.895  76.136  1.00  0.00    -0.299 OA
ENDROOT
BRANCH   1   3
ATOM      3  C   UNL     1      75.000  74.224  76.290  1.00  0.00     0.053 C 
ATOM      4  C   UNL     1      74.781  73.960  77.785  1.00  0.00     0.016 C 
BRANCH   3   5
ATOM      5  C   UNL     1      75.745  75.551  76.063  1.00  0.00     0.015 C 
BRANCH   5   6
ATOM      6  C   UNL     1      76.697  75.477  74.853  1.00  0.00     0.028 C 
BRANCH   6   7
ATOM      7  C   UNL     1      76.154  76.261  73.686  1.00  0.00    -0.028 C 
ATOM      8  C   UNL     1      75.903  75.742  72.461  1.00  0.00    -0.070 CG0
ATOM      9  C   UNL     1      75.318  76.653  71.413  1.00  0.00     0.039 C 
ATOM     10  G   UNL     1      76.188  74.292  72.102  1.00  0.00     0.000 G0
ENDBRANCH   6   7
ENDBRANCH   5   6
ENDBRANCH   3   5
ENDBRANCH   1   3
BRANCH   1  11
ATOM     11  C   UNL     1      73.586  74.526  74.058  1.00  0.00     0.087 C 
BRANCH  11  12
ATOM     12  C   UNL     1      73.970  73.327  73.149  1.00  0.00     0.066 C 
BRANCH  12  13
ATOM     13  C   UNL     1      75.479  73.295  72.971  1.00  0.00     0.140 C 
ATOM     14  O   UNL     1      76.146  72.510  73.633  1.00  0.00    -0.299 OA
BRANCH  13  15
ATOM     15  C   UNL     1      76.178  74.291  72.079  1.00  0.00     0.106 CG0
ATOM     16  G   UNL     1      75.889  75.729  72.480  1.00  0.00     0.000 G0
ENDBRANCH  13  15
ENDBRANCH  12  13
BRANCH  12  17
ATOM     17  C   UNL     1      73.254  73.375  71.758  1.00  0.00    -0.006 C 
ATOM     18  C   UNL     1      72.198  74.495  71.683  1.00  0.00     0.008 C 
ATOM     19  C   UNL     1      72.565  72.033  71.433  1.00  0.00     0.008 C 
ENDBRANCH  12  17
ENDBRANCH  11  12
ENDBRANCH   1  11
TORSDOF 1
ENDMDL
MODEL 2
REMARK VINA RESULT:     1.977      1.845      3.826
REMARK INTER + INTRA:           4.434
REMARK INTER:                   1.506
REMARK INTRA:                   2.928
REMARK UNBOUND:                 1.418
REMARK SMILES CC1=CCC[C@@H](C)C(=O)C[C@@H](C(C)C)C(=O)C1
REMARK SMILES IDX 8 1 9 2 6 3 7 4 5 5 4 6 3 7 2 8 1 9 10 11 11 12 15 13 16 14
REMARK SMILES IDX 17 15 12 17 13 18 14 19
REMARK H PARENT
REMARK Flexibility Score: 70.00
ROOT
ATOM      1  C   UNL     1      74.929  75.892  72.385  1.00  0.00     0.136 C 
ATOM      2  O   UNL     1      74.590  76.151  71.239  1.00  0.00    -0.299 OA
ENDROOT
BRANCH   1   3
ATOM      3  C   UNL     1      76.378  75.526  72.653  1.00  0.00     0.053 C 
ATOM      4  C   UNL     1      76.929  74.614  71.550  1.00  0.00     0.016 C 
BRANCH   3   5
ATOM      5  C   UNL     1      76.550  74.885  74.042  1.00  0.00     0.015 C 
BRANCH   5   6
ATOM      6  C   UNL     1      76.693  75.946  75.150  1.00  0.00     0.028 C 
BRANCH   6   7
ATOM      7  C   UNL     1      76.102  75.459  76.447  1.00  0.00    -0.028 C 
ATOM      8  C   UNL     1      75.260  74.404  76.561  1.00  0.00    -0.070 CG0
ATOM      9  C   UNL     1      74.790  74.018  77.939  1.00  0.00     0.039 C 
ATOM     10  G   UNL     1      74.771  73.603  75.364  1.00  0.00     0.000 G0
ENDBRANCH   6   7
ENDBRANCH   5   6
ENDBRANCH   3   5
ENDBRANCH   1   3
BRANCH   1  11
ATOM     11  C   UNL     1      73.879  75.918  73.476  1.00  0.00     0.087 C 
BRANCH  11  12
ATOM     12  C   UNL     1      73.104  74.576  73.580  1.00  0.00     0.066 C 
BRANCH  12  13
ATOM     13  C   UNL     1      73.368  73.948  74.939  1.00  0.00     0.140 C 
ATOM     14  O   UNL     1      72.442  73.816  75.730  1.00  0.00    -0.299 OA
BRANCH  13  15
ATOM     15  C   UNL     1      74.768  73.591  75.372  1.00  0.00     0.106 CG0
ATOM     16  G   UNL     1      75.239  74.427  76.552  1.00  0.00     0.000 G0
ENDBRANCH  13  15
ENDBRANCH  12  13
BRANCH  12  17
ATOM     17  C   UNL     1      73.475  73.578  72.433  1.00  0.00    -0.006 C 
ATOM     18  C   UNL     1      72.232  72.898  71.826  1.00  0.00     0.008 C 
ATOM     19  C   UNL     1      74.436  72.479  72.933  1.00  0.00     0.008 C 
ENDBRANCH  12  17
ENDBRANCH  11  12
ENDBRANCH   1  11
TORSDOF 1
ENDMDL
MODEL 3
REMARK VINA RESULT:     3.134      1.761      4.353
REMARK INTER + INTRA:           6.200
REMARK INTER:                   4.606
REMARK INTRA:                   1.594
REMARK UNBOUND:                 1.418
REMARK SMILES CC1=CCC[C@@H](C)C(=O)C[C@@H](C(C)C)C(=O)C1
REMARK SMILES IDX 8 1 9 2 6 3 7 4 5 5 4 6 3 7 2 8 1 9 10 11 11 12 15 13 16 14
REMARK SMILES IDX 17 15 12 17 13 18 14 19
REMARK H PARENT
REMARK Flexibility Score: 70.00
ROOT
ATOM      1  C   UNL     1      76.042  75.802  73.326  1.00  0.00     0.136 C 
ATOM      2  O   UNL     1      77.215  75.764  72.982  1.00  0.00    -0.299 OA
ENDROOT
BRANCH   1   3
ATOM      3  C   UNL     1      74.978  76.019  72.265  1.00  0.00     0.053 C 
ATOM      4  C   UNL     1      75.505  76.902  71.128  1.00  0.00     0.016 C 
BRANCH   3   5
ATOM      5  C   UNL     1      73.689  76.602  72.871  1.00  0.00     0.015 C 
BRANCH   5   6
ATOM      6  C   UNL     1      72.572  75.545  72.974  1.00  0.00     0.028 C 
BRANCH   6   7
ATOM      7  C   UNL     1      72.837  74.384  72.051  1.00  0.00    -0.028 C 
ATOM      8  C   UNL     1      73.390  73.209  72.433  1.00  0.00    -0.070 CG0
ATOM      9  C   UNL     1      73.549  72.130  71.393  1.00  0.00     0.039 C 
ATOM     10  G   UNL     1      73.858  72.937  73.854  1.00  0.00     0.000 G0
ENDBRANCH   6   7
ENDBRANCH   5   6
ENDBRANCH   3   5
ENDBRANCH   1   3
BRANCH   1  11
ATOM     11  C   UNL     1      75.712  75.663  74.797  1.00  0.00     0.087 C 
BRANCH  11  12
ATOM     12  C   UNL     1      75.692  74.180  75.259  1.00  0.00     0.066 C 
BRANCH  12  13
ATOM     13  C   UNL     1      75.297  73.295  74.088  1.00  0.00     0.140 C 
ATOM     14  O   UNL     1      76.149  72.957  73.276  1.00  0.00    -0.299 OA
BRANCH  13  15
ATOM     15  C   UNL     1      73.855  72.922  73.847  1.00  0.00     0.106 CG0
ATOM     16  G   UNL     1      73.410  73.228  72.425  1.00  0.00     0.000 G0
ENDBRANCH  13  15
ENDBRANCH  12  13
BRANCH  12  17
ATOM     17  C   UNL     1      74.735  73.942  76.474  1.00  0.00    -0.006 C 
ATOM     18  C   UNL     1      73.355  74.599  76.267  1.00  0.00     0.008 C 
ATOM     19  C   UNL     1      75.342  74.487  77.783  1.00  0.00     0.008 C 
ENDBRANCH  12  17
ENDBRANCH  11  12
ENDBRANCH   1  11
TORSDOF 1
ENDMDL
MODEL 4
REMARK VINA RESULT:     3.209      1.473      3.884
REMARK INTER + INTRA:           6.315
REMARK INTER:                   5.770
REMARK INTRA:                   0.545
REMARK UNBOUND:                 1.418
REMARK SMILES CC1=CCC[C@@H](C)C(=O)C[C@@H](C(C)C)C(=O)C1
REMARK SMILES IDX 8 1 9 2 6 3 7 4 5 5 4 6 3 7 2 8 1 9 10 11 11 12 15 13 16 14
REMARK SMILES IDX 17 15 12 17 13 18 14 19
REMARK H PARENT
REMARK Flexibility Score: 70.00
ROOT
ATOM      1  C   UNL     1      73.189  73.505  74.530  1.00  0.00     0.136 C 
ATOM      2  O   UNL     1      72.192  73.784  75.181  1.00  0.00    -0.299 OA
ENDROOT
BRANCH   1   3
ATOM      3  C   UNL     1      73.053  73.326  73.028  1.00  0.00     0.053 C 
ATOM      4  C   UNL     1      74.215  72.500  72.464  1.00  0.00     0.016 C 
BRANCH   3   5
ATOM      5  C   UNL     1      72.932  74.680  72.307  1.00  0.00     0.015 C 
BRANCH   5   6
ATOM      6  C   UNL     1      73.615  75.814  73.095  1.00  0.00     0.028 C 
BRANCH   6   7
ATOM      7  C   UNL     1      74.864  76.285  72.396  1.00  0.00    -0.028 C 
ATOM      8  C   UNL     1      76.103  75.786  72.616  1.00  0.00    -0.070 CG0
ATOM      9  C   UNL     1      77.244  76.338  71.801  1.00  0.00     0.039 C 
ATOM     10  G   UNL     1      76.389  74.703  73.644  1.00  0.00     0.000 G0
ENDBRANCH   6   7
ENDBRANCH   5   6
ENDBRANCH   3   5
ENDBRANCH   1   3
BRANCH   1  11
ATOM     11  C   UNL     1      74.504  73.322  75.257  1.00  0.00     0.087 C 
BRANCH  11  12
ATOM     12  C   UNL     1      75.027  74.648  75.873  1.00  0.00     0.066 C 
BRANCH  12  13
ATOM     13  C   UNL     1      76.205  75.151  75.054  1.00  0.00     0.140 C 
ATOM     14  O   UNL     1      76.940  76.010  75.524  1.00  0.00    -0.299 OA
BRANCH  13  15
ATOM     15  C   UNL     1      76.417  74.692  73.632  1.00  0.00     0.106 CG0
ATOM     16  G   UNL     1      76.114  75.788  72.622  1.00  0.00     0.000 G0
ENDBRANCH  13  15
ENDBRANCH  12  13
BRANCH  12  17
ATOM     17  C   UNL     1      75.430  74.494  77.377  1.00  0.00    -0.006 C 
ATOM     18  C   UNL     1      75.009  73.129  77.957  1.00  0.00     0.008 C 
ATOM     19  C   UNL     1      74.803  75.605  78.244  1.00  0.00     0.008 C 
ENDBRANCH  12  17
ENDBRANCH  11  12
ENDBRANCH   1  11
TORSDOF 1
ENDMDL
MODEL 5
REMARK VINA RESULT:     3.349      1.944      3.562
REMARK INTER + INTRA:           6.528
REMARK INTER:                   4.585
REMARK INTRA:                   1.943
REMARK UNBOUND:                 1.418
REMARK SMILES CC1=CCC[C@@H](C)C(=O)C[C@@H](C(C)C)C(=O)C1
REMARK SMILES IDX 8 1 9 2 6 3 7 4 5 5 4 6 3 7 2 8 1 9 10 11 11 12 15 13 16 14
REMARK SMILES IDX 17 15 12 17 13 18 14 19
REMARK H PARENT
REMARK Flexibility Score: 70.00
ROOT
ATOM      1  C   UNL     1      75.687  75.401  75.633  1.00  0.00     0.136 C 
ATOM      2  O   UNL     1      76.909  75.383  75.652  1.00  0.00    -0.299 OA
ENDROOT
BRANCH   1   3
ATOM      3  C   UNL     1      74.929  74.695  76.742  1.00  0.00     0.053 C 
ATOM      4  C   UNL     1      75.878  74.247  77.860  1.00  0.00     0.016 C 
BRANCH   3   5
ATOM      5  C   UNL     1      74.110  73.509  76.200  1.00  0.00     0.015 C 
BRANCH   5   6
ATOM      6  C   UNL     1      72.857  73.978  75.436  1.00  0.00     0.028 C 
BRANCH   6   7
ATOM      7  C   UNL     1      72.669  73.189  74.166  1.00  0.00    -0.028 C 
ATOM      8  C   UNL     1      72.753  73.708  72.919  1.00  0.00    -0.070 CG0
ATOM      9  C   UNL     1      72.581  72.773  71.750  1.00  0.00     0.039 C 
ATOM     10  G   UNL     1      73.008  75.183  72.651  1.00  0.00     0.000 G0
ENDBRANCH   6   7
ENDBRANCH   5   6
ENDBRANCH   3   5
ENDBRANCH   1   3
BRANCH   1  11
ATOM     11  C   UNL     1      74.989  76.101  74.485  1.00  0.00     0.087 C 
BRANCH  11  12
ATOM     12  C   UNL     1      75.569  75.690  73.105  1.00  0.00     0.066 C 
BRANCH  12  13
ATOM     13  C   UNL     1      74.425  75.416  72.141  1.00  0.00     0.140 C 
ATOM     14  O   UNL     1      74.626  75.482  70.936  1.00  0.00    -0.299 OA
BRANCH  13  15
ATOM     15  C   UNL     1      73.023  75.176  72.646  1.00  0.00     0.106 CG0
ATOM     16  G   UNL     1      72.755  73.706  72.927  1.00  0.00     0.000 G0
ENDBRANCH  13  15
ENDBRANCH  12  13
BRANCH  12  17
ATOM     17  C   UNL     1      76.518  74.449  73.197  1.00  0.00    -0.006 C 
ATOM     18  C   UNL     1      77.511  74.385  72.020  1.00  0.00     0.008 C 
ATOM     19  C   UNL     1      75.717  73.130  73.231  1.00  0.00     0.008 C 
ENDBRANCH  12  17
ENDBRANCH  11  12
ENDBRANCH   1  11
TORSDOF 1
ENDMDL
MODEL 6
REMARK VINA RESULT:     3.359      2.020      4.451
REMARK INTER + INTRA:           6.545
REMARK INTER:                   4.078
REMARK INTRA:                   2.466
REMARK UNBOUND:                 1.418
REMARK SMILES CC1=CCC[C@@H](C)C(=O)C[C@@H](C(C)C)C(=O)C1
REMARK SMILES IDX 8 1 9 2 6 3 7 4 5 5 4 6 3 7 2 8 1 9 10 11 11 12 15 13 16 14
REMARK SMILES IDX 17 15 12 17 13 18 14 19
REMARK H PARENT
REMARK Flexibility Score: 70.00
ROOT
ATOM      1  C   UNL     1      74.385  73.195  72.331  1.00  0.00     0.136 C 
ATOM      2  O   UNL     1      74.551  72.925  71.150  1.00  0.00    -0.299 OA
ENDROOT
BRANCH   1   3
ATOM      3  C   UNL     1      72.986  73.533  72.813  1.00  0.00     0.053 C 
ATOM      4  C   UNL     1      72.198  74.287  71.733  1.00  0.00     0.016 C 
BRANCH   3   5
ATOM      5  C   UNL     1      73.020  74.326  74.131  1.00  0.00     0.015 C 
BRANCH   5   6
ATOM      6  C   UNL     1      72.861  73.408  75.359  1.00  0.00     0.028 C 
BRANCH   6   7
ATOM      7  C   UNL     1      73.365  74.081  76.609  1.00  0.00    -0.028 C 
ATOM      8  C   UNL     1      74.670  74.318  76.882  1.00  0.00    -0.070 CG0
ATOM      9  C   UNL     1      75.006  75.041  78.161  1.00  0.00     0.039 C 
ATOM     10  G   UNL     1      75.801  73.884  75.962  1.00  0.00     0.000 G0
ENDBRANCH   6   7
ENDBRANCH   5   6
ENDBRANCH   3   5
ENDBRANCH   1   3
BRANCH   1  11
ATOM     11  C   UNL     1      75.589  73.209  73.248  1.00  0.00     0.087 C 
BRANCH  11  12
ATOM     12  C   UNL     1      76.144  74.642  73.471  1.00  0.00     0.066 C 
BRANCH  12  13
ATOM     13  C   UNL     1      76.180  74.940  74.961  1.00  0.00     0.140 C 
ATOM     14  O   UNL     1      76.605  76.022  75.347  1.00  0.00    -0.299 OA
BRANCH  13  15
ATOM     15  C   UNL     1      75.810  73.886  75.975  1.00  0.00     0.106 CG0
ATOM     16  G   UNL     1      74.680  74.335  76.888  1.00  0.00     0.000 G0
ENDBRANCH  13  15
ENDBRANCH  12  13
BRANCH  12  17
ATOM     17  C   UNL     1      75.314  75.732  72.713  1.00  0.00    -0.006 C 
ATOM     18  C   UNL     1      76.186  76.568  71.756  1.00  0.00     0.008 C 
ATOM     19  C   UNL     1      74.614  76.691  73.698  1.00  0.00     0.008 C 
ENDBRANCH  12  17
ENDBRANCH  11  12
ENDBRANCH   1  11
TORSDOF 1
ENDMDL
MODEL 7
REMARK VINA RESULT:     3.451      1.478      4.282
REMARK INTER + INTRA:           6.685
REMARK INTER:                   2.035
REMARK INTRA:                   4.650
REMARK UNBOUND:                 1.418
REMARK SMILES CC1=CCC[C@@H](C)C(=O)C[C@@H](C(C)C)C(=O)C1
REMARK SMILES IDX 8 1 9 2 6 3 7 4 5 5 4 6 3 7 2 8 1 9 10 11 11 12 15 13 16 14
REMARK SMILES IDX 17 15 12 17 13 18 14 19
REMARK H PARENT
REMARK Flexibility Score: 70.00
ROOT
ATOM      1  C   UNL     1      75.300  72.715  73.091  1.00  0.00     0.136 C 
ATOM      2  O   UNL     1      75.793  71.598  73.148  1.00  0.00    -0.299 OA
ENDROOT
BRANCH   1   3
ATOM      3  C   UNL     1      74.262  73.002  72.021  1.00  0.00     0.053 C 
ATOM      4  C   UNL     1      73.832  71.712  71.311  1.00  0.00     0.016 C 
BRANCH   3   5
ATOM      5  C   UNL     1      74.767  74.050  71.013  1.00  0.00     0.015 C 
BRANCH   5   6
ATOM      6  C   UNL     1      75.727  75.062  71.667  1.00  0.00     0.028 C 
BRANCH   6   7
ATOM      7  C   UNL     1      74.971  76.221  72.262  1.00  0.00    -0.028 C 
ATOM      8  C   UNL     1      73.874  76.102  73.047  1.00  0.00    -0.070 CG0
ATOM      9  C   UNL     1      73.259  77.362  73.599  1.00  0.00     0.039 C 
ATOM     10  G   UNL     1      73.240  74.763  73.387  1.00  0.00     0.000 G0
ENDBRANCH   6   7
ENDBRANCH   5   6
ENDBRANCH   3   5
ENDBRANCH   1   3
BRANCH   1  11
ATOM     11  C   UNL     1      75.772  73.768  74.072  1.00  0.00     0.087 C 
BRANCH  11  12
ATOM     12  C   UNL     1      74.827  73.896  75.298  1.00  0.00     0.066 C 
BRANCH  12  13
ATOM     13  C   UNL     1      73.448  74.329  74.826  1.00  0.00     0.140 C 
ATOM     14  O   UNL     1      72.496  74.237  75.590  1.00  0.00    -0.299 OA
BRANCH  13  15
ATOM     15  C   UNL     1      73.214  74.760  73.400  1.00  0.00     0.106 CG0
ATOM     16  G   UNL     1      73.869  76.097  73.086  1.00  0.00     0.000 G0
ENDBRANCH  13  15
ENDBRANCH  12  13
BRANCH  12  17
ATOM     17  C   UNL     1      75.375  74.890  76.377  1.00  0.00    -0.006 C 
ATOM     18  C   UNL     1      76.808  75.363  76.060  1.00  0.00     0.008 C 
ATOM     19  C   UNL     1      75.371  74.253  77.782  1.00  0.00     0.008 C 
ENDBRANCH  12  17
ENDBRANCH  11  12
ENDBRANCH   1  11
TORSDOF 1
ENDMDL
MODEL 8
REMARK VINA RESULT:     3.694      1.327      2.053
REMARK INTER + INTRA:           7.056
REMARK INTER:                   5.773
REMARK INTRA:                   1.283
REMARK UNBOUND:                 1.418
REMARK SMILES CC1=CCC[C@@H](C)C(=O)C[C@@H](C(C)C)C(=O)C1
REMARK SMILES IDX 8 1 9 2 6 3 7 4 5 5 4 6 3 7 2 8 1 9 10 11 11 12 15 13 16 14
REMARK SMILES IDX 17 15 12 17 13 18 14 19
REMARK H PARENT
REMARK Flexibility Score: 70.00
ROOT
ATOM      1  C   UNL     1      73.431  74.228  75.672  1.00  0.00     0.136 C 
ATOM      2  O   UNL     1      72.554  73.592  76.239  1.00  0.00    -0.299 OA
ENDROOT
BRANCH   1   3
ATOM      3  C   UNL     1      74.780  74.378  76.351  1.00  0.00     0.053 C 
ATOM      4  C   UNL     1      74.643  74.284  77.876  1.00  0.00     0.016 C 
BRANCH   3   5
ATOM      5  C   UNL     1      75.479  75.685  75.935  1.00  0.00     0.015 C 
BRANCH   5   6
ATOM      6  C   UNL     1      76.748  75.418  75.103  1.00  0.00     0.028 C 
BRANCH   6   7
ATOM      7  C   UNL     1      76.794  73.990  74.626  1.00  0.00    -0.028 C 
ATOM      8  C   UNL     1      76.527  73.593  73.359  1.00  0.00    -0.070 CG0
ATOM      9  C   UNL     1      76.659  72.128  73.033  1.00  0.00     0.039 C 
ATOM     10  G   UNL     1      76.097  74.556  72.263  1.00  0.00     0.000 G0
ENDBRANCH   6   7
ENDBRANCH   5   6
ENDBRANCH   3   5
ENDBRANCH   1   3
BRANCH   1  11
ATOM     11  C   UNL     1      73.117  74.862  74.333  1.00  0.00     0.087 C 
BRANCH  11  12
ATOM     12  C   UNL     1      73.679  74.035  73.144  1.00  0.00     0.066 C 
BRANCH  12  13
ATOM     13  C   UNL     1      74.643  74.897  72.344  1.00  0.00     0.140 C 
ATOM     14  O   UNL     1      74.207  75.835  71.689  1.00  0.00    -0.299 OA
BRANCH  13  15
ATOM     15  C   UNL     1      76.108  74.548  72.254  1.00  0.00     0.106 CG0
ATOM     16  G   UNL     1      76.539  73.580  73.345  1.00  0.00     0.000 G0
ENDBRANCH  13  15
ENDBRANCH  12  13
BRANCH  12  17
ATOM     17  C   UNL     1      72.550  73.471  72.218  1.00  0.00    -0.006 C 
ATOM     18  C   UNL     1      73.067  72.365  71.276  1.00  0.00     0.008 C 
ATOM     19  C   UNL     1      71.918  74.585  71.359  1.00  0.00     0.008 C 
ENDBRANCH  12  17
ENDBRANCH  11  12
ENDBRANCH   1  11
TORSDOF 1
ENDMDL
MODEL 9
REMARK VINA RESULT:     3.916      1.644      3.085
REMARK INTER + INTRA:           7.394
REMARK INTER:                   4.455
REMARK INTRA:                   2.939
REMARK UNBOUND:                 1.418
REMARK SMILES CC1=CCC[C@@H](C)C(=O)C[C@@H](C(C)C)C(=O)C1
REMARK SMILES IDX 8 1 9 2 6 3 7 4 5 5 4 6 3 7 2 8 1 9 10 11 11 12 15 13 16 14
REMARK SMILES IDX 17 15 12 17 13 18 14 19
REMARK H PARENT
REMARK Flexibility Score: 70.00
ROOT
ATOM      1  C   UNL     1      76.146  75.085  75.989  1.00  0.00     0.136 C 
ATOM      2  O   UNL     1      77.118  74.396  76.262  1.00  0.00    -0.299 OA
ENDROOT
BRANCH   1   3
ATOM      3  C   UNL     1      74.958  75.078  76.934  1.00  0.00     0.053 C 
ATOM      4  C   UNL     1      75.257  74.250  78.190  1.00  0.00     0.016 C 
BRANCH   3   5
ATOM      5  C   UNL     1      73.681  74.583  76.231  1.00  0.00     0.015 C 
BRANCH   5   6
ATOM      6  C   UNL     1      73.957  73.362  75.333  1.00  0.00     0.028 C 
BRANCH   6   7
ATOM      7  C   UNL     1      73.040  73.349  74.137  1.00  0.00    -0.028 C 
ATOM      8  C   UNL     1      73.448  73.182  72.857  1.00  0.00    -0.070 CG0
ATOM      9  C   UNL     1      72.397  73.151  71.778  1.00  0.00     0.039 C 
ATOM     10  G   UNL     1      74.910  73.032  72.467  1.00  0.00     0.000 G0
ENDBRANCH   6   7
ENDBRANCH   5   6
ENDBRANCH   3   5
ENDBRANCH   1   3
BRANCH   1  11
ATOM     11  C   UNL     1      76.163  75.889  74.706  1.00  0.00     0.087 C 
BRANCH  11  12
ATOM     12  C   UNL     1      75.124  75.371  73.673  1.00  0.00     0.066 C 
BRANCH  12  13
ATOM     13  C   UNL     1      75.735  74.230  72.876  1.00  0.00     0.140 C 
ATOM     14  O   UNL     1      76.894  74.318  72.492  1.00  0.00    -0.299 OA
BRANCH  13  15
ATOM     15  C   UNL     1      74.903  73.043  72.455  1.00  0.00     0.106 CG0
ATOM     16  G   UNL     1      73.446  73.184  72.868  1.00  0.00     0.000 G0
ENDBRANCH  13  15
ENDBRANCH  12  13
BRANCH  12  17
ATOM     17  C   UNL     1      74.617  76.500  72.715  1.00  0.00    -0.006 C 
ATOM     18  C   UNL     1      73.099  76.737  72.845  1.00  0.00     0.008 C 
ATOM     19  C   UNL     1      74.934  76.171  71.241  1.00  0.00     0.008 C 
ENDBRANCH  12  17
ENDBRANCH  11  12
ENDBRANCH   1  11
TORSDOF 1
ENDMDL
