MODEL 1
REMARK VINA RESULT:    -2.754      0.000      0.000
REMARK INTER + INTRA:          -2.754
REMARK INTER:                  -2.754
REMARK INTRA:                   0.000
REMARK UNBOUND:                 0.000
REMARK SMILES CC(=O)[O-]
REMARK SMILES IDX 1 1 2 2 3 3 4 4
REMARK H PARENT
REMARK Flexibility Score: inf
ROOT
ATOM      1  C   UNL     1      15.212  34.598  13.625  1.00  0.00     0.063 C 
ATOM      2  C   UNL     1      13.725  34.490  13.673  1.00  0.00     0.038 C 
ATOM      3  O   UNL     1      13.019  35.530  13.728  1.00  0.00    -0.550 OA
ATOM      4  O   UNL     1      13.116  33.245  13.602  1.00  0.00    -0.550 OA
ENDROOT
TORSDOF 0
ENDMDL
MODEL 2
REMARK VINA RESULT:    -2.722      1.639      1.917
REMARK INTER + INTRA:          -2.722
REMARK INTER:                  -2.722
REMARK INTRA:                   0.000
REMARK UNBOUND:                 0.000
REMARK SMILES CC(=O)[O-]
REMARK SMILES IDX 1 1 2 2 3 3 4 4
REMARK H PARENT
REMARK Flexibility Score: inf
ROOT
ATOM      1  C   UNL     1      13.473  33.529  13.303  1.00  0.00     0.063 C 
ATOM      2  C   UNL     1      14.314  34.761  13.310  1.00  0.00     0.038 C 
ATOM      3  O   UNL     1      13.837  35.852  12.902  1.00  0.00    -0.550 OA
ATOM      4  O   UNL     1      15.605  34.719  13.818  1.00  0.00    -0.550 OA
ENDROOT
TORSDOF 0
ENDMDL
MODEL 3
REMARK VINA RESULT:    -2.693      1.582      1.959
REMARK INTER + INTRA:          -2.693
REMARK INTER:                  -2.693
REMARK INTRA:                   0.000
REMARK UNBOUND:                 0.000
REMARK SMILES CC(=O)[O-]
REMARK SMILES IDX 1 1 2 2 3 3 4 4
REMARK H PARENT
REMARK Flexibility Score: inf
ROOT
ATOM      1  C   UNL     1      13.579  35.955  12.850  1.00  0.00     0.063 C 
ATOM      2  C   UNL     1      14.052  34.690  13.484  1.00  0.00     0.038 C 
ATOM      3  O   UNL     1      13.239  33.758  13.714  1.00  0.00    -0.550 OA
ATOM      4  O   UNL     1      15.399  34.518  13.771  1.00  0.00    -0.550 OA
ENDROOT
TORSDOF 0
ENDMDL
MODEL 4
REMARK VINA RESULT:    -2.557      2.139      2.313
REMARK INTER + INTRA:          -2.557
REMARK INTER:                  -2.557
REMARK INTRA:                   0.000
REMARK UNBOUND:                 0.000
REMARK SMILES CC(=O)[O-]
REMARK SMILES IDX 1 1 2 2 3 3 4 4
REMARK H PARENT
REMARK Flexibility Score: inf
ROOT
ATOM      1  C   UNL     1      13.495  34.221  13.653  1.00  0.00     0.063 C 
ATOM      2  C   UNL     1      13.306  32.815  13.192  1.00  0.00     0.038 C 
ATOM      3  O   UNL     1      13.855  32.420  12.131  1.00  0.00    -0.550 OA
ATOM      4  O   UNL     1      12.569  31.925  13.961  1.00  0.00    -0.550 OA
ENDROOT
TORSDOF 0
ENDMDL
MODEL 5
REMARK VINA RESULT:    -2.481     15.391     16.028
REMARK INTER + INTRA:          -2.481
REMARK INTER:                  -2.481
REMARK INTRA:                   0.000
REMARK UNBOUND:                 0.000
REMARK SMILES CC(=O)[O-]
REMARK SMILES IDX 1 1 2 2 3 3 4 4
REMARK H PARENT
REMARK Flexibility Score: inf
ROOT
ATOM      1  C   UNL     1       5.316  47.003   9.495  1.00  0.00     0.063 C 
ATOM      2  C   UNL     1       6.515  47.877   9.346  1.00  0.00     0.038 C 
ATOM      3  O   UNL     1       7.663  47.419   9.585  1.00  0.00    -0.550 OA
ATOM      4  O   UNL     1       6.373  49.181   8.891  1.00  0.00    -0.550 OA
ENDROOT
TORSDOF 0
ENDMDL
MODEL 6
REMARK VINA RESULT:    -2.360     15.248     15.826
REMARK INTER + INTRA:          -2.360
REMARK INTER:                  -2.360
REMARK INTRA:                   0.000
REMARK UNBOUND:                 0.000
REMARK SMILES CC(=O)[O-]
REMARK SMILES IDX 1 1 2 2 3 3 4 4
REMARK H PARENT
REMARK Flexibility Score: inf
ROOT
ATOM      1  C   UNL     1       6.423  49.192   9.054  1.00  0.00     0.063 C 
ATOM      2  C   UNL     1       6.563  47.734   9.339  1.00  0.00     0.038 C 
ATOM      3  O   UNL     1       5.558  46.979   9.269  1.00  0.00    -0.550 OA
ATOM      4  O   UNL     1       7.811  47.199   9.629  1.00  0.00    -0.550 OA
ENDROOT
TORSDOF 0
ENDMDL
MODEL 7
REMARK VINA RESULT:    -2.327      2.102      2.678
REMARK INTER + INTRA:          -2.327
REMARK INTER:                  -2.327
REMARK INTRA:                   0.000
REMARK UNBOUND:                 0.000
REMARK SMILES CC(=O)[O-]
REMARK SMILES IDX 1 1 2 2 3 3 4 4
REMARK H PARENT
REMARK Flexibility Score: inf
ROOT
ATOM      1  C   UNL     1      14.599  31.644  12.486  1.00  0.00     0.063 C 
ATOM      2  C   UNL     1      13.513  32.505  13.037  1.00  0.00     0.038 C 
ATOM      3  O   UNL     1      12.544  31.984  13.648  1.00  0.00    -0.550 OA
ATOM      4  O   UNL     1      13.597  33.887  12.926  1.00  0.00    -0.550 OA
ENDROOT
TORSDOF 0
ENDMDL
MODEL 8
REMARK VINA RESULT:    -2.293     15.822     16.426
REMARK INTER + INTRA:          -2.293
REMARK INTER:                  -2.293
REMARK INTRA:                   0.000
REMARK UNBOUND:                 0.000
REMARK SMILES CC(=O)[O-]
REMARK SMILES IDX 1 1 2 2 3 3 4 4
REMARK H PARENT
REMARK Flexibility Score: inf
ROOT
ATOM      1  C   UNL     1       6.464  48.767   9.170  1.00  0.00     0.063 C 
ATOM      2  C   UNL     1       5.414  47.712   9.083  1.00  0.00     0.038 C 
ATOM      3  O   UNL     1       5.529  46.651   9.749  1.00  0.00    -0.550 OA
ATOM      4  O   UNL     1       4.280  47.922   8.310  1.00  0.00    -0.550 OA
ENDROOT
TORSDOF 0
ENDMDL
MODEL 9
REMARK VINA RESULT:    -2.199     13.235     13.431
REMARK INTER + INTRA:          -2.199
REMARK INTER:                  -2.199
REMARK INTRA:                   0.000
REMARK UNBOUND:                 0.000
REMARK SMILES CC(=O)[O-]
REMARK SMILES IDX 1 1 2 2 3 3 4 4
REMARK H PARENT
REMARK Flexibility Score: inf
ROOT
ATOM      1  C   UNL     1       4.188  44.039  12.055  1.00  0.00     0.063 C 
ATOM      2  C   UNL     1       3.874  43.069  10.966  1.00  0.00     0.038 C 
ATOM      3  O   UNL     1       4.162  43.345   9.773  1.00  0.00    -0.550 OA
ATOM      4  O   UNL     1       3.314  41.836  11.274  1.00  0.00    -0.550 OA
ENDROOT
TORSDOF 0
ENDMDL
