MODEL 1
REMARK VINA RESULT:    -4.989      0.000      0.000
REMARK INTER + INTRA:         -11.387
REMARK INTER:                  -9.363
REMARK INTRA:                  -2.024
REMARK UNBOUND:                -2.024
REMARK SMILES O=C([O-])CCCCCCCCCCCCCCC(=O)[O-]
REMARK SMILES IDX 10 1 9 2 8 3 7 4 6 5 5 6 4 7 2 8 1 9 3 10 11 11 12 12 13 13
REMARK SMILES IDX 14 14 15 15 16 16 17 17 18 18 19 19 20 20
REMARK H PARENT
REMARK Flexibility Score: inf
ROOT
ATOM      1  C   UNL     1      14.997  10.723  33.682  1.00  0.00     0.000 C 
ENDROOT
BRANCH   1   2
ATOM      2  C   UNL     1      13.594  11.183  33.244  1.00  0.00     0.000 C 
BRANCH   2   3
ATOM      3  C   UNL     1      13.417  12.710  33.149  1.00  0.00     0.000 C 
BRANCH   3   4
ATOM      4  C   UNL     1      12.654  13.354  34.325  1.00  0.00     0.000 C 
BRANCH   4   5
ATOM      5  C   UNL     1      13.538  13.865  35.477  1.00  0.00     0.000 C 
BRANCH   5   6
ATOM      6  C   UNL     1      13.424  13.008  36.746  1.00  0.00     0.006 C 
BRANCH   6   7
ATOM      7  C   UNL     1      12.211  12.077  36.671  1.00  0.00     0.053 C 
BRANCH   7   8
ATOM      8  C   UNL     1      11.509  12.023  37.991  1.00  0.00     0.041 C 
ATOM      9  O   UNL     1      10.498  12.744  38.201  1.00  0.00    -0.550 OA
ATOM     10  O   UNL     1      11.998  11.211  39.007  1.00  0.00    -0.550 OA
ENDBRANCH   7   8
ENDBRANCH   6   7
ENDBRANCH   5   6
ENDBRANCH   4   5
ENDBRANCH   3   4
ENDBRANCH   2   3
ENDBRANCH   1   2
BRANCH   1  11
ATOM     11  C   UNL     1      16.108  11.752  33.386  1.00  0.00     0.000 C 
BRANCH  11  12
ATOM     12  C   UNL     1      17.272  11.664  34.387  1.00  0.00     0.000 C 
BRANCH  12  13
ATOM     13  C   UNL     1      16.797  11.602  35.847  1.00  0.00     0.000 C 
BRANCH  13  14
ATOM     14  C   UNL     1      17.133  12.876  36.637  1.00  0.00     0.000 C 
BRANCH  14  15
ATOM     15  C   UNL     1      18.637  12.965  36.918  1.00  0.00     0.000 C 
BRANCH  15  16
ATOM     16  C   UNL     1      19.179  14.361  36.577  1.00  0.00     0.006 C 
BRANCH  16  17
ATOM     17  C   UNL     1      19.621  14.471  35.111  1.00  0.00     0.053 C 
BRANCH  17  18
ATOM     18  C   UNL     1      18.769  15.436  34.345  1.00  0.00     0.041 C 
ATOM     19  O   UNL     1      17.584  15.135  34.043  1.00  0.00    -0.550 OA
ATOM     20  O   UNL     1      19.294  16.656  33.936  1.00  0.00    -0.550 OA
ENDBRANCH  17  18
ENDBRANCH  16  17
ENDBRANCH  15  16
ENDBRANCH  14  15
ENDBRANCH  13  14
ENDBRANCH  12  13
ENDBRANCH  11  12
ENDBRANCH   1  11
TORSDOF 15
ENDMDL
MODEL 2
REMARK VINA RESULT:    -4.958      1.838      2.431
REMARK INTER + INTRA:         -11.330
REMARK INTER:                  -8.868
REMARK INTRA:                  -2.462
REMARK UNBOUND:                -2.024
REMARK SMILES O=C([O-])CCCCCCCCCCCCCCC(=O)[O-]
REMARK SMILES IDX 10 1 9 2 8 3 7 4 6 5 5 6 4 7 2 8 1 9 3 10 11 11 12 12 13 13
REMARK SMILES IDX 14 14 15 15 16 16 17 17 18 18 19 19 20 20
REMARK H PARENT
REMARK Flexibility Score: inf
ROOT
ATOM      1  C   UNL     1      13.493  11.425  32.842  1.00  0.00     0.000 C 
ENDROOT
BRANCH   1   2
ATOM      2  C   UNL     1      13.574  12.896  33.291  1.00  0.00     0.000 C 
BRANCH   2   3
ATOM      3  C   UNL     1      12.447  13.345  34.239  1.00  0.00     0.000 C 
BRANCH   3   4
ATOM      4  C   UNL     1      12.911  13.806  35.637  1.00  0.00     0.000 C 
BRANCH   4   5
ATOM      5  C   UNL     1      12.411  12.944  36.810  1.00  0.00     0.000 C 
BRANCH   5   6
ATOM      6  C   UNL     1      12.491  11.438  36.524  1.00  0.00     0.006 C 
BRANCH   6   7
ATOM      7  C   UNL     1      13.487  10.754  37.464  1.00  0.00     0.053 C 
BRANCH   7   8
ATOM      8  C   UNL     1      12.791  10.250  38.689  1.00  0.00     0.041 C 
ATOM      9  O   UNL     1      13.460   9.807  39.661  1.00  0.00    -0.550 OA
ATOM     10  O   UNL     1      11.403  10.222  38.739  1.00  0.00    -0.550 OA
ENDBRANCH   7   8
ENDBRANCH   6   7
ENDBRANCH   5   6
ENDBRANCH   4   5
ENDBRANCH   3   4
ENDBRANCH   2   3
ENDBRANCH   1   2
BRANCH   1  11
ATOM     11  C   UNL     1      14.602  10.533  33.438  1.00  0.00     0.000 C 
BRANCH  11  12
ATOM     12  C   UNL     1      15.881  11.324  33.760  1.00  0.00     0.000 C 
BRANCH  12  13
ATOM     13  C   UNL     1      16.267  11.249  35.246  1.00  0.00     0.000 C 
BRANCH  13  14
ATOM     14  C   UNL     1      16.343  12.632  35.910  1.00  0.00     0.000 C 
BRANCH  14  15
ATOM     15  C   UNL     1      16.793  13.700  34.905  1.00  0.00     0.000 C 
BRANCH  15  16
ATOM     16  C   UNL     1      18.191  14.231  35.255  1.00  0.00     0.006 C 
BRANCH  16  17
ATOM     17  C   UNL     1      19.198  14.006  34.120  1.00  0.00     0.053 C 
BRANCH  17  18
ATOM     18  C   UNL     1      19.446  12.549  33.877  1.00  0.00     0.041 C 
ATOM     19  O   UNL     1      19.931  11.828  34.789  1.00  0.00    -0.550 OA
ATOM     20  O   UNL     1      19.172  11.993  32.633  1.00  0.00    -0.550 OA
ENDBRANCH  17  18
ENDBRANCH  16  17
ENDBRANCH  15  16
ENDBRANCH  14  15
ENDBRANCH  13  14
ENDBRANCH  12  13
ENDBRANCH  11  12
ENDBRANCH   1  11
TORSDOF 15
ENDMDL
MODEL 3
REMARK VINA RESULT:    -4.853      1.892      6.579
REMARK INTER + INTRA:         -11.133
REMARK INTER:                  -8.625
REMARK INTRA:                  -2.508
REMARK UNBOUND:                -2.024
REMARK SMILES O=C([O-])CCCCCCCCCCCCCCC(=O)[O-]
REMARK SMILES IDX 10 1 9 2 8 3 7 4 6 5 5 6 4 7 2 8 1 9 3 10 11 11 12 12 13 13
REMARK SMILES IDX 14 14 15 15 16 16 17 17 18 18 19 19 20 20
REMARK H PARENT
REMARK Flexibility Score: inf
ROOT
ATOM      1  C   UNL     1      13.126  12.307  33.373  1.00  0.00     0.000 C 
ENDROOT
BRANCH   1   2
ATOM      2  C   UNL     1      13.809  10.979  32.998  1.00  0.00     0.000 C 
BRANCH   2   3
ATOM      3  C   UNL     1      15.026  10.611  33.866  1.00  0.00     0.000 C 
BRANCH   3   4
ATOM      4  C   UNL     1      14.692  10.159  35.303  1.00  0.00     0.000 C 
BRANCH   4   5
ATOM      5  C   UNL     1      15.507  10.850  36.412  1.00  0.00     0.000 C 
BRANCH   5   6
ATOM      6  C   UNL     1      16.780  11.527  35.887  1.00  0.00     0.006 C 
BRANCH   6   7
ATOM      7  C   UNL     1      16.916  12.946  36.447  1.00  0.00     0.053 C 
BRANCH   7   8
ATOM      8  C   UNL     1      17.763  13.786  35.544  1.00  0.00     0.041 C 
ATOM      9  O   UNL     1      18.647  14.543  36.027  1.00  0.00    -0.550 OA
ATOM     10  O   UNL     1      17.546  13.771  34.172  1.00  0.00    -0.550 OA
ENDBRANCH   7   8
ENDBRANCH   6   7
ENDBRANCH   5   6
ENDBRANCH   4   5
ENDBRANCH   3   4
ENDBRANCH   2   3
ENDBRANCH   1   2
BRANCH   1  11
ATOM     11  C   UNL     1      14.105  13.386  33.882  1.00  0.00     0.000 C 
BRANCH  11  12
ATOM     12  C   UNL     1      13.641  14.022  35.203  1.00  0.00     0.000 C 
BRANCH  12  13
ATOM     13  C   UNL     1      12.338  13.405  35.735  1.00  0.00     0.000 C 
BRANCH  13  14
ATOM     14  C   UNL     1      12.511  12.747  37.112  1.00  0.00     0.000 C 
BRANCH  14  15
ATOM     15  C   UNL     1      11.748  11.418  37.183  1.00  0.00     0.000 C 
BRANCH  15  16
ATOM     16  C   UNL     1      11.666  10.908  38.630  1.00  0.00     0.006 C 
BRANCH  16  17
ATOM     17  C   UNL     1      12.884  10.057  39.016  1.00  0.00     0.053 C 
BRANCH  17  18
ATOM     18  C   UNL     1      12.817   8.686  38.416  1.00  0.00     0.041 C 
ATOM     19  O   UNL     1      13.872   8.100  38.057  1.00  0.00    -0.550 OA
ATOM     20  O   UNL     1      11.587   8.068  38.226  1.00  0.00    -0.550 OA
ENDBRANCH  17  18
ENDBRANCH  16  17
ENDBRANCH  15  16
ENDBRANCH  14  15
ENDBRANCH  13  14
ENDBRANCH  12  13
ENDBRANCH  11  12
ENDBRANCH   1  11
TORSDOF 15
ENDMDL
MODEL 4
REMARK VINA RESULT:    -4.828      1.893      2.304
REMARK INTER + INTRA:         -11.085
REMARK INTER:                  -9.138
REMARK INTRA:                  -1.947
REMARK UNBOUND:                -2.024
REMARK SMILES O=C([O-])CCCCCCCCCCCCCCC(=O)[O-]
REMARK SMILES IDX 10 1 9 2 8 3 7 4 6 5 5 6 4 7 2 8 1 9 3 10 11 11 12 12 13 13
REMARK SMILES IDX 14 14 15 15 16 16 17 17 18 18 19 19 20 20
REMARK H PARENT
REMARK Flexibility Score: inf
ROOT
ATOM      1  C   UNL     1      15.045  10.636  33.747  1.00  0.00     0.000 C 
ENDROOT
BRANCH   1   2
ATOM      2  C   UNL     1      13.761  11.034  32.995  1.00  0.00     0.000 C 
BRANCH   2   3
ATOM      3  C   UNL     1      13.376  12.520  33.117  1.00  0.00     0.000 C 
BRANCH   3   4
ATOM      4  C   UNL     1      12.535  12.878  34.361  1.00  0.00     0.000 C 
BRANCH   4   5
ATOM      5  C   UNL     1      13.199  13.866  35.337  1.00  0.00     0.000 C 
BRANCH   5   6
ATOM      6  C   UNL     1      13.583  13.220  36.676  1.00  0.00     0.006 C 
BRANCH   6   7
ATOM      7  C   UNL     1      13.028  11.797  36.775  1.00  0.00     0.053 C 
BRANCH   7   8
ATOM      8  C   UNL     1      12.131  11.666  37.965  1.00  0.00     0.041 C 
ATOM      9  O   UNL     1      12.306  10.732  38.792  1.00  0.00    -0.550 OA
ATOM     10  O   UNL     1      11.070  12.546  38.137  1.00  0.00    -0.550 OA
ENDBRANCH   7   8
ENDBRANCH   6   7
ENDBRANCH   5   6
ENDBRANCH   4   5
ENDBRANCH   3   4
ENDBRANCH   2   3
ENDBRANCH   1   2
BRANCH   1  11
ATOM     11  C   UNL     1      16.049  11.796  33.917  1.00  0.00     0.000 C 
BRANCH  11  12
ATOM     12  C   UNL     1      16.612  11.881  35.345  1.00  0.00     0.000 C 
BRANCH  12  13
ATOM     13  C   UNL     1      17.271  13.237  35.644  1.00  0.00     0.000 C 
BRANCH  13  14
ATOM     14  C   UNL     1      17.100  14.247  34.499  1.00  0.00     0.000 C 
BRANCH  14  15
ATOM     15  C   UNL     1      18.363  15.099  34.327  1.00  0.00     0.000 C 
BRANCH  15  16
ATOM     16  C   UNL     1      19.601  14.213  34.123  1.00  0.00     0.006 C 
BRANCH  16  17
ATOM     17  C   UNL     1      20.494  14.717  32.982  1.00  0.00     0.053 C 
BRANCH  17  18
ATOM     18  C   UNL     1      21.371  13.629  32.440  1.00  0.00     0.041 C 
ATOM     19  O   UNL     1      21.420  12.510  33.015  1.00  0.00    -0.550 OA
ATOM     20  O   UNL     1      22.157  13.862  31.318  1.00  0.00    -0.550 OA
ENDBRANCH  17  18
ENDBRANCH  16  17
ENDBRANCH  15  16
ENDBRANCH  14  15
ENDBRANCH  13  14
ENDBRANCH  12  13
ENDBRANCH  11  12
ENDBRANCH   1  11
TORSDOF 15
ENDMDL
MODEL 5
REMARK VINA RESULT:    -4.809      2.074      2.713
REMARK INTER + INTRA:         -11.049
REMARK INTER:                  -8.922
REMARK INTRA:                  -2.127
REMARK UNBOUND:                -2.024
REMARK SMILES O=C([O-])CCCCCCCCCCCCCCC(=O)[O-]
REMARK SMILES IDX 10 1 9 2 8 3 7 4 6 5 5 6 4 7 2 8 1 9 3 10 11 11 12 12 13 13
REMARK SMILES IDX 14 14 15 15 16 16 17 17 18 18 19 19 20 20
REMARK H PARENT
REMARK Flexibility Score: inf
ROOT
ATOM      1  C   UNL     1      16.179  11.928  33.609  1.00  0.00     0.000 C 
ENDROOT
BRANCH   1   2
ATOM      2  C   UNL     1      15.106  10.862  33.315  1.00  0.00     0.000 C 
BRANCH   2   3
ATOM      3  C   UNL     1      13.658  11.384  33.327  1.00  0.00     0.000 C 
BRANCH   3   4
ATOM      4  C   UNL     1      13.515  12.919  33.402  1.00  0.00     0.000 C 
BRANCH   4   5
ATOM      5  C   UNL     1      12.512  13.433  34.451  1.00  0.00     0.000 C 
BRANCH   5   6
ATOM      6  C   UNL     1      13.190  13.932  35.734  1.00  0.00     0.006 C 
BRANCH   6   7
ATOM      7  C   UNL     1      13.378  12.788  36.735  1.00  0.00     0.053 C 
BRANCH   7   8
ATOM      8  C   UNL     1      12.077  12.094  36.988  1.00  0.00     0.041 C 
ATOM      9  O   UNL     1      11.179  12.659  37.667  1.00  0.00    -0.550 OA
ATOM     10  O   UNL     1      11.872  10.804  36.515  1.00  0.00    -0.550 OA
ENDBRANCH   7   8
ENDBRANCH   6   7
ENDBRANCH   5   6
ENDBRANCH   4   5
ENDBRANCH   3   4
ENDBRANCH   2   3
ENDBRANCH   1   2
BRANCH   1  11
ATOM     11  C   UNL     1      16.658  11.937  35.077  1.00  0.00     0.000 C 
BRANCH  11  12
ATOM     12  C   UNL     1      16.909  13.360  35.603  1.00  0.00     0.000 C 
BRANCH  12  13
ATOM     13  C   UNL     1      17.765  13.379  36.879  1.00  0.00     0.000 C 
BRANCH  13  14
ATOM     14  C   UNL     1      19.105  14.105  36.684  1.00  0.00     0.000 C 
BRANCH  14  15
ATOM     15  C   UNL     1      19.318  14.479  35.213  1.00  0.00     0.000 C 
BRANCH  15  16
ATOM     16  C   UNL     1      20.498  13.701  34.613  1.00  0.00     0.006 C 
BRANCH  16  17
ATOM     17  C   UNL     1      20.039  12.612  33.633  1.00  0.00     0.053 C 
BRANCH  17  18
ATOM     18  C   UNL     1      20.263  11.237  34.185  1.00  0.00     0.041 C 
ATOM     19  O   UNL     1      20.594  10.294  33.420  1.00  0.00    -0.550 OA
ATOM     20  O   UNL     1      20.075  10.991  35.539  1.00  0.00    -0.550 OA
ENDBRANCH  17  18
ENDBRANCH  16  17
ENDBRANCH  15  16
ENDBRANCH  14  15
ENDBRANCH  13  14
ENDBRANCH  12  13
ENDBRANCH  11  12
ENDBRANCH   1  11
TORSDOF 15
ENDMDL
MODEL 6
REMARK VINA RESULT:    -4.778      1.222      6.909
REMARK INTER + INTRA:         -10.991
REMARK INTER:                  -9.135
REMARK INTRA:                  -1.856
REMARK UNBOUND:                -2.024
REMARK SMILES O=C([O-])CCCCCCCCCCCCCCC(=O)[O-]
REMARK SMILES IDX 10 1 9 2 8 3 7 4 6 5 5 6 4 7 2 8 1 9 3 10 11 11 12 12 13 13
REMARK SMILES IDX 14 14 15 15 16 16 17 17 18 18 19 19 20 20
REMARK H PARENT
REMARK Flexibility Score: inf
ROOT
ATOM      1  C   UNL     1      15.073  10.366  35.008  1.00  0.00     0.000 C 
ENDROOT
BRANCH   1   2
ATOM      2  C   UNL     1      15.849  10.982  36.187  1.00  0.00     0.000 C 
BRANCH   2   3
ATOM      3  C   UNL     1      17.131  11.737  35.791  1.00  0.00     0.000 C 
BRANCH   3   4
ATOM      4  C   UNL     1      17.156  13.232  36.176  1.00  0.00     0.000 C 
BRANCH   4   5
ATOM      5  C   UNL     1      18.414  13.692  36.935  1.00  0.00     0.000 C 
BRANCH   5   6
ATOM      6  C   UNL     1      19.368  14.522  36.065  1.00  0.00     0.006 C 
BRANCH   6   7
ATOM      7  C   UNL     1      18.671  14.998  34.788  1.00  0.00     0.053 C 
BRANCH   7   8
ATOM      8  C   UNL     1      19.609  15.806  33.948  1.00  0.00     0.041 C 
ATOM      9  O   UNL     1      20.721  15.327  33.599  1.00  0.00    -0.550 OA
ATOM     10  O   UNL     1      19.278  17.107  33.590  1.00  0.00    -0.550 OA
ENDBRANCH   7   8
ENDBRANCH   6   7
ENDBRANCH   5   6
ENDBRANCH   4   5
ENDBRANCH   3   4
ENDBRANCH   2   3
ENDBRANCH   1   2
BRANCH   1  11
ATOM     11  C   UNL     1      15.204  11.166  33.694  1.00  0.00     0.000 C 
BRANCH  11  12
ATOM     12  C   UNL     1      13.854  11.350  32.982  1.00  0.00     0.000 C 
BRANCH  12  13
ATOM     13  C   UNL     1      13.112  12.618  33.434  1.00  0.00     0.000 C 
BRANCH  13  14
ATOM     14  C   UNL     1      14.025  13.612  34.167  1.00  0.00     0.000 C 
BRANCH  14  15
ATOM     15  C   UNL     1      13.546  13.838  35.606  1.00  0.00     0.000 C 
BRANCH  15  16
ATOM     16  C   UNL     1      12.207  13.128  35.858  1.00  0.00     0.006 C 
BRANCH  16  17
ATOM     17  C   UNL     1      12.064  12.658  37.311  1.00  0.00     0.053 C 
BRANCH  17  18
ATOM     18  C   UNL     1      12.244  11.175  37.436  1.00  0.00     0.041 C 
ATOM     19  O   UNL     1      12.746  10.683  38.481  1.00  0.00    -0.550 OA
ATOM     20  O   UNL     1      11.885  10.339  36.386  1.00  0.00    -0.550 OA
ENDBRANCH  17  18
ENDBRANCH  16  17
ENDBRANCH  15  16
ENDBRANCH  14  15
ENDBRANCH  13  14
ENDBRANCH  12  13
ENDBRANCH  11  12
ENDBRANCH   1  11
TORSDOF 15
ENDMDL
MODEL 7
REMARK VINA RESULT:    -4.714      1.743      2.469
REMARK INTER + INTRA:         -10.871
REMARK INTER:                  -8.604
REMARK INTRA:                  -2.267
REMARK UNBOUND:                -2.024
REMARK SMILES O=C([O-])CCCCCCCCCCCCCCC(=O)[O-]
REMARK SMILES IDX 10 1 9 2 8 3 7 4 6 5 5 6 4 7 2 8 1 9 3 10 11 11 12 12 13 13
REMARK SMILES IDX 14 14 15 15 16 16 17 17 18 18 19 19 20 20
REMARK H PARENT
REMARK Flexibility Score: inf
ROOT
ATOM      1  C   UNL     1      13.200  11.583  32.932  1.00  0.00     0.000 C 
ENDROOT
BRANCH   1   2
ATOM      2  C   UNL     1      13.473  13.045  33.333  1.00  0.00     0.000 C 
BRANCH   2   3
ATOM      3  C   UNL     1      12.561  13.589  34.448  1.00  0.00     0.000 C 
BRANCH   3   4
ATOM      4  C   UNL     1      13.258  13.834  35.803  1.00  0.00     0.000 C 
BRANCH   4   5
ATOM      5  C   UNL     1      12.991  12.765  36.878  1.00  0.00     0.000 C 
BRANCH   5   6
ATOM      6  C   UNL     1      12.021  11.672  36.410  1.00  0.00     0.006 C 
BRANCH   6   7
ATOM      7  C   UNL     1      11.463  10.887  37.600  1.00  0.00     0.053 C 
BRANCH   7   8
ATOM      8  C   UNL     1      11.015   9.527  37.168  1.00  0.00     0.041 C 
ATOM      9  O   UNL     1      11.854   8.688  36.744  1.00  0.00    -0.550 OA
ATOM     10  O   UNL     1       9.665   9.200  37.187  1.00  0.00    -0.550 OA
ENDBRANCH   7   8
ENDBRANCH   6   7
ENDBRANCH   5   6
ENDBRANCH   4   5
ENDBRANCH   3   4
ENDBRANCH   2   3
ENDBRANCH   1   2
BRANCH   1  11
ATOM     11  C   UNL     1      14.449  10.679  32.998  1.00  0.00     0.000 C 
BRANCH  11  12
ATOM     12  C   UNL     1      15.001  10.545  34.427  1.00  0.00     0.000 C 
BRANCH  12  13
ATOM     13  C   UNL     1      16.375  11.212  34.599  1.00  0.00     0.000 C 
BRANCH  13  14
ATOM     14  C   UNL     1      16.638  11.669  36.042  1.00  0.00     0.000 C 
BRANCH  14  15
ATOM     15  C   UNL     1      16.824  13.190  36.110  1.00  0.00     0.000 C 
BRANCH  15  16
ATOM     16  C   UNL     1      16.801  13.810  34.705  1.00  0.00     0.006 C 
BRANCH  16  17
ATOM     17  C   UNL     1      18.015  14.713  34.449  1.00  0.00     0.053 C 
BRANCH  17  18
ATOM     18  C   UNL     1      19.272  13.918  34.268  1.00  0.00     0.041 C 
ATOM     19  O   UNL     1      20.322  14.244  34.882  1.00  0.00    -0.550 OA
ATOM     20  O   UNL     1      19.292  12.834  33.398  1.00  0.00    -0.550 OA
ENDBRANCH  17  18
ENDBRANCH  16  17
ENDBRANCH  15  16
ENDBRANCH  14  15
ENDBRANCH  13  14
ENDBRANCH  12  13
ENDBRANCH  11  12
ENDBRANCH   1  11
TORSDOF 15
ENDMDL
MODEL 8
REMARK VINA RESULT:    -4.695      2.001      6.836
REMARK INTER + INTRA:         -10.836
REMARK INTER:                  -8.518
REMARK INTRA:                  -2.318
REMARK UNBOUND:                -2.024
REMARK SMILES O=C([O-])CCCCCCCCCCCCCCC(=O)[O-]
REMARK SMILES IDX 10 1 9 2 8 3 7 4 6 5 5 6 4 7 2 8 1 9 3 10 11 11 12 12 13 13
REMARK SMILES IDX 14 14 15 15 16 16 17 17 18 18 19 19 20 20
REMARK H PARENT
REMARK Flexibility Score: inf
ROOT
ATOM      1  C   UNL     1      15.964  11.696  33.747  1.00  0.00     0.000 C 
ENDROOT
BRANCH   1   2
ATOM      2  C   UNL     1      16.733  11.206  34.988  1.00  0.00     0.000 C 
BRANCH   2   3
ATOM      3  C   UNL     1      16.767  12.202  36.162  1.00  0.00     0.000 C 
BRANCH   3   4
ATOM      4  C   UNL     1      17.186  13.639  35.789  1.00  0.00     0.000 C 
BRANCH   4   5
ATOM      5  C   UNL     1      18.601  14.045  36.237  1.00  0.00     0.000 C 
BRANCH   5   6
ATOM      6  C   UNL     1      19.432  14.671  35.107  1.00  0.00     0.006 C 
BRANCH   6   7
ATOM      7  C   UNL     1      19.504  13.735  33.898  1.00  0.00     0.053 C 
BRANCH   7   8
ATOM      8  C   UNL     1      20.533  12.672  34.118  1.00  0.00     0.041 C 
ATOM      9  O   UNL     1      21.756  12.972  34.161  1.00  0.00    -0.550 OA
ATOM     10  O   UNL     1      20.148  11.341  34.229  1.00  0.00    -0.550 OA
ENDBRANCH   7   8
ENDBRANCH   6   7
ENDBRANCH   5   6
ENDBRANCH   4   5
ENDBRANCH   3   4
ENDBRANCH   2   3
ENDBRANCH   1   2
BRANCH   1  11
ATOM     11  C   UNL     1      14.805  10.767  33.329  1.00  0.00     0.000 C 
BRANCH  11  12
ATOM     12  C   UNL     1      13.526  11.546  32.977  1.00  0.00     0.000 C 
BRANCH  12  13
ATOM     13  C   UNL     1      13.600  13.025  33.386  1.00  0.00     0.000 C 
BRANCH  13  14
ATOM     14  C   UNL     1      12.629  13.377  34.524  1.00  0.00     0.000 C 
BRANCH  14  15
ATOM     15  C   UNL     1      13.391  13.720  35.809  1.00  0.00     0.000 C 
BRANCH  15  16
ATOM     16  C   UNL     1      13.130  12.670  36.900  1.00  0.00     0.006 C 
BRANCH  16  17
ATOM     17  C   UNL     1      12.077  11.639  36.474  1.00  0.00     0.053 C 
BRANCH  17  18
ATOM     18  C   UNL     1      12.655  10.260  36.382  1.00  0.00     0.041 C 
ATOM     19  O   UNL     1      11.939   9.297  36.000  1.00  0.00    -0.550 OA
ATOM     20  O   UNL     1      13.976  10.032  36.747  1.00  0.00    -0.550 OA
ENDBRANCH  17  18
ENDBRANCH  16  17
ENDBRANCH  15  16
ENDBRANCH  14  15
ENDBRANCH  13  14
ENDBRANCH  12  13
ENDBRANCH  11  12
ENDBRANCH   1  11
TORSDOF 15
ENDMDL
MODEL 9
REMARK VINA RESULT:    -4.666      1.776      6.893
REMARK INTER + INTRA:         -10.781
REMARK INTER:                  -8.490
REMARK INTRA:                  -2.291
REMARK UNBOUND:                -2.024
REMARK SMILES O=C([O-])CCCCCCCCCCCCCCC(=O)[O-]
REMARK SMILES IDX 10 1 9 2 8 3 7 4 6 5 5 6 4 7 2 8 1 9 3 10 11 11 12 12 13 13
REMARK SMILES IDX 14 14 15 15 16 16 17 17 18 18 19 19 20 20
REMARK H PARENT
REMARK Flexibility Score: inf
ROOT
ATOM      1  C   UNL     1      13.517  11.516  32.832  1.00  0.00     0.000 C 
ENDROOT
BRANCH   1   2
ATOM      2  C   UNL     1      14.773  10.708  33.211  1.00  0.00     0.000 C 
BRANCH   2   3
ATOM      3  C   UNL     1      16.064  11.539  33.323  1.00  0.00     0.000 C 
BRANCH   3   4
ATOM      4  C   UNL     1      16.613  11.705  34.756  1.00  0.00     0.000 C 
BRANCH   4   5
ATOM      5  C   UNL     1      16.500  13.125  35.340  1.00  0.00     0.000 C 
BRANCH   5   6
ATOM      6  C   UNL     1      17.668  13.487  36.267  1.00  0.00     0.006 C 
BRANCH   6   7
ATOM      7  C   UNL     1      19.006  13.070  35.650  1.00  0.00     0.053 C 
BRANCH   7   8
ATOM      8  C   UNL     1      19.485  14.109  34.685  1.00  0.00     0.041 C 
ATOM      9  O   UNL     1      19.833  13.779  33.520  1.00  0.00    -0.550 OA
ATOM     10  O   UNL     1      19.592  15.435  35.086  1.00  0.00    -0.550 OA
ENDBRANCH   7   8
ENDBRANCH   6   7
ENDBRANCH   5   6
ENDBRANCH   4   5
ENDBRANCH   3   4
ENDBRANCH   2   3
ENDBRANCH   1   2
BRANCH   1  11
ATOM     11  C   UNL     1      13.568  12.990  33.287  1.00  0.00     0.000 C 
BRANCH  11  12
ATOM     12  C   UNL     1      12.367  13.375  34.166  1.00  0.00     0.000 C 
BRANCH  12  13
ATOM     13  C   UNL     1      12.775  13.750  35.599  1.00  0.00     0.000 C 
BRANCH  13  14
ATOM     14  C   UNL     1      12.409  12.667  36.625  1.00  0.00     0.000 C 
BRANCH  14  15
ATOM     15  C   UNL     1      13.662  11.935  37.119  1.00  0.00     0.000 C 
BRANCH  15  16
ATOM     16  C   UNL     1      13.640  10.458  36.696  1.00  0.00     0.006 C 
BRANCH  16  17
ATOM     17  C   UNL     1      12.310  10.062  36.040  1.00  0.00     0.053 C 
BRANCH  17  18
ATOM     18  C   UNL     1      11.602   8.996  36.818  1.00  0.00     0.041 C 
ATOM     19  O   UNL     1      12.259   8.177  37.514  1.00  0.00    -0.550 OA
ATOM     20  O   UNL     1      10.219   8.886  36.750  1.00  0.00    -0.550 OA
ENDBRANCH  17  18
ENDBRANCH  16  17
ENDBRANCH  15  16
ENDBRANCH  14  15
ENDBRANCH  13  14
ENDBRANCH  12  13
ENDBRANCH  11  12
ENDBRANCH   1  11
TORSDOF 15
ENDMDL
