MODEL 1
REMARK VINA RESULT:    -2.596      0.000      0.000
REMARK INTER + INTRA:          -2.938
REMARK INTER:                  -2.899
REMARK INTRA:                  -0.039
REMARK UNBOUND:                -0.039
REMARK SMILES CCCC(=O)[O-]
REMARK SMILES IDX 3 1 4 2 5 3 6 4 2 5 1 6
REMARK H PARENT
REMARK Flexibility Score: inf
ROOT
ATOM      1  C   UNL     1      18.265 127.118  63.492  1.00  0.00     0.052 C 
ENDROOT
BRANCH   1   2
ATOM      2  C   UNL     1      18.422 128.147  62.415  1.00  0.00     0.041 C 
ATOM      3  O   UNL     1      17.406 128.689  61.904  1.00  0.00    -0.550 OA
ATOM      4  O   UNL     1      19.688 128.482  61.950  1.00  0.00    -0.550 OA
ENDBRANCH   1   2
BRANCH   1   5
ATOM      5  C   UNL     1      17.911 125.741  62.917  1.00  0.00     0.003 C 
ATOM      6  C   UNL     1      19.140 124.847  62.752  1.00  0.00     0.004 C 
ENDBRANCH   1   5
TORSDOF 2
ENDMDL
MODEL 2
REMARK VINA RESULT:    -2.575      1.713      2.464
REMARK INTER + INTRA:          -2.915
REMARK INTER:                  -2.904
REMARK INTRA:                  -0.011
REMARK UNBOUND:                -0.039
REMARK SMILES CCCC(=O)[O-]
REMARK SMILES IDX 3 1 4 2 5 3 6 4 2 5 1 6
REMARK H PARENT
REMARK Flexibility Score: inf
ROOT
ATOM      1  C   UNL     1      17.354 125.353  62.748  1.00  0.00     0.052 C 
ENDROOT
BRANCH   1   2
ATOM      2  C   UNL     1      16.711 126.680  63.014  1.00  0.00     0.041 C 
ATOM      3  O   UNL     1      17.200 127.730  62.520  1.00  0.00    -0.550 OA
ATOM      4  O   UNL     1      15.593 126.761  63.835  1.00  0.00    -0.550 OA
ENDBRANCH   1   2
BRANCH   1   5
ATOM      5  C   UNL     1      18.877 125.413  62.925  1.00  0.00     0.003 C 
ATOM      6  C   UNL     1      19.586 124.237  62.255  1.00  0.00     0.004 C 
ENDBRANCH   1   5
TORSDOF 2
ENDMDL
MODEL 3
REMARK VINA RESULT:    -2.558      3.092      3.645
REMARK INTER + INTRA:          -2.896
REMARK INTER:                  -2.887
REMARK INTRA:                  -0.009
REMARK UNBOUND:                -0.039
REMARK SMILES CCCC(=O)[O-]
REMARK SMILES IDX 3 1 4 2 5 3 6 4 2 5 1 6
REMARK H PARENT
REMARK Flexibility Score: inf
ROOT
ATOM      1  C   UNL     1      18.854 125.792  62.973  1.00  0.00     0.052 C 
ENDROOT
BRANCH   1   2
ATOM      2  C   UNL     1      19.528 124.474  62.742  1.00  0.00     0.041 C 
ATOM      3  O   UNL     1      19.237 123.783  61.730  1.00  0.00    -0.550 OA
ATOM      4  O   UNL     1      20.453 123.993  63.660  1.00  0.00    -0.550 OA
ENDBRANCH   1   2
BRANCH   1   5
ATOM      5  C   UNL     1      17.328 125.676  62.868  1.00  0.00     0.003 C 
ATOM      6  C   UNL     1      16.641 127.040  62.846  1.00  0.00     0.004 C 
ENDBRANCH   1   5
TORSDOF 2
ENDMDL
MODEL 4
REMARK VINA RESULT:    -2.557      9.299      9.752
REMARK INTER + INTRA:          -2.895
REMARK INTER:                  -2.861
REMARK INTRA:                  -0.033
REMARK UNBOUND:                -0.039
REMARK SMILES CCCC(=O)[O-]
REMARK SMILES IDX 3 1 4 2 5 3 6 4 2 5 1 6
REMARK H PARENT
REMARK Flexibility Score: inf
ROOT
ATOM      1  C   UNL     1      16.236 127.653  53.003  1.00  0.00     0.052 C 
ENDROOT
BRANCH   1   2
ATOM      2  C   UNL     1      17.188 128.581  52.313  1.00  0.00     0.041 C 
ATOM      3  O   UNL     1      17.270 128.583  51.056  1.00  0.00    -0.550 OA
ATOM      4  O   UNL     1      18.009 129.418  53.057  1.00  0.00    -0.550 OA
ENDBRANCH   1   2
BRANCH   1   5
ATOM      5  C   UNL     1      15.729 128.241  54.327  1.00  0.00     0.003 C 
ATOM      6  C   UNL     1      16.344 127.549  55.543  1.00  0.00     0.004 C 
ENDBRANCH   1   5
TORSDOF 2
ENDMDL
MODEL 5
REMARK VINA RESULT:    -2.543      2.149      2.978
REMARK INTER + INTRA:          -2.879
REMARK INTER:                  -2.835
REMARK INTRA:                  -0.044
REMARK UNBOUND:                -0.039
REMARK SMILES CCCC(=O)[O-]
REMARK SMILES IDX 3 1 4 2 5 3 6 4 2 5 1 6
REMARK H PARENT
REMARK Flexibility Score: inf
ROOT
ATOM      1  C   UNL     1      18.193 127.072  63.581  1.00  0.00     0.052 C 
ENDROOT
BRANCH   1   2
ATOM      2  C   UNL     1      18.140 125.719  62.940  1.00  0.00     0.041 C 
ATOM      3  O   UNL     1      17.039 125.246  62.551  1.00  0.00    -0.550 OA
ATOM      4  O   UNL     1      19.300 124.966  62.803  1.00  0.00    -0.550 OA
ENDBRANCH   1   2
BRANCH   1   5
ATOM      5  C   UNL     1      17.995 128.195  62.555  1.00  0.00     0.003 C 
ATOM      6  C   UNL     1      19.311 128.643  61.922  1.00  0.00     0.004 C 
ENDBRANCH   1   5
TORSDOF 2
ENDMDL
MODEL 6
REMARK VINA RESULT:    -2.511      2.384      3.139
REMARK INTER + INTRA:          -2.843
REMARK INTER:                  -2.815
REMARK INTRA:                  -0.028
REMARK UNBOUND:                -0.039
REMARK SMILES CCCC(=O)[O-]
REMARK SMILES IDX 3 1 4 2 5 3 6 4 2 5 1 6
REMARK H PARENT
REMARK Flexibility Score: inf
ROOT
ATOM      1  C   UNL     1      18.502 127.127  62.975  1.00  0.00     0.052 C 
ENDROOT
BRANCH   1   2
ATOM      2  C   UNL     1      18.213 125.659  62.920  1.00  0.00     0.041 C 
ATOM      3  O   UNL     1      17.023 125.247  62.912  1.00  0.00    -0.550 OA
ATOM      4  O   UNL     1      19.258 124.742  62.913  1.00  0.00    -0.550 OA
ENDBRANCH   1   2
BRANCH   1   5
ATOM      5  C   UNL     1      17.527 127.865  63.903  1.00  0.00     0.003 C 
ATOM      6  C   UNL     1      18.161 128.221  65.247  1.00  0.00     0.004 C 
ENDBRANCH   1   5
TORSDOF 2
ENDMDL
MODEL 7
REMARK VINA RESULT:    -2.504      1.799      1.861
REMARK INTER + INTRA:          -2.836
REMARK INTER:                  -2.827
REMARK INTRA:                  -0.009
REMARK UNBOUND:                -0.039
REMARK SMILES CCCC(=O)[O-]
REMARK SMILES IDX 3 1 4 2 5 3 6 4 2 5 1 6
REMARK H PARENT
REMARK Flexibility Score: inf
ROOT
ATOM      1  C   UNL     1      18.585 126.946  62.894  1.00  0.00     0.052 C 
ENDROOT
BRANCH   1   2
ATOM      2  C   UNL     1      17.912 127.673  64.018  1.00  0.00     0.041 C 
ATOM      3  O   UNL     1      16.721 127.402  64.324  1.00  0.00    -0.550 OA
ATOM      4  O   UNL     1      18.589 128.673  64.705  1.00  0.00    -0.550 OA
ENDBRANCH   1   2
BRANCH   1   5
ATOM      5  C   UNL     1      18.263 125.445  62.915  1.00  0.00     0.003 C 
ATOM      6  C   UNL     1      19.483 124.585  62.590  1.00  0.00     0.004 C 
ENDBRANCH   1   5
TORSDOF 2
ENDMDL
MODEL 8
REMARK VINA RESULT:    -2.360      2.258      3.176
REMARK INTER + INTRA:          -2.675
REMARK INTER:                  -2.660
REMARK INTRA:                  -0.015
REMARK UNBOUND:                -0.039
REMARK SMILES CCCC(=O)[O-]
REMARK SMILES IDX 3 1 4 2 5 3 6 4 2 5 1 6
REMARK H PARENT
REMARK Flexibility Score: inf
ROOT
ATOM      1  C   UNL     1      18.410 129.148  64.321  1.00  0.00     0.052 C 
ENDROOT
BRANCH   1   2
ATOM      2  C   UNL     1      18.630 128.276  63.122  1.00  0.00     0.041 C 
ATOM      3  O   UNL     1      18.220 127.086  63.121  1.00  0.00    -0.550 OA
ATOM      4  O   UNL     1      19.319 128.768  62.020  1.00  0.00    -0.550 OA
ENDBRANCH   1   2
BRANCH   1   5
ATOM      5  C   UNL     1      18.137 128.320  65.583  1.00  0.00     0.003 C 
ATOM      6  C   UNL     1      17.346 129.102  66.631  1.00  0.00     0.004 C 
ENDBRANCH   1   5
TORSDOF 2
ENDMDL
MODEL 9
REMARK VINA RESULT:    -2.329      8.231      8.815
REMARK INTER + INTRA:          -2.641
REMARK INTER:                  -2.601
REMARK INTRA:                  -0.039
REMARK UNBOUND:                -0.039
REMARK SMILES CCCC(=O)[O-]
REMARK SMILES IDX 3 1 4 2 5 3 6 4 2 5 1 6
REMARK H PARENT
REMARK Flexibility Score: inf
ROOT
ATOM      1  C   UNL     1      16.529 127.503  54.979  1.00  0.00     0.052 C 
ENDROOT
BRANCH   1   2
ATOM      2  C   UNL     1      15.914 127.996  53.704  1.00  0.00     0.041 C 
ATOM      3  O   UNL     1      14.795 128.573  53.723  1.00  0.00    -0.550 OA
ATOM      4  O   UNL     1      16.562 127.787  52.493  1.00  0.00    -0.550 OA
ENDBRANCH   1   2
BRANCH   1   5
ATOM      5  C   UNL     1      17.367 128.591  55.663  1.00  0.00     0.003 C 
ATOM      6  C   UNL     1      18.773 128.698  55.075  1.00  0.00     0.004 C 
ENDBRANCH   1   5
TORSDOF 2
ENDMDL
