MODEL 1
REMARK VINA RESULT:    -5.699      0.000      0.000
REMARK INTER + INTRA:          -6.530
REMARK INTER:                  -6.365
REMARK INTRA:                  -0.165
REMARK UNBOUND:                -0.165
REMARK SMILES C=CCc1ccc2c(c1)OCO2
REMARK SMILES IDX 3 1 2 2 1 3 4 4 9 5 5 6 8 7 6 8 7 9 10 10 12 11 11 12
REMARK H PARENT
REMARK Flexibility Score: inf
ROOT
ATOM      1  C   UNL     1      -0.945   9.023  21.024  1.00  0.00     0.062 C 
ENDROOT
BRANCH   1   2
ATOM      2  C   UNL     1      -1.991   8.590  20.036  1.00  0.00    -0.030 C 
ATOM      3  C   UNL     1      -3.005   9.390  19.691  1.00  0.00     0.004 C 
ENDBRANCH   1   2
BRANCH   1   4
ATOM      4  C   UNL     1      -0.571   7.887  21.938  1.00  0.00    -0.040 A 
ATOM      5  C   UNL     1       0.664   7.219  21.777  1.00  0.00     0.054 A 
ATOM      6  C   UNL     1      -1.479   7.451  22.938  1.00  0.00     0.008 A 
ATOM      7  C   UNL     1       0.949   6.156  22.629  1.00  0.00     0.166 A 
ATOM      8  C   UNL     1      -1.152   6.372  23.778  1.00  0.00     0.051 A 
ATOM      9  C   UNL     1       0.079   5.750  23.589  1.00  0.00     0.165 A 
ATOM     10  O   UNL     1       2.079   5.362  22.667  1.00  0.00    -0.454 OA
ATOM     11  O   UNL     1       0.619   4.682  24.278  1.00  0.00    -0.454 OA
ATOM     12  C   UNL     1       1.908   4.398  23.716  1.00  0.00     0.468 C 
ENDBRANCH   1   4
TORSDOF 2
ENDMDL
MODEL 2
REMARK VINA RESULT:    -5.484      1.028      1.687
REMARK INTER + INTRA:          -6.291
REMARK INTER:                  -6.065
REMARK INTRA:                  -0.226
REMARK UNBOUND:                -0.165
REMARK SMILES C=CCc1ccc2c(c1)OCO2
REMARK SMILES IDX 3 1 2 2 1 3 4 4 9 5 5 6 8 7 6 8 7 9 10 10 12 11 11 12
REMARK H PARENT
REMARK Flexibility Score: inf
ROOT
ATOM      1  C   UNL     1      -0.505   9.108  21.116  1.00  0.00     0.062 C 
ENDROOT
BRANCH   1   2
ATOM      2  C   UNL     1       0.477  10.210  21.399  1.00  0.00    -0.030 C 
ATOM      3  C   UNL     1       0.526  10.820  22.587  1.00  0.00     0.004 C 
ENDBRANCH   1   2
BRANCH   1   4
ATOM      4  C   UNL     1      -0.243   7.920  22.002  1.00  0.00    -0.040 A 
ATOM      5  C   UNL     1       0.945   7.169  21.855  1.00  0.00     0.054 A 
ATOM      6  C   UNL     1      -1.211   7.522  22.961  1.00  0.00     0.008 A 
ATOM      7  C   UNL     1       1.125   6.063  22.680  1.00  0.00     0.166 A 
ATOM      8  C   UNL     1      -0.989   6.396  23.774  1.00  0.00     0.051 A 
ATOM      9  C   UNL     1       0.199   5.692  23.600  1.00  0.00     0.165 A 
ATOM     10  O   UNL     1       2.193   5.187  22.724  1.00  0.00    -0.454 OA
ATOM     11  O   UNL     1       0.638   4.567  24.269  1.00  0.00    -0.454 OA
ATOM     12  C   UNL     1       1.920   4.206  23.736  1.00  0.00     0.468 C 
ENDBRANCH   1   4
TORSDOF 2
ENDMDL
MODEL 3
REMARK VINA RESULT:    -5.278      2.263      5.013
REMARK INTER + INTRA:          -6.061
REMARK INTER:                  -5.920
REMARK INTRA:                  -0.140
REMARK UNBOUND:                -0.165
REMARK SMILES C=CCc1ccc2c(c1)OCO2
REMARK SMILES IDX 3 1 2 2 1 3 4 4 9 5 5 6 8 7 6 8 7 9 10 10 12 11 11 12
REMARK H PARENT
REMARK Flexibility Score: inf
ROOT
ATOM      1  C   UNL     1       1.504   3.923  23.380  1.00  0.00     0.062 C 
ENDROOT
BRANCH   1   2
ATOM      2  C   UNL     1       2.505   4.047  24.494  1.00  0.00    -0.030 C 
ATOM      3  C   UNL     1       3.230   3.002  24.907  1.00  0.00     0.004 C 
ENDBRANCH   1   2
BRANCH   1   4
ATOM      4  C   UNL     1       0.861   5.252  23.092  1.00  0.00    -0.040 A 
ATOM      5  C   UNL     1       1.436   6.133  22.147  1.00  0.00     0.054 A 
ATOM      6  C   UNL     1      -0.304   5.647  23.801  1.00  0.00     0.008 A 
ATOM      7  C   UNL     1       0.817   7.362  21.938  1.00  0.00     0.166 A 
ATOM      8  C   UNL     1      -0.897   6.899  23.559  1.00  0.00     0.051 A 
ATOM      9  C   UNL     1      -0.301   7.729  22.614  1.00  0.00     0.165 A 
ATOM     10  O   UNL     1       1.187   8.375  21.075  1.00  0.00    -0.454 OA
ATOM     11  O   UNL     1      -0.691   8.991  22.209  1.00  0.00    -0.454 OA
ATOM     12  C   UNL     1       0.241   9.445  21.217  1.00  0.00     0.468 C 
ENDBRANCH   1   4
TORSDOF 2
ENDMDL
MODEL 4
REMARK VINA RESULT:    -5.014      2.212      5.409
REMARK INTER + INTRA:          -5.765
REMARK INTER:                  -5.614
REMARK INTRA:                  -0.151
REMARK UNBOUND:                -0.165
REMARK SMILES C=CCc1ccc2c(c1)OCO2
REMARK SMILES IDX 3 1 2 2 1 3 4 4 9 5 5 6 8 7 6 8 7 9 10 10 12 11 11 12
REMARK H PARENT
REMARK Flexibility Score: inf
ROOT
ATOM      1  C   UNL     1       1.477   3.583  23.727  1.00  0.00     0.062 C 
ENDROOT
BRANCH   1   2
ATOM      2  C   UNL     1       2.689   3.662  24.612  1.00  0.00    -0.030 C 
ATOM      3  C   UNL     1       3.474   2.601  24.823  1.00  0.00     0.004 C 
ENDBRANCH   1   2
BRANCH   1   4
ATOM      4  C   UNL     1       1.133   4.938  23.171  1.00  0.00    -0.040 A 
ATOM      5  C   UNL     1       0.025   5.657  23.676  1.00  0.00     0.054 A 
ATOM      6  C   UNL     1       1.895   5.483  22.104  1.00  0.00     0.008 A 
ATOM      7  C   UNL     1      -0.266   6.893  23.107  1.00  0.00     0.166 A 
ATOM      8  C   UNL     1       1.565   6.736  21.557  1.00  0.00     0.051 A 
ATOM      9  C   UNL     1       0.471   7.411  22.092  1.00  0.00     0.165 A 
ATOM     10  O   UNL     1      -1.284   7.770  23.429  1.00  0.00    -0.454 OA
ATOM     11  O   UNL     1      -0.044   8.639  21.727  1.00  0.00    -0.454 OA
ATOM     12  C   UNL     1      -1.177   8.910  22.564  1.00  0.00     0.468 C 
ENDBRANCH   1   4
TORSDOF 2
ENDMDL
MODEL 5
REMARK VINA RESULT:    -4.981      3.531      5.415
REMARK INTER + INTRA:          -5.728
REMARK INTER:                  -5.574
REMARK INTRA:                  -0.154
REMARK UNBOUND:                -0.165
REMARK SMILES C=CCc1ccc2c(c1)OCO2
REMARK SMILES IDX 3 1 2 2 1 3 4 4 9 5 5 6 8 7 6 8 7 9 10 10 12 11 11 12
REMARK H PARENT
REMARK Flexibility Score: inf
ROOT
ATOM      1  C   UNL     1       1.116   4.478  23.307  1.00  0.00     0.062 C 
ENDROOT
BRANCH   1   2
ATOM      2  C   UNL     1       0.378   5.640  23.907  1.00  0.00    -0.030 C 
ATOM      3  C   UNL     1      -0.958   5.687  23.932  1.00  0.00     0.004 C 
ENDBRANCH   1   2
BRANCH   1   4
ATOM      4  C   UNL     1       2.353   4.162  24.103  1.00  0.00    -0.040 A 
ATOM      5  C   UNL     1       3.248   5.193  24.469  1.00  0.00     0.054 A 
ATOM      6  C   UNL     1       2.650   2.819  24.454  1.00  0.00     0.008 A 
ATOM      7  C   UNL     1       4.392   4.844  25.181  1.00  0.00     0.166 A 
ATOM      8  C   UNL     1       3.818   2.510  25.174  1.00  0.00     0.051 A 
ATOM      9  C   UNL     1       4.665   3.559  25.519  1.00  0.00     0.165 A 
ATOM     10  O   UNL     1       5.401   5.666  25.646  1.00  0.00    -0.454 OA
ATOM     11  O   UNL     1       5.857   3.508  26.215  1.00  0.00    -0.454 OA
ATOM     12  C   UNL     1       6.366   4.845  26.319  1.00  0.00     0.468 C 
ENDBRANCH   1   4
TORSDOF 2
ENDMDL
MODEL 6
REMARK VINA RESULT:    -4.974      3.500      7.426
REMARK INTER + INTRA:          -5.720
REMARK INTER:                  -5.534
REMARK INTRA:                  -0.187
REMARK UNBOUND:                -0.165
REMARK SMILES C=CCc1ccc2c(c1)OCO2
REMARK SMILES IDX 3 1 2 2 1 3 4 4 9 5 5 6 8 7 6 8 7 9 10 10 12 11 11 12
REMARK H PARENT
REMARK Flexibility Score: inf
ROOT
ATOM      1  C   UNL     1       6.215   4.269  26.093  1.00  0.00     0.062 C 
ENDROOT
BRANCH   1   2
ATOM      2  C   UNL     1       6.706   2.985  26.700  1.00  0.00    -0.030 C 
ATOM      3  C   UNL     1       7.865   2.431  26.329  1.00  0.00     0.004 C 
ENDBRANCH   1   2
BRANCH   1   4
ATOM      4  C   UNL     1       4.870   4.073  25.447  1.00  0.00    -0.040 A 
ATOM      5  C   UNL     1       4.145   5.184  24.959  1.00  0.00     0.054 A 
ATOM      6  C   UNL     1       4.302   2.774  25.367  1.00  0.00     0.008 A 
ATOM      7  C   UNL     1       2.893   4.951  24.397  1.00  0.00     0.166 A 
ATOM      8  C   UNL     1       3.033   2.584  24.791  1.00  0.00     0.051 A 
ATOM      9  C   UNL     1       2.360   3.706  24.316  1.00  0.00     0.165 A 
ATOM     10  O   UNL     1       2.010   5.865  23.855  1.00  0.00    -0.454 OA
ATOM     11  O   UNL     1       1.117   3.774  23.719  1.00  0.00    -0.454 OA
ATOM     12  C   UNL     1       0.851   5.149  23.406  1.00  0.00     0.468 C 
ENDBRANCH   1   4
TORSDOF 2
ENDMDL
MODEL 7
REMARK VINA RESULT:    -4.695      3.132      5.281
REMARK INTER + INTRA:          -5.410
REMARK INTER:                  -5.244
REMARK INTRA:                  -0.166
REMARK UNBOUND:                -0.165
REMARK SMILES C=CCc1ccc2c(c1)OCO2
REMARK SMILES IDX 3 1 2 2 1 3 4 4 9 5 5 6 8 7 6 8 7 9 10 10 12 11 11 12
REMARK H PARENT
REMARK Flexibility Score: inf
ROOT
ATOM      1  C   UNL     1       1.864   6.230  21.829  1.00  0.00     0.062 C 
ENDROOT
BRANCH   1   2
ATOM      2  C   UNL     1       1.253   5.614  23.056  1.00  0.00    -0.030 C 
ATOM      3  C   UNL     1       1.490   4.344  23.397  1.00  0.00     0.004 C 
ENDBRANCH   1   2
BRANCH   1   4
ATOM      4  C   UNL     1       1.209   7.546  21.509  1.00  0.00    -0.040 A 
ATOM      5  C   UNL     1       1.996   8.683  21.217  1.00  0.00     0.054 A 
ATOM      6  C   UNL     1      -0.206   7.663  21.544  1.00  0.00     0.008 A 
ATOM      7  C   UNL     1       1.341   9.882  20.957  1.00  0.00     0.166 A 
ATOM      8  C   UNL     1      -0.827   8.895  21.275  1.00  0.00     0.051 A 
ATOM      9  C   UNL     1      -0.012   9.985  20.984  1.00  0.00     0.165 A 
ATOM     10  O   UNL     1       1.889  11.112  20.647  1.00  0.00    -0.454 OA
ATOM     11  O   UNL     1      -0.382  11.283  20.691  1.00  0.00    -0.454 OA
ATOM     12  C   UNL     1       0.812  12.044  20.468  1.00  0.00     0.468 C 
ENDBRANCH   1   4
TORSDOF 2
ENDMDL
MODEL 8
REMARK VINA RESULT:    -4.627      4.947      8.758
REMARK INTER + INTRA:          -5.333
REMARK INTER:                  -5.167
REMARK INTRA:                  -0.166
REMARK UNBOUND:                -0.165
REMARK SMILES C=CCc1ccc2c(c1)OCO2
REMARK SMILES IDX 3 1 2 2 1 3 4 4 9 5 5 6 8 7 6 8 7 9 10 10 12 11 11 12
REMARK H PARENT
REMARK Flexibility Score: inf
ROOT
ATOM      1  C   UNL     1       7.377   2.496  26.929  1.00  0.00     0.062 C 
ENDROOT
BRANCH   1   2
ATOM      2  C   UNL     1       7.425   1.078  26.434  1.00  0.00    -0.030 C 
ATOM      3  C   UNL     1       7.525   0.044  27.275  1.00  0.00     0.004 C 
ENDBRANCH   1   2
BRANCH   1   4
ATOM      4  C   UNL     1       6.249   3.250  26.278  1.00  0.00    -0.040 A 
ATOM      5  C   UNL     1       5.099   2.564  25.827  1.00  0.00     0.054 A 
ATOM      6  C   UNL     1       6.356   4.651  26.074  1.00  0.00     0.008 A 
ATOM      7  C   UNL     1       4.097   3.305  25.206  1.00  0.00     0.166 A 
ATOM      8  C   UNL     1       5.320   5.361  25.441  1.00  0.00     0.051 A 
ATOM      9  C   UNL     1       4.202   4.645  25.022  1.00  0.00     0.165 A 
ATOM     10  O   UNL     1       2.894   2.863  24.691  1.00  0.00    -0.454 OA
ATOM     11  O   UNL     1       3.071   5.113  24.383  1.00  0.00    -0.454 OA
ATOM     12  C   UNL     1       2.201   3.996  24.150  1.00  0.00     0.468 C 
ENDBRANCH   1   4
TORSDOF 2
ENDMDL
MODEL 9
REMARK VINA RESULT:    -4.523      2.238      3.450
REMARK INTER + INTRA:          -5.217
REMARK INTER:                  -5.047
REMARK INTRA:                  -0.170
REMARK UNBOUND:                -0.165
REMARK SMILES C=CCc1ccc2c(c1)OCO2
REMARK SMILES IDX 3 1 2 2 1 3 4 4 9 5 5 6 8 7 6 8 7 9 10 10 12 11 11 12
REMARK H PARENT
REMARK Flexibility Score: inf
ROOT
ATOM      1  C   UNL     1       1.952   9.318  20.753  1.00  0.00     0.062 C 
ENDROOT
BRANCH   1   2
ATOM      2  C   UNL     1       2.862  10.165  21.597  1.00  0.00    -0.030 C 
ATOM      3  C   UNL     1       2.752  11.496  21.631  1.00  0.00     0.004 C 
ENDBRANCH   1   2
BRANCH   1   4
ATOM      4  C   UNL     1       1.427   8.149  21.541  1.00  0.00    -0.040 A 
ATOM      5  C   UNL     1       0.119   8.178  22.074  1.00  0.00     0.054 A 
ATOM      6  C   UNL     1       2.262   7.028  21.791  1.00  0.00     0.008 A 
ATOM      7  C   UNL     1      -0.308   7.083  22.820  1.00  0.00     0.166 A 
ATOM      8  C   UNL     1       1.791   5.942  22.550  1.00  0.00     0.051 A 
ATOM      9  C   UNL     1       0.493   6.011  23.048  1.00  0.00     0.165 A 
ATOM     10  O   UNL     1      -1.530   6.882  23.432  1.00  0.00    -0.454 OA
ATOM     11  O   UNL     1      -0.186   5.083  23.813  1.00  0.00    -0.454 OA
ATOM     12  C   UNL     1      -1.494   5.604  24.084  1.00  0.00     0.468 C 
ENDBRANCH   1   4
TORSDOF 2
ENDMDL
