MODEL 1
REMARK VINA RESULT:    -4.052      0.000      0.000
REMARK INTER + INTRA:          -6.344
REMARK INTER:                  -5.710
REMARK INTRA:                  -0.634
REMARK UNBOUND:                -0.634
REMARK SMILES CCCCCCCCC(=O)[O-]
REMARK SMILES IDX 6 1 7 2 8 3 9 4 10 5 11 6 5 7 4 8 3 9 2 10 1 11
REMARK H PARENT
REMARK Flexibility Score: inf
ROOT
ATOM      1  C   UNL     1      -6.680  -2.149   5.622  1.00  0.00     0.000 C 
ENDROOT
BRANCH   1   2
ATOM      2  C   UNL     1      -5.542  -1.123   5.681  1.00  0.00     0.006 C 
BRANCH   2   3
ATOM      3  C   UNL     1      -5.305  -0.644   7.117  1.00  0.00     0.053 C 
BRANCH   3   4
ATOM      4  C   UNL     1      -5.629   0.811   7.244  1.00  0.00     0.041 C 
ATOM      5  O   UNL     1      -4.715   1.673   7.162  1.00  0.00    -0.550 OA
ATOM      6  O   UNL     1      -6.933   1.213   7.503  1.00  0.00    -0.550 OA
ENDBRANCH   3   4
ENDBRANCH   2   3
ENDBRANCH   1   2
BRANCH   1   7
ATOM      7  C   UNL     1      -6.127  -3.578   5.525  1.00  0.00     0.000 C 
BRANCH   7   8
ATOM      8  C   UNL     1      -4.761  -3.637   4.823  1.00  0.00    -0.000 C 
BRANCH   8   9
ATOM      9  C   UNL     1      -3.768  -4.571   5.536  1.00  0.00    -0.000 C 
BRANCH   9  10
ATOM     10  C   UNL     1      -2.987  -3.859   6.651  1.00  0.00    -0.003 C 
ATOM     11  C   UNL     1      -1.878  -2.956   6.112  1.00  0.00     0.004 C 
ENDBRANCH   9  10
ENDBRANCH   8   9
ENDBRANCH   7   8
ENDBRANCH   1   7
TORSDOF 7
ENDMDL
MODEL 2
REMARK VINA RESULT:    -3.855      0.892      1.497
REMARK INTER + INTRA:          -6.067
REMARK INTER:                  -5.382
REMARK INTRA:                  -0.685
REMARK UNBOUND:                -0.634
REMARK SMILES CCCCCCCCC(=O)[O-]
REMARK SMILES IDX 6 1 7 2 8 3 9 4 10 5 11 6 5 7 4 8 3 9 2 10 1 11
REMARK H PARENT
REMARK Flexibility Score: inf
ROOT
ATOM      1  C   UNL     1      -6.724  -2.501   6.827  1.00  0.00     0.000 C 
ENDROOT
BRANCH   1   2
ATOM      2  C   UNL     1      -6.948  -1.142   6.153  1.00  0.00     0.006 C 
BRANCH   2   3
ATOM      3  C   UNL     1      -5.657  -0.317   6.132  1.00  0.00     0.053 C 
BRANCH   3   4
ATOM      4  C   UNL     1      -5.776   0.865   7.041  1.00  0.00     0.041 C 
ATOM      5  O   UNL     1      -6.899   1.199   7.504  1.00  0.00    -0.550 OA
ATOM      6  O   UNL     1      -4.655   1.629   7.338  1.00  0.00    -0.550 OA
ENDBRANCH   3   4
ENDBRANCH   2   3
ENDBRANCH   1   2
BRANCH   1   7
ATOM      7  C   UNL     1      -6.806  -3.642   5.803  1.00  0.00     0.000 C 
BRANCH   7   8
ATOM      8  C   UNL     1      -5.462  -4.363   5.613  1.00  0.00    -0.000 C 
BRANCH   8   9
ATOM      9  C   UNL     1      -4.486  -3.571   4.725  1.00  0.00    -0.000 C 
BRANCH   9  10
ATOM     10  C   UNL     1      -3.272  -3.046   5.506  1.00  0.00    -0.003 C 
ATOM     11  C   UNL     1      -3.121  -3.707   6.876  1.00  0.00     0.004 C 
ENDBRANCH   9  10
ENDBRANCH   8   9
ENDBRANCH   7   8
ENDBRANCH   1   7
TORSDOF 7
ENDMDL
MODEL 3
REMARK VINA RESULT:    -3.752      1.328      3.181
REMARK INTER + INTRA:          -5.922
REMARK INTER:                  -5.217
REMARK INTRA:                  -0.704
REMARK UNBOUND:                -0.634
REMARK SMILES CCCCCCCCC(=O)[O-]
REMARK SMILES IDX 6 1 7 2 8 3 9 4 10 5 11 6 5 7 4 8 3 9 2 10 1 11
REMARK H PARENT
REMARK Flexibility Score: inf
ROOT
ATOM      1  C   UNL     1      -4.408  -2.431   5.686  1.00  0.00     0.000 C 
ENDROOT
BRANCH   1   2
ATOM      2  C   UNL     1      -5.272  -1.171   5.812  1.00  0.00     0.006 C 
BRANCH   2   3
ATOM      3  C   UNL     1      -5.344  -0.696   7.267  1.00  0.00     0.053 C 
BRANCH   3   4
ATOM      4  C   UNL     1      -5.700   0.755   7.327  1.00  0.00     0.041 C 
ATOM      5  O   UNL     1      -6.899   1.108   7.485  1.00  0.00    -0.550 OA
ATOM      6  O   UNL     1      -4.715   1.720   7.161  1.00  0.00    -0.550 OA
ENDBRANCH   3   4
ENDBRANCH   2   3
ENDBRANCH   1   2
BRANCH   1   7
ATOM      7  C   UNL     1      -5.192  -3.569   5.015  1.00  0.00     0.000 C 
BRANCH   7   8
ATOM      8  C   UNL     1      -6.032  -4.378   6.016  1.00  0.00    -0.000 C 
BRANCH   8   9
ATOM      9  C   UNL     1      -7.545  -4.194   5.804  1.00  0.00    -0.000 C 
BRANCH   9  10
ATOM     10  C   UNL     1      -8.212  -3.423   6.953  1.00  0.00    -0.003 C 
ATOM     11  C   UNL     1      -8.787  -2.079   6.506  1.00  0.00     0.004 C 
ENDBRANCH   9  10
ENDBRANCH   8   9
ENDBRANCH   7   8
ENDBRANCH   1   7
TORSDOF 7
ENDMDL
MODEL 4
REMARK VINA RESULT:    -3.693     10.285     11.787
REMARK INTER + INTRA:          -5.838
REMARK INTER:                  -5.538
REMARK INTRA:                  -0.300
REMARK UNBOUND:                -0.634
REMARK SMILES CCCCCCCCC(=O)[O-]
REMARK SMILES IDX 6 1 7 2 8 3 9 4 10 5 11 6 5 7 4 8 3 9 2 10 1 11
REMARK H PARENT
REMARK Flexibility Score: inf
ROOT
ATOM      1  C   UNL     1       2.804  -1.366  -2.925  1.00  0.00     0.000 C 
ENDROOT
BRANCH   1   2
ATOM      2  C   UNL     1       1.502  -2.173  -3.005  1.00  0.00     0.006 C 
BRANCH   2   3
ATOM      3  C   UNL     1       0.465  -1.646  -2.009  1.00  0.00     0.053 C 
BRANCH   3   4
ATOM      4  C   UNL     1       0.055  -2.726  -1.059  1.00  0.00     0.041 C 
ATOM      5  O   UNL     1       0.577  -3.870  -1.135  1.00  0.00    -0.550 OA
ATOM      6  O   UNL     1      -0.939  -2.485  -0.119  1.00  0.00    -0.550 OA
ENDBRANCH   3   4
ENDBRANCH   2   3
ENDBRANCH   1   2
BRANCH   1   7
ATOM      7  C   UNL     1       2.821  -0.473  -1.676  1.00  0.00     0.000 C 
BRANCH   7   8
ATOM      8  C   UNL     1       4.222  -0.352  -1.056  1.00  0.00    -0.000 C 
BRANCH   8   9
ATOM      9  C   UNL     1       5.344  -0.655  -2.064  1.00  0.00    -0.000 C 
BRANCH   9  10
ATOM     10  C   UNL     1       6.702  -0.087  -1.621  1.00  0.00    -0.003 C 
ATOM     11  C   UNL     1       7.879  -0.740  -2.347  1.00  0.00     0.004 C 
ENDBRANCH   9  10
ENDBRANCH   8   9
ENDBRANCH   7   8
ENDBRANCH   1   7
TORSDOF 7
ENDMDL
MODEL 5
REMARK VINA RESULT:    -3.618      1.025      1.700
REMARK INTER + INTRA:          -5.733
REMARK INTER:                  -5.280
REMARK INTRA:                  -0.453
REMARK UNBOUND:                -0.634
REMARK SMILES CCCCCCCCC(=O)[O-]
REMARK SMILES IDX 6 1 7 2 8 3 9 4 10 5 11 6 5 7 4 8 3 9 2 10 1 11
REMARK H PARENT
REMARK Flexibility Score: inf
ROOT
ATOM      1  C   UNL     1      -6.480  -1.978   5.513  1.00  0.00     0.000 C 
ENDROOT
BRANCH   1   2
ATOM      2  C   UNL     1      -5.227  -1.168   5.865  1.00  0.00     0.006 C 
BRANCH   2   3
ATOM      3  C   UNL     1      -5.294  -0.647   7.304  1.00  0.00     0.053 C 
BRANCH   3   4
ATOM      4  C   UNL     1      -5.630   0.810   7.319  1.00  0.00     0.041 C 
ATOM      5  O   UNL     1      -4.726   1.671   7.157  1.00  0.00    -0.550 OA
ATOM      6  O   UNL     1      -6.935   1.220   7.560  1.00  0.00    -0.550 OA
ENDBRANCH   3   4
ENDBRANCH   2   3
ENDBRANCH   1   2
BRANCH   1   7
ATOM      7  C   UNL     1      -6.162  -3.479   5.442  1.00  0.00     0.000 C 
BRANCH   7   8
ATOM      8  C   UNL     1      -4.782  -3.763   4.830  1.00  0.00    -0.000 C 
BRANCH   8   9
ATOM      9  C   UNL     1      -3.944  -4.732   5.682  1.00  0.00    -0.000 C 
BRANCH   9  10
ATOM     10  C   UNL     1      -4.763  -5.393   6.801  1.00  0.00    -0.003 C 
ATOM     11  C   UNL     1      -5.152  -6.835   6.475  1.00  0.00     0.004 C 
ENDBRANCH   9  10
ENDBRANCH   8   9
ENDBRANCH   7   8
ENDBRANCH   1   7
TORSDOF 7
ENDMDL
MODEL 6
REMARK VINA RESULT:    -3.558      3.371      5.005
REMARK INTER + INTRA:          -5.648
REMARK INTER:                  -5.188
REMARK INTRA:                  -0.461
REMARK UNBOUND:                -0.634
REMARK SMILES CCCCCCCCC(=O)[O-]
REMARK SMILES IDX 6 1 7 2 8 3 9 4 10 5 11 6 5 7 4 8 3 9 2 10 1 11
REMARK H PARENT
REMARK Flexibility Score: inf
ROOT
ATOM      1  C   UNL     1      -4.663  -3.499   4.724  1.00  0.00     0.000 C 
ENDROOT
BRANCH   1   2
ATOM      2  C   UNL     1      -3.799  -2.697   5.704  1.00  0.00     0.006 C 
BRANCH   2   3
ATOM      3  C   UNL     1      -2.466  -3.404   5.969  1.00  0.00     0.053 C 
BRANCH   3   4
ATOM      4  C   UNL     1      -2.692  -4.850   6.274  1.00  0.00     0.041 C 
ATOM      5  O   UNL     1      -3.187  -5.196   7.379  1.00  0.00    -0.550 OA
ATOM      6  O   UNL     1      -2.310  -5.822   5.358  1.00  0.00    -0.550 OA
ENDBRANCH   3   4
ENDBRANCH   2   3
ENDBRANCH   1   2
BRANCH   1   7
ATOM      7  C   UNL     1      -6.034  -3.820   5.336  1.00  0.00     0.000 C 
BRANCH   7   8
ATOM      8  C   UNL     1      -6.443  -2.818   6.427  1.00  0.00    -0.000 C 
BRANCH   8   9
ATOM      9  C   UNL     1      -7.200  -1.603   5.862  1.00  0.00    -0.000 C 
BRANCH   9  10
ATOM     10  C   UNL     1      -6.995  -0.336   6.705  1.00  0.00    -0.003 C 
ATOM     11  C   UNL     1      -5.598   0.264   6.538  1.00  0.00     0.004 C 
ENDBRANCH   9  10
ENDBRANCH   8   9
ENDBRANCH   7   8
ENDBRANCH   1   7
TORSDOF 7
ENDMDL
MODEL 7
REMARK VINA RESULT:    -3.522      1.350      1.813
REMARK INTER + INTRA:          -5.598
REMARK INTER:                  -4.900
REMARK INTRA:                  -0.698
REMARK UNBOUND:                -0.634
REMARK SMILES CCCCCCCCC(=O)[O-]
REMARK SMILES IDX 6 1 7 2 8 3 9 4 10 5 11 6 5 7 4 8 3 9 2 10 1 11
REMARK H PARENT
REMARK Flexibility Score: inf
ROOT
ATOM      1  C   UNL     1      -7.994  -2.319   6.039  1.00  0.00     0.000 C 
ENDROOT
BRANCH   1   2
ATOM      2  C   UNL     1      -7.235  -1.425   7.027  1.00  0.00     0.006 C 
BRANCH   2   3
ATOM      3  C   UNL     1      -6.242  -0.515   6.297  1.00  0.00     0.053 C 
BRANCH   3   4
ATOM      4  C   UNL     1      -6.062   0.769   7.041  1.00  0.00     0.041 C 
ATOM      5  O   UNL     1      -4.913   1.264   7.184  1.00  0.00    -0.550 OA
ATOM      6  O   UNL     1      -7.158   1.396   7.621  1.00  0.00    -0.550 OA
ENDBRANCH   3   4
ENDBRANCH   2   3
ENDBRANCH   1   2
BRANCH   1   7
ATOM      7  C   UNL     1      -7.936  -3.790   6.473  1.00  0.00     0.000 C 
BRANCH   7   8
ATOM      8  C   UNL     1      -7.017  -4.636   5.578  1.00  0.00    -0.000 C 
BRANCH   8   9
ATOM      9  C   UNL     1      -5.721  -5.059   6.291  1.00  0.00    -0.000 C 
BRANCH   9  10
ATOM     10  C   UNL     1      -4.593  -4.029   6.124  1.00  0.00    -0.003 C 
ATOM     11  C   UNL     1      -4.448  -3.541   4.683  1.00  0.00     0.004 C 
ENDBRANCH   9  10
ENDBRANCH   8   9
ENDBRANCH   7   8
ENDBRANCH   1   7
TORSDOF 7
ENDMDL
MODEL 8
REMARK VINA RESULT:    -3.446      3.521      5.332
REMARK INTER + INTRA:          -5.491
REMARK INTER:                  -4.891
REMARK INTRA:                  -0.600
REMARK UNBOUND:                -0.634
REMARK SMILES CCCCCCCCC(=O)[O-]
REMARK SMILES IDX 6 1 7 2 8 3 9 4 10 5 11 6 5 7 4 8 3 9 2 10 1 11
REMARK H PARENT
REMARK Flexibility Score: inf
ROOT
ATOM      1  C   UNL     1      -4.545  -1.917   6.454  1.00  0.00     0.000 C 
ENDROOT
BRANCH   1   2
ATOM      2  C   UNL     1      -3.631  -2.740   5.537  1.00  0.00     0.006 C 
BRANCH   2   3
ATOM      3  C   UNL     1      -4.282  -4.076   5.166  1.00  0.00     0.053 C 
BRANCH   3   4
ATOM      4  C   UNL     1      -3.579  -5.208   5.845  1.00  0.00     0.041 C 
ATOM      5  O   UNL     1      -3.992  -5.636   6.955  1.00  0.00    -0.550 OA
ATOM      6  O   UNL     1      -2.438  -5.759   5.277  1.00  0.00    -0.550 OA
ENDBRANCH   3   4
ENDBRANCH   2   3
ENDBRANCH   1   2
BRANCH   1   7
ATOM      7  C   UNL     1      -5.545  -1.089   5.634  1.00  0.00     0.000 C 
BRANCH   7   8
ATOM      8  C   UNL     1      -6.728  -0.588   6.476  1.00  0.00    -0.000 C 
BRANCH   8   9
ATOM      9  C   UNL     1      -7.473  -1.729   7.190  1.00  0.00    -0.000 C 
BRANCH   9  10
ATOM     10  C   UNL     1      -8.315  -2.577   6.224  1.00  0.00    -0.003 C 
ATOM     11  C   UNL     1      -7.875  -4.041   6.186  1.00  0.00     0.004 C 
ENDBRANCH   9  10
ENDBRANCH   8   9
ENDBRANCH   7   8
ENDBRANCH   1   7
TORSDOF 7
ENDMDL
MODEL 9
REMARK VINA RESULT:    -3.229      2.918      4.513
REMARK INTER + INTRA:          -5.185
REMARK INTER:                  -4.536
REMARK INTRA:                  -0.649
REMARK UNBOUND:                -0.634
REMARK SMILES CCCCCCCCC(=O)[O-]
REMARK SMILES IDX 6 1 7 2 8 3 9 4 10 5 11 6 5 7 4 8 3 9 2 10 1 11
REMARK H PARENT
REMARK Flexibility Score: inf
ROOT
ATOM      1  C   UNL     1      -5.704  -0.763   5.950  1.00  0.00     0.000 C 
ENDROOT
BRANCH   1   2
ATOM      2  C   UNL     1      -4.675  -1.729   6.550  1.00  0.00     0.006 C 
BRANCH   2   3
ATOM      3  C   UNL     1      -4.208  -2.752   5.510  1.00  0.00     0.053 C 
BRANCH   3   4
ATOM      4  C   UNL     1      -2.861  -3.290   5.873  1.00  0.00     0.041 C 
ATOM      5  O   UNL     1      -1.956  -2.514   6.280  1.00  0.00    -0.550 OA
ATOM      6  O   UNL     1      -2.587  -4.643   5.716  1.00  0.00    -0.550 OA
ENDBRANCH   3   4
ENDBRANCH   2   3
ENDBRANCH   1   2
BRANCH   1   7
ATOM      7  C   UNL     1      -6.992  -1.503   5.561  1.00  0.00     0.000 C 
BRANCH   7   8
ATOM      8  C   UNL     1      -7.930  -1.724   6.758  1.00  0.00    -0.000 C 
BRANCH   8   9
ATOM      9  C   UNL     1      -8.048  -3.207   7.153  1.00  0.00    -0.000 C 
BRANCH   9  10
ATOM     10  C   UNL     1      -8.055  -4.142   5.934  1.00  0.00    -0.003 C 
ATOM     11  C   UNL     1      -6.950  -5.196   5.992  1.00  0.00     0.004 C 
ENDBRANCH   9  10
ENDBRANCH   8   9
ENDBRANCH   7   8
ENDBRANCH   1   7
TORSDOF 7
ENDMDL
