MODEL 1
REMARK VINA RESULT:    -5.916      0.000      0.000
REMARK INTER + INTRA:          -7.801
REMARK INTER:                  -8.338
REMARK INTRA:                   0.537
REMARK UNBOUND:                 0.537
REMARK SMILES CC1=CCC(=C(C)C)C(=O)CC(C)=CCC1
REMARK SMILES IDX 12 1 14 2 13 3 15 4 16 5 2 6 1 7 3 8 11 10 9 11 10 12 5 13
REMARK SMILES IDX 6 14 7 15 8 16 4 17
REMARK H PARENT
REMARK Flexibility Score: 60.00
ROOT
ATOM      1  C   UNL     1      26.227  14.740  79.354  1.00  0.00    -0.070 C 
ATOM      2  C   UNL     1      25.537  15.232  80.407  1.00  0.00    -0.027 C 
ATOM      3  C   UNL     1      25.911  15.287  77.985  1.00  0.00     0.039 C 
ENDROOT
BRANCH   2   4
ATOM      4  C   UNL     1      25.640  14.745  81.835  1.00  0.00     0.032 C 
BRANCH   4   5
ATOM      5  C   UNL     1      26.706  15.464  82.690  1.00  0.00     0.034 C 
BRANCH   5   6
ATOM      6  C   UNL     1      27.809  14.538  83.171  1.00  0.00    -0.077 C 
ATOM      7  C   UNL     1      27.554  13.732  84.417  1.00  0.00     0.039 C 
ATOM      8  C   UNL     1      29.032  14.441  82.592  1.00  0.00    -0.023 CG0
ATOM      9  G   UNL     1      29.504  15.137  81.330  1.00  0.00     0.000 G0
ENDBRANCH   5   6
ENDBRANCH   4   5
ENDBRANCH   2   4
BRANCH   1  10
ATOM     10  C   UNL     1      27.228  13.608  79.471  1.00  0.00     0.111 C 
BRANCH  10  11
ATOM     11  C   UNL     1      28.626  14.067  79.152  1.00  0.00     0.163 C 
ATOM     12  O   UNL     1      28.899  14.355  77.956  1.00  0.00    -0.294 OA
BRANCH  11  13
ATOM     13  C   UNL     1      29.703  14.132  80.185  1.00  0.00    -0.002 C 
ATOM     14  C   UNL     1      30.763  13.270  80.144  1.00  0.00    -0.069 C 
ATOM     15  C   UNL     1      30.968  12.332  78.974  1.00  0.00     0.039 C 
ATOM     16  C   UNL     1      31.784  13.204  81.258  1.00  0.00     0.039 C 
BRANCH  13  17
ATOM     17  C   UNL     1      29.516  15.122  81.323  1.00  0.00     0.066 CG0
ATOM     18  G   UNL     1      29.036  14.452  82.596  1.00  0.00     0.000 G0
ENDBRANCH  13  17
ENDBRANCH  11  13
ENDBRANCH  10  11
ENDBRANCH   1  10
TORSDOF 0
ENDMDL
MODEL 2
REMARK VINA RESULT:    -5.916      2.237      3.983
REMARK INTER + INTRA:          -7.800
REMARK INTER:                  -7.944
REMARK INTRA:                   0.143
REMARK UNBOUND:                 0.537
REMARK SMILES CC1=CCC(=C(C)C)C(=O)CC(C)=CCC1
REMARK SMILES IDX 12 1 14 2 13 3 15 4 16 5 2 6 1 7 3 8 11 10 9 11 10 12 5 13
REMARK SMILES IDX 6 14 7 15 8 16 4 17
REMARK H PARENT
REMARK Flexibility Score: 60.00
ROOT
ATOM      1  C   UNL     1      27.721  12.545  83.695  1.00  0.00    -0.070 C 
ATOM      2  C   UNL     1      27.461  13.785  84.166  1.00  0.00    -0.027 C 
ATOM      3  C   UNL     1      28.582  11.637  84.536  1.00  0.00     0.039 C 
ENDROOT
BRANCH   2   4
ATOM      4  C   UNL     1      26.704  14.869  83.430  1.00  0.00     0.032 C 
BRANCH   4   5
ATOM      5  C   UNL     1      27.520  15.608  82.348  1.00  0.00     0.034 C 
BRANCH   5   6
ATOM      6  C   UNL     1      26.765  15.775  81.041  1.00  0.00    -0.077 C 
ATOM      7  C   UNL     1      25.535  16.645  81.048  1.00  0.00     0.039 C 
ATOM      8  C   UNL     1      27.086  15.139  79.887  1.00  0.00    -0.023 CG0
ATOM      9  G   UNL     1      28.280  14.238  79.641  1.00  0.00     0.000 G0
ENDBRANCH   5   6
ENDBRANCH   4   5
ENDBRANCH   2   4
BRANCH   1  10
ATOM     10  C   UNL     1      27.269  12.062  82.332  1.00  0.00     0.111 C 
BRANCH  10  11
ATOM     11  C   UNL     1      28.329  12.279  81.285  1.00  0.00     0.163 C 
ATOM     12  O   UNL     1      29.532  12.084  81.608  1.00  0.00    -0.294 OA
BRANCH  11  13
ATOM     13  C   UNL     1      28.009  12.771  79.912  1.00  0.00    -0.002 C 
ATOM     14  C   UNL     1      27.565  11.911  78.947  1.00  0.00    -0.069 C 
ATOM     15  C   UNL     1      27.230  10.471  79.273  1.00  0.00     0.039 C 
ATOM     16  C   UNL     1      27.385  12.345  77.509  1.00  0.00     0.039 C 
BRANCH  13  17
ATOM     17  C   UNL     1      28.292  14.235  79.615  1.00  0.00     0.066 CG0
ATOM     18  G   UNL     1      27.089  15.119  79.881  1.00  0.00     0.000 G0
ENDBRANCH  13  17
ENDBRANCH  11  13
ENDBRANCH  10  11
ENDBRANCH   1  10
TORSDOF 0
ENDMDL
MODEL 3
REMARK VINA RESULT:    -5.889      1.532      2.224
REMARK INTER + INTRA:          -7.762
REMARK INTER:                  -7.971
REMARK INTRA:                   0.209
REMARK UNBOUND:                 0.537
REMARK SMILES CC1=CCC(=C(C)C)C(=O)CC(C)=CCC1
REMARK SMILES IDX 12 1 14 2 13 3 15 4 16 5 2 6 1 7 3 8 11 10 9 11 10 12 5 13
REMARK SMILES IDX 6 14 7 15 8 16 4 17
REMARK H PARENT
REMARK Flexibility Score: 60.00
ROOT
ATOM      1  C   UNL     1      26.827  13.944  77.574  1.00  0.00    -0.070 C 
ATOM      2  C   UNL     1      25.896  14.840  77.973  1.00  0.00    -0.027 C 
ATOM      3  C   UNL     1      26.415  12.897  76.570  1.00  0.00     0.039 C 
ENDROOT
BRANCH   2   4
ATOM      4  C   UNL     1      26.088  15.897  79.037  1.00  0.00     0.032 C 
BRANCH   4   5
ATOM      5  C   UNL     1      25.912  15.398  80.487  1.00  0.00     0.034 C 
BRANCH   5   6
ATOM      6  C   UNL     1      26.965  15.939  81.437  1.00  0.00    -0.077 C 
ATOM      7  C   UNL     1      26.937  17.413  81.749  1.00  0.00     0.039 C 
ATOM      8  C   UNL     1      27.969  15.197  81.967  1.00  0.00    -0.023 CG0
ATOM      9  G   UNL     1      28.186  13.705  81.809  1.00  0.00     0.000 G0
ENDBRANCH   5   6
ENDBRANCH   4   5
ENDBRANCH   2   4
BRANCH   1  10
ATOM     10  C   UNL     1      28.226  13.886  78.152  1.00  0.00     0.111 C 
BRANCH  10  11
ATOM     11  C   UNL     1      28.295  12.978  79.351  1.00  0.00     0.163 C 
ATOM     12  O   UNL     1      27.663  11.888  79.309  1.00  0.00    -0.294 OA
BRANCH  11  13
ATOM     13  C   UNL     1      29.028  13.352  80.598  1.00  0.00    -0.002 C 
ATOM     14  C   UNL     1      30.392  13.297  80.650  1.00  0.00    -0.069 C 
ATOM     15  C   UNL     1      31.214  13.013  79.411  1.00  0.00     0.039 C 
ATOM     16  C   UNL     1      31.154  13.515  81.938  1.00  0.00     0.039 C 
BRANCH  13  17
ATOM     17  C   UNL     1      28.191  13.697  81.819  1.00  0.00     0.066 CG0
ATOM     18  G   UNL     1      27.969  15.190  81.963  1.00  0.00     0.000 G0
ENDBRANCH  13  17
ENDBRANCH  11  13
ENDBRANCH  10  11
ENDBRANCH   1  10
TORSDOF 0
ENDMDL
MODEL 4
REMARK VINA RESULT:    -5.676      2.022      3.768
REMARK INTER + INTRA:          -7.462
REMARK INTER:                  -7.787
REMARK INTRA:                   0.325
REMARK UNBOUND:                 0.537
REMARK SMILES CC1=CCC(=C(C)C)C(=O)CC(C)=CCC1
REMARK SMILES IDX 12 1 14 2 13 3 15 4 16 5 2 6 1 7 3 8 11 10 9 11 10 12 5 13
REMARK SMILES IDX 6 14 7 15 8 16 4 17
REMARK H PARENT
REMARK Flexibility Score: 60.00
ROOT
ATOM      1  C   UNL     1      26.386  14.218  82.740  1.00  0.00    -0.070 C 
ATOM      2  C   UNL     1      25.738  15.220  82.106  1.00  0.00    -0.027 C 
ATOM      3  C   UNL     1      26.817  14.448  84.167  1.00  0.00     0.039 C 
ENDROOT
BRANCH   2   4
ATOM      4  C   UNL     1      25.315  15.218  80.653  1.00  0.00     0.032 C 
BRANCH   4   5
ATOM      5  C   UNL     1      26.302  15.911  79.690  1.00  0.00     0.034 C 
BRANCH   5   6
ATOM      6  C   UNL     1      26.753  15.015  78.551  1.00  0.00    -0.077 C 
ATOM      7  C   UNL     1      25.871  14.932  77.332  1.00  0.00     0.039 C 
ATOM      8  C   UNL     1      27.861  14.233  78.586  1.00  0.00    -0.023 CG0
ATOM      9  G   UNL     1      28.898  14.167  79.691  1.00  0.00     0.000 G0
ENDBRANCH   5   6
ENDBRANCH   4   5
ENDBRANCH   2   4
BRANCH   1  10
ATOM     10  C   UNL     1      26.780  12.922  82.061  1.00  0.00     0.111 C 
BRANCH  10  11
ATOM     11  C   UNL     1      28.264  12.848  81.821  1.00  0.00     0.163 C 
ATOM     12  O   UNL     1      29.029  12.839  82.823  1.00  0.00    -0.294 OA
BRANCH  11  13
ATOM     13  C   UNL     1      28.854  12.847  80.450  1.00  0.00    -0.002 C 
ATOM     14  C   UNL     1      29.411  11.713  79.928  1.00  0.00    -0.069 C 
ATOM     15  C   UNL     1      29.309  10.386  80.649  1.00  0.00     0.039 C 
ATOM     16  C   UNL     1      30.155  11.718  78.612  1.00  0.00     0.039 C 
BRANCH  13  17
ATOM     17  C   UNL     1      28.894  14.174  79.709  1.00  0.00     0.066 CG0
ATOM     18  G   UNL     1      27.874  14.240  78.589  1.00  0.00     0.000 G0
ENDBRANCH  13  17
ENDBRANCH  11  13
ENDBRANCH  10  11
ENDBRANCH   1  10
TORSDOF 0
ENDMDL
MODEL 5
REMARK VINA RESULT:    -5.653      2.018      4.026
REMARK INTER + INTRA:          -7.429
REMARK INTER:                  -7.953
REMARK INTRA:                   0.524
REMARK UNBOUND:                 0.537
REMARK SMILES CC1=CCC(=C(C)C)C(=O)CC(C)=CCC1
REMARK SMILES IDX 12 1 14 2 13 3 15 4 16 5 2 6 1 7 3 8 11 10 9 11 10 12 5 13
REMARK SMILES IDX 6 14 7 15 8 16 4 17
REMARK H PARENT
REMARK Flexibility Score: 60.00
ROOT
ATOM      1  C   UNL     1      26.855  14.902  80.801  1.00  0.00    -0.070 C 
ATOM      2  C   UNL     1      26.986  14.535  79.507  1.00  0.00    -0.027 C 
ATOM      3  C   UNL     1      25.502  14.742  81.447  1.00  0.00     0.039 C 
ENDROOT
BRANCH   2   4
ATOM      4  C   UNL     1      28.229  14.708  78.662  1.00  0.00     0.032 C 
BRANCH   4   5
ATOM      5  C   UNL     1      29.150  13.471  78.601  1.00  0.00     0.034 C 
BRANCH   5   6
ATOM      6  C   UNL     1      28.467  12.196  79.063  1.00  0.00    -0.077 C 
ATOM      7  C   UNL     1      27.490  11.543  78.120  1.00  0.00     0.039 C 
ATOM      8  C   UNL     1      28.627  11.646  80.292  1.00  0.00    -0.023 CG0
ATOM      9  G   UNL     1      29.563  12.114  81.390  1.00  0.00     0.000 G0
ENDBRANCH   5   6
ENDBRANCH   4   5
ENDBRANCH   2   4
BRANCH   1  10
ATOM     10  C   UNL     1      27.970  15.547  81.599  1.00  0.00     0.111 C 
BRANCH  10  11
ATOM     11  C   UNL     1      29.132  14.610  81.790  1.00  0.00     0.163 C 
ATOM     12  O   UNL     1      30.285  15.024  81.493  1.00  0.00    -0.294 OA
BRANCH  11  13
ATOM     13  C   UNL     1      28.957  13.202  82.257  1.00  0.00    -0.002 C 
ATOM     14  C   UNL     1      28.356  12.932  83.455  1.00  0.00    -0.069 C 
ATOM     15  C   UNL     1      27.708  14.028  84.272  1.00  0.00     0.039 C 
ATOM     16  C   UNL     1      28.305  11.533  84.028  1.00  0.00     0.039 C 
BRANCH  13  17
ATOM     17  C   UNL     1      29.558  12.104  81.395  1.00  0.00     0.066 CG0
ATOM     18  G   UNL     1      28.621  11.664  80.287  1.00  0.00     0.000 G0
ENDBRANCH  13  17
ENDBRANCH  11  13
ENDBRANCH  10  11
ENDBRANCH   1  10
TORSDOF 0
ENDMDL
MODEL 6
REMARK VINA RESULT:    -5.646      1.523      2.191
REMARK INTER + INTRA:          -7.420
REMARK INTER:                  -8.150
REMARK INTRA:                   0.730
REMARK UNBOUND:                 0.537
REMARK SMILES CC1=CCC(=C(C)C)C(=O)CC(C)=CCC1
REMARK SMILES IDX 12 1 14 2 13 3 15 4 16 5 2 6 1 7 3 8 11 10 9 11 10 12 5 13
REMARK SMILES IDX 6 14 7 15 8 16 4 17
REMARK H PARENT
REMARK Flexibility Score: 60.00
ROOT
ATOM      1  C   UNL     1      26.540  14.462  79.195  1.00  0.00    -0.070 C 
ATOM      2  C   UNL     1      25.916  15.080  80.222  1.00  0.00    -0.027 C 
ATOM      3  C   UNL     1      26.506  15.128  77.843  1.00  0.00     0.039 C 
ENDROOT
BRANCH   2   4
ATOM      4  C   UNL     1      25.757  14.526  81.621  1.00  0.00     0.032 C 
BRANCH   4   5
ATOM      5  C   UNL     1      26.728  15.117  82.665  1.00  0.00     0.034 C 
BRANCH   5   6
ATOM      6  C   UNL     1      27.813  15.981  82.050  1.00  0.00    -0.077 C 
ATOM      7  C   UNL     1      27.462  17.404  81.699  1.00  0.00     0.039 C 
ATOM      8  C   UNL     1      29.055  15.537  81.732  1.00  0.00    -0.023 CG0
ATOM      9  G   UNL     1      29.633  14.162  82.006  1.00  0.00     0.000 G0
ENDBRANCH   5   6
ENDBRANCH   4   5
ENDBRANCH   2   4
BRANCH   1  10
ATOM     10  C   UNL     1      27.187  13.097  79.316  1.00  0.00     0.111 C 
BRANCH  10  11
ATOM     11  C   UNL     1      28.583  13.190  79.871  1.00  0.00     0.163 C 
ATOM     12  O   UNL     1      29.535  13.354  79.062  1.00  0.00    -0.294 OA
BRANCH  11  13
ATOM     13  C   UNL     1      28.877  13.036  81.327  1.00  0.00    -0.002 C 
ATOM     14  C   UNL     1      28.391  11.969  82.030  1.00  0.00    -0.069 C 
ATOM     15  C   UNL     1      27.677  10.830  81.333  1.00  0.00     0.039 C 
ATOM     16  C   UNL     1      28.537  11.865  83.532  1.00  0.00     0.039 C 
BRANCH  13  17
ATOM     17  C   UNL     1      29.650  14.157  82.003  1.00  0.00     0.066 CG0
ATOM     18  G   UNL     1      29.059  15.522  81.709  1.00  0.00     0.000 G0
ENDBRANCH  13  17
ENDBRANCH  11  13
ENDBRANCH  10  11
ENDBRANCH   1  10
TORSDOF 0
ENDMDL
MODEL 7
REMARK VINA RESULT:    -5.585      2.395      4.934
REMARK INTER + INTRA:          -7.333
REMARK INTER:                  -7.910
REMARK INTRA:                   0.577
REMARK UNBOUND:                 0.537
REMARK SMILES CC1=CCC(=C(C)C)C(=O)CC(C)=CCC1
REMARK SMILES IDX 12 1 14 2 13 3 15 4 16 5 2 6 1 7 3 8 11 10 9 11 10 12 5 13
REMARK SMILES IDX 6 14 7 15 8 16 4 17
REMARK H PARENT
REMARK Flexibility Score: 60.00
ROOT
ATOM      1  C   UNL     1      30.230  14.071  80.683  1.00  0.00    -0.070 C 
ATOM      2  C   UNL     1      30.722  13.153  79.821  1.00  0.00    -0.027 C 
ATOM      3  C   UNL     1      31.034  14.381  81.920  1.00  0.00     0.039 C 
ENDROOT
BRANCH   2   4
ATOM      4  C   UNL     1      30.021  12.639  78.583  1.00  0.00     0.032 C 
BRANCH   4   5
ATOM      5  C   UNL     1      29.673  11.136  78.613  1.00  0.00     0.034 C 
BRANCH   5   6
ATOM      6  C   UNL     1      28.214  10.867  78.935  1.00  0.00    -0.077 C 
ATOM      7  C   UNL     1      27.305  10.475  77.799  1.00  0.00     0.039 C 
ATOM      8  C   UNL     1      27.661  11.023  80.164  1.00  0.00    -0.023 CG0
ATOM      9  G   UNL     1      28.378  11.390  81.449  1.00  0.00     0.000 G0
ENDBRANCH   5   6
ENDBRANCH   4   5
ENDBRANCH   2   4
BRANCH   1  10
ATOM     10  C   UNL     1      28.875  14.728  80.513  1.00  0.00     0.111 C 
BRANCH  10  11
ATOM     11  C   UNL     1      27.760  13.833  80.983  1.00  0.00     0.163 C 
ATOM     12  O   UNL     1      26.598  14.050  80.544  1.00  0.00    -0.294 OA
BRANCH  11  13
ATOM     13  C   UNL     1      27.972  12.750  81.988  1.00  0.00    -0.002 C 
ATOM     14  C   UNL     1      27.891  13.012  83.327  1.00  0.00    -0.069 C 
ATOM     15  C   UNL     1      27.430  14.361  83.836  1.00  0.00     0.039 C 
ATOM     16  C   UNL     1      28.255  11.978  84.370  1.00  0.00     0.039 C 
BRANCH  13  17
ATOM     17  C   UNL     1      28.374  11.381  81.461  1.00  0.00     0.066 CG0
ATOM     18  G   UNL     1      27.663  11.031  80.168  1.00  0.00     0.000 G0
ENDBRANCH  13  17
ENDBRANCH  11  13
ENDBRANCH  10  11
ENDBRANCH   1  10
TORSDOF 0
ENDMDL
MODEL 8
REMARK VINA RESULT:    -5.572      1.825      4.150
REMARK INTER + INTRA:          -7.315
REMARK INTER:                  -8.083
REMARK INTRA:                   0.769
REMARK UNBOUND:                 0.537
REMARK SMILES CC1=CCC(=C(C)C)C(=O)CC(C)=CCC1
REMARK SMILES IDX 12 1 14 2 13 3 15 4 16 5 2 6 1 7 3 8 11 10 9 11 10 12 5 13
REMARK SMILES IDX 6 14 7 15 8 16 4 17
REMARK H PARENT
REMARK Flexibility Score: 60.00
ROOT
ATOM      1  C   UNL     1      27.019  13.882  78.680  1.00  0.00    -0.070 C 
ATOM      2  C   UNL     1      27.601  12.796  78.125  1.00  0.00    -0.027 C 
ATOM      3  C   UNL     1      26.863  15.114  77.824  1.00  0.00     0.039 C 
ENDROOT
BRANCH   2   4
ATOM      4  C   UNL     1      27.933  11.507  78.845  1.00  0.00     0.032 C 
BRANCH   4   5
ATOM      5  C   UNL     1      29.418  11.093  78.779  1.00  0.00     0.034 C 
BRANCH   5   6
ATOM      6  C   UNL     1      30.331  12.016  79.567  1.00  0.00    -0.077 C 
ATOM      7  C   UNL     1      31.551  12.558  78.869  1.00  0.00     0.039 C 
ATOM      8  C   UNL     1      30.158  12.327  80.875  1.00  0.00    -0.023 CG0
ATOM      9  G   UNL     1      29.003  11.916  81.768  1.00  0.00     0.000 G0
ENDBRANCH   5   6
ENDBRANCH   4   5
ENDBRANCH   2   4
BRANCH   1  10
ATOM     10  C   UNL     1      26.605  13.951  80.136  1.00  0.00     0.111 C 
BRANCH  10  11
ATOM     11  C   UNL     1      27.796  14.081  81.047  1.00  0.00     0.163 C 
ATOM     12  O   UNL     1      28.595  15.036  80.849  1.00  0.00    -0.294 OA
BRANCH  11  13
ATOM     13  C   UNL     1      28.091  13.091  82.126  1.00  0.00    -0.002 C 
ATOM     14  C   UNL     1      27.631  13.286  83.398  1.00  0.00    -0.069 C 
ATOM     15  C   UNL     1      26.681  14.418  83.724  1.00  0.00     0.039 C 
ATOM     16  C   UNL     1      28.043  12.389  84.544  1.00  0.00     0.039 C 
BRANCH  13  17
ATOM     17  C   UNL     1      28.996  11.923  81.769  1.00  0.00     0.066 CG0
ATOM     18  G   UNL     1      30.151  12.341  80.879  1.00  0.00     0.000 G0
ENDBRANCH  13  17
ENDBRANCH  11  13
ENDBRANCH  10  11
ENDBRANCH   1  10
TORSDOF 0
ENDMDL
MODEL 9
REMARK VINA RESULT:    -5.543      2.097      4.592
REMARK INTER + INTRA:          -7.274
REMARK INTER:                  -8.322
REMARK INTRA:                   1.047
REMARK UNBOUND:                 0.537
REMARK SMILES CC1=CCC(=C(C)C)C(=O)CC(C)=CCC1
REMARK SMILES IDX 12 1 14 2 13 3 15 4 16 5 2 6 1 7 3 8 11 10 9 11 10 12 5 13
REMARK SMILES IDX 6 14 7 15 8 16 4 17
REMARK H PARENT
REMARK Flexibility Score: 60.00
ROOT
ATOM      1  C   UNL     1      27.429  12.108  81.664  1.00  0.00    -0.070 C 
ATOM      2  C   UNL     1      27.866  12.085  80.386  1.00  0.00    -0.027 C 
ATOM      3  C   UNL     1      27.953  11.056  82.610  1.00  0.00     0.039 C 
ENDROOT
BRANCH   2   4
ATOM      4  C   UNL     1      27.387  12.989  79.272  1.00  0.00     0.032 C 
BRANCH   4   5
ATOM      5  C   UNL     1      28.142  14.330  79.155  1.00  0.00     0.034 C 
BRANCH   5   6
ATOM      6  C   UNL     1      29.306  14.446  80.123  1.00  0.00    -0.077 C 
ATOM      7  C   UNL     1      30.487  13.534  79.912  1.00  0.00     0.039 C 
ATOM      8  C   UNL     1      29.323  15.266  81.202  1.00  0.00    -0.023 CG0
ATOM      9  G   UNL     1      28.264  16.276  81.600  1.00  0.00     0.000 G0
ENDBRANCH   5   6
ENDBRANCH   4   5
ENDBRANCH   2   4
BRANCH   1  10
ATOM     10  C   UNL     1      26.375  13.075  82.165  1.00  0.00     0.111 C 
BRANCH  10  11
ATOM     11  C   UNL     1      26.990  14.335  82.712  1.00  0.00     0.163 C 
ATOM     12  O   UNL     1      27.523  14.289  83.854  1.00  0.00    -0.294 OA
BRANCH  11  13
ATOM     13  C   UNL     1      26.937  15.635  81.981  1.00  0.00    -0.002 C 
ATOM     14  C   UNL     1      25.741  16.166  81.584  1.00  0.00    -0.069 C 
ATOM     15  C   UNL     1      24.428  15.542  82.005  1.00  0.00     0.039 C 
ATOM     16  C   UNL     1      25.662  17.396  80.707  1.00  0.00     0.039 C 
BRANCH  13  17
ATOM     17  C   UNL     1      28.263  16.284  81.617  1.00  0.00     0.066 CG0
ATOM     18  G   UNL     1      29.310  15.265  81.212  1.00  0.00     0.000 G0
ENDBRANCH  13  17
ENDBRANCH  11  13
ENDBRANCH  10  11
ENDBRANCH   1  10
TORSDOF 0
ENDMDL
