MODEL 1
REMARK VINA RESULT:    13.727      0.000      0.000
REMARK INTER + INTRA:          25.808
REMARK INTER:                  26.566
REMARK INTRA:                  -0.758
REMARK UNBOUND:                -0.758
REMARK SMILES CCCCCCCCCCCCCCCCCC(=O)[O-]
REMARK SMILES IDX 10 1 11 2 12 3 13 4 14 5 15 6 16 7 17 8 18 9 19 10 20 11
REMARK SMILES IDX 9 12 8 13 7 14 6 15 5 16 4 17 3 18 2 19 1 20
REMARK H PARENT
REMARK Flexibility Score: inf
ROOT
ATOM      1  C   UNL     1      15.588  15.509  20.182  1.00  0.00     0.000 C 
ENDROOT
BRANCH   1   2
ATOM      2  C   UNL     1      15.489  14.060  20.684  1.00  0.00     0.000 C 
BRANCH   2   3
ATOM      3  C   UNL     1      14.189  13.366  20.240  1.00  0.00     0.000 C 
BRANCH   3   4
ATOM      4  C   UNL     1      14.448  12.011  19.562  1.00  0.00     0.000 C 
BRANCH   4   5
ATOM      5  C   UNL     1      15.596  11.226  20.222  1.00  0.00     0.000 C 
BRANCH   5   6
ATOM      6  C   UNL     1      15.557   9.728  19.882  1.00  0.00     0.000 C 
BRANCH   6   7
ATOM      7  C   UNL     1      16.942   9.168  19.524  1.00  0.00     0.006 C 
BRANCH   7   8
ATOM      8  C   UNL     1      17.974   9.535  20.594  1.00  0.00     0.053 C 
BRANCH   8   9
ATOM      9  C   UNL     1      19.281   9.897  19.962  1.00  0.00     0.041 C 
ATOM     10  O   UNL     1      19.695   9.263  18.955  1.00  0.00    -0.550 OA
ATOM     11  O   UNL     1      20.065  10.904  20.512  1.00  0.00    -0.550 OA
ENDBRANCH   8   9
ENDBRANCH   7   8
ENDBRANCH   6   7
ENDBRANCH   5   6
ENDBRANCH   4   5
ENDBRANCH   3   4
ENDBRANCH   2   3
ENDBRANCH   1   2
BRANCH   1  12
ATOM     12  C   UNL     1      17.039  15.975  19.991  1.00  0.00     0.000 C 
BRANCH  12  13
ATOM     13  C   UNL     1      17.089  17.419  19.467  1.00  0.00    -0.000 C 
BRANCH  13  14
ATOM     14  C   UNL     1      15.937  17.727  18.497  1.00  0.00    -0.000 C 
BRANCH  14  15
ATOM     15  C   UNL     1      16.437  18.207  17.122  1.00  0.00    -0.000 C 
BRANCH  15  16
ATOM     16  C   UNL     1      17.239  17.116  16.383  1.00  0.00    -0.000 C 
BRANCH  16  17
ATOM     17  C   UNL     1      17.015  17.116  14.861  1.00  0.00    -0.000 C 
BRANCH  17  18
ATOM     18  C   UNL     1      18.022  17.995  14.107  1.00  0.00    -0.000 C 
BRANCH  18  19
ATOM     19  C   UNL     1      17.664  19.480  14.241  1.00  0.00    -0.003 C 
ATOM     20  C   UNL     1      18.889  20.363  14.021  1.00  0.00     0.004 C 
ENDBRANCH  18  19
ENDBRANCH  17  18
ENDBRANCH  16  17
ENDBRANCH  15  16
ENDBRANCH  14  15
ENDBRANCH  13  14
ENDBRANCH  12  13
ENDBRANCH   1  12
TORSDOF 16
ENDMDL
MODEL 2
REMARK VINA RESULT:    13.770      3.108      8.121
REMARK INTER + INTRA:          25.892
REMARK INTER:                  26.903
REMARK INTRA:                  -1.011
REMARK UNBOUND:                -0.758
REMARK SMILES CCCCCCCCCCCCCCCCCC(=O)[O-]
REMARK SMILES IDX 10 1 11 2 12 3 13 4 14 5 15 6 16 7 17 8 18 9 19 10 20 11
REMARK SMILES IDX 9 12 8 13 7 14 6 15 5 16 4 17 3 18 2 19 1 20
REMARK H PARENT
REMARK Flexibility Score: inf
ROOT
ATOM      1  C   UNL     1      15.235  13.889  20.784  1.00  0.00     0.000 C 
ENDROOT
BRANCH   1   2
ATOM      2  C   UNL     1      15.542  15.241  20.121  1.00  0.00     0.000 C 
BRANCH   2   3
ATOM      3  C   UNL     1      16.969  15.736  20.417  1.00  0.00     0.000 C 
BRANCH   3   4
ATOM      4  C   UNL     1      17.421  16.842  19.450  1.00  0.00     0.000 C 
BRANCH   4   5
ATOM      5  C   UNL     1      16.361  17.945  19.273  1.00  0.00     0.000 C 
BRANCH   5   6
ATOM      6  C   UNL     1      16.174  18.352  17.803  1.00  0.00     0.000 C 
BRANCH   6   7
ATOM      7  C   UNL     1      16.859  17.381  16.830  1.00  0.00     0.006 C 
BRANCH   7   8
ATOM      8  C   UNL     1      16.341  17.581  15.403  1.00  0.00     0.053 C 
BRANCH   8   9
ATOM      9  C   UNL     1      17.461  17.473  14.416  1.00  0.00     0.041 C 
ATOM     10  O   UNL     1      17.925  16.344  14.107  1.00  0.00    -0.550 OA
ATOM     11  O   UNL     1      18.024  18.622  13.875  1.00  0.00    -0.550 OA
ENDBRANCH   8   9
ENDBRANCH   7   8
ENDBRANCH   6   7
ENDBRANCH   5   6
ENDBRANCH   4   5
ENDBRANCH   3   4
ENDBRANCH   2   3
ENDBRANCH   1   2
BRANCH   1  12
ATOM     12  C   UNL     1      14.020  13.184  20.162  1.00  0.00     0.000 C 
BRANCH  12  13
ATOM     13  C   UNL     1      14.440  11.884  19.456  1.00  0.00    -0.000 C 
BRANCH  13  14
ATOM     14  C   UNL     1      15.658  11.226  20.125  1.00  0.00    -0.000 C 
BRANCH  14  15
ATOM     15  C   UNL     1      15.561   9.690  20.145  1.00  0.00    -0.000 C 
BRANCH  15  16
ATOM     16  C   UNL     1      16.801   9.022  19.516  1.00  0.00    -0.000 C 
BRANCH  16  17
ATOM     17  C   UNL     1      18.129   9.490  20.138  1.00  0.00    -0.000 C 
BRANCH  17  18
ATOM     18  C   UNL     1      19.291   9.497  19.134  1.00  0.00    -0.000 C 
BRANCH  18  19
ATOM     19  C   UNL     1      20.471  10.320  19.665  1.00  0.00    -0.003 C 
ATOM     20  C   UNL     1      20.054  11.166  20.865  1.00  0.00     0.004 C 
ENDBRANCH  18  19
ENDBRANCH  17  18
ENDBRANCH  16  17
ENDBRANCH  15  16
ENDBRANCH  14  15
ENDBRANCH  13  14
ENDBRANCH  12  13
ENDBRANCH   1  12
TORSDOF 16
ENDMDL
MODEL 3
REMARK VINA RESULT:    13.898      5.556      8.013
REMARK INTER + INTRA:          26.139
REMARK INTER:                  27.109
REMARK INTRA:                  -0.970
REMARK UNBOUND:                -0.758
REMARK SMILES CCCCCCCCCCCCCCCCCC(=O)[O-]
REMARK SMILES IDX 10 1 11 2 12 3 13 4 14 5 15 6 16 7 17 8 18 9 19 10 20 11
REMARK SMILES IDX 9 12 8 13 7 14 6 15 5 16 4 17 3 18 2 19 1 20
REMARK H PARENT
REMARK Flexibility Score: inf
ROOT
ATOM      1  C   UNL     1      20.167  18.598  21.234  1.00  0.00     0.000 C 
ENDROOT
BRANCH   1   2
ATOM      2  C   UNL     1      19.534  18.145  22.559  1.00  0.00     0.000 C 
BRANCH   2   3
ATOM      3  C   UNL     1      20.226  18.762  23.788  1.00  0.00     0.000 C 
BRANCH   3   4
ATOM      4  C   UNL     1      21.137  19.943  23.419  1.00  0.00     0.000 C 
BRANCH   4   5
ATOM      5  C   UNL     1      21.743  20.634  24.654  1.00  0.00     0.000 C 
BRANCH   5   6
ATOM      6  C   UNL     1      23.225  20.991  24.461  1.00  0.00     0.000 C 
BRANCH   6   7
ATOM      7  C   UNL     1      24.127  19.750  24.381  1.00  0.00     0.006 C 
BRANCH   7   8
ATOM      8  C   UNL     1      24.815  19.662  23.015  1.00  0.00     0.053 C 
BRANCH   8   9
ATOM      9  C   UNL     1      24.889  18.240  22.555  1.00  0.00     0.041 C 
ATOM     10  O   UNL     1      24.343  17.895  21.473  1.00  0.00    -0.550 OA
ATOM     11  O   UNL     1      25.520  17.286  23.343  1.00  0.00    -0.550 OA
ENDBRANCH   8   9
ENDBRANCH   7   8
ENDBRANCH   6   7
ENDBRANCH   5   6
ENDBRANCH   4   5
ENDBRANCH   3   4
ENDBRANCH   2   3
ENDBRANCH   1   2
BRANCH   1  12
ATOM     12  C   UNL     1      19.530  17.923  20.010  1.00  0.00     0.000 C 
BRANCH  12  13
ATOM     13  C   UNL     1      18.199  17.251  20.382  1.00  0.00    -0.000 C 
BRANCH  13  14
ATOM     14  C   UNL     1      16.986  18.012  19.824  1.00  0.00    -0.000 C 
BRANCH  14  15
ATOM     15  C   UNL     1      16.185  17.181  18.806  1.00  0.00    -0.000 C 
BRANCH  15  16
ATOM     16  C   UNL     1      16.171  17.834  17.408  1.00  0.00    -0.000 C 
BRANCH  16  17
ATOM     17  C   UNL     1      17.294  17.329  16.485  1.00  0.00    -0.000 C 
BRANCH  17  18
ATOM     18  C   UNL     1      16.894  17.322  15.002  1.00  0.00    -0.000 C 
BRANCH  18  19
ATOM     19  C   UNL     1      18.040  17.832  14.121  1.00  0.00    -0.003 C 
ATOM     20  C   UNL     1      18.121  19.356  14.153  1.00  0.00     0.004 C 
ENDBRANCH  18  19
ENDBRANCH  17  18
ENDBRANCH  16  17
ENDBRANCH  15  16
ENDBRANCH  14  15
ENDBRANCH  13  14
ENDBRANCH  12  13
ENDBRANCH   1  12
TORSDOF 16
ENDMDL
MODEL 4
REMARK VINA RESULT:    14.546      5.912      8.182
REMARK INTER + INTRA:          27.393
REMARK INTER:                  28.250
REMARK INTRA:                  -0.857
REMARK UNBOUND:                -0.758
REMARK SMILES CCCCCCCCCCCCCCCCCC(=O)[O-]
REMARK SMILES IDX 10 1 11 2 12 3 13 4 14 5 15 6 16 7 17 8 18 9 19 10 20 11
REMARK SMILES IDX 9 12 8 13 7 14 6 15 5 16 4 17 3 18 2 19 1 20
REMARK H PARENT
REMARK Flexibility Score: inf
ROOT
ATOM      1  C   UNL     1      19.868  18.402  20.986  1.00  0.00     0.000 C 
ENDROOT
BRANCH   1   2
ATOM      2  C   UNL     1      20.623  17.786  19.797  1.00  0.00     0.000 C 
BRANCH   2   3
ATOM      3  C   UNL     1      22.129  18.105  19.822  1.00  0.00     0.000 C 
BRANCH   3   4
ATOM      4  C   UNL     1      22.804  17.656  21.128  1.00  0.00     0.000 C 
BRANCH   4   5
ATOM      5  C   UNL     1      24.233  18.209  21.277  1.00  0.00     0.000 C 
BRANCH   5   6
ATOM      6  C   UNL     1      24.912  17.744  22.576  1.00  0.00     0.000 C 
BRANCH   6   7
ATOM      7  C   UNL     1      25.157  18.898  23.559  1.00  0.00     0.006 C 
BRANCH   7   8
ATOM      8  C   UNL     1      24.205  20.065  23.281  1.00  0.00     0.053 C 
BRANCH   8   9
ATOM      9  C   UNL     1      23.419  20.407  24.507  1.00  0.00     0.041 C 
ATOM     10  O   UNL     1      22.406  21.151  24.423  1.00  0.00    -0.550 OA
ATOM     11  O   UNL     1      23.831  19.943  25.751  1.00  0.00    -0.550 OA
ENDBRANCH   8   9
ENDBRANCH   7   8
ENDBRANCH   6   7
ENDBRANCH   5   6
ENDBRANCH   4   5
ENDBRANCH   3   4
ENDBRANCH   2   3
ENDBRANCH   1   2
BRANCH   1  12
ATOM     12  C   UNL     1      18.420  17.902  21.094  1.00  0.00     0.000 C 
BRANCH  12  13
ATOM     13  C   UNL     1      17.992  17.175  19.810  1.00  0.00    -0.000 C 
BRANCH  13  14
ATOM     14  C   UNL     1      16.690  17.745  19.224  1.00  0.00    -0.000 C 
BRANCH  14  15
ATOM     15  C   UNL     1      16.369  17.170  17.832  1.00  0.00    -0.000 C 
BRANCH  15  16
ATOM     16  C   UNL     1      17.306  17.733  16.743  1.00  0.00    -0.000 C 
BRANCH  16  17
ATOM     17  C   UNL     1      17.032  17.156  15.342  1.00  0.00    -0.000 C 
BRANCH  17  18
ATOM     18  C   UNL     1      17.978  17.715  14.269  1.00  0.00    -0.000 C 
BRANCH  18  19
ATOM     19  C   UNL     1      17.663  19.185  13.971  1.00  0.00    -0.003 C 
ATOM     20  C   UNL     1      18.855  20.079  14.299  1.00  0.00     0.004 C 
ENDBRANCH  18  19
ENDBRANCH  17  18
ENDBRANCH  16  17
ENDBRANCH  15  16
ENDBRANCH  14  15
ENDBRANCH  13  14
ENDBRANCH  12  13
ENDBRANCH   1  12
TORSDOF 16
ENDMDL
MODEL 5
REMARK VINA RESULT:    14.698      4.780      6.686
REMARK INTER + INTRA:          27.689
REMARK INTER:                  28.526
REMARK INTRA:                  -0.838
REMARK UNBOUND:                -0.758
REMARK SMILES CCCCCCCCCCCCCCCCCC(=O)[O-]
REMARK SMILES IDX 10 1 11 2 12 3 13 4 14 5 15 6 16 7 17 8 18 9 19 10 20 11
REMARK SMILES IDX 9 12 8 13 7 14 6 15 5 16 4 17 3 18 2 19 1 20
REMARK H PARENT
REMARK Flexibility Score: inf
ROOT
ATOM      1  C   UNL     1      16.878  16.204  20.163  1.00  0.00     0.000 C 
ENDROOT
BRANCH   1   2
ATOM      2  C   UNL     1      18.227  16.876  19.863  1.00  0.00     0.000 C 
BRANCH   2   3
ATOM      3  C   UNL     1      18.703  17.788  21.008  1.00  0.00     0.000 C 
BRANCH   3   4
ATOM      4  C   UNL     1      19.990  18.551  20.656  1.00  0.00     0.000 C 
BRANCH   4   5
ATOM      5  C   UNL     1      20.960  17.717  19.800  1.00  0.00     0.000 C 
BRANCH   5   6
ATOM      6  C   UNL     1      22.419  18.180  19.941  1.00  0.00     0.000 C 
BRANCH   6   7
ATOM      7  C   UNL     1      23.092  17.632  21.208  1.00  0.00     0.006 C 
BRANCH   7   8
ATOM      8  C   UNL     1      24.584  17.978  21.228  1.00  0.00     0.053 C 
BRANCH   8   9
ATOM      9  C   UNL     1      25.047  18.231  22.628  1.00  0.00     0.041 C 
ATOM     10  O   UNL     1      25.435  17.274  23.349  1.00  0.00    -0.550 OA
ATOM     11  O   UNL     1      25.003  19.517  23.154  1.00  0.00    -0.550 OA
ENDBRANCH   8   9
ENDBRANCH   7   8
ENDBRANCH   6   7
ENDBRANCH   5   6
ENDBRANCH   4   5
ENDBRANCH   3   4
ENDBRANCH   2   3
ENDBRANCH   1   2
BRANCH   1  12
ATOM     12  C   UNL     1      15.709  16.855  19.409  1.00  0.00     0.000 C 
BRANCH  12  13
ATOM     13  C   UNL     1      16.164  18.131  18.684  1.00  0.00    -0.000 C 
BRANCH  13  14
ATOM     14  C   UNL     1      15.961  18.041  17.163  1.00  0.00    -0.000 C 
BRANCH  14  15
ATOM     15  C   UNL     1      17.218  17.540  16.429  1.00  0.00    -0.000 C 
BRANCH  15  16
ATOM     16  C   UNL     1      16.867  16.623  15.239  1.00  0.00    -0.000 C 
BRANCH  16  17
ATOM     17  C   UNL     1      17.355  17.164  13.884  1.00  0.00    -0.000 C 
BRANCH  17  18
ATOM     18  C   UNL     1      18.432  18.249  14.025  1.00  0.00    -0.000 C 
BRANCH  18  19
ATOM     19  C   UNL     1      17.806  19.649  14.019  1.00  0.00    -0.003 C 
ATOM     20  C   UNL     1      18.882  20.731  14.027  1.00  0.00     0.004 C 
ENDBRANCH  18  19
ENDBRANCH  17  18
ENDBRANCH  16  17
ENDBRANCH  15  16
ENDBRANCH  14  15
ENDBRANCH  13  14
ENDBRANCH  12  13
ENDBRANCH   1  12
TORSDOF 16
ENDMDL
MODEL 6
REMARK VINA RESULT:    14.754      5.888      8.593
REMARK INTER + INTRA:          27.795
REMARK INTER:                  29.009
REMARK INTRA:                  -1.214
REMARK UNBOUND:                -0.758
REMARK SMILES CCCCCCCCCCCCCCCCCC(=O)[O-]
REMARK SMILES IDX 10 1 11 2 12 3 13 4 14 5 15 6 16 7 17 8 18 9 19 10 20 11
REMARK SMILES IDX 9 12 8 13 7 14 6 15 5 16 4 17 3 18 2 19 1 20
REMARK H PARENT
REMARK Flexibility Score: inf
ROOT
ATOM      1  C   UNL     1      19.524  18.629  21.033  1.00  0.00     0.000 C 
ENDROOT
BRANCH   1   2
ATOM      2  C   UNL     1      19.045  17.572  20.025  1.00  0.00     0.000 C 
BRANCH   2   3
ATOM      3  C   UNL     1      17.961  16.647  20.606  1.00  0.00     0.000 C 
BRANCH   3   4
ATOM      4  C   UNL     1      16.731  16.535  19.692  1.00  0.00     0.000 C 
BRANCH   4   5
ATOM      5  C   UNL     1      16.234  17.906  19.195  1.00  0.00     0.000 C 
BRANCH   5   6
ATOM      6  C   UNL     1      15.735  17.859  17.742  1.00  0.00     0.000 C 
BRANCH   6   7
ATOM      7  C   UNL     1      16.818  17.388  16.760  1.00  0.00     0.006 C 
BRANCH   7   8
ATOM      8  C   UNL     1      16.440  17.741  15.318  1.00  0.00     0.053 C 
BRANCH   8   9
ATOM      9  C   UNL     1      17.608  17.542  14.405  1.00  0.00     0.041 C 
ATOM     10  O   UNL     1      18.175  18.535  13.876  1.00  0.00    -0.550 OA
ATOM     11  O   UNL     1      18.041  16.258  14.098  1.00  0.00    -0.550 OA
ENDBRANCH   8   9
ENDBRANCH   7   8
ENDBRANCH   6   7
ENDBRANCH   5   6
ENDBRANCH   4   5
ENDBRANCH   3   4
ENDBRANCH   2   3
ENDBRANCH   1   2
BRANCH   1  12
ATOM     12  C   UNL     1      21.053  18.669  21.172  1.00  0.00     0.000 C 
BRANCH  12  13
ATOM     13  C   UNL     1      21.729  17.870  20.046  1.00  0.00    -0.000 C 
BRANCH  13  14
ATOM     14  C   UNL     1      23.130  17.377  20.441  1.00  0.00    -0.000 C 
BRANCH  14  15
ATOM     15  C   UNL     1      23.965  18.469  21.135  1.00  0.00    -0.000 C 
BRANCH  15  16
ATOM     16  C   UNL     1      24.785  17.908  22.315  1.00  0.00    -0.000 C 
BRANCH  16  17
ATOM     17  C   UNL     1      25.010  18.928  23.445  1.00  0.00    -0.000 C 
BRANCH  17  18
ATOM     18  C   UNL     1      24.080  20.146  23.346  1.00  0.00    -0.000 C 
BRANCH  18  19
ATOM     19  C   UNL     1      23.550  20.547  24.727  1.00  0.00    -0.003 C 
ATOM     20  C   UNL     1      22.091  20.985  24.650  1.00  0.00     0.004 C 
ENDBRANCH  18  19
ENDBRANCH  17  18
ENDBRANCH  16  17
ENDBRANCH  15  16
ENDBRANCH  14  15
ENDBRANCH  13  14
ENDBRANCH  12  13
ENDBRANCH   1  12
TORSDOF 16
ENDMDL
MODEL 7
REMARK VINA RESULT:    14.912      6.234      8.833
REMARK INTER + INTRA:          28.102
REMARK INTER:                  29.177
REMARK INTRA:                  -1.076
REMARK UNBOUND:                -0.758
REMARK SMILES CCCCCCCCCCCCCCCCCC(=O)[O-]
REMARK SMILES IDX 10 1 11 2 12 3 13 4 14 5 15 6 16 7 17 8 18 9 19 10 20 11
REMARK SMILES IDX 9 12 8 13 7 14 6 15 5 16 4 17 3 18 2 19 1 20
REMARK H PARENT
REMARK Flexibility Score: inf
ROOT
ATOM      1  C   UNL     1      19.555  18.113  22.539  1.00  0.00     0.000 C 
ENDROOT
BRANCH   1   2
ATOM      2  C   UNL     1      20.056  18.623  21.178  1.00  0.00     0.000 C 
BRANCH   2   3
ATOM      3  C   UNL     1      19.306  17.987  19.994  1.00  0.00     0.000 C 
BRANCH   3   4
ATOM      4  C   UNL     1      17.958  17.377  20.411  1.00  0.00     0.000 C 
BRANCH   4   5
ATOM      5  C   UNL     1      16.873  17.543  19.331  1.00  0.00     0.000 C 
BRANCH   5   6
ATOM      6  C   UNL     1      17.379  17.177  17.926  1.00  0.00     0.000 C 
BRANCH   6   7
ATOM      7  C   UNL     1      16.742  18.040  16.827  1.00  0.00     0.006 C 
BRANCH   7   8
ATOM      8  C   UNL     1      16.404  17.195  15.595  1.00  0.00     0.053 C 
BRANCH   8   9
ATOM      9  C   UNL     1      17.472  17.330  14.555  1.00  0.00     0.041 C 
ATOM     10  O   UNL     1      17.927  18.467  14.259  1.00  0.00    -0.550 OA
ATOM     11  O   UNL     1      17.932  16.207  13.879  1.00  0.00    -0.550 OA
ENDBRANCH   8   9
ENDBRANCH   7   8
ENDBRANCH   6   7
ENDBRANCH   5   6
ENDBRANCH   4   5
ENDBRANCH   3   4
ENDBRANCH   2   3
ENDBRANCH   1   2
BRANCH   1  12
ATOM     12  C   UNL     1      20.432  18.583  23.709  1.00  0.00     0.000 C 
BRANCH  12  13
ATOM     13  C   UNL     1      21.095  19.932  23.393  1.00  0.00    -0.000 C 
BRANCH  13  14
ATOM     14  C   UNL     1      21.442  20.724  24.664  1.00  0.00    -0.000 C 
BRANCH  14  15
ATOM     15  C   UNL     1      22.959  20.789  24.922  1.00  0.00    -0.000 C 
BRANCH  15  16
ATOM     16  C   UNL     1      23.767  20.866  23.610  1.00  0.00    -0.000 C 
BRANCH  16  17
ATOM     17  C   UNL     1      24.704  19.663  23.397  1.00  0.00    -0.000 C 
BRANCH  17  18
ATOM     18  C   UNL     1      24.915  19.323  21.914  1.00  0.00    -0.000 C 
BRANCH  18  19
ATOM     19  C   UNL     1      24.701  17.827  21.658  1.00  0.00    -0.003 C 
ATOM     20  C   UNL     1      24.981  17.009  22.916  1.00  0.00     0.004 C 
ENDBRANCH  18  19
ENDBRANCH  17  18
ENDBRANCH  16  17
ENDBRANCH  15  16
ENDBRANCH  14  15
ENDBRANCH  13  14
ENDBRANCH  12  13
ENDBRANCH   1  12
TORSDOF 16
ENDMDL
MODEL 8
REMARK VINA RESULT:    15.218      6.083      8.907
REMARK INTER + INTRA:          28.694
REMARK INTER:                  29.598
REMARK INTRA:                  -0.905
REMARK UNBOUND:                -0.758
REMARK SMILES CCCCCCCCCCCCCCCCCC(=O)[O-]
REMARK SMILES IDX 10 1 11 2 12 3 13 4 14 5 15 6 16 7 17 8 18 9 19 10 20 11
REMARK SMILES IDX 9 12 8 13 7 14 6 15 5 16 4 17 3 18 2 19 1 20
REMARK H PARENT
REMARK Flexibility Score: inf
ROOT
ATOM      1  C   UNL     1      19.828  17.896  20.017  1.00  0.00     0.000 C 
ENDROOT
BRANCH   1   2
ATOM      2  C   UNL     1      18.377  17.722  20.493  1.00  0.00     0.000 C 
BRANCH   2   3
ATOM      3  C   UNL     1      17.535  16.869  19.528  1.00  0.00     0.000 C 
BRANCH   3   4
ATOM      4  C   UNL     1      16.197  17.534  19.168  1.00  0.00     0.000 C 
BRANCH   4   5
ATOM      5  C   UNL     1      16.120  17.947  17.686  1.00  0.00     0.000 C 
BRANCH   5   6
ATOM      6  C   UNL     1      17.244  17.326  16.842  1.00  0.00     0.000 C 
BRANCH   6   7
ATOM      7  C   UNL     1      16.817  17.067  15.390  1.00  0.00     0.006 C 
BRANCH   7   8
ATOM      8  C   UNL     1      17.850  17.629  14.408  1.00  0.00     0.053 C 
BRANCH   8   9
ATOM      9  C   UNL     1      17.829  19.125  14.422  1.00  0.00     0.041 C 
ATOM     10  O   UNL     1      18.819  19.776  13.992  1.00  0.00    -0.550 OA
ATOM     11  O   UNL     1      16.739  19.801  14.954  1.00  0.00    -0.550 OA
ENDBRANCH   8   9
ENDBRANCH   7   8
ENDBRANCH   6   7
ENDBRANCH   5   6
ENDBRANCH   4   5
ENDBRANCH   3   4
ENDBRANCH   2   3
ENDBRANCH   1   2
BRANCH   1  12
ATOM     12  C   UNL     1      20.705  18.634  21.041  1.00  0.00     0.000 C 
BRANCH  12  13
ATOM     13  C   UNL     1      19.941  18.866  22.354  1.00  0.00    -0.000 C 
BRANCH  13  14
ATOM     14  C   UNL     1      20.885  19.045  23.553  1.00  0.00    -0.000 C 
BRANCH  14  15
ATOM     15  C   UNL     1      21.011  20.517  23.990  1.00  0.00    -0.000 C 
BRANCH  15  16
ATOM     16  C   UNL     1      22.292  20.770  24.811  1.00  0.00    -0.000 C 
BRANCH  16  17
ATOM     17  C   UNL     1      23.567  20.836  23.951  1.00  0.00    -0.000 C 
BRANCH  17  18
ATOM     18  C   UNL     1      24.431  19.571  24.062  1.00  0.00    -0.000 C 
BRANCH  18  19
ATOM     19  C   UNL     1      24.653  18.935  22.685  1.00  0.00    -0.003 C 
ATOM     20  C   UNL     1      25.245  17.535  22.816  1.00  0.00     0.004 C 
ENDBRANCH  18  19
ENDBRANCH  17  18
ENDBRANCH  16  17
ENDBRANCH  15  16
ENDBRANCH  14  15
ENDBRANCH  13  14
ENDBRANCH  12  13
ENDBRANCH   1  12
TORSDOF 16
ENDMDL
