MODEL 1
REMARK VINA RESULT:    -3.787      0.000      0.000
REMARK INTER + INTRA:          -5.069
REMARK INTER:                  -5.115
REMARK INTRA:                   0.046
REMARK UNBOUND:                 0.046
REMARK SMILES C=C(C)[C@H]1CC[C@H](C)C2=C(C1)[C@@H](C)CC2
REMARK SMILES IDX 10 1 9 2 15 3 14 4 12 5 13 6 7 7 8 8 6 9 11 11 4 12 5 13
REMARK SMILES IDX 2 15 1 16 3 17
REMARK H PARENT
REMARK Flexibility Score: 80.00
ROOT
ATOM      1  C   UNL     1     135.080 132.723 134.320  1.00  0.00    -0.067 C 
ATOM      2  C   UNL     1     136.371 132.518 134.585  1.00  0.00    -0.068 C 
ATOM      3  C   UNL     1     137.169 132.385 133.325  1.00  0.00     0.032 C 
ATOM      4  C   UNL     1     136.128 132.361 132.205  1.00  0.00     0.012 C 
ATOM      5  C   UNL     1     134.799 132.775 132.852  1.00  0.00     0.012 C 
ATOM      6  C   UNL     1     134.377 134.187 132.427  1.00  0.00     0.012 C 
ENDROOT
BRANCH   2   7
ATOM      7  C   UNL     1     136.952 132.497 135.992  1.00  0.00     0.012 C 
ATOM      8  C   UNL     1     138.441 132.117 135.996  1.00  0.00     0.012 C 
BRANCH   7   9
ATOM      9  C   UNL     1     136.751 133.865 136.683  1.00  0.00     0.008 CG0
ATOM     10  G   UNL     1     135.336 134.051 137.257  1.00  0.00     0.000 G0
ENDBRANCH   7   9
ENDBRANCH   2   7
BRANCH   1  11
ATOM     11  C   UNL     1     134.015 132.916 135.370  1.00  0.00     0.039 C 
BRANCH  11  12
ATOM     12  C   UNL     1     134.242 134.214 136.174  1.00  0.00     0.018 C 
BRANCH  12  13
ATOM     13  C   UNL     1     135.332 134.051 137.256  1.00  0.00     0.009 CG0
ATOM     14  G   UNL     1     136.750 133.865 136.689  1.00  0.00     0.000 G0
ENDBRANCH  12  13
BRANCH  12  15
ATOM     15  C   UNL     1     132.938 134.669 136.817  1.00  0.00    -0.077 C 
ATOM     16  C   UNL     1     131.783 134.591 136.137  1.00  0.00     0.008 C 
ATOM     17  C   UNL     1     132.915 135.218 138.222  1.00  0.00     0.039 C 
ENDBRANCH  12  15
ENDBRANCH  11  12
ENDBRANCH   1  11
TORSDOF 1
ENDMDL
MODEL 2
REMARK VINA RESULT:    -3.765      3.587      5.131
REMARK INTER + INTRA:          -5.040
REMARK INTER:                  -5.086
REMARK INTRA:                   0.045
REMARK UNBOUND:                 0.046
REMARK SMILES C=C(C)[C@H]1CC[C@H](C)C2=C(C1)[C@@H](C)CC2
REMARK SMILES IDX 10 1 9 2 15 3 14 4 12 5 13 6 7 7 8 8 6 9 11 11 4 12 5 13
REMARK SMILES IDX 2 15 1 16 3 17
REMARK H PARENT
REMARK Flexibility Score: 80.00
ROOT
ATOM      1  C   UNL     1     132.688 137.530 134.432  1.00  0.00    -0.067 C 
ATOM      2  C   UNL     1     132.479 136.233 134.662  1.00  0.00    -0.068 C 
ATOM      3  C   UNL     1     132.317 135.475 133.382  1.00  0.00     0.032 C 
ATOM      4  C   UNL     1     132.278 136.549 132.294  1.00  0.00     0.012 C 
ATOM      5  C   UNL     1     132.714 137.856 132.974  1.00  0.00     0.012 C 
ATOM      6  C   UNL     1     134.120 138.282 132.534  1.00  0.00     0.012 C 
ENDROOT
BRANCH   2   7
ATOM      7  C   UNL     1     132.480 135.610 136.051  1.00  0.00     0.012 C 
ATOM      8  C   UNL     1     132.084 134.125 136.018  1.00  0.00     0.012 C 
BRANCH   7   9
ATOM      9  C   UNL     1     133.865 135.775 136.719  1.00  0.00     0.008 CG0
ATOM     10  G   UNL     1     134.077 137.168 137.335  1.00  0.00     0.000 G0
ENDBRANCH   7   9
ENDBRANCH   2   7
BRANCH   1  11
ATOM     11  C   UNL     1     132.908 138.562 135.511  1.00  0.00     0.039 C 
BRANCH  11  12
ATOM     12  C   UNL     1     134.219 138.301 136.283  1.00  0.00     0.018 C 
BRANCH  12  13
ATOM     13  C   UNL     1     134.066 137.180 137.335  1.00  0.00     0.009 CG0
ATOM     14  G   UNL     1     133.878 135.779 136.728  1.00  0.00     0.000 G0
ENDBRANCH  12  13
BRANCH  12  15
ATOM     15  C   UNL     1     134.694 139.581 136.957  1.00  0.00    -0.077 C 
ATOM     16  C   UNL     1     134.947 139.601 138.276  1.00  0.00     0.008 C 
ATOM     17  C   UNL     1     134.886 140.851 136.165  1.00  0.00     0.039 C 
ENDBRANCH  12  15
ENDBRANCH  11  12
ENDBRANCH   1  11
TORSDOF 1
ENDMDL
MODEL 3
REMARK VINA RESULT:    -3.746      4.069      6.159
REMARK INTER + INTRA:          -5.015
REMARK INTER:                  -5.057
REMARK INTRA:                   0.042
REMARK UNBOUND:                 0.046
REMARK SMILES C=C(C)[C@H]1CC[C@H](C)C2=C(C1)[C@@H](C)CC2
REMARK SMILES IDX 10 1 9 2 15 3 14 4 12 5 13 6 7 7 8 8 6 9 11 11 4 12 5 13
REMARK SMILES IDX 2 15 1 16 3 17
REMARK H PARENT
REMARK Flexibility Score: 80.00
ROOT
ATOM      1  C   UNL     1     138.805 136.955 136.025  1.00  0.00    -0.067 C 
ATOM      2  C   UNL     1     139.520 137.250 134.939  1.00  0.00    -0.068 C 
ATOM      3  C   UNL     1     140.166 138.595 135.063  1.00  0.00     0.032 C 
ATOM      4  C   UNL     1     139.588 139.188 136.349  1.00  0.00     0.012 C 
ATOM      5  C   UNL     1     138.860 138.036 137.057  1.00  0.00     0.012 C 
ATOM      6  C   UNL     1     139.621 137.564 138.302  1.00  0.00     0.012 C 
ENDROOT
BRANCH   2   7
ATOM      7  C   UNL     1     139.704 136.299 133.764  1.00  0.00     0.012 C 
ATOM      8  C   UNL     1     140.471 136.955 132.605  1.00  0.00     0.012 C 
BRANCH   7   9
ATOM      9  C   UNL     1     140.429 135.010 134.217  1.00  0.00     0.008 CG0
ATOM     10  G   UNL     1     139.494 134.003 134.909  1.00  0.00     0.000 G0
ENDBRANCH   7   9
ENDBRANCH   2   7
BRANCH   1  11
ATOM     11  C   UNL     1     138.046 135.666 136.222  1.00  0.00     0.039 C 
BRANCH  11  12
ATOM     12  C   UNL     1     139.000 134.456 136.302  1.00  0.00     0.018 C 
BRANCH  12  13
ATOM     13  C   UNL     1     139.482 133.995 134.909  1.00  0.00     0.009 CG0
ATOM     14  G   UNL     1     140.414 135.000 134.210  1.00  0.00     0.000 G0
ENDBRANCH  12  13
BRANCH  12  15
ATOM     15  C   UNL     1     138.319 133.298 137.023  1.00  0.00    -0.077 C 
ATOM     16  C   UNL     1     138.085 133.366 138.343  1.00  0.00     0.008 C 
ATOM     17  C   UNL     1     137.902 132.056 136.275  1.00  0.00     0.039 C 
ENDBRANCH  12  15
ENDBRANCH  11  12
ENDBRANCH   1  11
TORSDOF 1
ENDMDL
MODEL 4
REMARK VINA RESULT:    -3.743      4.029      6.026
REMARK INTER + INTRA:          -5.011
REMARK INTER:                  -5.065
REMARK INTRA:                   0.054
REMARK UNBOUND:                 0.046
REMARK SMILES C=C(C)[C@H]1CC[C@H](C)C2=C(C1)[C@@H](C)CC2
REMARK SMILES IDX 10 1 9 2 15 3 14 4 12 5 13 6 7 7 8 8 6 9 11 11 4 12 5 13
REMARK SMILES IDX 2 15 1 16 3 17
REMARK H PARENT
REMARK Flexibility Score: 80.00
ROOT
ATOM      1  C   UNL     1     133.541 138.595 135.523  1.00  0.00    -0.067 C 
ATOM      2  C   UNL     1     134.231 139.127 134.513  1.00  0.00    -0.068 C 
ATOM      3  C   UNL     1     134.979 140.347 134.951  1.00  0.00     0.032 C 
ATOM      4  C   UNL     1     134.502 140.606 136.380  1.00  0.00     0.012 C 
ATOM      5  C   UNL     1     133.719 139.353 136.799  1.00  0.00     0.012 C 
ATOM      6  C   UNL     1     134.493 138.518 137.827  1.00  0.00     0.012 C 
ENDROOT
BRANCH   2   7
ATOM      7  C   UNL     1     134.294 138.518 133.119  1.00  0.00     0.012 C 
ATOM      8  C   UNL     1     135.055 139.416 132.131  1.00  0.00     0.012 C 
BRANCH   7   9
ATOM      9  C   UNL     1     134.942 137.115 133.169  1.00  0.00     0.008 CG0
ATOM     10  G   UNL     1     133.962 136.012 133.606  1.00  0.00     0.000 G0
ENDBRANCH   7   9
ENDBRANCH   2   7
BRANCH   1  11
ATOM     11  C   UNL     1     132.696 137.350 135.415  1.00  0.00     0.039 C 
BRANCH  11  12
ATOM     12  C   UNL     1     133.559 136.107 135.111  1.00  0.00     0.018 C 
BRANCH  12  13
ATOM     13  C   UNL     1     133.953 136.016 133.620  1.00  0.00     0.009 CG0
ATOM     14  G   UNL     1     134.937 137.109 133.170  1.00  0.00     0.000 G0
ENDBRANCH  12  13
BRANCH  12  15
ATOM     15  C   UNL     1     132.821 134.841 135.529  1.00  0.00    -0.077 C 
ATOM     16  C   UNL     1     131.833 134.900 136.436  1.00  0.00     0.008 C 
ATOM     17  C   UNL     1     133.186 133.500 134.942  1.00  0.00     0.039 C 
ENDBRANCH  12  15
ENDBRANCH  11  12
ENDBRANCH   1  11
TORSDOF 1
ENDMDL
MODEL 5
REMARK VINA RESULT:    -3.731      5.740      7.616
REMARK INTER + INTRA:          -4.994
REMARK INTER:                  -5.050
REMARK INTRA:                   0.056
REMARK UNBOUND:                 0.046
REMARK SMILES C=C(C)[C@H]1CC[C@H](C)C2=C(C1)[C@@H](C)CC2
REMARK SMILES IDX 10 1 9 2 15 3 14 4 12 5 13 6 7 7 8 8 6 9 11 11 4 12 5 13
REMARK SMILES IDX 2 15 1 16 3 17
REMARK H PARENT
REMARK Flexibility Score: 80.00
ROOT
ATOM      1  C   UNL     1     135.509 138.843 135.845  1.00  0.00    -0.067 C 
ATOM      2  C   UNL     1     135.128 139.526 134.765  1.00  0.00    -0.068 C 
ATOM      3  C   UNL     1     133.742 140.067 134.928  1.00  0.00     0.032 C 
ATOM      4  C   UNL     1     133.234 139.454 136.233  1.00  0.00     0.012 C 
ATOM      5  C   UNL     1     134.459 138.820 136.909  1.00  0.00     0.012 C 
ATOM      6  C   UNL     1     134.907 139.623 138.136  1.00  0.00     0.012 C 
ENDROOT
BRANCH   2   7
ATOM      7  C   UNL     1     136.026 139.775 133.562  1.00  0.00     0.012 C 
ATOM      8  C   UNL     1     135.278 140.482 132.420  1.00  0.00     0.012 C 
BRANCH   7   9
ATOM      9  C   UNL     1     137.268 140.599 133.973  1.00  0.00     0.008 CG0
ATOM     10  G   UNL     1     138.362 139.750 134.643  1.00  0.00     0.000 G0
ENDBRANCH   7   9
ENDBRANCH   2   7
BRANCH   1  11
ATOM     11  C   UNL     1     136.858 138.186 136.005  1.00  0.00     0.039 C 
BRANCH  11  12
ATOM     12  C   UNL     1     137.994 139.231 136.043  1.00  0.00     0.018 C 
BRANCH  12  13
ATOM     13  C   UNL     1     138.367 139.743 134.635  1.00  0.00     0.009 CG0
ATOM     14  G   UNL     1     137.274 140.599 133.974  1.00  0.00     0.000 G0
ENDBRANCH  12  13
BRANCH  12  15
ATOM     15  C   UNL     1     139.224 138.645 136.724  1.00  0.00    -0.077 C 
ATOM     16  C   UNL     1     139.204 138.363 138.036  1.00  0.00     0.008 C 
ATOM     17  C   UNL     1     140.488 138.374 135.945  1.00  0.00     0.039 C 
ENDBRANCH  12  15
ENDBRANCH  11  12
ENDBRANCH   1  11
TORSDOF 1
ENDMDL
MODEL 6
REMARK VINA RESULT:    -3.727      5.576      7.146
REMARK INTER + INTRA:          -4.988
REMARK INTER:                  -5.029
REMARK INTRA:                   0.040
REMARK UNBOUND:                 0.046
REMARK SMILES C=C(C)[C@H]1CC[C@H](C)C2=C(C1)[C@@H](C)CC2
REMARK SMILES IDX 10 1 9 2 15 3 14 4 12 5 13 6 7 7 8 8 6 9 11 11 4 12 5 13
REMARK SMILES IDX 2 15 1 16 3 17
REMARK H PARENT
REMARK Flexibility Score: 80.00
ROOT
ATOM      1  C   UNL     1     137.368 139.883 134.865  1.00  0.00    -0.067 C 
ATOM      2  C   UNL     1     136.065 139.982 135.130  1.00  0.00    -0.068 C 
ATOM      3  C   UNL     1     135.270 140.177 133.876  1.00  0.00     0.032 C 
ATOM      4  C   UNL     1     136.316 140.367 132.777  1.00  0.00     0.012 C 
ATOM      5  C   UNL     1     137.664 139.981 133.403  1.00  0.00     0.012 C 
ATOM      6  C   UNL     1     138.179 138.642 132.859  1.00  0.00     0.012 C 
ENDROOT
BRANCH   2   7
ATOM      7  C   UNL     1     135.472 139.841 136.525  1.00  0.00     0.012 C 
ATOM      8  C   UNL     1     133.962 140.124 136.542  1.00  0.00     0.012 C 
BRANCH   7   9
ATOM      9  C   UNL     1     135.755 138.431 137.094  1.00  0.00     0.008 CG0
ATOM     10  G   UNL     1     137.176 138.284 137.666  1.00  0.00     0.000 G0
ENDBRANCH   7   9
ENDBRANCH   2   7
BRANCH   1  11
ATOM     11  C   UNL     1     138.435 139.664 135.908  1.00  0.00     0.039 C 
BRANCH  11  12
ATOM     12  C   UNL     1     138.288 138.285 136.586  1.00  0.00     0.018 C 
BRANCH  12  13
ATOM     13  C   UNL     1     137.186 138.278 137.669  1.00  0.00     0.009 CG0
ATOM     14  G   UNL     1     135.762 138.432 137.108  1.00  0.00     0.000 G0
ENDBRANCH  12  13
BRANCH  12  15
ATOM     15  C   UNL     1     139.616 137.856 137.197  1.00  0.00    -0.077 C 
ATOM     16  C   UNL     1     139.680 137.478 138.483  1.00  0.00     0.008 C 
ATOM     17  C   UNL     1     140.883 137.852 136.377  1.00  0.00     0.039 C 
ENDBRANCH  12  15
ENDBRANCH  11  12
ENDBRANCH   1  11
TORSDOF 1
ENDMDL
MODEL 7
REMARK VINA RESULT:    -3.700      3.462      5.557
REMARK INTER + INTRA:          -4.951
REMARK INTER:                  -4.996
REMARK INTRA:                   0.045
REMARK UNBOUND:                 0.046
REMARK SMILES C=C(C)[C@H]1CC[C@H](C)C2=C(C1)[C@@H](C)CC2
REMARK SMILES IDX 10 1 9 2 15 3 14 4 12 5 13 6 7 7 8 8 6 9 11 11 4 12 5 13
REMARK SMILES IDX 2 15 1 16 3 17
REMARK H PARENT
REMARK Flexibility Score: 80.00
ROOT
ATOM      1  C   UNL     1     138.971 133.841 135.669  1.00  0.00    -0.067 C 
ATOM      2  C   UNL     1     138.292 133.369 134.622  1.00  0.00    -0.068 C 
ATOM      3  C   UNL     1     137.457 132.188 135.006  1.00  0.00     0.032 C 
ATOM      4  C   UNL     1     137.861 131.875 136.447  1.00  0.00     0.012 C 
ATOM      5  C   UNL     1     138.698 133.072 136.922  1.00  0.00     0.012 C 
ATOM      6  C   UNL     1     137.932 133.932 137.935  1.00  0.00     0.012 C 
ENDROOT
BRANCH   2   7
ATOM      7  C   UNL     1     138.320 134.006 133.240  1.00  0.00     0.012 C 
ATOM      8  C   UNL     1     137.542 133.177 132.206  1.00  0.00     0.012 C 
BRANCH   7   9
ATOM      9  C   UNL     1     137.761 135.447 133.295  1.00  0.00     0.008 CG0
ATOM     10  G   UNL     1     138.786 136.474 133.804  1.00  0.00     0.000 G0
ENDBRANCH   7   9
ENDBRANCH   2   7
BRANCH   1  11
ATOM     11  C   UNL     1     139.890 135.037 135.620  1.00  0.00     0.039 C 
BRANCH  11  12
ATOM     12  C   UNL     1     139.113 136.333 135.306  1.00  0.00     0.018 C 
BRANCH  12  13
ATOM     13  C   UNL     1     138.790 136.475 133.802  1.00  0.00     0.009 CG0
ATOM     14  G   UNL     1     137.760 135.454 133.289  1.00  0.00     0.000 G0
ENDBRANCH  12  13
BRANCH  12  15
ATOM     15  C   UNL     1     139.904 137.546 135.782  1.00  0.00    -0.077 C 
ATOM     16  C   UNL     1     140.407 137.582 137.026  1.00  0.00     0.008 C 
ATOM     17  C   UNL     1     140.131 138.730 134.874  1.00  0.00     0.039 C 
ENDBRANCH  12  15
ENDBRANCH  11  12
ENDBRANCH   1  11
TORSDOF 1
ENDMDL
MODEL 8
REMARK VINA RESULT:    -3.666      3.653      5.209
REMARK INTER + INTRA:          -4.906
REMARK INTER:                  -4.954
REMARK INTRA:                   0.048
REMARK UNBOUND:                 0.046
REMARK SMILES C=C(C)[C@H]1CC[C@H](C)C2=C(C1)[C@@H](C)CC2
REMARK SMILES IDX 10 1 9 2 15 3 14 4 12 5 13 6 7 7 8 8 6 9 11 11 4 12 5 13
REMARK SMILES IDX 2 15 1 16 3 17
REMARK H PARENT
REMARK Flexibility Score: 80.00
ROOT
ATOM      1  C   UNL     1     139.893 135.243 134.515  1.00  0.00    -0.067 C 
ATOM      2  C   UNL     1     139.999 136.557 134.714  1.00  0.00    -0.068 C 
ATOM      3  C   UNL     1     140.136 137.292 133.417  1.00  0.00     0.032 C 
ATOM      4  C   UNL     1     140.281 136.197 132.361  1.00  0.00     0.012 C 
ATOM      5  C   UNL     1     139.928 134.879 133.065  1.00  0.00     0.012 C 
ATOM      6  C   UNL     1     138.568 134.337 132.605  1.00  0.00     0.012 C 
ENDROOT
BRANCH   2   7
ATOM      7  C   UNL     1     139.917 137.214 136.085  1.00  0.00     0.012 C 
ATOM      8  C   UNL     1     140.191 138.725 136.019  1.00  0.00     0.012 C 
BRANCH   7   9
ATOM      9  C   UNL     1     138.535 136.953 136.729  1.00  0.00     0.008 CG0
ATOM     10  G   UNL     1     138.425 135.564 137.381  1.00  0.00     0.000 G0
ENDBRANCH   7   9
ENDBRANCH   2   7
BRANCH   1  11
ATOM     11  C   UNL     1     139.724 134.225 135.616  1.00  0.00     0.039 C 
BRANCH  11  12
ATOM     12  C   UNL     1     138.379 134.408 136.352  1.00  0.00     0.018 C 
BRANCH  12  13
ATOM     13  C   UNL     1     138.426 135.559 137.381  1.00  0.00     0.009 CG0
ATOM     14  G   UNL     1     138.529 136.957 136.747  1.00  0.00     0.000 G0
ENDBRANCH  12  13
BRANCH  12  15
ATOM     15  C   UNL     1     137.980 133.111 137.044  1.00  0.00    -0.077 C 
ATOM     16  C   UNL     1     137.864 133.064 138.381  1.00  0.00     0.008 C 
ATOM     17  C   UNL     1     137.713 131.857 136.249  1.00  0.00     0.039 C 
ENDBRANCH  12  15
ENDBRANCH  11  12
ENDBRANCH   1  11
TORSDOF 1
ENDMDL
MODEL 9
REMARK VINA RESULT:    -3.644      5.480      6.605
REMARK INTER + INTRA:          -4.876
REMARK INTER:                  -4.942
REMARK INTRA:                   0.066
REMARK UNBOUND:                 0.046
REMARK SMILES C=C(C)[C@H]1CC[C@H](C)C2=C(C1)[C@@H](C)CC2
REMARK SMILES IDX 10 1 9 2 15 3 14 4 12 5 13 6 7 7 8 8 6 9 11 11 4 12 5 13
REMARK SMILES IDX 2 15 1 16 3 17
REMARK H PARENT
REMARK Flexibility Score: 80.00
ROOT
ATOM      1  C   UNL     1     138.255 139.305 135.306  1.00  0.00    -0.067 C 
ATOM      2  C   UNL     1     138.721 138.627 134.256  1.00  0.00    -0.068 C 
ATOM      3  C   UNL     1     140.053 138.013 134.556  1.00  0.00     0.032 C 
ATOM      4  C   UNL     1     140.440 138.570 135.926  1.00  0.00     0.012 C 
ATOM      5  C   UNL     1     139.179 139.250 136.479  1.00  0.00     0.012 C 
ATOM      6  C   UNL     1     138.558 138.443 137.627  1.00  0.00     0.012 C 
ENDROOT
BRANCH   2   7
ATOM      7  C   UNL     1     137.953 138.452 132.954  1.00  0.00     0.012 C 
ATOM      8  C   UNL     1     138.789 137.736 131.881  1.00  0.00     0.012 C 
BRANCH   7   9
ATOM      9  C   UNL     1     136.635 137.680 133.201  1.00  0.00     0.008 CG0
ATOM     10  G   UNL     1     135.511 138.568 133.761  1.00  0.00     0.000 G0
ENDBRANCH   7   9
ENDBRANCH   2   7
BRANCH   1  11
ATOM     11  C   UNL     1     136.930 140.025 135.334  1.00  0.00     0.039 C 
BRANCH  11  12
ATOM     12  C   UNL     1     135.748 139.039 135.219  1.00  0.00     0.018 C 
BRANCH  12  13
ATOM     13  C   UNL     1     135.510 138.576 133.765  1.00  0.00     0.009 CG0
ATOM     14  G   UNL     1     136.635 137.691 133.202  1.00  0.00     0.000 G0
ENDBRANCH  12  13
BRANCH  12  15
ATOM     15  C   UNL     1     134.479 139.673 135.774  1.00  0.00    -0.077 C 
ATOM     16  C   UNL     1     134.527 140.872 136.376  1.00  0.00     0.008 C 
ATOM     17  C   UNL     1     133.148 138.970 135.668  1.00  0.00     0.039 C 
ENDBRANCH  12  15
ENDBRANCH  11  12
ENDBRANCH   1  11
TORSDOF 1
ENDMDL
