MODEL 1
REMARK VINA RESULT:    50.158      0.000      0.000
REMARK INTER + INTRA:          65.292
REMARK INTER:                  66.285
REMARK INTRA:                  -0.993
REMARK UNBOUND:                -0.993
REMARK SMILES CC[C@H](C=C[C@@H](C)[C@@H]1CC[C@H]2[C@@H]3CC[C@H]4C[C@H](O)CC[C@@]4(C)[C@H]3CC[C@@]21C)C(C)C
REMARK SMILES IDX 6 1 7 2 5 3 4 4 3 5 2 6 1 7 28 8 29 9 30 10 8 11 9 12 26 13
REMARK SMILES IDX 10 14 11 15 25 16 27 17 12 18 24 19 23 20 13 21 21 22 14 23
REMARK SMILES IDX 15 24 20 25 22 26 16 27 19 28 17 29 18 30
REMARK H PARENT 18 31
REMARK Flexibility Score: inf
ROOT
ATOM      1  C   UNL     1     -30.843  25.358   5.744  1.00  0.00     0.012 C 
ATOM      2  C   UNL     1     -31.283  25.949   4.387  1.00  0.00     0.012 C 
ENDROOT
BRANCH   1   3
ATOM      3  C   UNL     1     -29.411  25.775   6.013  1.00  0.00    -0.028 C 
ATOM      4  C   UNL     1     -28.426  24.870   6.135  1.00  0.00    -0.027 C 
BRANCH   4   5
ATOM      5  C   UNL     1     -26.992  25.292   6.383  1.00  0.00     0.014 C 
BRANCH   5   6
ATOM      6  C   UNL     1     -26.822  26.841   6.428  1.00  0.00     0.004 C 
ATOM      7  C   UNL     1     -26.754  27.540   5.063  1.00  0.00     0.004 C 
ENDBRANCH   5   6
BRANCH   5   8
ATOM      8  C   UNL     1     -26.376  24.527   7.597  1.00  0.00    -0.011 C 
ATOM      9  C   UNL     1     -26.164  25.445   8.812  1.00  0.00     0.008 C 
ATOM     10  C   UNL     1     -27.163  23.274   8.012  1.00  0.00     0.008 C 
ENDBRANCH   5   8
ENDBRANCH   4   5
ENDBRANCH   1   3
BRANCH   1  11
ATOM     11  C   UNL     1     -30.972  23.800   5.897  1.00  0.00     0.002 C 
ATOM     12  C   UNL     1     -30.864  23.027   4.551  1.00  0.00     0.005 C 
ATOM     13  C   UNL     1     -32.264  23.228   6.560  1.00  0.00    -0.026 C 
ATOM     14  C   UNL     1     -32.225  22.356   4.298  1.00  0.00     0.005 C 
ATOM     15  C   UNL     1     -33.156  22.961   5.342  1.00  0.00    -0.001 C 
ATOM     16  C   UNL     1     -33.041  24.145   7.537  1.00  0.00     0.007 C 
ATOM     17  C   UNL     1     -31.850  21.918   7.312  1.00  0.00     0.012 C 
ATOM     18  C   UNL     1     -34.466  22.215   5.689  1.00  0.00    -0.004 C 
ATOM     19  C   UNL     1     -34.388  23.506   7.950  1.00  0.00     0.005 C 
ATOM     20  C   UNL     1     -35.265  23.050   6.738  1.00  0.00    -0.001 C 
ATOM     21  C   UNL     1     -35.303  21.985   4.398  1.00  0.00     0.004 C 
ATOM     22  C   UNL     1     -36.671  22.406   7.139  1.00  0.00    -0.026 C 
ATOM     23  C   UNL     1     -36.823  21.867   4.628  1.00  0.00     0.004 C 
ATOM     24  C   UNL     1     -37.188  21.385   6.045  1.00  0.00    -0.002 C 
ATOM     25  C   UNL     1     -36.703  21.726   8.548  1.00  0.00     0.010 C 
ATOM     26  C   UNL     1     -37.695  23.575   7.231  1.00  0.00     0.012 C 
ATOM     27  C   UNL     1     -36.744  19.899   6.212  1.00  0.00     0.036 C 
ATOM     28  C   UNL     1     -36.048  20.346   8.578  1.00  0.00     0.032 C 
ATOM     29  C   UNL     1     -36.793  19.385   7.654  1.00  0.00     0.114 C 
BRANCH  29  30
ATOM     30  O   UNL     1     -38.124  19.235   8.079  1.00  0.00    -0.393 OA
ATOM     31  H   UNL     1     -38.211  18.311   8.431  1.00  0.00     0.210 HD
ENDBRANCH  29  30
ENDBRANCH   1  11
TORSDOF 6
ENDMDL
MODEL 2
REMARK VINA RESULT:    51.882      0.628      1.507
REMARK INTER + INTRA:          67.571
REMARK INTER:                  68.144
REMARK INTRA:                  -0.573
REMARK UNBOUND:                -0.993
REMARK SMILES CC[C@H](C=C[C@@H](C)[C@@H]1CC[C@H]2[C@@H]3CC[C@H]4C[C@H](O)CC[C@@]4(C)[C@H]3CC[C@@]21C)C(C)C
REMARK SMILES IDX 6 1 7 2 5 3 4 4 3 5 2 6 1 7 28 8 29 9 30 10 8 11 9 12 26 13
REMARK SMILES IDX 10 14 11 15 25 16 27 17 12 18 24 19 23 20 13 21 21 22 14 23
REMARK SMILES IDX 15 24 20 25 22 26 16 27 19 28 17 29 18 30
REMARK H PARENT 18 31
REMARK Flexibility Score: inf
ROOT
ATOM      1  C   UNL     1     -31.176  25.647   5.704  1.00  0.00     0.012 C 
ATOM      2  C   UNL     1     -31.440  26.068   4.243  1.00  0.00     0.012 C 
ENDROOT
BRANCH   1   3
ATOM      3  C   UNL     1     -29.843  26.220   6.142  1.00  0.00    -0.028 C 
ATOM      4  C   UNL     1     -28.778  25.432   6.365  1.00  0.00    -0.027 C 
BRANCH   4   5
ATOM      5  C   UNL     1     -27.441  26.012   6.782  1.00  0.00     0.014 C 
BRANCH   5   6
ATOM      6  C   UNL     1     -26.546  24.978   7.531  1.00  0.00     0.004 C 
ATOM      7  C   UNL     1     -26.225  23.694   6.754  1.00  0.00     0.004 C 
ENDBRANCH   5   6
BRANCH   5   8
ATOM      8  C   UNL     1     -26.745  26.746   5.592  1.00  0.00    -0.011 C 
ATOM      9  C   UNL     1     -25.798  27.858   6.073  1.00  0.00     0.008 C 
ATOM     10  C   UNL     1     -26.009  25.809   4.622  1.00  0.00     0.008 C 
ENDBRANCH   5   8
ENDBRANCH   4   5
ENDBRANCH   1   3
BRANCH   1  11
ATOM     11  C   UNL     1     -31.204  24.104   5.998  1.00  0.00     0.002 C 
ATOM     12  C   UNL     1     -30.977  23.222   4.737  1.00  0.00     0.005 C 
ATOM     13  C   UNL     1     -32.484  23.501   6.656  1.00  0.00    -0.026 C 
ATOM     14  C   UNL     1     -32.274  22.432   4.490  1.00  0.00     0.005 C 
ATOM     15  C   UNL     1     -33.294  23.059   5.433  1.00  0.00    -0.001 C 
ATOM     16  C   UNL     1     -33.369  24.443   7.510  1.00  0.00     0.007 C 
ATOM     17  C   UNL     1     -32.017  22.299   7.546  1.00  0.00     0.012 C 
ATOM     18  C   UNL     1     -34.565  22.253   5.793  1.00  0.00    -0.004 C 
ATOM     19  C   UNL     1     -34.687  23.746   7.924  1.00  0.00     0.005 C 
ATOM     20  C   UNL     1     -35.470  23.119   6.724  1.00  0.00    -0.001 C 
ATOM     21  C   UNL     1     -35.320  21.846   4.496  1.00  0.00     0.004 C 
ATOM     22  C   UNL     1     -36.846  22.412   7.125  1.00  0.00    -0.026 C 
ATOM     23  C   UNL     1     -36.838  21.638   4.672  1.00  0.00     0.004 C 
ATOM     24  C   UNL     1     -37.237  21.261   6.111  1.00  0.00    -0.002 C 
ATOM     25  C   UNL     1     -36.899  21.862   8.588  1.00  0.00     0.010 C 
ATOM     26  C   UNL     1     -37.952  23.506   7.063  1.00  0.00     0.012 C 
ATOM     27  C   UNL     1     -36.700  19.832   6.435  1.00  0.00     0.036 C 
ATOM     28  C   UNL     1     -36.152  20.543   8.776  1.00  0.00     0.032 C 
ATOM     29  C   UNL     1     -36.783  19.450   7.915  1.00  0.00     0.114 C 
BRANCH  29  30
ATOM     30  O   UNL     1     -38.119  19.241   8.297  1.00  0.00    -0.393 OA
ATOM     31  H   UNL     1     -38.332  19.925   8.984  1.00  0.00     0.210 HD
ENDBRANCH  29  30
ENDBRANCH   1  11
TORSDOF 6
ENDMDL
