MODEL 1
REMARK VINA RESULT:    -3.105      0.000      0.000
REMARK INTER + INTRA:          -7.670
REMARK INTER:                  -5.465
REMARK INTRA:                  -2.206
REMARK UNBOUND:                -2.206
REMARK SMILES CCCCCCCCCCCCCCC(=O)[O-]
REMARK SMILES IDX 9 1 10 2 11 3 12 4 13 5 14 6 15 7 16 8 17 9 8 10 7 11 6 12
REMARK SMILES IDX 5 13 4 14 3 15 2 16 1 17
REMARK H PARENT
REMARK Flexibility Score: inf
ROOT
ATOM      1  C   UNL     1      56.115  27.753  53.619  1.00  0.00     0.000 C 
ENDROOT
BRANCH   1   2
ATOM      2  C   UNL     1      57.264  27.991  52.631  1.00  0.00     0.000 C 
BRANCH   2   3
ATOM      3  C   UNL     1      57.998  29.300  52.943  1.00  0.00     0.000 C 
BRANCH   3   4
ATOM      4  C   UNL     1      58.333  30.065  51.658  1.00  0.00     0.000 C 
BRANCH   4   5
ATOM      5  C   UNL     1      57.840  29.304  50.419  1.00  0.00     0.006 C 
BRANCH   5   6
ATOM      6  C   UNL     1      58.938  29.146  49.359  1.00  0.00     0.053 C 
BRANCH   6   7
ATOM      7  C   UNL     1      59.823  27.972  49.648  1.00  0.00     0.041 C 
ATOM      8  O   UNL     1      59.332  26.816  49.741  1.00  0.00    -0.550 OA
ATOM      9  O   UNL     1      61.185  28.160  49.847  1.00  0.00    -0.550 OA
ENDBRANCH   6   7
ENDBRANCH   5   6
ENDBRANCH   4   5
ENDBRANCH   3   4
ENDBRANCH   2   3
ENDBRANCH   1   2
BRANCH   1  10
ATOM     10  C   UNL     1      55.677  29.068  54.280  1.00  0.00     0.000 C 
BRANCH  10  11
ATOM     11  C   UNL     1      54.307  29.556  53.781  1.00  0.00    -0.000 C 
BRANCH  11  12
ATOM     12  C   UNL     1      54.407  30.835  52.932  1.00  0.00    -0.000 C 
BRANCH  12  13
ATOM     13  C   UNL     1      53.717  30.691  51.566  1.00  0.00    -0.000 C 
BRANCH  13  14
ATOM     14  C   UNL     1      54.366  29.606  50.690  1.00  0.00    -0.000 C 
BRANCH  14  15
ATOM     15  C   UNL     1      53.386  28.481  50.307  1.00  0.00    -0.000 C 
BRANCH  15  16
ATOM     16  C   UNL     1      53.765  27.085  50.830  1.00  0.00    -0.003 C 
ATOM     17  C   UNL     1      54.941  26.461  50.078  1.00  0.00     0.004 C 
ENDBRANCH  15  16
ENDBRANCH  14  15
ENDBRANCH  13  14
ENDBRANCH  12  13
ENDBRANCH  11  12
ENDBRANCH  10  11
ENDBRANCH   1  10
TORSDOF 13
ENDMDL
MODEL 2
REMARK VINA RESULT:    -3.022      1.272      3.207
REMARK INTER + INTRA:          -7.525
REMARK INTER:                  -5.784
REMARK INTRA:                  -1.741
REMARK UNBOUND:                -2.206
REMARK SMILES CCCCCCCCCCCCCCC(=O)[O-]
REMARK SMILES IDX 9 1 10 2 11 3 12 4 13 5 14 6 15 7 16 8 17 9 8 10 7 11 6 12
REMARK SMILES IDX 5 13 4 14 3 15 2 16 1 17
REMARK H PARENT
REMARK Flexibility Score: inf
ROOT
ATOM      1  C   UNL     1      56.898  26.576  50.496  1.00  0.00     0.000 C 
ENDROOT
BRANCH   1   2
ATOM      2  C   UNL     1      57.619  27.729  51.203  1.00  0.00     0.000 C 
BRANCH   2   3
ATOM      3  C   UNL     1      57.460  29.041  50.426  1.00  0.00     0.000 C 
BRANCH   3   4
ATOM      4  C   UNL     1      58.818  29.571  49.953  1.00  0.00     0.000 C 
BRANCH   4   5
ATOM      5  C   UNL     1      59.681  28.441  49.376  1.00  0.00     0.006 C 
BRANCH   5   6
ATOM      6  C   UNL     1      61.036  28.322  50.088  1.00  0.00     0.053 C 
BRANCH   6   7
ATOM      7  C   UNL     1      61.435  26.892  50.285  1.00  0.00     0.041 C 
ATOM      8  O   UNL     1      62.651  26.582  50.388  1.00  0.00    -0.550 OA
ATOM      9  O   UNL     1      60.466  25.898  50.320  1.00  0.00    -0.550 OA
ENDBRANCH   6   7
ENDBRANCH   5   6
ENDBRANCH   4   5
ENDBRANCH   3   4
ENDBRANCH   2   3
ENDBRANCH   1   2
BRANCH   1  10
ATOM     10  C   UNL     1      55.503  26.348  51.098  1.00  0.00     0.000 C 
BRANCH  10  11
ATOM     11  C   UNL     1      54.389  26.353  50.038  1.00  0.00    -0.000 C 
BRANCH  11  12
ATOM     12  C   UNL     1      53.290  27.386  50.340  1.00  0.00    -0.000 C 
BRANCH  12  13
ATOM     13  C   UNL     1      53.811  28.832  50.294  1.00  0.00    -0.000 C 
BRANCH  13  14
ATOM     14  C   UNL     1      53.363  29.658  51.511  1.00  0.00    -0.000 C 
BRANCH  14  15
ATOM     15  C   UNL     1      54.545  30.171  52.354  1.00  0.00    -0.000 C 
BRANCH  15  16
ATOM     16  C   UNL     1      55.022  29.207  53.455  1.00  0.00    -0.003 C 
ATOM     17  C   UNL     1      56.314  29.664  54.132  1.00  0.00     0.004 C 
ENDBRANCH  15  16
ENDBRANCH  14  15
ENDBRANCH  13  14
ENDBRANCH  12  13
ENDBRANCH  11  12
ENDBRANCH  10  11
ENDBRANCH   1  10
TORSDOF 13
ENDMDL
MODEL 3
REMARK VINA RESULT:    -3.018      2.944      4.853
REMARK INTER + INTRA:          -7.517
REMARK INTER:                  -6.280
REMARK INTRA:                  -1.237
REMARK UNBOUND:                -2.206
REMARK SMILES CCCCCCCCCCCCCCC(=O)[O-]
REMARK SMILES IDX 9 1 10 2 11 3 12 4 13 5 14 6 15 7 16 8 17 9 8 10 7 11 6 12
REMARK SMILES IDX 5 13 4 14 3 15 2 16 1 17
REMARK H PARENT
REMARK Flexibility Score: inf
ROOT
ATOM      1  C   UNL     1      59.638  28.263  49.467  1.00  0.00     0.000 C 
ENDROOT
BRANCH   1   2
ATOM      2  C   UNL     1      61.054  28.316  50.053  1.00  0.00     0.000 C 
BRANCH   2   3
ATOM      3  C   UNL     1      61.652  26.910  50.179  1.00  0.00     0.000 C 
BRANCH   3   4
ATOM      4  C   UNL     1      60.566  25.874  50.489  1.00  0.00     0.000 C 
BRANCH   4   5
ATOM      5  C   UNL     1      61.180  24.584  51.052  1.00  0.00     0.006 C 
BRANCH   5   6
ATOM      6  C   UNL     1      60.180  23.421  51.063  1.00  0.00     0.053 C 
BRANCH   6   7
ATOM      7  C   UNL     1      60.543  22.369  50.059  1.00  0.00     0.041 C 
ATOM      8  O   UNL     1      61.160  22.682  49.008  1.00  0.00    -0.550 OA
ATOM      9  O   UNL     1      60.169  21.048  50.271  1.00  0.00    -0.550 OA
ENDBRANCH   6   7
ENDBRANCH   5   6
ENDBRANCH   4   5
ENDBRANCH   3   4
ENDBRANCH   2   3
ENDBRANCH   1   2
BRANCH   1  10
ATOM     10  C   UNL     1      58.761  29.385  50.043  1.00  0.00     0.000 C 
BRANCH  10  11
ATOM     11  C   UNL     1      57.341  28.912  50.390  1.00  0.00    -0.000 C 
BRANCH  11  12
ATOM     12  C   UNL     1      57.329  27.818  51.472  1.00  0.00    -0.000 C 
BRANCH  12  13
ATOM     13  C   UNL     1      56.850  26.460  50.932  1.00  0.00    -0.000 C 
BRANCH  13  14
ATOM     14  C   UNL     1      55.353  26.220  51.191  1.00  0.00    -0.000 C 
BRANCH  14  15
ATOM     15  C   UNL     1      54.500  26.329  49.912  1.00  0.00    -0.000 C 
BRANCH  15  16
ATOM     16  C   UNL     1      53.317  27.309  50.004  1.00  0.00    -0.003 C 
ATOM     17  C   UNL     1      53.717  28.684  50.537  1.00  0.00     0.004 C 
ENDBRANCH  15  16
ENDBRANCH  14  15
ENDBRANCH  13  14
ENDBRANCH  12  13
ENDBRANCH  11  12
ENDBRANCH  10  11
ENDBRANCH   1  10
TORSDOF 13
ENDMDL
MODEL 4
REMARK VINA RESULT:    -3.009      2.348      5.136
REMARK INTER + INTRA:          -7.501
REMARK INTER:                  -5.138
REMARK INTRA:                  -2.363
REMARK UNBOUND:                -2.206
REMARK SMILES CCCCCCCCCCCCCCC(=O)[O-]
REMARK SMILES IDX 9 1 10 2 11 3 12 4 13 5 14 6 15 7 16 8 17 9 8 10 7 11 6 12
REMARK SMILES IDX 5 13 4 14 3 15 2 16 1 17
REMARK H PARENT
REMARK Flexibility Score: inf
ROOT
ATOM      1  C   UNL     1      56.617  26.518  53.810  1.00  0.00     0.000 C 
ENDROOT
BRANCH   1   2
ATOM      2  C   UNL     1      55.953  27.882  54.035  1.00  0.00     0.000 C 
BRANCH   2   3
ATOM      3  C   UNL     1      56.514  28.934  53.072  1.00  0.00     0.000 C 
BRANCH   3   4
ATOM      4  C   UNL     1      55.408  29.517  52.185  1.00  0.00     0.000 C 
BRANCH   4   5
ATOM      5  C   UNL     1      55.497  28.961  50.756  1.00  0.00     0.006 C 
BRANCH   5   6
ATOM      6  C   UNL     1      54.201  28.265  50.321  1.00  0.00     0.053 C 
BRANCH   6   7
ATOM      7  C   UNL     1      54.277  26.781  50.511  1.00  0.00     0.041 C 
ATOM      8  O   UNL     1      54.703  26.045  49.584  1.00  0.00    -0.550 OA
ATOM      9  O   UNL     1      53.846  26.210  51.702  1.00  0.00    -0.550 OA
ENDBRANCH   6   7
ENDBRANCH   5   6
ENDBRANCH   4   5
ENDBRANCH   3   4
ENDBRANCH   2   3
ENDBRANCH   1   2
BRANCH   1  10
ATOM     10  C   UNL     1      57.864  26.653  52.922  1.00  0.00     0.000 C 
BRANCH  10  11
ATOM     11  C   UNL     1      57.845  25.694  51.721  1.00  0.00    -0.000 C 
BRANCH  11  12
ATOM     12  C   UNL     1      58.129  26.409  50.389  1.00  0.00    -0.000 C 
BRANCH  12  13
ATOM     13  C   UNL     1      59.621  26.394  50.018  1.00  0.00    -0.000 C 
BRANCH  13  14
ATOM     14  C   UNL     1      60.194  27.809  49.828  1.00  0.00    -0.000 C 
BRANCH  14  15
ATOM     15  C   UNL     1      59.114  28.851  49.485  1.00  0.00    -0.000 C 
BRANCH  15  16
ATOM     16  C   UNL     1      59.002  30.021  50.478  1.00  0.00    -0.003 C 
ATOM     17  C   UNL     1      59.838  29.817  51.741  1.00  0.00     0.004 C 
ENDBRANCH  15  16
ENDBRANCH  14  15
ENDBRANCH  13  14
ENDBRANCH  12  13
ENDBRANCH  11  12
ENDBRANCH  10  11
ENDBRANCH   1  10
TORSDOF 13
ENDMDL
MODEL 5
REMARK VINA RESULT:    -2.971      3.046      4.864
REMARK INTER + INTRA:          -7.434
REMARK INTER:                  -5.324
REMARK INTRA:                  -2.110
REMARK UNBOUND:                -2.206
REMARK SMILES CCCCCCCCCCCCCCC(=O)[O-]
REMARK SMILES IDX 9 1 10 2 11 3 12 4 13 5 14 6 15 7 16 8 17 9 8 10 7 11 6 12
REMARK SMILES IDX 5 13 4 14 3 15 2 16 1 17
REMARK H PARENT
REMARK Flexibility Score: inf
ROOT
ATOM      1  C   UNL     1      59.782  26.651  52.387  1.00  0.00     0.000 C 
ENDROOT
BRANCH   1   2
ATOM      2  C   UNL     1      60.578  27.718  53.148  1.00  0.00     0.000 C 
BRANCH   2   3
ATOM      3  C   UNL     1      61.802  28.172  52.344  1.00  0.00     0.000 C 
BRANCH   3   4
ATOM      4  C   UNL     1      61.904  29.702  52.313  1.00  0.00     0.000 C 
BRANCH   4   5
ATOM      5  C   UNL     1      62.507  30.187  50.987  1.00  0.00     0.006 C 
BRANCH   5   6
ATOM      6  C   UNL     1      61.738  31.377  50.399  1.00  0.00     0.053 C 
BRANCH   6   7
ATOM      7  C   UNL     1      62.650  32.333  49.693  1.00  0.00     0.041 C 
ATOM      8  O   UNL     1      62.199  33.412  49.227  1.00  0.00    -0.550 OA
ATOM      9  O   UNL     1      63.991  32.016  49.521  1.00  0.00    -0.550 OA
ENDBRANCH   6   7
ENDBRANCH   5   6
ENDBRANCH   4   5
ENDBRANCH   3   4
ENDBRANCH   2   3
ENDBRANCH   1   2
BRANCH   1  10
ATOM     10  C   UNL     1      60.275  26.528  50.937  1.00  0.00     0.000 C 
BRANCH  10  11
ATOM     11  C   UNL     1      59.257  27.064  49.916  1.00  0.00    -0.000 C 
BRANCH  11  12
ATOM     12  C   UNL     1      59.623  28.465  49.395  1.00  0.00    -0.000 C 
BRANCH  12  13
ATOM     13  C   UNL     1      58.515  29.499  49.657  1.00  0.00    -0.000 C 
BRANCH  13  14
ATOM     14  C   UNL     1      58.372  29.844  51.148  1.00  0.00    -0.000 C 
BRANCH  14  15
ATOM     15  C   UNL     1      57.009  29.426  51.731  1.00  0.00    -0.000 C 
BRANCH  15  16
ATOM     16  C   UNL     1      56.074  28.708  50.742  1.00  0.00    -0.003 C 
ATOM     17  C   UNL     1      54.656  29.280  50.735  1.00  0.00     0.004 C 
ENDBRANCH  15  16
ENDBRANCH  14  15
ENDBRANCH  13  14
ENDBRANCH  12  13
ENDBRANCH  11  12
ENDBRANCH  10  11
ENDBRANCH   1  10
TORSDOF 13
ENDMDL
MODEL 6
REMARK VINA RESULT:    -2.970      1.358      2.950
REMARK INTER + INTRA:          -7.433
REMARK INTER:                  -5.114
REMARK INTRA:                  -2.319
REMARK UNBOUND:                -2.206
REMARK SMILES CCCCCCCCCCCCCCC(=O)[O-]
REMARK SMILES IDX 9 1 10 2 11 3 12 4 13 5 14 6 15 7 16 8 17 9 8 10 7 11 6 12
REMARK SMILES IDX 5 13 4 14 3 15 2 16 1 17
REMARK H PARENT
REMARK Flexibility Score: inf
ROOT
ATOM      1  C   UNL     1      58.069  28.751  53.172  1.00  0.00     0.000 C 
ENDROOT
BRANCH   1   2
ATOM      2  C   UNL     1      57.916  30.042  52.358  1.00  0.00     0.000 C 
BRANCH   2   3
ATOM      3  C   UNL     1      58.870  30.053  51.158  1.00  0.00     0.000 C 
BRANCH   3   4
ATOM      4  C   UNL     1      58.323  29.198  50.009  1.00  0.00     0.000 C 
BRANCH   4   5
ATOM      5  C   UNL     1      59.324  28.105  49.610  1.00  0.00     0.006 C 
BRANCH   5   6
ATOM      6  C   UNL     1      58.817  26.698  49.957  1.00  0.00     0.053 C 
BRANCH   6   7
ATOM      7  C   UNL     1      59.801  25.946  50.799  1.00  0.00     0.041 C 
ATOM      8  O   UNL     1      60.431  26.535  51.717  1.00  0.00    -0.550 OA
ATOM      9  O   UNL     1      60.048  24.603  50.547  1.00  0.00    -0.550 OA
ENDBRANCH   6   7
ENDBRANCH   5   6
ENDBRANCH   4   5
ENDBRANCH   3   4
ENDBRANCH   2   3
ENDBRANCH   1   2
BRANCH   1  10
ATOM     10  C   UNL     1      56.699  28.129  53.479  1.00  0.00     0.000 C 
BRANCH  10  11
ATOM     11  C   UNL     1      56.576  26.682  52.972  1.00  0.00    -0.000 C 
BRANCH  11  12
ATOM     12  C   UNL     1      55.120  26.279  52.680  1.00  0.00    -0.000 C 
BRANCH  12  13
ATOM     13  C   UNL     1      54.864  26.039  51.183  1.00  0.00    -0.000 C 
BRANCH  13  14
ATOM     14  C   UNL     1      55.173  27.278  50.327  1.00  0.00    -0.000 C 
BRANCH  14  15
ATOM     15  C   UNL     1      54.059  28.340  50.388  1.00  0.00    -0.000 C 
BRANCH  15  16
ATOM     16  C   UNL     1      54.529  29.753  50.775  1.00  0.00    -0.003 C 
ATOM     17  C   UNL     1      54.016  30.201  52.143  1.00  0.00     0.004 C 
ENDBRANCH  15  16
ENDBRANCH  14  15
ENDBRANCH  13  14
ENDBRANCH  12  13
ENDBRANCH  11  12
ENDBRANCH  10  11
ENDBRANCH   1  10
TORSDOF 13
ENDMDL
MODEL 7
REMARK VINA RESULT:    -2.955      2.140      3.982
REMARK INTER + INTRA:          -7.407
REMARK INTER:                  -5.540
REMARK INTRA:                  -1.867
REMARK UNBOUND:                -2.206
REMARK SMILES CCCCCCCCCCCCCCC(=O)[O-]
REMARK SMILES IDX 9 1 10 2 11 3 12 4 13 5 14 6 15 7 16 8 17 9 8 10 7 11 6 12
REMARK SMILES IDX 5 13 4 14 3 15 2 16 1 17
REMARK H PARENT
REMARK Flexibility Score: inf
ROOT
ATOM      1  C   UNL     1      58.773  25.971  50.301  1.00  0.00     0.000 C 
ENDROOT
BRANCH   1   2
ATOM      2  C   UNL     1      60.183  26.572  50.258  1.00  0.00     0.000 C 
BRANCH   2   3
ATOM      3  C   UNL     1      60.155  28.071  50.579  1.00  0.00     0.000 C 
BRANCH   3   4
ATOM      4  C   UNL     1      59.309  28.838  49.557  1.00  0.00     0.000 C 
BRANCH   4   5
ATOM      5  C   UNL     1      58.168  29.599  50.247  1.00  0.00     0.006 C 
BRANCH   5   6
ATOM      6  C   UNL     1      58.256  29.520  51.776  1.00  0.00     0.053 C 
BRANCH   6   7
ATOM      7  C   UNL     1      58.678  30.826  52.376  1.00  0.00     0.041 C 
ATOM      8  O   UNL     1      59.892  31.158  52.383  1.00  0.00    -0.550 OA
ATOM      9  O   UNL     1      57.732  31.661  52.958  1.00  0.00    -0.550 OA
ENDBRANCH   6   7
ENDBRANCH   5   6
ENDBRANCH   4   5
ENDBRANCH   3   4
ENDBRANCH   2   3
ENDBRANCH   1   2
BRANCH   1  10
ATOM     10  C   UNL     1      58.302  25.776  51.750  1.00  0.00     0.000 C 
BRANCH  10  11
ATOM     11  C   UNL     1      56.855  26.247  51.974  1.00  0.00    -0.000 C 
BRANCH  11  12
ATOM     12  C   UNL     1      56.117  26.536  50.655  1.00  0.00    -0.000 C 
BRANCH  12  13
ATOM     13  C   UNL     1      54.588  26.493  50.815  1.00  0.00    -0.000 C 
BRANCH  13  14
ATOM     14  C   UNL     1      53.903  27.757  50.270  1.00  0.00    -0.000 C 
BRANCH  14  15
ATOM     15  C   UNL     1      54.697  29.043  50.570  1.00  0.00    -0.000 C 
BRANCH  15  16
ATOM     16  C   UNL     1      54.468  29.634  51.973  1.00  0.00    -0.003 C 
ATOM     17  C   UNL     1      53.732  30.973  51.947  1.00  0.00     0.004 C 
ENDBRANCH  15  16
ENDBRANCH  14  15
ENDBRANCH  13  14
ENDBRANCH  12  13
ENDBRANCH  11  12
ENDBRANCH  10  11
ENDBRANCH   1  10
TORSDOF 13
ENDMDL
MODEL 8
REMARK VINA RESULT:    -2.949      2.778      4.866
REMARK INTER + INTRA:          -7.395
REMARK INTER:                  -5.318
REMARK INTRA:                  -2.077
REMARK UNBOUND:                -2.206
REMARK SMILES CCCCCCCCCCCCCCC(=O)[O-]
REMARK SMILES IDX 9 1 10 2 11 3 12 4 13 5 14 6 15 7 16 8 17 9 8 10 7 11 6 12
REMARK SMILES IDX 5 13 4 14 3 15 2 16 1 17
REMARK H PARENT
REMARK Flexibility Score: inf
ROOT
ATOM      1  C   UNL     1      60.029  27.737  49.986  1.00  0.00     0.000 C 
ENDROOT
BRANCH   1   2
ATOM      2  C   UNL     1      59.264  28.945  49.430  1.00  0.00     0.000 C 
BRANCH   2   3
ATOM      3  C   UNL     1      58.444  29.631  50.529  1.00  0.00     0.000 C 
BRANCH   3   4
ATOM      4  C   UNL     1      59.129  29.498  51.894  1.00  0.00     0.000 C 
BRANCH   4   5
ATOM      5  C   UNL     1      58.097  29.486  53.030  1.00  0.00     0.006 C 
BRANCH   5   6
ATOM      6  C   UNL     1      57.085  30.634  52.908  1.00  0.00     0.053 C 
BRANCH   6   7
ATOM      7  C   UNL     1      55.943  30.471  53.864  1.00  0.00     0.041 C 
ATOM      8  O   UNL     1      55.320  31.480  54.285  1.00  0.00    -0.550 OA
ATOM      9  O   UNL     1      55.591  29.206  54.316  1.00  0.00    -0.550 OA
ENDBRANCH   6   7
ENDBRANCH   5   6
ENDBRANCH   4   5
ENDBRANCH   3   4
ENDBRANCH   2   3
ENDBRANCH   1   2
BRANCH   1  10
ATOM     10  C   UNL     1      59.180  26.460  49.896  1.00  0.00     0.000 C 
BRANCH  10  11
ATOM     11  C   UNL     1      59.042  25.741  51.248  1.00  0.00    -0.000 C 
BRANCH  11  12
ATOM     12  C   UNL     1      57.631  25.874  51.848  1.00  0.00    -0.000 C 
BRANCH  12  13
ATOM     13  C   UNL     1      56.594  26.342  50.814  1.00  0.00    -0.000 C 
BRANCH  13  14
ATOM     14  C   UNL     1      55.474  27.187  51.445  1.00  0.00    -0.000 C 
BRANCH  14  15
ATOM     15  C   UNL     1      55.180  28.476  50.656  1.00  0.00    -0.000 C 
BRANCH  15  16
ATOM     16  C   UNL     1      53.689  28.744  50.383  1.00  0.00    -0.003 C 
ATOM     17  C   UNL     1      53.241  30.139  50.817  1.00  0.00     0.004 C 
ENDBRANCH  15  16
ENDBRANCH  14  15
ENDBRANCH  13  14
ENDBRANCH  12  13
ENDBRANCH  11  12
ENDBRANCH  10  11
ENDBRANCH   1  10
TORSDOF 13
ENDMDL
MODEL 9
REMARK VINA RESULT:    -2.946      1.704      2.280
REMARK INTER + INTRA:          -7.390
REMARK INTER:                  -5.302
REMARK INTRA:                  -2.088
REMARK UNBOUND:                -2.206
REMARK SMILES CCCCCCCCCCCCCCC(=O)[O-]
REMARK SMILES IDX 9 1 10 2 11 3 12 4 13 5 14 6 15 7 16 8 17 9 8 10 7 11 6 12
REMARK SMILES IDX 5 13 4 14 3 15 2 16 1 17
REMARK H PARENT
REMARK Flexibility Score: inf
ROOT
ATOM      1  C   UNL     1      56.534  25.835  53.082  1.00  0.00     0.000 C 
ENDROOT
BRANCH   1   2
ATOM      2  C   UNL     1      57.785  25.448  52.284  1.00  0.00     0.000 C 
BRANCH   2   3
ATOM      3  C   UNL     1      58.496  26.691  51.736  1.00  0.00     0.000 C 
BRANCH   3   4
ATOM      4  C   UNL     1      58.455  26.719  50.203  1.00  0.00     0.000 C 
BRANCH   4   5
ATOM      5  C   UNL     1      59.468  27.728  49.644  1.00  0.00     0.006 C 
BRANCH   5   6
ATOM      6  C   UNL     1      58.932  29.165  49.669  1.00  0.00     0.053 C 
BRANCH   6   7
ATOM      7  C   UNL     1      59.673  30.016  50.654  1.00  0.00     0.041 C 
ATOM      8  O   UNL     1      59.091  30.443  51.686  1.00  0.00    -0.550 OA
ATOM      9  O   UNL     1      60.996  30.365  50.415  1.00  0.00    -0.550 OA
ENDBRANCH   6   7
ENDBRANCH   5   6
ENDBRANCH   4   5
ENDBRANCH   3   4
ENDBRANCH   2   3
ENDBRANCH   1   2
BRANCH   1  10
ATOM     10  C   UNL     1      56.683  27.237  53.693  1.00  0.00     0.000 C 
BRANCH  10  11
ATOM     11  C   UNL     1      55.340  27.836  54.142  1.00  0.00    -0.000 C 
BRANCH  11  12
ATOM     12  C   UNL     1      54.768  28.835  53.122  1.00  0.00    -0.000 C 
BRANCH  12  13
ATOM     13  C   UNL     1      55.810  29.276  52.081  1.00  0.00    -0.000 C 
BRANCH  13  14
ATOM     14  C   UNL     1      55.402  28.906  50.645  1.00  0.00    -0.000 C 
BRANCH  14  15
ATOM     15  C   UNL     1      53.894  28.620  50.507  1.00  0.00    -0.000 C 
BRANCH  15  16
ATOM     16  C   UNL     1      53.544  27.192  50.054  1.00  0.00    -0.003 C 
ATOM     17  C   UNL     1      54.762  26.274  49.968  1.00  0.00     0.004 C 
ENDBRANCH  15  16
ENDBRANCH  14  15
ENDBRANCH  13  14
ENDBRANCH  12  13
ENDBRANCH  11  12
ENDBRANCH  10  11
ENDBRANCH   1  10
TORSDOF 13
ENDMDL
