MODEL 1
REMARK VINA RESULT:    -6.236      0.000      0.000
REMARK INTER + INTRA:          -7.613
REMARK INTER:                  -7.329
REMARK INTRA:                  -0.284
REMARK UNBOUND:                -0.284
REMARK SMILES O=c1c(O)c(-c2ccc(O)c(O)c2)oc2cc(O)ccc12
REMARK SMILES IDX 5 1 3 2 2 3 1 4 21 5 15 6 14 7 16 8 17 9 19 10 20 11 6 12
REMARK SMILES IDX 7 13 8 14 9 15 13 16 11 17 10 18 12 20 4 22 18 24
REMARK H PARENT 10 19 12 21 4 23 18 25
REMARK Flexibility Score: inf
ROOT
ATOM      1  C   UNL     1      -2.995  52.160  11.858  1.00  0.00     0.180 A 
ATOM      2  C   UNL     1      -3.301  53.490  11.498  1.00  0.00     0.208 A 
ATOM      3  C   UNL     1      -3.351  53.827  10.136  1.00  0.00     0.235 A 
ATOM      4  O   UNL     1      -3.611  55.011   9.789  1.00  0.00    -0.285 OA
ATOM      5  C   UNL     1      -3.117  52.835   9.172  1.00  0.00     0.069 A 
ATOM      6  C   UNL     1      -2.841  51.523   9.613  1.00  0.00     0.142 A 
ATOM      7  O   UNL     1      -2.794  51.247  10.911  1.00  0.00    -0.452 OA
ATOM      8  C   UNL     1      -2.612  50.504   8.681  1.00  0.00     0.094 A 
ATOM      9  C   UNL     1      -2.655  50.782   7.308  1.00  0.00     0.119 A 
ATOM     10  C   UNL     1      -2.926  52.082   6.868  1.00  0.00     0.047 A 
ATOM     11  C   UNL     1      -3.158  53.106   7.791  1.00  0.00     0.020 A 
ENDROOT
BRANCH   1  12
ATOM     12  C   UNL     1      -2.905  51.730  13.273  1.00  0.00     0.025 A 
ATOM     13  C   UNL     1      -1.665  51.553  13.906  1.00  0.00     0.016 A 
ATOM     14  C   UNL     1      -1.605  51.123  15.233  1.00  0.00     0.051 A 
ATOM     15  C   UNL     1      -2.776  50.850  15.949  1.00  0.00     0.157 A 
ATOM     16  C   UNL     1      -4.079  51.436  13.981  1.00  0.00     0.062 A 
ATOM     17  C   UNL     1      -4.031  51.005  15.313  1.00  0.00     0.158 A 
BRANCH  15  18
ATOM     18  O   UNL     1      -2.648  50.428  17.273  1.00  0.00    -0.504 OA
ATOM     19  H   UNL     1      -2.810  51.022  18.074  1.00  0.00     0.293 HD
ENDBRANCH  15  18
BRANCH  17  20
ATOM     20  O   UNL     1      -5.241  50.742  15.959  1.00  0.00    -0.504 OA
ATOM     21  H   UNL     1      -6.134  51.097  15.651  1.00  0.00     0.293 HD
ENDBRANCH  17  20
ENDBRANCH   1  12
BRANCH   2  22
ATOM     22  O   UNL     1      -3.577  54.444  12.481  1.00  0.00    -0.502 OA
ATOM     23  H   UNL     1      -4.245  54.277  13.224  1.00  0.00     0.293 HD
ENDBRANCH   2  22
BRANCH   9  24
ATOM     24  O   UNL     1      -2.427  49.774   6.373  1.00  0.00    -0.508 OA
ATOM     25  H   UNL     1      -1.509  49.366   6.248  1.00  0.00     0.293 HD
ENDBRANCH   9  24
TORSDOF 5
ENDMDL
MODEL 2
REMARK VINA RESULT:    -6.203      1.394      6.670
REMARK INTER + INTRA:          -7.574
REMARK INTER:                  -7.254
REMARK INTRA:                  -0.320
REMARK UNBOUND:                -0.284
REMARK SMILES O=c1c(O)c(-c2ccc(O)c(O)c2)oc2cc(O)ccc12
REMARK SMILES IDX 5 1 3 2 2 3 1 4 21 5 15 6 14 7 16 8 17 9 19 10 20 11 6 12
REMARK SMILES IDX 7 13 8 14 9 15 13 16 11 17 10 18 12 20 4 22 18 24
REMARK H PARENT 10 19 12 21 4 23 18 25
REMARK Flexibility Score: inf
ROOT
ATOM      1  C   UNL     1      -2.982  52.165  10.687  1.00  0.00     0.180 A 
ATOM      2  C   UNL     1      -2.123  53.247  10.974  1.00  0.00     0.208 A 
ATOM      3  C   UNL     1      -1.921  53.615  12.314  1.00  0.00     0.235 A 
ATOM      4  O   UNL     1      -1.167  54.585  12.594  1.00  0.00    -0.285 OA
ATOM      5  C   UNL     1      -2.559  52.889  13.331  1.00  0.00     0.069 A 
ATOM      6  C   UNL     1      -3.385  51.804  12.963  1.00  0.00     0.142 A 
ATOM      7  O   UNL     1      -3.556  51.494  11.683  1.00  0.00    -0.452 OA
ATOM      8  C   UNL     1      -4.030  51.050  13.949  1.00  0.00     0.094 A 
ATOM      9  C   UNL     1      -3.862  51.369  15.304  1.00  0.00     0.119 A 
ATOM     10  C   UNL     1      -3.046  52.445  15.671  1.00  0.00     0.047 A 
ATOM     11  C   UNL     1      -2.396  53.203  14.694  1.00  0.00     0.020 A 
ENDROOT
BRANCH   1  12
ATOM     12  C   UNL     1      -3.259  51.728   9.300  1.00  0.00     0.025 A 
ATOM     13  C   UNL     1      -4.271  52.326   8.534  1.00  0.00     0.016 A 
ATOM     14  C   UNL     1      -4.531  51.880   7.236  1.00  0.00     0.051 A 
ATOM     15  C   UNL     1      -3.798  50.825   6.683  1.00  0.00     0.157 A 
ATOM     16  C   UNL     1      -2.537  50.655   8.756  1.00  0.00     0.062 A 
ATOM     17  C   UNL     1      -2.789  50.201   7.456  1.00  0.00     0.158 A 
BRANCH  15  18
ATOM     18  O   UNL     1      -4.103  50.430   5.379  1.00  0.00    -0.504 OA
ATOM     19  H   UNL     1      -4.238  49.470   5.097  1.00  0.00     0.293 HD
ENDBRANCH  15  18
BRANCH  17  20
ATOM     20  O   UNL     1      -2.023  49.136   6.976  1.00  0.00    -0.504 OA
ATOM     21  H   UNL     1      -2.123  48.182   7.290  1.00  0.00     0.293 HD
ENDBRANCH  17  20
ENDBRANCH   1  12
BRANCH   2  22
ATOM     22  O   UNL     1      -1.462  53.920   9.942  1.00  0.00    -0.502 OA
ATOM     23  H   UNL     1      -1.165  54.884  10.027  1.00  0.00     0.293 HD
ENDBRANCH   2  22
BRANCH   9  24
ATOM     24  O   UNL     1      -4.502  50.623  16.293  1.00  0.00    -0.508 OA
ATOM     25  H   UNL     1      -4.031  50.370  17.152  1.00  0.00     0.293 HD
ENDBRANCH   9  24
TORSDOF 5
ENDMDL
MODEL 3
REMARK VINA RESULT:    -6.113      1.691      6.747
REMARK INTER + INTRA:          -7.469
REMARK INTER:                  -7.206
REMARK INTRA:                  -0.262
REMARK UNBOUND:                -0.284
REMARK SMILES O=c1c(O)c(-c2ccc(O)c(O)c2)oc2cc(O)ccc12
REMARK SMILES IDX 5 1 3 2 2 3 1 4 21 5 15 6 14 7 16 8 17 9 19 10 20 11 6 12
REMARK SMILES IDX 7 13 8 14 9 15 13 16 11 17 10 18 12 20 4 22 18 24
REMARK H PARENT 10 19 12 21 4 23 18 25
REMARK Flexibility Score: inf
ROOT
ATOM      1  C   UNL     1      -2.485  51.516  10.859  1.00  0.00     0.180 A 
ATOM      2  C   UNL     1      -1.231  52.078  11.182  1.00  0.00     0.208 A 
ATOM      3  C   UNL     1      -0.923  52.314  12.531  1.00  0.00     0.235 A 
ATOM      4  O   UNL     1       0.186  52.825  12.844  1.00  0.00    -0.285 OA
ATOM      5  C   UNL     1      -1.856  51.969  13.522  1.00  0.00     0.069 A 
ATOM      6  C   UNL     1      -3.078  51.389  13.119  1.00  0.00     0.142 A 
ATOM      7  O   UNL     1      -3.335  51.190  11.831  1.00  0.00    -0.452 OA
ATOM      8  C   UNL     1      -4.029  51.023  14.077  1.00  0.00     0.094 A 
ATOM      9  C   UNL     1      -3.773  51.231  15.440  1.00  0.00     0.119 A 
ATOM     10  C   UNL     1      -2.563  51.807  15.842  1.00  0.00     0.047 A 
ATOM     11  C   UNL     1      -1.606  52.175  14.892  1.00  0.00     0.020 A 
ENDROOT
BRANCH   1  12
ATOM     12  C   UNL     1      -2.891  51.253   9.460  1.00  0.00     0.025 A 
ATOM     13  C   UNL     1      -2.374  50.165   8.740  1.00  0.00     0.016 A 
ATOM     14  C   UNL     1      -2.753  49.951   7.413  1.00  0.00     0.051 A 
ATOM     15  C   UNL     1      -3.643  50.822   6.776  1.00  0.00     0.157 A 
ATOM     16  C   UNL     1      -3.767  52.140   8.816  1.00  0.00     0.062 A 
ATOM     17  C   UNL     1      -4.154  51.934   7.486  1.00  0.00     0.158 A 
BRANCH  15  18
ATOM     18  O   UNL     1      -3.986  50.550   5.450  1.00  0.00    -0.504 OA
ATOM     19  H   UNL     1      -4.925  50.346   5.140  1.00  0.00     0.293 HD
ENDBRANCH  15  18
BRANCH  17  20
ATOM     20  O   UNL     1      -5.039  52.852   6.914  1.00  0.00    -0.504 OA
ATOM     21  H   UNL     1      -6.015  52.664   6.743  1.00  0.00     0.293 HD
ENDBRANCH  17  20
ENDBRANCH   1  12
BRANCH   2  22
ATOM     22  O   UNL     1      -0.304  52.364  10.177  1.00  0.00    -0.502 OA
ATOM     23  H   UNL     1       0.564  51.852  10.079  1.00  0.00     0.293 HD
ENDBRANCH   2  22
BRANCH   9  24
ATOM     24  O   UNL     1      -4.715  50.870  16.402  1.00  0.00    -0.508 OA
ATOM     25  H   UNL     1      -5.497  50.268  16.176  1.00  0.00     0.293 HD
ENDBRANCH   9  24
TORSDOF 5
ENDMDL
MODEL 4
REMARK VINA RESULT:    -6.094      2.885      5.324
REMARK INTER + INTRA:          -7.446
REMARK INTER:                  -7.129
REMARK INTRA:                  -0.317
REMARK UNBOUND:                -0.284
REMARK SMILES O=c1c(O)c(-c2ccc(O)c(O)c2)oc2cc(O)ccc12
REMARK SMILES IDX 5 1 3 2 2 3 1 4 21 5 15 6 14 7 16 8 17 9 19 10 20 11 6 12
REMARK SMILES IDX 7 13 8 14 9 15 13 16 11 17 10 18 12 20 4 22 18 24
REMARK H PARENT 10 19 12 21 4 23 18 25
REMARK Flexibility Score: inf
ROOT
ATOM      1  C   UNL     1      -4.385  51.594  15.126  1.00  0.00     0.180 A 
ATOM      2  C   UNL     1      -3.401  51.403  16.119  1.00  0.00     0.208 A 
ATOM      3  C   UNL     1      -2.054  51.330  15.732  1.00  0.00     0.235 A 
ATOM      4  O   UNL     1      -1.157  51.148  16.599  1.00  0.00    -0.285 OA
ATOM      5  C   UNL     1      -1.719  51.468  14.376  1.00  0.00     0.069 A 
ATOM      6  C   UNL     1      -2.760  51.681  13.446  1.00  0.00     0.142 A 
ATOM      7  O   UNL     1      -4.023  51.735  13.853  1.00  0.00    -0.452 OA
ATOM      8  C   UNL     1      -2.464  51.833  12.087  1.00  0.00     0.094 A 
ATOM      9  C   UNL     1      -1.136  51.773  11.643  1.00  0.00     0.119 A 
ATOM     10  C   UNL     1      -0.103  51.560  12.562  1.00  0.00     0.047 A 
ATOM     11  C   UNL     1      -0.387  51.409  13.922  1.00  0.00     0.020 A 
ENDROOT
BRANCH   1  12
ATOM     12  C   UNL     1      -5.828  51.665  15.453  1.00  0.00     0.025 A 
ATOM     13  C   UNL     1      -6.454  52.889  15.739  1.00  0.00     0.016 A 
ATOM     14  C   UNL     1      -7.810  52.927  16.068  1.00  0.00     0.051 A 
ATOM     15  C   UNL     1      -8.564  51.751  16.130  1.00  0.00     0.157 A 
ATOM     16  C   UNL     1      -6.576  50.482  15.536  1.00  0.00     0.062 A 
ATOM     17  C   UNL     1      -7.938  50.510  15.865  1.00  0.00     0.158 A 
BRANCH  15  18
ATOM     18  O   UNL     1      -9.917  51.858  16.461  1.00  0.00    -0.504 OA
ATOM     19  H   UNL     1     -10.349  52.705  16.800  1.00  0.00     0.293 HD
ENDBRANCH  15  18
BRANCH  17  20
ATOM     20  O   UNL     1      -8.622  49.293  15.917  1.00  0.00    -0.504 OA
ATOM     21  H   UNL     1      -9.450  49.087  15.378  1.00  0.00     0.293 HD
ENDBRANCH  17  20
ENDBRANCH   1  12
BRANCH   2  22
ATOM     22  O   UNL     1      -3.762  51.319  17.467  1.00  0.00    -0.502 OA
ATOM     23  H   UNL     1      -4.380  50.597  17.818  1.00  0.00     0.293 HD
ENDBRANCH   2  22
BRANCH   9  24
ATOM     24  O   UNL     1      -0.833  51.923  10.291  1.00  0.00    -0.508 OA
ATOM     25  H   UNL     1      -0.220  51.275   9.811  1.00  0.00     0.293 HD
ENDBRANCH   9  24
TORSDOF 5
ENDMDL
MODEL 5
REMARK VINA RESULT:    -5.854      2.183      3.839
REMARK INTER + INTRA:          -7.164
REMARK INTER:                  -7.261
REMARK INTRA:                   0.096
REMARK UNBOUND:                -0.284
REMARK SMILES O=c1c(O)c(-c2ccc(O)c(O)c2)oc2cc(O)ccc12
REMARK SMILES IDX 5 1 3 2 2 3 1 4 21 5 15 6 14 7 16 8 17 9 19 10 20 11 6 12
REMARK SMILES IDX 7 13 8 14 9 15 13 16 11 17 10 18 12 20 4 22 18 24
REMARK H PARENT 10 19 12 21 4 23 18 25
REMARK Flexibility Score: inf
ROOT
ATOM      1  C   UNL     1      -2.025  51.830  10.160  1.00  0.00     0.180 A 
ATOM      2  C   UNL     1      -2.000  50.914   9.087  1.00  0.00     0.208 A 
ATOM      3  C   UNL     1      -2.822  51.154   7.975  1.00  0.00     0.235 A 
ATOM      4  O   UNL     1      -2.826  50.345   7.007  1.00  0.00    -0.285 OA
ATOM      5  C   UNL     1      -3.629  52.302   7.949  1.00  0.00     0.069 A 
ATOM      6  C   UNL     1      -3.580  53.181   9.052  1.00  0.00     0.142 A 
ATOM      7  O   UNL     1      -2.794  52.914  10.089  1.00  0.00    -0.452 OA
ATOM      8  C   UNL     1      -4.362  54.341   9.059  1.00  0.00     0.094 A 
ATOM      9  C   UNL     1      -5.199  54.633   7.972  1.00  0.00     0.119 A 
ATOM     10  C   UNL     1      -5.252  53.762   6.879  1.00  0.00     0.047 A 
ATOM     11  C   UNL     1      -4.472  52.602   6.862  1.00  0.00     0.020 A 
ENDROOT
BRANCH   1  12
ATOM     12  C   UNL     1      -1.200  51.638  11.376  1.00  0.00     0.025 A 
ATOM     13  C   UNL     1       0.144  51.244  11.292  1.00  0.00     0.016 A 
ATOM     14  C   UNL     1       0.895  51.046  12.453  1.00  0.00     0.051 A 
ATOM     15  C   UNL     1       0.319  51.225  13.715  1.00  0.00     0.157 A 
ATOM     16  C   UNL     1      -1.786  51.797  12.640  1.00  0.00     0.062 A 
ATOM     17  C   UNL     1      -1.042  51.601  13.810  1.00  0.00     0.158 A 
BRANCH  15  18
ATOM     18  O   UNL     1       1.125  51.015  14.836  1.00  0.00    -0.504 OA
ATOM     19  H   UNL     1       0.808  51.125  15.788  1.00  0.00     0.293 HD
ENDBRANCH  15  18
BRANCH  17  20
ATOM     20  O   UNL     1      -1.688  51.789  15.034  1.00  0.00    -0.504 OA
ATOM     21  H   UNL     1      -1.615  52.629  15.589  1.00  0.00     0.293 HD
ENDBRANCH  17  20
ENDBRANCH   1  12
BRANCH   2  22
ATOM     22  O   UNL     1      -1.149  49.807   9.120  1.00  0.00    -0.502 OA
ATOM     23  H   UNL     1      -1.496  48.859   9.207  1.00  0.00     0.293 HD
ENDBRANCH   2  22
BRANCH   9  24
ATOM     24  O   UNL     1      -5.983  55.786   7.971  1.00  0.00    -0.508 OA
ATOM     25  H   UNL     1      -6.140  56.318   7.124  1.00  0.00     0.293 HD
ENDBRANCH   9  24
TORSDOF 5
ENDMDL
MODEL 6
REMARK VINA RESULT:    -5.773      1.793      6.821
REMARK INTER + INTRA:          -7.069
REMARK INTER:                  -6.775
REMARK INTRA:                  -0.294
REMARK UNBOUND:                -0.284
REMARK SMILES O=c1c(O)c(-c2ccc(O)c(O)c2)oc2cc(O)ccc12
REMARK SMILES IDX 5 1 3 2 2 3 1 4 21 5 15 6 14 7 16 8 17 9 19 10 20 11 6 12
REMARK SMILES IDX 7 13 8 14 9 15 13 16 11 17 10 18 12 20 4 22 18 24
REMARK H PARENT 10 19 12 21 4 23 18 25
REMARK Flexibility Score: inf
ROOT
ATOM      1  C   UNL     1      -2.806  52.578  11.113  1.00  0.00     0.180 A 
ATOM      2  C   UNL     1      -1.417  52.344  11.204  1.00  0.00     0.208 A 
ATOM      3  C   UNL     1      -0.892  51.850  12.408  1.00  0.00     0.235 A 
ATOM      4  O   UNL     1       0.347  51.643  12.517  1.00  0.00    -0.285 OA
ATOM      5  C   UNL     1      -1.758  51.583  13.480  1.00  0.00     0.069 A 
ATOM      6  C   UNL     1      -3.138  51.821  13.302  1.00  0.00     0.142 A 
ATOM      7  O   UNL     1      -3.594  52.297  12.148  1.00  0.00    -0.452 OA
ATOM      8  C   UNL     1      -4.034  51.558  14.343  1.00  0.00     0.094 A 
ATOM      9  C   UNL     1      -3.566  51.059  15.567  1.00  0.00     0.119 A 
ATOM     10  C   UNL     1      -2.198  50.824  15.747  1.00  0.00     0.047 A 
ATOM     11  C   UNL     1      -1.295  51.082  14.712  1.00  0.00     0.020 A 
ENDROOT
BRANCH   1  12
ATOM     12  C   UNL     1      -3.434  53.114   9.884  1.00  0.00     0.025 A 
ATOM     13  C   UNL     1      -3.772  54.472   9.768  1.00  0.00     0.016 A 
ATOM     14  C   UNL     1      -4.386  54.950   8.609  1.00  0.00     0.051 A 
ATOM     15  C   UNL     1      -4.685  54.086   7.550  1.00  0.00     0.157 A 
ATOM     16  C   UNL     1      -3.753  52.242   8.833  1.00  0.00     0.062 A 
ATOM     17  C   UNL     1      -4.368  52.711   7.666  1.00  0.00     0.158 A 
BRANCH  15  18
ATOM     18  O   UNL     1      -5.295  54.627   6.417  1.00  0.00    -0.504 OA
ATOM     19  H   UNL     1      -6.012  54.158   5.883  1.00  0.00     0.293 HD
ENDBRANCH  15  18
BRANCH  17  20
ATOM     20  O   UNL     1      -4.646  51.786   6.657  1.00  0.00    -0.504 OA
ATOM     21  H   UNL     1      -4.220  51.804   5.742  1.00  0.00     0.293 HD
ENDBRANCH  17  20
ENDBRANCH   1  12
BRANCH   2  22
ATOM     22  O   UNL     1      -0.588  52.572  10.103  1.00  0.00    -0.502 OA
ATOM     23  H   UNL     1       0.347  52.186  10.040  1.00  0.00     0.293 HD
ENDBRANCH   2  22
BRANCH   9  24
ATOM     24  O   UNL     1      -4.451  50.795  16.611  1.00  0.00    -0.508 OA
ATOM     25  H   UNL     1      -4.121  50.567  17.540  1.00  0.00     0.293 HD
ENDBRANCH   9  24
TORSDOF 5
ENDMDL
MODEL 7
REMARK VINA RESULT:    -5.673      1.108      1.341
REMARK INTER + INTRA:          -6.952
REMARK INTER:                  -6.627
REMARK INTRA:                  -0.324
REMARK UNBOUND:                -0.284
REMARK SMILES O=c1c(O)c(-c2ccc(O)c(O)c2)oc2cc(O)ccc12
REMARK SMILES IDX 5 1 3 2 2 3 1 4 21 5 15 6 14 7 16 8 17 9 19 10 20 11 6 12
REMARK SMILES IDX 7 13 8 14 9 15 13 16 11 17 10 18 12 20 4 22 18 24
REMARK H PARENT 10 19 12 21 4 23 18 25
REMARK Flexibility Score: inf
ROOT
ATOM      1  C   UNL     1      -2.616  52.357  11.606  1.00  0.00     0.180 A 
ATOM      2  C   UNL     1      -3.162  53.649  11.451  1.00  0.00     0.208 A 
ATOM      3  C   UNL     1      -3.727  54.000  10.215  1.00  0.00     0.235 A 
ATOM      4  O   UNL     1      -4.211  55.152  10.048  1.00  0.00    -0.285 OA
ATOM      5  C   UNL     1      -3.753  53.057   9.176  1.00  0.00     0.069 A 
ATOM      6  C   UNL     1      -3.207  51.778   9.418  1.00  0.00     0.142 A 
ATOM      7  O   UNL     1      -2.674  51.488  10.600  1.00  0.00    -0.452 OA
ATOM      8  C   UNL     1      -3.223  50.807   8.411  1.00  0.00     0.094 A 
ATOM      9  C   UNL     1      -3.779  51.101   7.158  1.00  0.00     0.119 A 
ATOM     10  C   UNL     1      -4.318  52.368   6.914  1.00  0.00     0.047 A 
ATOM     11  C   UNL     1      -4.309  53.344   7.915  1.00  0.00     0.020 A 
ENDROOT
BRANCH   1  12
ATOM     12  C   UNL     1      -1.987  51.917  12.873  1.00  0.00     0.025 A 
ATOM     13  C   UNL     1      -0.617  52.109  13.114  1.00  0.00     0.016 A 
ATOM     14  C   UNL     1      -0.042  51.663  14.306  1.00  0.00     0.051 A 
ATOM     15  C   UNL     1      -0.814  51.009  15.272  1.00  0.00     0.157 A 
ATOM     16  C   UNL     1      -2.759  51.242  13.830  1.00  0.00     0.062 A 
ATOM     17  C   UNL     1      -2.192  50.792  15.028  1.00  0.00     0.158 A 
BRANCH  15  18
ATOM     18  O   UNL     1      -0.179  50.592  16.443  1.00  0.00    -0.504 OA
ATOM     19  H   UNL     1       0.071  51.211  17.201  1.00  0.00     0.293 HD
ENDBRANCH  15  18
BRANCH  17  20
ATOM     20  O   UNL     1      -3.024  50.138  15.940  1.00  0.00    -0.504 OA
ATOM     21  H   UNL     1      -3.616  49.355  15.704  1.00  0.00     0.293 HD
ENDBRANCH  17  20
ENDBRANCH   1  12
BRANCH   2  22
ATOM     22  O   UNL     1      -3.166  54.549  12.519  1.00  0.00    -0.502 OA
ATOM     23  H   UNL     1      -3.055  55.547  12.387  1.00  0.00     0.293 HD
ENDBRANCH   2  22
BRANCH   9  24
ATOM     24  O   UNL     1      -3.799  50.140   6.148  1.00  0.00    -0.508 OA
ATOM     25  H   UNL     1      -3.414  50.329   5.231  1.00  0.00     0.293 HD
ENDBRANCH   9  24
TORSDOF 5
ENDMDL
MODEL 8
REMARK VINA RESULT:    -5.486      2.324      4.019
REMARK INTER + INTRA:          -6.731
REMARK INTER:                  -6.450
REMARK INTRA:                  -0.281
REMARK UNBOUND:                -0.284
REMARK SMILES O=c1c(O)c(-c2ccc(O)c(O)c2)oc2cc(O)ccc12
REMARK SMILES IDX 5 1 3 2 2 3 1 4 21 5 15 6 14 7 16 8 17 9 19 10 20 11 6 12
REMARK SMILES IDX 7 13 8 14 9 15 13 16 11 17 10 18 12 20 4 22 18 24
REMARK H PARENT 10 19 12 21 4 23 18 25
REMARK Flexibility Score: inf
ROOT
ATOM      1  C   UNL     1      -3.389  51.752  14.008  1.00  0.00     0.180 A 
ATOM      2  C   UNL     1      -2.168  51.718  14.713  1.00  0.00     0.208 A 
ATOM      3  C   UNL     1      -0.974  51.560  13.990  1.00  0.00     0.235 A 
ATOM      4  O   UNL     1       0.129  51.515  14.598  1.00  0.00    -0.285 OA
ATOM      5  C   UNL     1      -1.024  51.461  12.591  1.00  0.00     0.069 A 
ATOM      6  C   UNL     1      -2.284  51.528  11.958  1.00  0.00     0.142 A 
ATOM      7  O   UNL     1      -3.391  51.670  12.680  1.00  0.00    -0.452 OA
ATOM      8  C   UNL     1      -2.373  51.444  10.565  1.00  0.00     0.094 A 
ATOM      9  C   UNL     1      -1.213  51.290   9.792  1.00  0.00     0.119 A 
ATOM     10  C   UNL     1       0.036  51.221  10.417  1.00  0.00     0.047 A 
ATOM     11  C   UNL     1       0.136  51.307  11.808  1.00  0.00     0.020 A 
ENDROOT
BRANCH   1  12
ATOM     12  C   UNL     1      -4.691  51.898  14.699  1.00  0.00     0.025 A 
ATOM     13  C   UNL     1      -5.142  53.148  15.153  1.00  0.00     0.016 A 
ATOM     14  C   UNL     1      -6.362  53.257  15.824  1.00  0.00     0.051 A 
ATOM     15  C   UNL     1      -7.148  52.126  16.065  1.00  0.00     0.157 A 
ATOM     16  C   UNL     1      -5.467  50.759  14.959  1.00  0.00     0.062 A 
ATOM     17  C   UNL     1      -6.692  50.858  15.630  1.00  0.00     0.158 A 
BRANCH  15  18
ATOM     18  O   UNL     1      -8.359  52.303  16.737  1.00  0.00    -0.504 OA
ATOM     19  H   UNL     1      -9.223  51.855  16.470  1.00  0.00     0.293 HD
ENDBRANCH  15  18
BRANCH  17  20
ATOM     20  O   UNL     1      -7.417  49.683  15.844  1.00  0.00    -0.504 OA
ATOM     21  H   UNL     1      -8.399  49.659  16.077  1.00  0.00     0.293 HD
ENDBRANCH  17  20
ENDBRANCH   1  12
BRANCH   2  22
ATOM     22  O   UNL     1      -2.147  51.868  16.102  1.00  0.00    -0.502 OA
ATOM     23  H   UNL     1      -1.358  51.575  16.666  1.00  0.00     0.293 HD
ENDBRANCH   2  22
BRANCH   9  24
ATOM     24  O   UNL     1      -1.293  51.204   8.403  1.00  0.00    -0.508 OA
ATOM     25  H   UNL     1      -1.126  52.009   7.813  1.00  0.00     0.293 HD
ENDBRANCH   9  24
TORSDOF 5
ENDMDL
MODEL 9
REMARK VINA RESULT:    -5.272      4.538      7.741
REMARK INTER + INTRA:          -6.480
REMARK INTER:                  -6.256
REMARK INTRA:                  -0.224
REMARK UNBOUND:                -0.284
REMARK SMILES O=c1c(O)c(-c2ccc(O)c(O)c2)oc2cc(O)ccc12
REMARK SMILES IDX 5 1 3 2 2 3 1 4 21 5 15 6 14 7 16 8 17 9 19 10 20 11 6 12
REMARK SMILES IDX 7 13 8 14 9 15 13 16 11 17 10 18 12 20 4 22 18 24
REMARK H PARENT 10 19 12 21 4 23 18 25
REMARK Flexibility Score: inf
ROOT
ATOM      1  C   UNL     1      -6.385  52.576  15.889  1.00  0.00     0.180 A 
ATOM      2  C   UNL     1      -6.717  53.904  15.550  1.00  0.00     0.208 A 
ATOM      3  C   UNL     1      -8.038  54.341  15.742  1.00  0.00     0.235 A 
ATOM      4  O   UNL     1      -8.362  55.520  15.437  1.00  0.00    -0.285 OA
ATOM      5  C   UNL     1      -8.984  53.457  16.283  1.00  0.00     0.069 A 
ATOM      6  C   UNL     1      -8.567  52.151  16.618  1.00  0.00     0.142 A 
ATOM      7  O   UNL     1      -7.310  51.774  16.413  1.00  0.00    -0.452 OA
ATOM      8  C   UNL     1      -9.479  51.244  17.168  1.00  0.00     0.094 A 
ATOM      9  C   UNL     1     -10.810  51.627  17.387  1.00  0.00     0.119 A 
ATOM     10  C   UNL     1     -11.227  52.920  17.053  1.00  0.00     0.047 A 
ATOM     11  C   UNL     1     -10.323  53.834  16.505  1.00  0.00     0.020 A 
ENDROOT
BRANCH   1  12
ATOM     12  C   UNL     1      -5.019  52.035  15.700  1.00  0.00     0.025 A 
ATOM     13  C   UNL     1      -4.490  51.818  14.418  1.00  0.00     0.016 A 
ATOM     14  C   UNL     1      -3.209  51.284  14.264  1.00  0.00     0.051 A 
ATOM     15  C   UNL     1      -2.438  50.945  15.381  1.00  0.00     0.157 A 
ATOM     16  C   UNL     1      -4.257  51.676  16.821  1.00  0.00     0.062 A 
ATOM     17  C   UNL     1      -2.971  51.140  16.678  1.00  0.00     0.158 A 
BRANCH  15  18
ATOM     18  O   UNL     1      -1.163  50.420  15.159  1.00  0.00    -0.504 OA
ATOM     19  H   UNL     1      -0.788  50.215  14.245  1.00  0.00     0.293 HD
ENDBRANCH  15  18
BRANCH  17  20
ATOM     20  O   UNL     1      -2.265  50.817  17.839  1.00  0.00    -0.504 OA
ATOM     21  H   UNL     1      -2.371  51.302  18.718  1.00  0.00     0.293 HD
ENDBRANCH  17  20
ENDBRANCH   1  12
BRANCH   2  22
ATOM     22  O   UNL     1      -5.741  54.776  15.061  1.00  0.00    -0.502 OA
ATOM     23  H   UNL     1      -5.304  54.646  14.156  1.00  0.00     0.293 HD
ENDBRANCH   2  22
BRANCH   9  24
ATOM     24  O   UNL     1     -11.725  50.729  17.933  1.00  0.00    -0.508 OA
ATOM     25  H   UNL     1     -11.594  49.728  17.858  1.00  0.00     0.293 HD
ENDBRANCH   9  24
TORSDOF 5
ENDMDL
