MODEL 1
REMARK VINA RESULT:    -6.069      0.000      0.000
REMARK INTER + INTRA:         -11.248
REMARK INTER:                 -10.682
REMARK INTRA:                  -0.566
REMARK UNBOUND:                -0.566
REMARK SMILES CCCCCCC=CCCCCCCCC(=O)[O-]
REMARK SMILES IDX 10 1 11 2 12 3 13 4 14 5 15 6 16 7 17 8 18 9 9 10 8 11 7 12
REMARK SMILES IDX 6 13 5 14 4 15 3 16 2 17 1 18
REMARK H PARENT
REMARK Flexibility Score: inf
ROOT
ATOM      1  C   UNL     1      24.209 138.022 353.260  1.00  0.00     0.004 C 
ENDROOT
BRANCH   1   2
ATOM      2  C   UNL     1      25.452 137.300 352.713  1.00  0.00     0.000 C 
BRANCH   2   3
ATOM      3  C   UNL     1      25.767 135.999 353.471  1.00  0.00     0.000 C 
BRANCH   3   4
ATOM      4  C   UNL     1      27.182 135.996 354.072  1.00  0.00     0.000 C 
BRANCH   4   5
ATOM      5  C   UNL     1      28.138 135.044 353.331  1.00  0.00     0.006 C 
BRANCH   5   6
ATOM      6  C   UNL     1      29.605 135.292 353.703  1.00  0.00     0.053 C 
BRANCH   6   7
ATOM      7  C   UNL     1      30.498 134.200 353.195  1.00  0.00     0.041 C 
ATOM      8  O   UNL     1      31.017 133.380 353.998  1.00  0.00    -0.550 OA
ATOM      9  O   UNL     1      30.728 134.068 351.832  1.00  0.00    -0.550 OA
ENDBRANCH   6   7
ENDBRANCH   5   6
ENDBRANCH   4   5
ENDBRANCH   3   4
ENDBRANCH   2   3
ENDBRANCH   1   2
BRANCH   1  10
ATOM     10  C   UNL     1      23.989 139.425 352.658  1.00  0.00     0.027 C 
BRANCH  10  11
ATOM     11  C   UNL     1      23.933 140.502 353.714  1.00  0.00    -0.031 C 
ATOM     12  C   UNL     1      23.297 141.679 353.564  1.00  0.00    -0.031 C 
BRANCH  12  13
ATOM     13  C   UNL     1      22.522 142.056 352.324  1.00  0.00     0.027 C 
BRANCH  13  14
ATOM     14  C   UNL     1      21.214 142.770 352.687  1.00  0.00     0.004 C 
BRANCH  14  15
ATOM     15  C   UNL     1      20.616 142.201 353.979  1.00  0.00     0.000 C 
BRANCH  15  16
ATOM     16  C   UNL     1      19.652 143.201 354.627  1.00  0.00    -0.000 C 
BRANCH  16  17
ATOM     17  C   UNL     1      18.239 143.058 354.048  1.00  0.00    -0.003 C 
ATOM     18  C   UNL     1      17.889 144.241 353.151  1.00  0.00     0.004 C 
ENDBRANCH  16  17
ENDBRANCH  15  16
ENDBRANCH  14  15
ENDBRANCH  13  14
ENDBRANCH  12  13
ENDBRANCH  10  11
ENDBRANCH   1  10
TORSDOF 13
ENDMDL
MODEL 2
REMARK VINA RESULT:    -5.910      5.803     11.054
REMARK INTER + INTRA:         -10.968
REMARK INTER:                 -10.402
REMARK INTRA:                  -0.566
REMARK UNBOUND:                -0.566
REMARK SMILES CCCCCCC=CCCCCCCCC(=O)[O-]
REMARK SMILES IDX 10 1 11 2 12 3 13 4 14 5 15 6 16 7 17 8 18 9 9 10 8 11 7 12
REMARK SMILES IDX 6 13 5 14 4 15 3 16 2 17 1 18
REMARK H PARENT
REMARK Flexibility Score: inf
ROOT
ATOM      1  C   UNL     1      23.840 140.845 353.615  1.00  0.00     0.004 C 
ENDROOT
BRANCH   1   2
ATOM      2  C   UNL     1      22.405 141.212 353.201  1.00  0.00     0.000 C 
BRANCH   2   3
ATOM      3  C   UNL     1      22.010 142.638 353.618  1.00  0.00     0.000 C 
BRANCH   3   4
ATOM      4  C   UNL     1      20.637 143.055 353.066  1.00  0.00     0.000 C 
BRANCH   4   5
ATOM      5  C   UNL     1      19.471 142.544 353.930  1.00  0.00     0.006 C 
BRANCH   5   6
ATOM      6  C   UNL     1      18.109 142.793 353.269  1.00  0.00     0.053 C 
BRANCH   6   7
ATOM      7  C   UNL     1      17.586 144.163 353.577  1.00  0.00     0.041 C 
ATOM      8  O   UNL     1      17.729 144.653 354.729  1.00  0.00    -0.550 OA
ATOM      9  O   UNL     1      16.973 144.913 352.581  1.00  0.00    -0.550 OA
ENDBRANCH   6   7
ENDBRANCH   5   6
ENDBRANCH   4   5
ENDBRANCH   3   4
ENDBRANCH   2   3
ENDBRANCH   1   2
BRANCH   1  10
ATOM     10  C   UNL     1      24.382 139.578 352.925  1.00  0.00     0.027 C 
BRANCH  10  11
ATOM     11  C   UNL     1      23.817 138.311 353.522  1.00  0.00    -0.031 C 
ATOM     12  C   UNL     1      24.376 137.094 353.386  1.00  0.00    -0.031 C 
BRANCH  12  13
ATOM     13  C   UNL     1      25.669 136.847 352.647  1.00  0.00     0.027 C 
BRANCH  13  14
ATOM     14  C   UNL     1      26.414 135.638 353.226  1.00  0.00     0.004 C 
BRANCH  14  15
ATOM     15  C   UNL     1      27.357 136.062 354.359  1.00  0.00     0.000 C 
BRANCH  15  16
ATOM     16  C   UNL     1      28.591 135.155 354.416  1.00  0.00    -0.000 C 
BRANCH  16  17
ATOM     17  C   UNL     1      29.606 135.538 353.333  1.00  0.00    -0.003 C 
ATOM     18  C   UNL     1      30.712 134.493 353.221  1.00  0.00     0.004 C 
ENDBRANCH  16  17
ENDBRANCH  15  16
ENDBRANCH  14  15
ENDBRANCH  13  14
ENDBRANCH  12  13
ENDBRANCH  10  11
ENDBRANCH   1  10
TORSDOF 13
ENDMDL
MODEL 3
REMARK VINA RESULT:    -5.867      1.110      1.855
REMARK INTER + INTRA:         -10.892
REMARK INTER:                 -10.103
REMARK INTRA:                  -0.789
REMARK UNBOUND:                -0.566
REMARK SMILES CCCCCCC=CCCCCCCCC(=O)[O-]
REMARK SMILES IDX 10 1 11 2 12 3 13 4 14 5 15 6 16 7 17 8 18 9 9 10 8 11 7 12
REMARK SMILES IDX 6 13 5 14 4 15 3 16 2 17 1 18
REMARK H PARENT
REMARK Flexibility Score: inf
ROOT
ATOM      1  C   UNL     1      25.140 136.744 351.856  1.00  0.00     0.004 C 
ENDROOT
BRANCH   1   2
ATOM      2  C   UNL     1      25.645 136.345 353.253  1.00  0.00     0.000 C 
BRANCH   2   3
ATOM      3  C   UNL     1      27.027 135.671 353.216  1.00  0.00     0.000 C 
BRANCH   3   4
ATOM      4  C   UNL     1      27.740 135.715 354.577  1.00  0.00     0.000 C 
BRANCH   4   5
ATOM      5  C   UNL     1      29.078 134.955 354.570  1.00  0.00     0.006 C 
BRANCH   5   6
ATOM      6  C   UNL     1      30.039 135.487 353.499  1.00  0.00     0.053 C 
BRANCH   6   7
ATOM      7  C   UNL     1      30.540 134.390 352.609  1.00  0.00     0.041 C 
ATOM      8  O   UNL     1      31.307 133.502 353.067  1.00  0.00    -0.550 OA
ATOM      9  O   UNL     1      30.130 134.329 351.283  1.00  0.00    -0.550 OA
ENDBRANCH   6   7
ENDBRANCH   5   6
ENDBRANCH   4   5
ENDBRANCH   3   4
ENDBRANCH   2   3
ENDBRANCH   1   2
BRANCH   1  10
ATOM     10  C   UNL     1      23.936 137.707 351.881  1.00  0.00     0.027 C 
BRANCH  10  11
ATOM     11  C   UNL     1      23.592 138.161 353.280  1.00  0.00    -0.031 C 
ATOM     12  C   UNL     1      23.626 139.443 353.690  1.00  0.00    -0.031 C 
BRANCH  12  13
ATOM     13  C   UNL     1      23.980 140.599 352.786  1.00  0.00     0.027 C 
BRANCH  13  14
ATOM     14  C   UNL     1      22.760 141.065 351.982  1.00  0.00     0.004 C 
BRANCH  14  15
ATOM     15  C   UNL     1      22.428 142.531 352.285  1.00  0.00     0.000 C 
BRANCH  15  16
ATOM     16  C   UNL     1      21.845 142.684 353.694  1.00  0.00    -0.000 C 
BRANCH  16  17
ATOM     17  C   UNL     1      20.347 142.360 353.708  1.00  0.00    -0.003 C 
ATOM     18  C   UNL     1      19.630 143.114 354.825  1.00  0.00     0.004 C 
ENDBRANCH  16  17
ENDBRANCH  15  16
ENDBRANCH  14  15
ENDBRANCH  13  14
ENDBRANCH  12  13
ENDBRANCH  10  11
ENDBRANCH   1  10
TORSDOF 13
ENDMDL
MODEL 4
REMARK VINA RESULT:    -5.678      5.312     10.621
REMARK INTER + INTRA:         -10.559
REMARK INTER:                  -9.799
REMARK INTRA:                  -0.760
REMARK UNBOUND:                -0.566
REMARK SMILES CCCCCCC=CCCCCCCCC(=O)[O-]
REMARK SMILES IDX 10 1 11 2 12 3 13 4 14 5 15 6 16 7 17 8 18 9 9 10 8 11 7 12
REMARK SMILES IDX 6 13 5 14 4 15 3 16 2 17 1 18
REMARK H PARENT
REMARK Flexibility Score: inf
ROOT
ATOM      1  C   UNL     1      23.285 139.418 351.428  1.00  0.00     0.004 C 
ENDROOT
BRANCH   1   2
ATOM      2  C   UNL     1      23.676 140.450 352.500  1.00  0.00     0.000 C 
BRANCH   2   3
ATOM      3  C   UNL     1      22.464 140.987 353.279  1.00  0.00     0.000 C 
BRANCH   3   4
ATOM      4  C   UNL     1      22.146 142.452 352.937  1.00  0.00     0.000 C 
BRANCH   4   5
ATOM      5  C   UNL     1      20.894 142.972 353.666  1.00  0.00     0.006 C 
BRANCH   5   6
ATOM      6  C   UNL     1      20.171 144.064 352.867  1.00  0.00     0.053 C 
BRANCH   6   7
ATOM      7  C   UNL     1      18.841 143.592 352.362  1.00  0.00     0.041 C 
ATOM      8  O   UNL     1      18.208 142.698 352.983  1.00  0.00    -0.550 OA
ATOM      9  O   UNL     1      18.286 144.165 351.224  1.00  0.00    -0.550 OA
ENDBRANCH   6   7
ENDBRANCH   5   6
ENDBRANCH   4   5
ENDBRANCH   3   4
ENDBRANCH   2   3
ENDBRANCH   1   2
BRANCH   1  10
ATOM     10  C   UNL     1      23.721 137.977 351.763  1.00  0.00     0.027 C 
BRANCH  10  11
ATOM     11  C   UNL     1      24.526 137.901 353.039  1.00  0.00    -0.031 C 
ATOM     12  C   UNL     1      25.483 136.986 353.278  1.00  0.00    -0.031 C 
BRANCH  12  13
ATOM     13  C   UNL     1      25.902 135.935 352.278  1.00  0.00     0.027 C 
BRANCH  13  14
ATOM     14  C   UNL     1      27.221 135.273 352.693  1.00  0.00     0.004 C 
BRANCH  14  15
ATOM     15  C   UNL     1      27.553 135.577 354.158  1.00  0.00     0.000 C 
BRANCH  15  16
ATOM     16  C   UNL     1      29.042 135.352 354.443  1.00  0.00    -0.000 C 
BRANCH  16  17
ATOM     17  C   UNL     1      29.824 135.127 353.143  1.00  0.00    -0.003 C 
ATOM     18  C   UNL     1      30.877 134.037 353.315  1.00  0.00     0.004 C 
ENDBRANCH  16  17
ENDBRANCH  15  16
ENDBRANCH  14  15
ENDBRANCH  13  14
ENDBRANCH  12  13
ENDBRANCH  10  11
ENDBRANCH   1  10
TORSDOF 13
ENDMDL
MODEL 5
REMARK VINA RESULT:    -5.586      4.213      6.362
REMARK INTER + INTRA:         -10.398
REMARK INTER:                  -8.582
REMARK INTRA:                  -1.816
REMARK UNBOUND:                -0.566
REMARK SMILES CCCCCCC=CCCCCCCCC(=O)[O-]
REMARK SMILES IDX 10 1 11 2 12 3 13 4 14 5 15 6 16 7 17 8 18 9 9 10 8 11 7 12
REMARK SMILES IDX 6 13 5 14 4 15 3 16 2 17 1 18
REMARK H PARENT
REMARK Flexibility Score: inf
ROOT
ATOM      1  C   UNL     1      25.465 137.089 353.268  1.00  0.00     0.004 C 
ENDROOT
BRANCH   1   2
ATOM      2  C   UNL     1      25.575 135.733 352.549  1.00  0.00     0.000 C 
BRANCH   2   3
ATOM      3  C   UNL     1      27.029 135.341 352.237  1.00  0.00     0.000 C 
BRANCH   3   4
ATOM      4  C   UNL     1      27.719 134.646 353.423  1.00  0.00     0.000 C 
BRANCH   4   5
ATOM      5  C   UNL     1      28.846 135.497 354.033  1.00  0.00     0.006 C 
BRANCH   5   6
ATOM      6  C   UNL     1      30.094 135.529 353.140  1.00  0.00     0.053 C 
BRANCH   6   7
ATOM      7  C   UNL     1      30.768 134.192 353.082  1.00  0.00     0.041 C 
ATOM      8  O   UNL     1      31.247 133.770 351.996  1.00  0.00    -0.550 OA
ATOM      9  O   UNL     1      30.898 133.428 354.235  1.00  0.00    -0.550 OA
ENDBRANCH   6   7
ENDBRANCH   5   6
ENDBRANCH   4   5
ENDBRANCH   3   4
ENDBRANCH   2   3
ENDBRANCH   1   2
BRANCH   1  10
ATOM     10  C   UNL     1      24.569 138.110 352.538  1.00  0.00     0.027 C 
BRANCH  10  11
ATOM     11  C   UNL     1      25.029 138.371 351.123  1.00  0.00    -0.031 C 
ATOM     12  C   UNL     1      24.301 138.091 350.026  1.00  0.00    -0.031 C 
BRANCH  12  13
ATOM     13  C   UNL     1      22.907 137.512 350.074  1.00  0.00     0.027 C 
BRANCH  13  14
ATOM     14  C   UNL     1      22.928 136.002 349.807  1.00  0.00     0.004 C 
BRANCH  14  15
ATOM     15  C   UNL     1      23.807 135.668 348.596  1.00  0.00     0.000 C 
BRANCH  15  16
ATOM     16  C   UNL     1      24.885 134.642 348.963  1.00  0.00    -0.000 C 
BRANCH  16  17
ATOM     17  C   UNL     1      26.288 135.192 348.678  1.00  0.00    -0.003 C 
ATOM     18  C   UNL     1      27.342 134.094 348.789  1.00  0.00     0.004 C 
ENDBRANCH  16  17
ENDBRANCH  15  16
ENDBRANCH  14  15
ENDBRANCH  13  14
ENDBRANCH  12  13
ENDBRANCH  10  11
ENDBRANCH   1  10
TORSDOF 13
ENDMDL
MODEL 6
REMARK VINA RESULT:    -5.581      3.578      6.491
REMARK INTER + INTRA:         -10.389
REMARK INTER:                  -8.825
REMARK INTRA:                  -1.564
REMARK UNBOUND:                -0.566
REMARK SMILES CCCCCCC=CCCCCCCCC(=O)[O-]
REMARK SMILES IDX 10 1 11 2 12 3 13 4 14 5 15 6 16 7 17 8 18 9 9 10 8 11 7 12
REMARK SMILES IDX 6 13 5 14 4 15 3 16 2 17 1 18
REMARK H PARENT
REMARK Flexibility Score: inf
ROOT
ATOM      1  C   UNL     1      20.202 143.140 354.510  1.00  0.00     0.004 C 
ENDROOT
BRANCH   1   2
ATOM      2  C   UNL     1      21.082 142.053 353.869  1.00  0.00     0.000 C 
BRANCH   2   3
ATOM      3  C   UNL     1      22.409 142.606 353.324  1.00  0.00     0.000 C 
BRANCH   3   4
ATOM      4  C   UNL     1      23.193 141.561 352.513  1.00  0.00     0.000 C 
BRANCH   4   5
ATOM      5  C   UNL     1      24.134 140.716 353.389  1.00  0.00     0.006 C 
BRANCH   5   6
ATOM      6  C   UNL     1      23.771 139.226 353.357  1.00  0.00     0.053 C 
BRANCH   6   7
ATOM      7  C   UNL     1      24.767 138.429 352.571  1.00  0.00     0.041 C 
ATOM      8  O   UNL     1      25.364 137.456 353.103  1.00  0.00    -0.550 OA
ATOM      9  O   UNL     1      25.011 138.741 351.239  1.00  0.00    -0.550 OA
ENDBRANCH   6   7
ENDBRANCH   5   6
ENDBRANCH   4   5
ENDBRANCH   3   4
ENDBRANCH   2   3
ENDBRANCH   1   2
BRANCH   1  10
ATOM     10  C   UNL     1      18.689 142.892 354.348  1.00  0.00     0.027 C 
BRANCH  10  11
ATOM     11  C   UNL     1      17.976 144.067 353.723  1.00  0.00    -0.031 C 
ATOM     12  C   UNL     1      17.907 144.294 352.398  1.00  0.00    -0.031 C 
BRANCH  12  13
ATOM     13  C   UNL     1      18.506 143.374 351.361  1.00  0.00     0.027 C 
BRANCH  13  14
ATOM     14  C   UNL     1      19.823 143.940 350.817  1.00  0.00     0.004 C 
BRANCH  14  15
ATOM     15  C   UNL     1      20.632 142.856 350.094  1.00  0.00     0.000 C 
BRANCH  15  16
ATOM     16  C   UNL     1      21.913 143.438 349.486  1.00  0.00    -0.000 C 
BRANCH  16  17
ATOM     17  C   UNL     1      22.705 142.361 348.736  1.00  0.00    -0.003 C 
ATOM     18  C   UNL     1      23.757 142.985 347.824  1.00  0.00     0.004 C 
ENDBRANCH  16  17
ENDBRANCH  15  16
ENDBRANCH  14  15
ENDBRANCH  13  14
ENDBRANCH  12  13
ENDBRANCH  10  11
ENDBRANCH   1  10
TORSDOF 13
ENDMDL
MODEL 7
REMARK VINA RESULT:    -5.573      2.811      3.595
REMARK INTER + INTRA:         -10.375
REMARK INTER:                  -9.670
REMARK INTRA:                  -0.705
REMARK UNBOUND:                -0.566
REMARK SMILES CCCCCCC=CCCCCCCCC(=O)[O-]
REMARK SMILES IDX 10 1 11 2 12 3 13 4 14 5 15 6 16 7 17 8 18 9 9 10 8 11 7 12
REMARK SMILES IDX 6 13 5 14 4 15 3 16 2 17 1 18
REMARK H PARENT
REMARK Flexibility Score: inf
ROOT
ATOM      1  C   UNL     1      23.205 139.494 352.545  1.00  0.00     0.004 C 
ENDROOT
BRANCH   1   2
ATOM      2  C   UNL     1      23.657 138.285 353.382  1.00  0.00     0.000 C 
BRANCH   2   3
ATOM      3  C   UNL     1      25.078 137.816 353.031  1.00  0.00     0.000 C 
BRANCH   3   4
ATOM      4  C   UNL     1      25.239 136.290 353.139  1.00  0.00     0.000 C 
BRANCH   4   5
ATOM      5  C   UNL     1      25.796 135.661 351.850  1.00  0.00     0.006 C 
BRANCH   5   6
ATOM      6  C   UNL     1      25.068 136.168 350.598  1.00  0.00     0.053 C 
BRANCH   6   7
ATOM      7  C   UNL     1      25.007 135.118 349.529  1.00  0.00     0.041 C 
ATOM      8  O   UNL     1      23.903 134.802 349.013  1.00  0.00    -0.550 OA
ATOM      9  O   UNL     1      26.175 134.516 349.079  1.00  0.00    -0.550 OA
ENDBRANCH   6   7
ENDBRANCH   5   6
ENDBRANCH   4   5
ENDBRANCH   3   4
ENDBRANCH   2   3
ENDBRANCH   1   2
BRANCH   1  10
ATOM     10  C   UNL     1      23.952 140.800 352.885  1.00  0.00     0.027 C 
BRANCH  10  11
ATOM     11  C   UNL     1      23.500 141.960 352.031  1.00  0.00    -0.031 C 
ATOM     12  C   UNL     1      22.470 142.771 352.337  1.00  0.00    -0.031 C 
BRANCH  12  13
ATOM     13  C   UNL     1      21.655 142.644 353.601  1.00  0.00     0.027 C 
BRANCH  13  14
ATOM     14  C   UNL     1      20.406 143.532 353.544  1.00  0.00     0.004 C 
BRANCH  14  15
ATOM     15  C   UNL     1      19.334 143.039 354.523  1.00  0.00     0.000 C 
BRANCH  15  16
ATOM     16  C   UNL     1      17.978 142.891 353.825  1.00  0.00    -0.000 C 
BRANCH  16  17
ATOM     17  C   UNL     1      17.696 144.089 352.911  1.00  0.00    -0.003 C 
ATOM     18  C   UNL     1      16.918 145.175 353.650  1.00  0.00     0.004 C 
ENDBRANCH  16  17
ENDBRANCH  15  16
ENDBRANCH  14  15
ENDBRANCH  13  14
ENDBRANCH  12  13
ENDBRANCH  10  11
ENDBRANCH   1  10
TORSDOF 13
ENDMDL
MODEL 8
REMARK VINA RESULT:    -5.547     10.336     11.747
REMARK INTER + INTRA:         -10.328
REMARK INTER:                  -8.777
REMARK INTRA:                  -1.551
REMARK UNBOUND:                -0.566
REMARK SMILES CCCCCCC=CCCCCCCCC(=O)[O-]
REMARK SMILES IDX 10 1 11 2 12 3 13 4 14 5 15 6 16 7 17 8 18 9 9 10 8 11 7 12
REMARK SMILES IDX 6 13 5 14 4 15 3 16 2 17 1 18
REMARK H PARENT
REMARK Flexibility Score: inf
ROOT
ATOM      1  C   UNL     1      19.514 137.502 342.739  1.00  0.00     0.004 C 
ENDROOT
BRANCH   1   2
ATOM      2  C   UNL     1      20.988 137.473 343.177  1.00  0.00     0.000 C 
BRANCH   2   3
ATOM      3  C   UNL     1      21.831 138.572 342.509  1.00  0.00     0.000 C 
BRANCH   3   4
ATOM      4  C   UNL     1      23.226 138.075 342.096  1.00  0.00     0.000 C 
BRANCH   4   5
ATOM      5  C   UNL     1      24.350 139.021 342.555  1.00  0.00     0.006 C 
BRANCH   5   6
ATOM      6  C   UNL     1      23.847 140.080 343.545  1.00  0.00     0.053 C 
BRANCH   6   7
ATOM      7  C   UNL     1      24.853 141.173 343.744  1.00  0.00     0.041 C 
ATOM      8  O   UNL     1      24.640 142.083 344.589  1.00  0.00    -0.550 OA
ATOM      9  O   UNL     1      26.039 141.167 343.023  1.00  0.00    -0.550 OA
ENDBRANCH   6   7
ENDBRANCH   5   6
ENDBRANCH   4   5
ENDBRANCH   3   4
ENDBRANCH   2   3
ENDBRANCH   1   2
BRANCH   1  10
ATOM     10  C   UNL     1      19.201 138.577 341.679  1.00  0.00     0.027 C 
BRANCH  10  11
ATOM     11  C   UNL     1      17.732 138.636 341.334  1.00  0.00    -0.031 C 
ATOM     12  C   UNL     1      16.825 139.368 342.007  1.00  0.00    -0.031 C 
BRANCH  12  13
ATOM     13  C   UNL     1      17.171 140.258 343.176  1.00  0.00     0.027 C 
BRANCH  13  14
ATOM     14  C   UNL     1      16.833 139.577 344.508  1.00  0.00     0.004 C 
BRANCH  14  15
ATOM     15  C   UNL     1      18.051 139.554 345.439  1.00  0.00     0.000 C 
BRANCH  15  16
ATOM     16  C   UNL     1      18.177 138.200 346.146  1.00  0.00    -0.000 C 
BRANCH  16  17
ATOM     17  C   UNL     1      19.607 137.975 346.653  1.00  0.00    -0.003 C 
ATOM     18  C   UNL     1      19.897 136.489 346.840  1.00  0.00     0.004 C 
ENDBRANCH  16  17
ENDBRANCH  15  16
ENDBRANCH  14  15
ENDBRANCH  13  14
ENDBRANCH  12  13
ENDBRANCH  10  11
ENDBRANCH   1  10
TORSDOF 13
ENDMDL
MODEL 9
REMARK VINA RESULT:    -5.541      4.515      8.053
REMARK INTER + INTRA:         -10.318
REMARK INTER:                  -8.624
REMARK INTRA:                  -1.695
REMARK UNBOUND:                -0.566
REMARK SMILES CCCCCCC=CCCCCCCCC(=O)[O-]
REMARK SMILES IDX 10 1 11 2 12 3 13 4 14 5 15 6 16 7 17 8 18 9 9 10 8 11 7 12
REMARK SMILES IDX 6 13 5 14 4 15 3 16 2 17 1 18
REMARK H PARENT
REMARK Flexibility Score: inf
ROOT
ATOM      1  C   UNL     1      23.752 138.614 350.206  1.00  0.00     0.004 C 
ENDROOT
BRANCH   1   2
ATOM      2  C   UNL     1      22.708 137.494 350.354  1.00  0.00     0.000 C 
BRANCH   2   3
ATOM      3  C   UNL     1      22.593 136.617 349.096  1.00  0.00     0.000 C 
BRANCH   3   4
ATOM      4  C   UNL     1      23.385 135.305 349.217  1.00  0.00     0.000 C 
BRANCH   4   5
ATOM      5  C   UNL     1      24.277 135.037 347.992  1.00  0.00     0.006 C 
BRANCH   5   6
ATOM      6  C   UNL     1      25.751 135.365 348.268  1.00  0.00     0.053 C 
BRANCH   6   7
ATOM      7  C   UNL     1      26.543 134.133 348.585  1.00  0.00     0.041 C 
ATOM      8  O   UNL     1      27.662 134.228 349.154  1.00  0.00    -0.550 OA
ATOM      9  O   UNL     1      26.028 132.878 348.283  1.00  0.00    -0.550 OA
ENDBRANCH   6   7
ENDBRANCH   5   6
ENDBRANCH   4   5
ENDBRANCH   3   4
ENDBRANCH   2   3
ENDBRANCH   1   2
BRANCH   1  10
ATOM     10  C   UNL     1      25.071 138.339 350.957  1.00  0.00     0.027 C 
BRANCH  10  11
ATOM     11  C   UNL     1      24.848 138.033 352.419  1.00  0.00    -0.031 C 
ATOM     12  C   UNL     1      25.065 136.831 352.983  1.00  0.00    -0.031 C 
BRANCH  12  13
ATOM     13  C   UNL     1      25.599 135.638 352.227  1.00  0.00     0.027 C 
BRANCH  13  14
ATOM     14  C   UNL     1      27.107 135.472 352.451  1.00  0.00     0.004 C 
BRANCH  14  15
ATOM     15  C   UNL     1      27.433 135.356 353.945  1.00  0.00     0.000 C 
BRANCH  15  16
ATOM     16  C   UNL     1      28.933 135.543 354.198  1.00  0.00    -0.000 C 
BRANCH  16  17
ATOM     17  C   UNL     1      29.744 135.259 352.928  1.00  0.00    -0.003 C 
ATOM     18  C   UNL     1      30.809 134.196 353.181  1.00  0.00     0.004 C 
ENDBRANCH  16  17
ENDBRANCH  15  16
ENDBRANCH  14  15
ENDBRANCH  13  14
ENDBRANCH  12  13
ENDBRANCH  10  11
ENDBRANCH   1  10
TORSDOF 13
ENDMDL
