MODEL 1
REMARK VINA RESULT:    -3.987      0.000      0.000
REMARK INTER + INTRA:          -5.571
REMARK INTER:                  -5.386
REMARK INTRA:                  -0.185
REMARK UNBOUND:                -0.185
REMARK SMILES CCCCCCCC=O
REMARK SMILES IDX 5 1 4 2 3 3 2 4 1 5 6 6 7 7 8 8 9 9
REMARK H PARENT
REMARK Flexibility Score: inf
ROOT
ATOM      1  C   UNL     1      25.120  57.962  -8.672  1.00  0.00     0.000 C 
ENDROOT
BRANCH   1   2
ATOM      2  C   UNL     1      25.975  59.148  -9.156  1.00  0.00     0.000 C 
BRANCH   2   3
ATOM      3  C   UNL     1      27.156  58.764 -10.064  1.00  0.00    -0.000 C 
BRANCH   3   4
ATOM      4  C   UNL     1      28.079  59.953 -10.373  1.00  0.00    -0.003 C 
ATOM      5  C   UNL     1      29.444  59.475 -10.858  1.00  0.00     0.004 C 
ENDBRANCH   3   4
ENDBRANCH   2   3
ENDBRANCH   1   2
BRANCH   1   6
ATOM      6  C   UNL     1      25.764  56.583  -8.931  1.00  0.00     0.008 C 
BRANCH   6   7
ATOM      7  C   UNL     1      25.249  55.509  -7.962  1.00  0.00     0.072 C 
BRANCH   7   8
ATOM      8  C   UNL     1      23.751  55.451  -7.972  1.00  0.00     0.224 C 
ATOM      9  O   UNL     1      23.136  55.145  -6.962  1.00  0.00    -0.303 OA
ENDBRANCH   7   8
ENDBRANCH   6   7
ENDBRANCH   1   6
TORSDOF 6
ENDMDL
MODEL 2
REMARK VINA RESULT:    -3.936      3.038      5.756
REMARK INTER + INTRA:          -5.502
REMARK INTER:                  -5.384
REMARK INTRA:                  -0.118
REMARK UNBOUND:                -0.185
REMARK SMILES CCCCCCCC=O
REMARK SMILES IDX 5 1 4 2 3 3 2 4 1 5 6 6 7 7 8 8 9 9
REMARK H PARENT
REMARK Flexibility Score: inf
ROOT
ATOM      1  C   UNL     1      26.539  58.425  -9.499  1.00  0.00     0.000 C 
ENDROOT
BRANCH   1   2
ATOM      2  C   UNL     1      25.295  57.847  -8.797  1.00  0.00     0.000 C 
BRANCH   2   3
ATOM      3  C   UNL     1      25.452  56.403  -8.290  1.00  0.00    -0.000 C 
BRANCH   3   4
ATOM      4  C   UNL     1      24.195  55.552  -8.524  1.00  0.00    -0.003 C 
ATOM      5  C   UNL     1      23.507  55.219  -7.203  1.00  0.00     0.004 C 
ENDBRANCH   3   4
ENDBRANCH   2   3
ENDBRANCH   1   2
BRANCH   1   6
ATOM      6  C   UNL     1      26.744  59.935  -9.257  1.00  0.00     0.008 C 
BRANCH   6   7
ATOM      7  C   UNL     1      27.877  60.514 -10.118  1.00  0.00     0.072 C 
BRANCH   7   8
ATOM      8  C   UNL     1      29.035  59.563 -10.191  1.00  0.00     0.224 C 
ATOM      9  O   UNL     1      29.612  59.370 -11.249  1.00  0.00    -0.303 OA
ENDBRANCH   7   8
ENDBRANCH   6   7
ENDBRANCH   1   6
TORSDOF 6
ENDMDL
MODEL 3
REMARK VINA RESULT:    -3.792      0.783      1.346
REMARK INTER + INTRA:          -5.307
REMARK INTER:                  -5.157
REMARK INTRA:                  -0.151
REMARK UNBOUND:                -0.185
REMARK SMILES CCCCCCCC=O
REMARK SMILES IDX 5 1 4 2 3 3 2 4 1 5 6 6 7 7 8 8 9 9
REMARK H PARENT
REMARK Flexibility Score: inf
ROOT
ATOM      1  C   UNL     1      26.605  58.488  -9.675  1.00  0.00     0.000 C 
ENDROOT
BRANCH   1   2
ATOM      2  C   UNL     1      26.972  59.953  -9.370  1.00  0.00     0.000 C 
BRANCH   2   3
ATOM      3  C   UNL     1      28.053  60.552 -10.285  1.00  0.00    -0.000 C 
BRANCH   3   4
ATOM      4  C   UNL     1      29.438  59.927 -10.056  1.00  0.00    -0.003 C 
ATOM      5  C   UNL     1      29.986  59.324 -11.345  1.00  0.00     0.004 C 
ENDBRANCH   3   4
ENDBRANCH   2   3
ENDBRANCH   1   2
BRANCH   1   6
ATOM      6  C   UNL     1      25.456  57.940  -8.802  1.00  0.00     0.008 C 
BRANCH   6   7
ATOM      7  C   UNL     1      25.498  56.410  -8.680  1.00  0.00     0.072 C 
BRANCH   7   8
ATOM      8  C   UNL     1      24.154  55.866  -8.296  1.00  0.00     0.224 C 
ATOM      9  O   UNL     1      23.937  55.502  -7.150  1.00  0.00    -0.303 OA
ENDBRANCH   7   8
ENDBRANCH   6   7
ENDBRANCH   1   6
TORSDOF 6
ENDMDL
MODEL 4
REMARK VINA RESULT:    -3.615     17.955     19.230
REMARK INTER + INTRA:          -5.067
REMARK INTER:                  -4.647
REMARK INTRA:                  -0.420
REMARK UNBOUND:                -0.185
REMARK SMILES CCCCCCCC=O
REMARK SMILES IDX 5 1 4 2 3 3 2 4 1 5 6 6 7 7 8 8 9 9
REMARK H PARENT
REMARK Flexibility Score: inf
ROOT
ATOM      1  C   UNL     1      17.729  42.766   1.394  1.00  0.00     0.000 C 
ENDROOT
BRANCH   1   2
ATOM      2  C   UNL     1      16.232  43.107   1.267  1.00  0.00     0.000 C 
BRANCH   2   3
ATOM      3  C   UNL     1      15.852  44.525   1.726  1.00  0.00    -0.000 C 
BRANCH   3   4
ATOM      4  C   UNL     1      15.274  45.382   0.590  1.00  0.00    -0.003 C 
ATOM      5  C   UNL     1      16.284  45.541  -0.543  1.00  0.00     0.004 C 
ENDBRANCH   3   4
ENDBRANCH   2   3
ENDBRANCH   1   2
BRANCH   1   6
ATOM      6  C   UNL     1      18.544  43.822   2.171  1.00  0.00     0.008 C 
BRANCH   6   7
ATOM      7  C   UNL     1      19.828  44.225   1.432  1.00  0.00     0.072 C 
BRANCH   7   8
ATOM      8  C   UNL     1      20.258  43.151   0.478  1.00  0.00     0.224 C 
ATOM      9  O   UNL     1      21.255  42.484   0.705  1.00  0.00    -0.303 OA
ENDBRANCH   7   8
ENDBRANCH   6   7
ENDBRANCH   1   6
TORSDOF 6
ENDMDL
MODEL 5
REMARK VINA RESULT:    -3.607     17.023     18.846
REMARK INTER + INTRA:          -5.057
REMARK INTER:                  -4.555
REMARK INTRA:                  -0.503
REMARK UNBOUND:                -0.185
REMARK SMILES CCCCCCCC=O
REMARK SMILES IDX 5 1 4 2 3 3 2 4 1 5 6 6 7 7 8 8 9 9
REMARK H PARENT
REMARK Flexibility Score: inf
ROOT
ATOM      1  C   UNL     1      16.226  43.155   1.170  1.00  0.00     0.000 C 
ENDROOT
BRANCH   1   2
ATOM      2  C   UNL     1      17.675  42.718   1.457  1.00  0.00     0.000 C 
BRANCH   2   3
ATOM      3  C   UNL     1      18.570  43.810   2.067  1.00  0.00    -0.000 C 
BRANCH   3   4
ATOM      4  C   UNL     1      19.765  44.168   1.170  1.00  0.00    -0.003 C 
ATOM      5  C   UNL     1      19.324  45.020  -0.015  1.00  0.00     0.004 C 
ENDBRANCH   3   4
ENDBRANCH   2   3
ENDBRANCH   1   2
BRANCH   1   6
ATOM      6  C   UNL     1      15.869  44.543   1.744  1.00  0.00     0.008 C 
BRANCH   6   7
ATOM      7  C   UNL     1      15.114  45.415   0.730  1.00  0.00     0.072 C 
BRANCH   7   8
ATOM      8  C   UNL     1      15.622  45.182  -0.662  1.00  0.00     0.224 C 
ATOM      9  O   UNL     1      16.193  46.073  -1.270  1.00  0.00    -0.303 OA
ENDBRANCH   7   8
ENDBRANCH   6   7
ENDBRANCH   1   6
TORSDOF 6
ENDMDL
MODEL 6
REMARK VINA RESULT:    -3.551     15.430     17.295
REMARK INTER + INTRA:          -4.981
REMARK INTER:                  -4.842
REMARK INTRA:                  -0.138
REMARK UNBOUND:                -0.185
REMARK SMILES CCCCCCCC=O
REMARK SMILES IDX 5 1 4 2 3 3 2 4 1 5 6 6 7 7 8 8 9 9
REMARK H PARENT
REMARK Flexibility Score: inf
ROOT
ATOM      1  C   UNL     1      32.665  45.167   2.088  1.00  0.00     0.000 C 
ENDROOT
BRANCH   1   2
ATOM      2  C   UNL     1      31.810  45.239   0.809  1.00  0.00     0.000 C 
BRANCH   2   3
ATOM      3  C   UNL     1      30.291  45.276   1.049  1.00  0.00    -0.000 C 
BRANCH   3   4
ATOM      4  C   UNL     1      29.482  44.926  -0.209  1.00  0.00    -0.003 C 
ATOM      5  C   UNL     1      28.239  45.802  -0.322  1.00  0.00     0.004 C 
ENDBRANCH   3   4
ENDBRANCH   2   3
ENDBRANCH   1   2
BRANCH   1   6
ATOM      6  C   UNL     1      33.250  46.528   2.523  1.00  0.00     0.008 C 
BRANCH   6   7
ATOM      7  C   UNL     1      32.641  47.028   3.841  1.00  0.00     0.072 C 
BRANCH   7   8
ATOM      8  C   UNL     1      32.684  48.526   3.918  1.00  0.00     0.224 C 
ATOM      9  O   UNL     1      32.238  49.109   4.893  1.00  0.00    -0.303 OA
ENDBRANCH   7   8
ENDBRANCH   6   7
ENDBRANCH   1   6
TORSDOF 6
ENDMDL
MODEL 7
REMARK VINA RESULT:    -3.522     15.793     17.027
REMARK INTER + INTRA:          -4.942
REMARK INTER:                  -4.799
REMARK INTRA:                  -0.143
REMARK UNBOUND:                -0.185
REMARK SMILES CCCCCCCC=O
REMARK SMILES IDX 5 1 4 2 3 3 2 4 1 5 6 6 7 7 8 8 9 9
REMARK H PARENT
REMARK Flexibility Score: inf
ROOT
ATOM      1  C   UNL     1      32.396  45.053   2.094  1.00  0.00     0.000 C 
ENDROOT
BRANCH   1   2
ATOM      2  C   UNL     1      32.913  46.450   2.483  1.00  0.00     0.000 C 
BRANCH   2   3
ATOM      3  C   UNL     1      32.724  46.819   3.965  1.00  0.00    -0.000 C 
BRANCH   3   4
ATOM      4  C   UNL     1      32.578  48.332   4.187  1.00  0.00    -0.003 C 
ATOM      5  C   UNL     1      33.927  48.971   4.501  1.00  0.00     0.004 C 
ENDBRANCH   3   4
ENDBRANCH   2   3
ENDBRANCH   1   2
BRANCH   1   6
ATOM      6  C   UNL     1      31.586  45.032   0.780  1.00  0.00     0.008 C 
BRANCH   6   7
ATOM      7  C   UNL     1      30.097  45.326   1.010  1.00  0.00     0.072 C 
BRANCH   7   8
ATOM      8  C   UNL     1      29.297  45.047  -0.228  1.00  0.00     0.224 C 
ATOM      9  O   UNL     1      28.359  45.766  -0.534  1.00  0.00    -0.303 OA
ENDBRANCH   7   8
ENDBRANCH   6   7
ENDBRANCH   1   6
TORSDOF 6
ENDMDL
MODEL 8
REMARK VINA RESULT:    -3.391      2.207      4.140
REMARK INTER + INTRA:          -4.766
REMARK INTER:                  -4.551
REMARK INTRA:                  -0.214
REMARK UNBOUND:                -0.185
REMARK SMILES CCCCCCCC=O
REMARK SMILES IDX 5 1 4 2 3 3 2 4 1 5 6 6 7 7 8 8 9 9
REMARK H PARENT
REMARK Flexibility Score: inf
ROOT
ATOM      1  C   UNL     1      29.281  59.674  -9.979  1.00  0.00     0.000 C 
ENDROOT
BRANCH   1   2
ATOM      2  C   UNL     1      29.895  59.652 -11.391  1.00  0.00     0.000 C 
BRANCH   2   3
ATOM      3  C   UNL     1      31.209  58.863 -11.513  1.00  0.00    -0.000 C 
BRANCH   3   4
ATOM      4  C   UNL     1      31.389  58.218 -12.895  1.00  0.00    -0.003 C 
ATOM      5  C   UNL     1      30.173  57.375 -13.268  1.00  0.00     0.004 C 
ENDBRANCH   3   4
ENDBRANCH   2   3
ENDBRANCH   1   2
BRANCH   1   6
ATOM      6  C   UNL     1      27.750  59.867  -9.968  1.00  0.00     0.008 C 
BRANCH   6   7
ATOM      7  C   UNL     1      26.997  58.559 -10.250  1.00  0.00     0.072 C 
BRANCH   7   8
ATOM      8  C   UNL     1      26.056  58.229  -9.130  1.00  0.00     0.224 C 
ATOM      9  O   UNL     1      25.764  57.069  -8.888  1.00  0.00    -0.303 OA
ENDBRANCH   7   8
ENDBRANCH   6   7
ENDBRANCH   1   6
TORSDOF 6
ENDMDL
MODEL 9
REMARK VINA RESULT:    -3.383      5.190      7.129
REMARK INTER + INTRA:          -4.754
REMARK INTER:                  -4.332
REMARK INTRA:                  -0.422
REMARK UNBOUND:                -0.185
REMARK SMILES CCCCCCCC=O
REMARK SMILES IDX 5 1 4 2 3 3 2 4 1 5 6 6 7 7 8 8 9 9
REMARK H PARENT
REMARK Flexibility Score: inf
ROOT
ATOM      1  C   UNL     1      30.364  57.279 -13.204  1.00  0.00     0.000 C 
ENDROOT
BRANCH   1   2
ATOM      2  C   UNL     1      31.558  56.614 -13.913  1.00  0.00     0.000 C 
BRANCH   2   3
ATOM      3  C   UNL     1      32.820  57.488 -14.009  1.00  0.00    -0.000 C 
BRANCH   3   4
ATOM      4  C   UNL     1      34.058  56.812 -13.399  1.00  0.00    -0.003 C 
ATOM      5  C   UNL     1      34.115  57.034 -11.891  1.00  0.00     0.004 C 
ENDBRANCH   3   4
ENDBRANCH   2   3
ENDBRANCH   1   2
BRANCH   1   6
ATOM      6  C   UNL     1      30.573  58.778 -12.905  1.00  0.00     0.008 C 
BRANCH   6   7
ATOM      7  C   UNL     1      30.713  59.058 -11.402  1.00  0.00     0.072 C 
BRANCH   7   8
ATOM      8  C   UNL     1      29.496  59.754 -10.870  1.00  0.00     0.224 C 
ATOM      9  O   UNL     1      28.472  59.127 -10.646  1.00  0.00    -0.303 OA
ENDBRANCH   7   8
ENDBRANCH   6   7
ENDBRANCH   1   6
TORSDOF 6
ENDMDL
