MODEL 1
REMARK VINA RESULT:    -4.527      0.000      0.000
REMARK INTER + INTRA:          -5.301
REMARK INTER:                  -5.188
REMARK INTRA:                  -0.113
REMARK UNBOUND:                -0.113
REMARK SMILES COc1ccc(C(C)=O)cc1O
REMARK SMILES IDX 6 1 10 2 11 3 3 4 4 5 5 6 7 7 8 8 9 9 12 10 2 12 1 13
REMARK H PARENT 12 11
REMARK Flexibility Score: inf
ROOT
ATOM      1  C   UNL     1     -18.476  20.186  42.231  1.00  0.00     0.021 A 
ATOM      2  C   UNL     1     -17.869  21.213  41.486  1.00  0.00     0.062 A 
ATOM      3  C   UNL     1     -18.641  22.165  40.810  1.00  0.00     0.158 A 
ATOM      4  C   UNL     1     -20.045  22.106  40.867  1.00  0.00     0.160 A 
ATOM      5  C   UNL     1     -20.656  21.080  41.611  1.00  0.00     0.051 A 
ATOM      6  C   UNL     1     -19.881  20.133  42.284  1.00  0.00     0.016 A 
ENDROOT
BRANCH   1   7
ATOM      7  C   UNL     1     -17.636  19.185  42.942  1.00  0.00     0.159 C 
ATOM      8  C   UNL     1     -17.368  19.277  44.414  1.00  0.00     0.093 C 
ATOM      9  O   UNL     1     -17.126  18.226  42.301  1.00  0.00    -0.295 OA
ENDBRANCH   1   7
BRANCH   3  10
ATOM     10  O   UNL     1     -17.992  23.164  40.084  1.00  0.00    -0.504 OA
ATOM     11  H   UNL     1     -17.529  23.945  40.534  1.00  0.00     0.293 HD
ENDBRANCH   3  10
BRANCH   4  12
ATOM     12  O   UNL     1     -20.794  23.073  40.179  1.00  0.00    -0.493 OA
ATOM     13  C   UNL     1     -21.286  22.920  38.851  1.00  0.00     0.278 C 
ENDBRANCH   4  12
TORSDOF 3
ENDMDL
MODEL 2
REMARK VINA RESULT:    -4.408      1.658      4.517
REMARK INTER + INTRA:          -5.165
REMARK INTER:                  -5.067
REMARK INTRA:                  -0.099
REMARK UNBOUND:                -0.113
REMARK SMILES COc1ccc(C(C)=O)cc1O
REMARK SMILES IDX 6 1 10 2 11 3 3 4 4 5 5 6 7 7 8 8 9 9 12 10 2 12 1 13
REMARK H PARENT 12 11
REMARK Flexibility Score: inf
ROOT
ATOM      1  C   UNL     1     -21.011  22.166  41.347  1.00  0.00     0.021 A 
ATOM      2  C   UNL     1     -19.813  22.699  40.836  1.00  0.00     0.062 A 
ATOM      3  C   UNL     1     -18.608  21.996  40.947  1.00  0.00     0.158 A 
ATOM      4  C   UNL     1     -18.578  20.739  41.575  1.00  0.00     0.160 A 
ATOM      5  C   UNL     1     -19.774  20.202  42.087  1.00  0.00     0.051 A 
ATOM      6  C   UNL     1     -20.974  20.908  41.974  1.00  0.00     0.016 A 
ENDROOT
BRANCH   1   7
ATOM      7  C   UNL     1     -22.280  22.930  41.218  1.00  0.00     0.159 C 
ATOM      8  C   UNL     1     -22.703  23.945  42.238  1.00  0.00     0.093 C 
ATOM      9  O   UNL     1     -23.034  22.731  40.226  1.00  0.00    -0.295 OA
ENDBRANCH   1   7
BRANCH   3  10
ATOM     10  O   UNL     1     -17.447  22.567  40.425  1.00  0.00    -0.504 OA
ATOM     11  H   UNL     1     -16.558  22.526  40.911  1.00  0.00     0.293 HD
ENDBRANCH   3  10
BRANCH   4  12
ATOM     12  O   UNL     1     -17.356  20.057  41.672  1.00  0.00    -0.493 OA
ATOM     13  C   UNL     1     -17.202  18.648  41.531  1.00  0.00     0.278 C 
ENDBRANCH   4  12
TORSDOF 3
ENDMDL
MODEL 3
REMARK VINA RESULT:    -4.230     14.599     15.730
REMARK INTER + INTRA:          -4.961
REMARK INTER:                  -4.848
REMARK INTRA:                  -0.113
REMARK UNBOUND:                -0.113
REMARK SMILES COc1ccc(C(C)=O)cc1O
REMARK SMILES IDX 6 1 10 2 11 3 3 4 4 5 5 6 7 7 8 8 9 9 12 10 2 12 1 13
REMARK H PARENT 12 11
REMARK Flexibility Score: inf
ROOT
ATOM      1  C   UNL     1      -6.954  28.595  45.962  1.00  0.00     0.021 A 
ATOM      2  C   UNL     1      -8.015  29.411  45.527  1.00  0.00     0.062 A 
ATOM      3  C   UNL     1      -8.130  30.735  45.963  1.00  0.00     0.158 A 
ATOM      4  C   UNL     1      -7.181  31.273  46.850  1.00  0.00     0.160 A 
ATOM      5  C   UNL     1      -6.119  30.460  47.289  1.00  0.00     0.051 A 
ATOM      6  C   UNL     1      -6.008  29.139  46.850  1.00  0.00     0.016 A 
ENDROOT
BRANCH   1   7
ATOM      7  C   UNL     1      -6.851  27.190  45.485  1.00  0.00     0.159 C 
ATOM      8  C   UNL     1      -6.288  26.099  46.346  1.00  0.00     0.093 C 
ATOM      9  O   UNL     1      -7.244  26.892  44.324  1.00  0.00    -0.295 OA
ENDBRANCH   1   7
BRANCH   3  10
ATOM     10  O   UNL     1      -9.200  31.504  45.503  1.00  0.00    -0.504 OA
ATOM     11  H   UNL     1      -9.244  31.854  44.553  1.00  0.00     0.293 HD
ENDBRANCH   3  10
BRANCH   4  12
ATOM     12  O   UNL     1      -7.322  32.603  47.272  1.00  0.00    -0.493 OA
ATOM     13  C   UNL     1      -6.486  33.240  48.234  1.00  0.00     0.278 C 
ENDBRANCH   4  12
TORSDOF 3
ENDMDL
MODEL 4
REMARK VINA RESULT:    -4.104     15.298     16.579
REMARK INTER + INTRA:          -4.816
REMARK INTER:                  -4.705
REMARK INTRA:                  -0.111
REMARK UNBOUND:                -0.113
REMARK SMILES COc1ccc(C(C)=O)cc1O
REMARK SMILES IDX 6 1 10 2 11 3 3 4 4 5 5 6 7 7 8 8 9 9 12 10 2 12 1 13
REMARK H PARENT 12 11
REMARK Flexibility Score: inf
ROOT
ATOM      1  C   UNL     1      -6.899  31.284  47.007  1.00  0.00     0.021 A 
ATOM      2  C   UNL     1      -5.845  30.399  47.300  1.00  0.00     0.062 A 
ATOM      3  C   UNL     1      -5.870  29.075  46.848  1.00  0.00     0.158 A 
ATOM      4  C   UNL     1      -6.958  28.608  46.090  1.00  0.00     0.160 A 
ATOM      5  C   UNL     1      -8.014  29.489  45.795  1.00  0.00     0.051 A 
ATOM      6  C   UNL     1      -7.984  30.810  46.248  1.00  0.00     0.016 A 
ENDROOT
BRANCH   1   7
ATOM      7  C   UNL     1      -6.851  32.687  47.497  1.00  0.00     0.159 C 
ATOM      8  C   UNL     1      -6.013  33.089  48.675  1.00  0.00     0.093 C 
ATOM      9  O   UNL     1      -7.530  33.578  46.916  1.00  0.00    -0.295 OA
ENDBRANCH   1   7
BRANCH   3  10
ATOM     10  O   UNL     1      -4.800  28.237  47.165  1.00  0.00    -0.504 OA
ATOM     11  H   UNL     1      -3.856  28.585  47.282  1.00  0.00     0.293 HD
ENDBRANCH   3  10
BRANCH   4  12
ATOM     12  O   UNL     1      -6.957  27.275  45.651  1.00  0.00    -0.493 OA
ATOM     13  C   UNL     1      -6.870  26.873  44.287  1.00  0.00     0.278 C 
ENDBRANCH   4  12
TORSDOF 3
ENDMDL
MODEL 5
REMARK VINA RESULT:    -4.101     15.702     16.957
REMARK INTER + INTRA:          -4.813
REMARK INTER:                  -4.699
REMARK INTRA:                  -0.114
REMARK UNBOUND:                -0.113
REMARK SMILES COc1ccc(C(C)=O)cc1O
REMARK SMILES IDX 6 1 10 2 11 3 3 4 4 5 5 6 7 7 8 8 9 9 12 10 2 12 1 13
REMARK H PARENT 12 11
REMARK Flexibility Score: inf
ROOT
ATOM      1  C   UNL     1      -6.221  31.683  47.483  1.00  0.00     0.021 A 
ATOM      2  C   UNL     1      -7.554  31.629  47.035  1.00  0.00     0.062 A 
ATOM      3  C   UNL     1      -8.040  30.506  46.358  1.00  0.00     0.158 A 
ATOM      4  C   UNL     1      -7.198  29.406  46.115  1.00  0.00     0.160 A 
ATOM      5  C   UNL     1      -5.864  29.456  46.563  1.00  0.00     0.051 A 
ATOM      6  C   UNL     1      -5.384  30.580  47.237  1.00  0.00     0.016 A 
ENDROOT
BRANCH   1   7
ATOM      7  C   UNL     1      -5.725  32.888  48.201  1.00  0.00     0.159 C 
ATOM      8  C   UNL     1      -4.309  33.363  48.069  1.00  0.00     0.093 C 
ATOM      9  O   UNL     1      -6.506  33.539  48.947  1.00  0.00    -0.295 OA
ENDBRANCH   1   7
BRANCH   3  10
ATOM     10  O   UNL     1      -9.369  30.501  45.932  1.00  0.00    -0.504 OA
ATOM     11  H   UNL     1      -9.709  31.129  45.213  1.00  0.00     0.293 HD
ENDBRANCH   3  10
BRANCH   4  12
ATOM     12  O   UNL     1      -7.713  28.293  45.434  1.00  0.00    -0.493 OA
ATOM     13  C   UNL     1      -7.225  26.962  45.575  1.00  0.00     0.278 C 
ENDBRANCH   4  12
TORSDOF 3
ENDMDL
MODEL 6
REMARK VINA RESULT:    -4.026      1.293      2.264
REMARK INTER + INTRA:          -4.727
REMARK INTER:                  -4.632
REMARK INTRA:                  -0.095
REMARK UNBOUND:                -0.113
REMARK SMILES COc1ccc(C(C)=O)cc1O
REMARK SMILES IDX 6 1 10 2 11 3 3 4 4 5 5 6 7 7 8 8 9 9 12 10 2 12 1 13
REMARK H PARENT 12 11
REMARK Flexibility Score: inf
ROOT
ATOM      1  C   UNL     1     -18.123  20.119  41.910  1.00  0.00     0.021 A 
ATOM      2  C   UNL     1     -19.524  20.144  41.786  1.00  0.00     0.062 A 
ATOM      3  C   UNL     1     -20.175  21.229  41.189  1.00  0.00     0.158 A 
ATOM      4  C   UNL     1     -19.431  22.317  40.701  1.00  0.00     0.160 A 
ATOM      5  C   UNL     1     -18.029  22.297  40.823  1.00  0.00     0.051 A 
ATOM      6  C   UNL     1     -17.385  21.211  41.420  1.00  0.00     0.016 A 
ENDROOT
BRANCH   1   7
ATOM      7  C   UNL     1     -17.452  18.955  42.548  1.00  0.00     0.159 C 
ATOM      8  C   UNL     1     -17.017  17.758  41.757  1.00  0.00     0.093 C 
ATOM      9  O   UNL     1     -17.236  18.959  43.791  1.00  0.00    -0.295 OA
ENDBRANCH   1   7
BRANCH   3  10
ATOM     10  O   UNL     1     -21.567  21.206  41.090  1.00  0.00    -0.504 OA
ATOM     11  H   UNL     1     -22.099  22.011  40.780  1.00  0.00     0.293 HD
ENDBRANCH   3  10
BRANCH   4  12
ATOM     12  O   UNL     1     -20.110  23.392  40.107  1.00  0.00    -0.493 OA
ATOM     13  C   UNL     1     -19.492  24.398  39.310  1.00  0.00     0.278 C 
ENDBRANCH   4  12
TORSDOF 3
ENDMDL
MODEL 7
REMARK VINA RESULT:    -3.854     13.842     15.137
REMARK INTER + INTRA:          -4.530
REMARK INTER:                  -4.400
REMARK INTRA:                  -0.130
REMARK UNBOUND:                -0.113
REMARK SMILES COc1ccc(C(C)=O)cc1O
REMARK SMILES IDX 6 1 10 2 11 3 3 4 4 5 5 6 7 7 8 8 9 9 12 10 2 12 1 13
REMARK H PARENT 12 11
REMARK Flexibility Score: inf
ROOT
ATOM      1  C   UNL     1      -8.283  28.474  44.965  1.00  0.00     0.021 A 
ATOM      2  C   UNL     1      -7.112  27.982  45.569  1.00  0.00     0.062 A 
ATOM      3  C   UNL     1      -6.403  28.753  46.497  1.00  0.00     0.158 A 
ATOM      4  C   UNL     1      -6.855  30.039  46.842  1.00  0.00     0.160 A 
ATOM      5  C   UNL     1      -8.027  30.535  46.240  1.00  0.00     0.051 A 
ATOM      6  C   UNL     1      -8.730  29.762  45.314  1.00  0.00     0.016 A 
ENDROOT
BRANCH   1   7
ATOM      7  C   UNL     1      -9.021  27.638  43.981  1.00  0.00     0.159 C 
ATOM      8  C   UNL     1     -10.517  27.530  43.995  1.00  0.00     0.093 C 
ATOM      9  O   UNL     1      -8.384  26.994  43.103  1.00  0.00    -0.295 OA
ENDBRANCH   1   7
BRANCH   3  10
ATOM     10  O   UNL     1      -5.246  28.221  47.069  1.00  0.00    -0.504 OA
ATOM     11  H   UNL     1      -5.106  27.223  47.177  1.00  0.00     0.293 HD
ENDBRANCH   3  10
BRANCH   4  12
ATOM     12  O   UNL     1      -6.124  30.789  47.775  1.00  0.00    -0.493 OA
ATOM     13  C   UNL     1      -5.226  31.843  47.440  1.00  0.00     0.278 C 
ENDBRANCH   4  12
TORSDOF 3
ENDMDL
MODEL 8
REMARK VINA RESULT:    -3.795     14.975     16.407
REMARK INTER + INTRA:          -4.463
REMARK INTER:                  -4.358
REMARK INTRA:                  -0.104
REMARK UNBOUND:                -0.113
REMARK SMILES COc1ccc(C(C)=O)cc1O
REMARK SMILES IDX 6 1 10 2 11 3 3 4 4 5 5 6 7 7 8 8 9 9 12 10 2 12 1 13
REMARK H PARENT 12 11
REMARK Flexibility Score: inf
ROOT
ATOM      1  C   UNL     1      -6.816  31.098  46.858  1.00  0.00     0.021 A 
ATOM      2  C   UNL     1      -7.831  30.490  46.097  1.00  0.00     0.062 A 
ATOM      3  C   UNL     1      -7.714  29.162  45.672  1.00  0.00     0.158 A 
ATOM      4  C   UNL     1      -6.572  28.412  46.003  1.00  0.00     0.160 A 
ATOM      5  C   UNL     1      -5.554  29.017  46.764  1.00  0.00     0.051 A 
ATOM      6  C   UNL     1      -5.676  30.342  47.185  1.00  0.00     0.016 A 
ENDROOT
BRANCH   1   7
ATOM      7  C   UNL     1      -6.962  32.511  47.299  1.00  0.00     0.159 C 
ATOM      8  C   UNL     1      -7.640  33.543  46.448  1.00  0.00     0.093 C 
ATOM      9  O   UNL     1      -6.506  32.869  48.420  1.00  0.00    -0.295 OA
ENDBRANCH   1   7
BRANCH   3  10
ATOM     10  O   UNL     1      -8.748  28.604  44.919  1.00  0.00    -0.504 OA
ATOM     11  H   UNL     1      -9.273  29.142  44.239  1.00  0.00     0.293 HD
ENDBRANCH   3  10
BRANCH   4  12
ATOM     12  O   UNL     1      -6.482  27.083  45.563  1.00  0.00    -0.493 OA
ATOM     13  C   UNL     1      -6.247  25.964  46.413  1.00  0.00     0.278 C 
ENDBRANCH   4  12
TORSDOF 3
ENDMDL
