MODEL 1
REMARK VINA RESULT:    -7.316      0.000      0.000
REMARK INTER + INTRA:          -7.764
REMARK INTER:                  -7.744
REMARK INTRA:                  -0.020
REMARK UNBOUND:                -0.020
REMARK SMILES CC1=CC[C@@H]2[C@H]3[C@@H](C(C)C)CC[C@]2(C)[C@@H]13
REMARK SMILES IDX 1 1 2 2 3 3 4 4 5 5 6 6 15 7 13 8 12 9 11 10 7 11 14 12 8 13
REMARK SMILES IDX 9 14 10 15
REMARK H PARENT
REMARK Flexibility Score: inf
ROOT
ATOM      1  C   UNL     1      -2.381 -15.568  12.684  1.00  0.00     0.039 C 
ATOM      2  C   UNL     1      -2.327 -14.853  11.367  1.00  0.00    -0.073 C 
ATOM      3  C   UNL     1      -2.160 -13.506  11.280  1.00  0.00    -0.027 C 
ATOM      4  C   UNL     1      -2.118 -12.854   9.893  1.00  0.00     0.031 C 
ATOM      5  C   UNL     1      -2.334 -13.929   8.779  1.00  0.00     0.003 C 
ATOM      6  C   UNL     1      -3.531 -14.811   9.210  1.00  0.00     0.004 C 
ATOM      7  C   UNL     1      -2.516 -15.617  10.054  1.00  0.00     0.024 C 
ATOM      8  C   UNL     1      -1.451 -15.182   9.024  1.00  0.00    -0.022 C 
ATOM      9  C   UNL     1      -1.511 -16.152   7.810  1.00  0.00     0.008 C 
ATOM     10  C   UNL     1      -2.889 -16.130   7.103  1.00  0.00     0.005 C 
ATOM     11  C   UNL     1      -4.068 -15.691   8.035  1.00  0.00    -0.005 C 
ATOM     12  C   UNL     1       0.008 -14.993   9.505  1.00  0.00     0.012 C 
ENDROOT
BRANCH  11  13
ATOM     13  C   UNL     1      -5.202 -14.985   7.223  1.00  0.00    -0.014 C 
ATOM     14  C   UNL     1      -5.283 -15.486   5.768  1.00  0.00     0.007 C 
ATOM     15  C   UNL     1      -5.007 -13.457   7.208  1.00  0.00     0.007 C 
ENDBRANCH  11  13
TORSDOF 1
ENDMDL
MODEL 2
REMARK VINA RESULT:    -7.278      1.145      4.469
REMARK INTER + INTRA:          -7.724
REMARK INTER:                  -7.629
REMARK INTRA:                  -0.095
REMARK UNBOUND:                -0.020
REMARK SMILES CC1=CC[C@@H]2[C@H]3[C@@H](C(C)C)CC[C@]2(C)[C@@H]13
REMARK SMILES IDX 1 1 2 2 3 3 4 4 5 5 6 6 15 7 13 8 12 9 11 10 7 11 14 12 8 13
REMARK SMILES IDX 9 14 10 15
REMARK H PARENT
REMARK Flexibility Score: inf
ROOT
ATOM      1  C   UNL     1      -5.376 -15.566   5.595  1.00  0.00     0.039 C 
ATOM      2  C   UNL     1      -4.883 -15.831   6.986  1.00  0.00    -0.073 C 
ATOM      3  C   UNL     1      -5.705 -16.274   7.975  1.00  0.00    -0.027 C 
ATOM      4  C   UNL     1      -5.118 -16.518   9.370  1.00  0.00     0.031 C 
ATOM      5  C   UNL     1      -3.601 -16.143   9.397  1.00  0.00     0.003 C 
ATOM      6  C   UNL     1      -3.450 -14.770   8.696  1.00  0.00     0.004 C 
ATOM      7  C   UNL     1      -3.425 -15.555   7.365  1.00  0.00     0.024 C 
ATOM      8  C   UNL     1      -2.851 -16.737   8.175  1.00  0.00    -0.022 C 
ATOM      9  C   UNL     1      -1.314 -16.541   8.316  1.00  0.00     0.008 C 
ATOM     10  C   UNL     1      -0.952 -15.233   9.063  1.00  0.00     0.005 C 
ATOM     11  C   UNL     1      -2.051 -14.124   8.962  1.00  0.00    -0.005 C 
ATOM     12  C   UNL     1      -3.181 -18.178   7.716  1.00  0.00     0.012 C 
ENDROOT
BRANCH  11  13
ATOM     13  C   UNL     1      -2.045 -13.201  10.223  1.00  0.00    -0.014 C 
ATOM     14  C   UNL     1      -0.732 -12.406  10.363  1.00  0.00     0.007 C 
ATOM     15  C   UNL     1      -2.268 -14.015  11.512  1.00  0.00     0.007 C 
ENDBRANCH  11  13
TORSDOF 1
ENDMDL
MODEL 3
REMARK VINA RESULT:    -7.208      1.565      5.046
REMARK INTER + INTRA:          -7.649
REMARK INTER:                  -7.375
REMARK INTRA:                  -0.274
REMARK UNBOUND:                -0.020
REMARK SMILES CC1=CC[C@@H]2[C@H]3[C@@H](C(C)C)CC[C@]2(C)[C@@H]13
REMARK SMILES IDX 1 1 2 2 3 3 4 4 5 5 6 6 15 7 13 8 12 9 11 10 7 11 14 12 8 13
REMARK SMILES IDX 9 14 10 15
REMARK H PARENT
REMARK Flexibility Score: inf
ROOT
ATOM      1  C   UNL     1      -5.525 -16.507   8.611  1.00  0.00     0.039 C 
ATOM      2  C   UNL     1      -4.092 -16.287   8.993  1.00  0.00    -0.073 C 
ATOM      3  C   UNL     1      -3.061 -16.725   8.222  1.00  0.00    -0.027 C 
ATOM      4  C   UNL     1      -1.625 -16.459   8.688  1.00  0.00     0.031 C 
ATOM      5  C   UNL     1      -1.626 -15.729  10.069  1.00  0.00     0.003 C 
ATOM      6  C   UNL     1      -2.638 -16.464  10.982  1.00  0.00     0.004 C 
ATOM      7  C   UNL     1      -3.731 -15.600  10.313  1.00  0.00     0.024 C 
ATOM      8  C   UNL     1      -2.629 -14.544  10.081  1.00  0.00    -0.022 C 
ATOM      9  C   UNL     1      -2.474 -13.697  11.377  1.00  0.00     0.008 C 
ATOM     10  C   UNL     1      -2.060 -14.555  12.598  1.00  0.00     0.005 C 
ATOM     11  C   UNL     1      -2.480 -16.058  12.484  1.00  0.00    -0.005 C 
ATOM     12  C   UNL     1      -2.730 -13.630   8.836  1.00  0.00     0.012 C 
ENDROOT
BRANCH  11  13
ATOM     13  C   UNL     1      -1.488 -16.986  13.257  1.00  0.00    -0.014 C 
ATOM     14  C   UNL     1      -1.645 -18.468  12.865  1.00  0.00     0.007 C 
ATOM     15  C   UNL     1      -1.677 -16.857  14.781  1.00  0.00     0.007 C 
ENDBRANCH  11  13
TORSDOF 1
ENDMDL
MODEL 4
REMARK VINA RESULT:    -7.204      1.188      2.266
REMARK INTER + INTRA:          -7.645
REMARK INTER:                  -7.401
REMARK INTRA:                  -0.244
REMARK UNBOUND:                -0.020
REMARK SMILES CC1=CC[C@@H]2[C@H]3[C@@H](C(C)C)CC[C@]2(C)[C@@H]13
REMARK SMILES IDX 1 1 2 2 3 3 4 4 5 5 6 6 15 7 13 8 12 9 11 10 7 11 14 12 8 13
REMARK SMILES IDX 9 14 10 15
REMARK H PARENT
REMARK Flexibility Score: inf
ROOT
ATOM      1  C   UNL     1      -2.347 -14.141  11.969  1.00  0.00     0.039 C 
ATOM      2  C   UNL     1      -2.236 -14.774  10.614  1.00  0.00    -0.073 C 
ATOM      3  C   UNL     1      -1.055 -14.857   9.946  1.00  0.00    -0.027 C 
ATOM      4  C   UNL     1      -1.031 -15.519   8.564  1.00  0.00     0.031 C 
ATOM      5  C   UNL     1      -2.471 -15.960   8.146  1.00  0.00     0.003 C 
ATOM      6  C   UNL     1      -3.425 -14.777   8.449  1.00  0.00     0.004 C 
ATOM      7  C   UNL     1      -3.479 -15.310   9.898  1.00  0.00     0.024 C 
ATOM      8  C   UNL     1      -3.192 -16.705   9.302  1.00  0.00    -0.022 C 
ATOM      9  C   UNL     1      -4.534 -17.322   8.815  1.00  0.00     0.008 C 
ATOM     10  C   UNL     1      -5.213 -16.467   7.716  1.00  0.00     0.005 C 
ATOM     11  C   UNL     1      -4.818 -14.953   7.761  1.00  0.00    -0.005 C 
ATOM     12  C   UNL     1      -2.396 -17.724  10.153  1.00  0.00     0.012 C 
ENDROOT
BRANCH  11  13
ATOM     13  C   UNL     1      -4.873 -14.308   6.338  1.00  0.00    -0.014 C 
ATOM     14  C   UNL     1      -5.683 -12.997   6.319  1.00  0.00     0.007 C 
ATOM     15  C   UNL     1      -5.482 -15.279   5.309  1.00  0.00     0.007 C 
ENDBRANCH  11  13
TORSDOF 1
ENDMDL
MODEL 5
REMARK VINA RESULT:    -7.079      1.279      2.478
REMARK INTER + INTRA:          -7.513
REMARK INTER:                  -7.496
REMARK INTRA:                  -0.017
REMARK UNBOUND:                -0.020
REMARK SMILES CC1=CC[C@@H]2[C@H]3[C@@H](C(C)C)CC[C@]2(C)[C@@H]13
REMARK SMILES IDX 1 1 2 2 3 3 4 4 5 5 6 6 15 7 13 8 12 9 11 10 7 11 14 12 8 13
REMARK SMILES IDX 9 14 10 15
REMARK H PARENT
REMARK Flexibility Score: inf
ROOT
ATOM      1  C   UNL     1      -1.560 -12.785  10.634  1.00  0.00     0.039 C 
ATOM      2  C   UNL     1      -1.789 -14.064   9.887  1.00  0.00    -0.073 C 
ATOM      3  C   UNL     1      -0.796 -14.691   9.201  1.00  0.00    -0.027 C 
ATOM      4  C   UNL     1      -1.118 -15.995   8.461  1.00  0.00     0.031 C 
ATOM      5  C   UNL     1      -2.633 -16.349   8.613  1.00  0.00     0.003 C 
ATOM      6  C   UNL     1      -3.441 -15.056   8.340  1.00  0.00     0.004 C 
ATOM      7  C   UNL     1      -3.184 -14.692   9.820  1.00  0.00     0.024 C 
ATOM      8  C   UNL     1      -3.100 -16.210  10.087  1.00  0.00    -0.022 C 
ATOM      9  C   UNL     1      -4.543 -16.762  10.268  1.00  0.00     0.008 C 
ATOM     10  C   UNL     1      -5.419 -16.550   9.007  1.00  0.00     0.005 C 
ATOM     11  C   UNL     1      -4.960 -15.348   8.117  1.00  0.00    -0.005 C 
ATOM     12  C   UNL     1      -2.174 -16.712  11.221  1.00  0.00     0.012 C 
ENDROOT
BRANCH  11  13
ATOM     13  C   UNL     1      -5.312 -15.588   6.613  1.00  0.00    -0.014 C 
ATOM     14  C   UNL     1      -4.269 -16.469   5.899  1.00  0.00     0.007 C 
ATOM     15  C   UNL     1      -5.436 -14.255   5.850  1.00  0.00     0.007 C 
ENDBRANCH  11  13
TORSDOF 1
ENDMDL
MODEL 6
REMARK VINA RESULT:    -7.043      1.255      4.707
REMARK INTER + INTRA:          -7.475
REMARK INTER:                  -7.445
REMARK INTRA:                  -0.030
REMARK UNBOUND:                -0.020
REMARK SMILES CC1=CC[C@@H]2[C@H]3[C@@H](C(C)C)CC[C@]2(C)[C@@H]13
REMARK SMILES IDX 1 1 2 2 3 3 4 4 5 5 6 6 15 7 13 8 12 9 11 10 7 11 14 12 8 13
REMARK SMILES IDX 9 14 10 15
REMARK H PARENT
REMARK Flexibility Score: inf
ROOT
ATOM      1  C   UNL     1      -5.377 -16.069   7.008  1.00  0.00     0.039 C 
ATOM      2  C   UNL     1      -4.171 -16.366   7.848  1.00  0.00    -0.073 C 
ATOM      3  C   UNL     1      -3.569 -17.586   7.848  1.00  0.00    -0.027 C 
ATOM      4  C   UNL     1      -2.341 -17.804   8.739  1.00  0.00     0.031 C 
ATOM      5  C   UNL     1      -2.026 -16.512   9.560  1.00  0.00     0.003 C 
ATOM      6  C   UNL     1      -3.363 -16.002  10.154  1.00  0.00     0.004 C 
ATOM      7  C   UNL     1      -3.597 -15.307   8.793  1.00  0.00     0.024 C 
ATOM      8  C   UNL     1      -2.060 -15.248   8.659  1.00  0.00    -0.022 C 
ATOM      9  C   UNL     1      -1.543 -14.000   9.431  1.00  0.00     0.008 C 
ATOM     10  C   UNL     1      -1.886 -14.056  10.941  1.00  0.00     0.005 C 
ATOM     11  C   UNL     1      -3.140 -14.931  11.271  1.00  0.00    -0.005 C 
ATOM     12  C   UNL     1      -1.438 -15.315   7.244  1.00  0.00     0.012 C 
ENDROOT
BRANCH  11  13
ATOM     13  C   UNL     1      -3.035 -15.562  12.697  1.00  0.00    -0.014 C 
ATOM     14  C   UNL     1      -2.727 -14.512  13.782  1.00  0.00     0.007 C 
ATOM     15  C   UNL     1      -1.949 -16.653  12.745  1.00  0.00     0.007 C 
ENDBRANCH  11  13
TORSDOF 1
ENDMDL
MODEL 7
REMARK VINA RESULT:    -6.869      1.950      5.102
REMARK INTER + INTRA:          -7.291
REMARK INTER:                  -7.007
REMARK INTRA:                  -0.284
REMARK UNBOUND:                -0.020
REMARK SMILES CC1=CC[C@@H]2[C@H]3[C@@H](C(C)C)CC[C@]2(C)[C@@H]13
REMARK SMILES IDX 1 1 2 2 3 3 4 4 5 5 6 6 15 7 13 8 12 9 11 10 7 11 14 12 8 13
REMARK SMILES IDX 9 14 10 15
REMARK H PARENT
REMARK Flexibility Score: inf
ROOT
ATOM      1  C   UNL     1      -2.750 -19.102   7.668  1.00  0.00     0.039 C 
ATOM      2  C   UNL     1      -2.940 -17.743   8.273  1.00  0.00    -0.073 C 
ATOM      3  C   UNL     1      -2.499 -16.609   7.664  1.00  0.00    -0.027 C 
ATOM      4  C   UNL     1      -2.732 -15.261   8.354  1.00  0.00     0.031 C 
ATOM      5  C   UNL     1      -3.437 -15.468   9.734  1.00  0.00     0.003 C 
ATOM      6  C   UNL     1      -2.702 -16.621  10.461  1.00  0.00     0.004 C 
ATOM      7  C   UNL     1      -3.596 -17.584   9.647  1.00  0.00     0.024 C 
ATOM      8  C   UNL     1      -4.638 -16.445   9.613  1.00  0.00    -0.022 C 
ATOM      9  C   UNL     1      -5.458 -16.484  10.934  1.00  0.00     0.008 C 
ATOM     10  C   UNL     1      -4.571 -16.278  12.187  1.00  0.00     0.005 C 
ATOM     11  C   UNL     1      -3.077 -16.695  11.977  1.00  0.00    -0.005 C 
ATOM     12  C   UNL     1      -5.576 -16.337   8.387  1.00  0.00     0.012 C 
ENDROOT
BRANCH  11  13
ATOM     13  C   UNL     1      -2.118 -15.849  12.877  1.00  0.00    -0.014 C 
ATOM     14  C   UNL     1      -1.682 -16.608  14.145  1.00  0.00     0.007 C 
ATOM     15  C   UNL     1      -2.776 -14.521  13.298  1.00  0.00     0.007 C 
ENDBRANCH  11  13
TORSDOF 1
ENDMDL
MODEL 8
REMARK VINA RESULT:    -6.597      1.611      4.592
REMARK INTER + INTRA:          -7.003
REMARK INTER:                  -6.744
REMARK INTRA:                  -0.260
REMARK UNBOUND:                -0.020
REMARK SMILES CC1=CC[C@@H]2[C@H]3[C@@H](C(C)C)CC[C@]2(C)[C@@H]13
REMARK SMILES IDX 1 1 2 2 3 3 4 4 5 5 6 6 15 7 13 8 12 9 11 10 7 11 14 12 8 13
REMARK SMILES IDX 9 14 10 15
REMARK H PARENT
REMARK Flexibility Score: inf
ROOT
ATOM      1  C   UNL     1      -3.125 -19.125   7.628  1.00  0.00     0.039 C 
ATOM      2  C   UNL     1      -3.446 -17.697   7.955  1.00  0.00    -0.073 C 
ATOM      3  C   UNL     1      -3.932 -16.831   7.026  1.00  0.00    -0.027 C 
ATOM      4  C   UNL     1      -4.232 -15.388   7.445  1.00  0.00     0.031 C 
ATOM      5  C   UNL     1      -3.856 -15.166   8.946  1.00  0.00     0.003 C 
ATOM      6  C   UNL     1      -2.455 -15.788   9.169  1.00  0.00     0.004 C 
ATOM      7  C   UNL     1      -3.184 -17.138   9.356  1.00  0.00     0.024 C 
ATOM      8  C   UNL     1      -4.397 -16.315   9.840  1.00  0.00    -0.022 C 
ATOM      9  C   UNL     1      -4.204 -15.985  11.347  1.00  0.00     0.008 C 
ATOM     10  C   UNL     1      -2.927 -15.147  11.610  1.00  0.00     0.005 C 
ATOM     11  C   UNL     1      -1.817 -15.332  10.522  1.00  0.00    -0.005 C 
ATOM     12  C   UNL     1      -5.818 -16.868   9.576  1.00  0.00     0.012 C 
ENDROOT
BRANCH  11  13
ATOM     13  C   UNL     1      -0.947 -14.042  10.373  1.00  0.00    -0.014 C 
ATOM     14  C   UNL     1      -1.802 -12.775  10.183  1.00  0.00     0.007 C 
ATOM     15  C   UNL     1       0.027 -14.162   9.186  1.00  0.00     0.007 C 
ENDBRANCH  11  13
TORSDOF 1
ENDMDL
MODEL 9
REMARK VINA RESULT:    -6.131      1.906      3.212
REMARK INTER + INTRA:          -6.509
REMARK INTER:                  -6.274
REMARK INTRA:                  -0.235
REMARK UNBOUND:                -0.020
REMARK SMILES CC1=CC[C@@H]2[C@H]3[C@@H](C(C)C)CC[C@]2(C)[C@@H]13
REMARK SMILES IDX 1 1 2 2 3 3 4 4 5 5 6 6 15 7 13 8 12 9 11 10 7 11 14 12 8 13
REMARK SMILES IDX 9 14 10 15
REMARK H PARENT
REMARK Flexibility Score: inf
ROOT
ATOM      1  C   UNL     1      -1.256 -17.007  14.310  1.00  0.00     0.039 C 
ATOM      2  C   UNL     1      -2.221 -16.509  13.275  1.00  0.00    -0.073 C 
ATOM      3  C   UNL     1      -3.495 -16.149  13.585  1.00  0.00    -0.027 C 
ATOM      4  C   UNL     1      -4.416 -15.652  12.465  1.00  0.00     0.031 C 
ATOM      5  C   UNL     1      -3.677 -15.701  11.089  1.00  0.00     0.003 C 
ATOM      6  C   UNL     1      -2.970 -17.077  10.991  1.00  0.00     0.004 C 
ATOM      7  C   UNL     1      -1.818 -16.440  11.800  1.00  0.00     0.024 C 
ATOM      8  C   UNL     1      -2.253 -15.090  11.190  1.00  0.00    -0.022 C 
ATOM      9  C   UNL     1      -1.606 -14.951   9.782  1.00  0.00     0.008 C 
ATOM     10  C   UNL     1      -2.051 -16.075   8.813  1.00  0.00     0.005 C 
ATOM     11  C   UNL     1      -2.493 -17.391   9.535  1.00  0.00    -0.005 C 
ATOM     12  C   UNL     1      -2.044 -13.801  12.020  1.00  0.00     0.012 C 
ENDROOT
BRANCH  11  13
ATOM     13  C   UNL     1      -3.568 -18.163   8.703  1.00  0.00    -0.014 C 
ATOM     14  C   UNL     1      -2.938 -19.074   7.632  1.00  0.00     0.007 C 
ATOM     15  C   UNL     1      -4.543 -17.191   8.013  1.00  0.00     0.007 C 
ENDBRANCH  11  13
TORSDOF 1
ENDMDL
