MODEL 1
REMARK VINA RESULT:    -4.965      0.000      0.000
REMARK INTER + INTRA:          -5.352
REMARK INTER:                  -5.256
REMARK INTRA:                  -0.096
REMARK UNBOUND:                -0.096
REMARK SMILES C=C(C)[C@@H]1CC=C(C)C(=O)C1
REMARK SMILES IDX 8 1 7 2 6 3 5 4 4 5 11 6 9 7 10 8 2 9 1 10 3 11
REMARK H PARENT
REMARK Flexibility Score: inf
ROOT
ATOM      1  C   UNL     1      19.404 -10.244  69.240  1.00  0.00     0.048 C 
ATOM      2  C   UNL     1      18.579 -10.669  68.057  1.00  0.00    -0.012 C 
ATOM      3  C   UNL     1      17.944  -9.743  67.317  1.00  0.00    -0.019 C 
ATOM      4  C   UNL     1      17.121 -10.112  66.112  1.00  0.00     0.036 C 
ATOM      5  C   UNL     1      16.454 -11.488  66.297  1.00  0.00     0.025 C 
ATOM      6  C   UNL     1      17.512 -12.556  66.627  1.00  0.00     0.089 C 
ATOM      7  C   UNL     1      18.367 -12.112  67.783  1.00  0.00     0.158 C 
ATOM      8  O   UNL     1      18.932 -12.983  68.498  1.00  0.00    -0.295 OA
ENDROOT
BRANCH   5   9
ATOM      9  C   UNL     1      15.633 -11.878  65.074  1.00  0.00    -0.077 C 
ATOM     10  C   UNL     1      16.247 -12.225  63.933  1.00  0.00     0.008 C 
ATOM     11  C   UNL     1      14.124 -11.883  65.111  1.00  0.00     0.039 C 
ENDBRANCH   5   9
TORSDOF 1
ENDMDL
MODEL 2
REMARK VINA RESULT:    -4.955      1.919      3.044
REMARK INTER + INTRA:          -5.341
REMARK INTER:                  -5.244
REMARK INTRA:                  -0.096
REMARK UNBOUND:                -0.096
REMARK SMILES C=C(C)[C@@H]1CC=C(C)C(=O)C1
REMARK SMILES IDX 8 1 7 2 6 3 5 4 4 5 11 6 9 7 10 8 2 9 1 10 3 11
REMARK H PARENT
REMARK Flexibility Score: inf
ROOT
ATOM      1  C   UNL     1      20.780 -12.733  69.556  1.00  0.00     0.048 C 
ATOM      2  C   UNL     1      19.907 -12.127  68.492  1.00  0.00    -0.012 C 
ATOM      3  C   UNL     1      19.718 -12.778  67.331  1.00  0.00    -0.019 C 
ATOM      4  C   UNL     1      18.839 -12.225  66.241  1.00  0.00     0.036 C 
ATOM      5  C   UNL     1      18.882 -10.686  66.221  1.00  0.00     0.025 C 
ATOM      6  C   UNL     1      18.514 -10.123  67.606  1.00  0.00     0.089 C 
ATOM      7  C   UNL     1      19.357 -10.761  68.676  1.00  0.00     0.158 C 
ATOM      8  O   UNL     1      19.563 -10.134  69.750  1.00  0.00    -0.295 OA
ENDROOT
BRANCH   5   9
ATOM      9  C   UNL     1      17.981 -10.117  65.132  1.00  0.00    -0.077 C 
ATOM     10  C   UNL     1      16.650 -10.096  65.302  1.00  0.00     0.008 C 
ATOM     11  C   UNL     1      18.552  -9.570  63.847  1.00  0.00     0.039 C 
ENDBRANCH   5   9
TORSDOF 1
ENDMDL
MODEL 3
REMARK VINA RESULT:    -4.829      2.489      4.578
REMARK INTER + INTRA:          -5.208
REMARK INTER:                  -5.112
REMARK INTRA:                  -0.096
REMARK UNBOUND:                -0.096
REMARK SMILES C=C(C)[C@@H]1CC=C(C)C(=O)C1
REMARK SMILES IDX 8 1 7 2 6 3 5 4 4 5 11 6 9 7 10 8 2 9 1 10 3 11
REMARK H PARENT
REMARK Flexibility Score: inf
ROOT
ATOM      1  C   UNL     1      17.014  -9.309  62.602  1.00  0.00     0.048 C 
ATOM      2  C   UNL     1      17.426  -9.908  63.919  1.00  0.00    -0.012 C 
ATOM      3  C   UNL     1      16.538  -9.988  64.925  1.00  0.00    -0.019 C 
ATOM      4  C   UNL     1      16.893 -10.596  66.255  1.00  0.00     0.036 C 
ATOM      5  C   UNL     1      18.374 -10.349  66.600  1.00  0.00     0.025 C 
ATOM      6  C   UNL     1      19.280 -10.862  65.466  1.00  0.00     0.089 C 
ATOM      7  C   UNL     1      18.840 -10.297  64.143  1.00  0.00     0.158 C 
ATOM      8  O   UNL     1      19.684 -10.190  63.212  1.00  0.00    -0.295 OA
ENDROOT
BRANCH   5   9
ATOM      9  C   UNL     1      18.747 -10.977  67.937  1.00  0.00    -0.077 C 
ATOM     10  C   UNL     1      18.587 -12.295  68.131  1.00  0.00     0.008 C 
ATOM     11  C   UNL     1      19.299 -10.145  69.069  1.00  0.00     0.039 C 
ENDBRANCH   5   9
TORSDOF 1
ENDMDL
MODEL 4
REMARK VINA RESULT:    -4.806      2.514      5.179
REMARK INTER + INTRA:          -5.183
REMARK INTER:                  -5.096
REMARK INTRA:                  -0.087
REMARK UNBOUND:                -0.096
REMARK SMILES C=C(C)[C@@H]1CC=C(C)C(=O)C1
REMARK SMILES IDX 8 1 7 2 6 3 5 4 4 5 11 6 9 7 10 8 2 9 1 10 3 11
REMARK H PARENT
REMARK Flexibility Score: inf
ROOT
ATOM      1  C   UNL     1      14.159 -12.152  61.459  1.00  0.00     0.048 C 
ATOM      2  C   UNL     1      14.887 -12.067  62.772  1.00  0.00    -0.012 C 
ATOM      3  C   UNL     1      14.227 -11.690  63.881  1.00  0.00    -0.019 C 
ATOM      4  C   UNL     1      14.903 -11.608  65.223  1.00  0.00     0.036 C 
ATOM      5  C   UNL     1      16.381 -11.199  65.075  1.00  0.00     0.025 C 
ATOM      6  C   UNL     1      17.107 -12.160  64.116  1.00  0.00     0.089 C 
ATOM      7  C   UNL     1      16.355 -12.279  62.818  1.00  0.00     0.158 C 
ATOM      8  O   UNL     1      16.984 -12.597  61.773  1.00  0.00    -0.295 OA
ENDROOT
BRANCH   5   9
ATOM      9  C   UNL     1      17.078 -11.130  66.427  1.00  0.00    -0.077 C 
ATOM     10  C   UNL     1      17.287  -9.943  67.018  1.00  0.00     0.008 C 
ATOM     11  C   UNL     1      17.551 -12.378  67.132  1.00  0.00     0.039 C 
ENDBRANCH   5   9
TORSDOF 1
ENDMDL
MODEL 5
REMARK VINA RESULT:    -4.768      2.540      3.028
REMARK INTER + INTRA:          -5.143
REMARK INTER:                  -5.053
REMARK INTRA:                  -0.090
REMARK UNBOUND:                -0.096
REMARK SMILES C=C(C)[C@@H]1CC=C(C)C(=O)C1
REMARK SMILES IDX 8 1 7 2 6 3 5 4 4 5 11 6 9 7 10 8 2 9 1 10 3 11
REMARK H PARENT
REMARK Flexibility Score: inf
ROOT
ATOM      1  C   UNL     1      20.652 -10.055  65.995  1.00  0.00     0.048 C 
ATOM      2  C   UNL     1      19.202 -10.129  65.601  1.00  0.00    -0.012 C 
ATOM      3  C   UNL     1      18.254 -10.223  66.550  1.00  0.00    -0.019 C 
ATOM      4  C   UNL     1      16.789 -10.279  66.212  1.00  0.00     0.036 C 
ATOM      5  C   UNL     1      16.558 -10.999  64.870  1.00  0.00     0.025 C 
ATOM      6  C   UNL     1      17.387 -10.334  63.756  1.00  0.00     0.089 C 
ATOM      7  C   UNL     1      18.830 -10.221  64.168  1.00  0.00     0.158 C 
ATOM      8  O   UNL     1      19.719 -10.169  63.276  1.00  0.00    -0.295 OA
ENDROOT
BRANCH   5   9
ATOM      9  C   UNL     1      15.079 -11.046  64.510  1.00  0.00    -0.077 C 
ATOM     10  C   UNL     1      14.253 -11.882  65.158  1.00  0.00     0.008 C 
ATOM     11  C   UNL     1      14.506 -10.167  63.425  1.00  0.00     0.039 C 
ENDBRANCH   5   9
TORSDOF 1
ENDMDL
MODEL 6
REMARK VINA RESULT:    -4.730      2.083      2.438
REMARK INTER + INTRA:          -5.103
REMARK INTER:                  -5.007
REMARK INTRA:                  -0.096
REMARK UNBOUND:                -0.096
REMARK SMILES C=C(C)[C@@H]1CC=C(C)C(=O)C1
REMARK SMILES IDX 8 1 7 2 6 3 5 4 4 5 11 6 9 7 10 8 2 9 1 10 3 11
REMARK H PARENT
REMARK Flexibility Score: inf
ROOT
ATOM      1  C   UNL     1      19.357 -10.128  68.938  1.00  0.00     0.048 C 
ATOM      2  C   UNL     1      18.851 -10.131  67.522  1.00  0.00    -0.012 C 
ATOM      3  C   UNL     1      17.530 -10.065  67.283  1.00  0.00    -0.019 C 
ATOM      4  C   UNL     1      16.972 -10.045  65.885  1.00  0.00     0.036 C 
ATOM      5  C   UNL     1      17.851 -10.869  64.926  1.00  0.00     0.025 C 
ATOM      6  C   UNL     1      19.308 -10.374  64.978  1.00  0.00     0.089 C 
ATOM      7  C   UNL     1      19.800 -10.329  66.399  1.00  0.00     0.158 C 
ATOM      8  O   UNL     1      21.037 -10.427  66.622  1.00  0.00    -0.295 OA
ENDROOT
BRANCH   5   9
ATOM      9  C   UNL     1      17.304 -10.840  63.505  1.00  0.00    -0.077 C 
ATOM     10  C   UNL     1      17.212  -9.677  62.842  1.00  0.00     0.008 C 
ATOM     11  C   UNL     1      16.853 -12.102  62.811  1.00  0.00     0.039 C 
ENDBRANCH   5   9
TORSDOF 1
ENDMDL
MODEL 7
REMARK VINA RESULT:    -4.725      2.283      4.743
REMARK INTER + INTRA:          -5.098
REMARK INTER:                  -4.999
REMARK INTRA:                  -0.099
REMARK UNBOUND:                -0.096
REMARK SMILES C=C(C)[C@@H]1CC=C(C)C(=O)C1
REMARK SMILES IDX 8 1 7 2 6 3 5 4 4 5 11 6 9 7 10 8 2 9 1 10 3 11
REMARK H PARENT
REMARK Flexibility Score: inf
ROOT
ATOM      1  C   UNL     1      13.880 -11.851  64.637  1.00  0.00     0.048 C 
ATOM      2  C   UNL     1      15.219 -11.457  65.198  1.00  0.00    -0.012 C 
ATOM      3  C   UNL     1      15.542 -11.792  66.459  1.00  0.00    -0.019 C 
ATOM      4  C   UNL     1      16.875 -11.440  67.062  1.00  0.00     0.036 C 
ATOM      5  C   UNL     1      17.402 -10.106  66.500  1.00  0.00     0.025 C 
ATOM      6  C   UNL     1      17.455 -10.158  64.962  1.00  0.00     0.089 C 
ATOM      7  C   UNL     1      16.128 -10.595  64.403  1.00  0.00     0.158 C 
ATOM      8  O   UNL     1      15.812 -10.248  63.232  1.00  0.00    -0.295 OA
ENDROOT
BRANCH   5   9
ATOM      9  C   UNL     1      18.760  -9.750  67.091  1.00  0.00    -0.077 C 
ATOM     10  C   UNL     1      19.763  -9.359  66.289  1.00  0.00     0.008 C 
ATOM     11  C   UNL     1      19.014  -9.827  68.576  1.00  0.00     0.039 C 
ENDBRANCH   5   9
TORSDOF 1
ENDMDL
MODEL 8
REMARK VINA RESULT:    -4.607      2.535      4.536
REMARK INTER + INTRA:          -4.972
REMARK INTER:                  -4.874
REMARK INTRA:                  -0.098
REMARK UNBOUND:                -0.096
REMARK SMILES C=C(C)[C@@H]1CC=C(C)C(=O)C1
REMARK SMILES IDX 8 1 7 2 6 3 5 4 4 5 11 6 9 7 10 8 2 9 1 10 3 11
REMARK H PARENT
REMARK Flexibility Score: inf
ROOT
ATOM      1  C   UNL     1      14.443 -11.508  64.629  1.00  0.00     0.048 C 
ATOM      2  C   UNL     1      15.863 -11.023  64.726  1.00  0.00    -0.012 C 
ATOM      3  C   UNL     1      16.518 -10.641  63.615  1.00  0.00    -0.019 C 
ATOM      4  C   UNL     1      17.932 -10.129  63.659  1.00  0.00     0.036 C 
ATOM      5  C   UNL     1      18.733 -10.810  64.785  1.00  0.00     0.025 C 
ATOM      6  C   UNL     1      18.011 -10.639  66.134  1.00  0.00     0.089 C 
ATOM      7  C   UNL     1      16.577 -11.083  66.025  1.00  0.00     0.158 C 
ATOM      8  O   UNL     1      15.977 -11.476  67.062  1.00  0.00    -0.295 OA
ENDROOT
BRANCH   5   9
ATOM      9  C   UNL     1      20.162 -10.285  64.849  1.00  0.00    -0.077 C 
ATOM     10  C   UNL     1      20.802 -10.215  66.026  1.00  0.00     0.008 C 
ATOM     11  C   UNL     1      20.889  -9.833  63.606  1.00  0.00     0.039 C 
ENDBRANCH   5   9
TORSDOF 1
ENDMDL
MODEL 9
REMARK VINA RESULT:    -4.583      2.103      2.795
REMARK INTER + INTRA:          -4.947
REMARK INTER:                  -4.856
REMARK INTRA:                  -0.091
REMARK UNBOUND:                -0.096
REMARK SMILES C=C(C)[C@@H]1CC=C(C)C(=O)C1
REMARK SMILES IDX 8 1 7 2 6 3 5 4 4 5 11 6 9 7 10 8 2 9 1 10 3 11
REMARK H PARENT
REMARK Flexibility Score: inf
ROOT
ATOM      1  C   UNL     1      20.248  -9.643  65.352  1.00  0.00     0.048 C 
ATOM      2  C   UNL     1      18.851 -10.083  65.011  1.00  0.00    -0.012 C 
ATOM      3  C   UNL     1      18.439 -10.071  63.732  1.00  0.00    -0.019 C 
ATOM      4  C   UNL     1      17.059 -10.521  63.334  1.00  0.00     0.036 C 
ATOM      5  C   UNL     1      16.033 -10.204  64.438  1.00  0.00     0.025 C 
ATOM      6  C   UNL     1      16.481 -10.818  65.776  1.00  0.00     0.089 C 
ATOM      7  C   UNL     1      17.894 -10.413  66.097  1.00  0.00     0.158 C 
ATOM      8  O   UNL     1      18.267 -10.390  67.301  1.00  0.00    -0.295 OA
ENDROOT
BRANCH   5   9
ATOM      9  C   UNL     1      14.635 -10.671  64.052  1.00  0.00    -0.077 C 
ATOM     10  C   UNL     1      13.971 -10.059  63.059  1.00  0.00     0.008 C 
ATOM     11  C   UNL     1      13.965 -11.818  64.767  1.00  0.00     0.039 C 
ENDBRANCH   5   9
TORSDOF 1
ENDMDL
