MODEL 1
REMARK VINA RESULT:    -3.651      0.000      0.000
REMARK INTER + INTRA:          -4.653
REMARK INTER:                  -4.505
REMARK INTRA:                  -0.149
REMARK UNBOUND:                -0.149
REMARK SMILES CCCCC=CC(C)=O
REMARK SMILES IDX 4 1 3 2 2 3 1 4 5 5 6 6 7 7 9 8 8 9
REMARK H PARENT
REMARK Flexibility Score: inf
ROOT
ATOM      1  C   UNL     1       3.491  14.991  22.874  1.00  0.00     0.027 C 
ENDROOT
BRANCH   1   2
ATOM      2  C   UNL     1       2.501  16.162  22.972  1.00  0.00     0.004 C 
BRANCH   2   3
ATOM      3  C   UNL     1       1.639  16.313  21.710  1.00  0.00    -0.003 C 
ATOM      4  C   UNL     1       0.224  16.801  22.016  1.00  0.00     0.004 C 
ENDBRANCH   2   3
ENDBRANCH   1   2
BRANCH   1   5
ATOM      5  C   UNL     1       3.368  14.079  24.061  1.00  0.00    -0.023 C 
ATOM      6  C   UNL     1       2.745  12.899  23.974  1.00  0.00     0.042 C 
BRANCH   6   7
ATOM      7  C   UNL     1       2.603  11.993  25.130  1.00  0.00     0.152 C 
ATOM      8  O   UNL     1       3.619  11.514  25.703  1.00  0.00    -0.295 OA
ATOM      9  C   UNL     1       1.239  11.638  25.627  1.00  0.00     0.093 C 
ENDBRANCH   6   7
ENDBRANCH   1   5
TORSDOF 4
ENDMDL
MODEL 2
REMARK VINA RESULT:    -3.557      1.056      1.576
REMARK INTER + INTRA:          -4.538
REMARK INTER:                  -4.340
REMARK INTRA:                  -0.197
REMARK UNBOUND:                -0.149
REMARK SMILES CCCCC=CC(C)=O
REMARK SMILES IDX 4 1 3 2 2 3 1 4 5 5 6 6 7 7 9 8 8 9
REMARK H PARENT
REMARK Flexibility Score: inf
ROOT
ATOM      1  C   UNL     1       3.122  16.171  22.170  1.00  0.00     0.027 C 
ENDROOT
BRANCH   1   2
ATOM      2  C   UNL     1       2.376  16.151  20.827  1.00  0.00     0.004 C 
BRANCH   2   3
ATOM      3  C   UNL     1       1.201  17.140  20.792  1.00  0.00    -0.003 C 
ATOM      4  C   UNL     1       0.203  16.913  21.928  1.00  0.00     0.004 C 
ENDBRANCH   2   3
ENDBRANCH   1   2
BRANCH   1   5
ATOM      5  C   UNL     1       3.439  14.778  22.633  1.00  0.00    -0.023 C 
ATOM      6  C   UNL     1       3.202  14.389  23.891  1.00  0.00     0.042 C 
BRANCH   6   7
ATOM      7  C   UNL     1       3.517  13.030  24.370  1.00  0.00     0.152 C 
ATOM      8  O   UNL     1       4.675  12.548  24.229  1.00  0.00    -0.295 OA
ATOM      9  C   UNL     1       2.453  12.212  25.026  1.00  0.00     0.093 C 
ENDBRANCH   6   7
ENDBRANCH   1   5
TORSDOF 4
ENDMDL
MODEL 3
REMARK VINA RESULT:    -3.554      7.582      7.887
REMARK INTER + INTRA:          -4.533
REMARK INTER:                  -4.377
REMARK INTRA:                  -0.156
REMARK UNBOUND:                -0.149
REMARK SMILES CCCCC=CC(C)=O
REMARK SMILES IDX 4 1 3 2 2 3 1 4 5 5 6 6 7 7 9 8 8 9
REMARK H PARENT
REMARK Flexibility Score: inf
ROOT
ATOM      1  C   UNL     1       2.624  10.113  16.267  1.00  0.00     0.027 C 
ENDROOT
BRANCH   1   2
ATOM      2  C   UNL     1       1.801  10.904  15.239  1.00  0.00     0.004 C 
BRANCH   2   3
ATOM      3  C   UNL     1       1.557  12.357  15.672  1.00  0.00    -0.003 C 
ATOM      4  C   UNL     1       0.348  12.986  14.978  1.00  0.00     0.004 C 
ENDBRANCH   2   3
ENDBRANCH   1   2
BRANCH   1   5
ATOM      5  C   UNL     1       1.745   9.211  17.085  1.00  0.00    -0.023 C 
ATOM      6  C   UNL     1       2.004   8.964  18.373  1.00  0.00     0.042 C 
BRANCH   6   7
ATOM      7  C   UNL     1       1.160   8.072  19.191  1.00  0.00     0.152 C 
ATOM      8  O   UNL     1       1.679   7.269  20.014  1.00  0.00    -0.295 OA
ATOM      9  C   UNL     1      -0.326   8.117  19.042  1.00  0.00     0.093 C 
ENDBRANCH   6   7
ENDBRANCH   1   5
TORSDOF 4
ENDMDL
MODEL 4
REMARK VINA RESULT:    -3.551      7.034      7.572
REMARK INTER + INTRA:          -4.531
REMARK INTER:                  -4.258
REMARK INTRA:                  -0.273
REMARK UNBOUND:                -0.149
REMARK SMILES CCCCC=CC(C)=O
REMARK SMILES IDX 4 1 3 2 2 3 1 4 5 5 6 6 7 7 9 8 8 9
REMARK H PARENT
REMARK Flexibility Score: inf
ROOT
ATOM      1  C   UNL     1      -0.049   8.450  18.614  1.00  0.00     0.027 C 
ENDROOT
BRANCH   1   2
ATOM      2  C   UNL     1       0.944   9.557  18.226  1.00  0.00     0.004 C 
BRANCH   2   3
ATOM      3  C   UNL     1       1.666   9.263  16.903  1.00  0.00    -0.003 C 
ATOM      4  C   UNL     1       3.105   8.789  17.107  1.00  0.00     0.004 C 
ENDBRANCH   2   3
ENDBRANCH   1   2
BRANCH   1   5
ATOM      5  C   UNL     1       0.168   8.002  20.031  1.00  0.00    -0.023 C 
ATOM      6  C   UNL     1       1.375   7.625  20.467  1.00  0.00     0.042 C 
BRANCH   6   7
ATOM      7  C   UNL     1       1.607   7.169  21.851  1.00  0.00     0.152 C 
ATOM      8  O   UNL     1       2.779   7.003  22.287  1.00  0.00    -0.295 OA
ATOM      9  C   UNL     1       0.442   6.899  22.746  1.00  0.00     0.093 C 
ENDBRANCH   6   7
ENDBRANCH   1   5
TORSDOF 4
ENDMDL
MODEL 5
REMARK VINA RESULT:    -3.551      2.753      5.153
REMARK INTER + INTRA:          -4.530
REMARK INTER:                  -4.368
REMARK INTRA:                  -0.162
REMARK UNBOUND:                -0.149
REMARK SMILES CCCCC=CC(C)=O
REMARK SMILES IDX 4 1 3 2 2 3 1 4 5 5 6 6 7 7 9 8 8 9
REMARK H PARENT
REMARK Flexibility Score: inf
ROOT
ATOM      1  C   UNL     1       3.575  14.558  23.745  1.00  0.00     0.027 C 
ENDROOT
BRANCH   1   2
ATOM      2  C   UNL     1       2.880  13.195  23.597  1.00  0.00     0.004 C 
BRANCH   2   3
ATOM      3  C   UNL     1       3.115  12.280  24.808  1.00  0.00    -0.003 C 
ATOM      4  C   UNL     1       1.813  11.799  25.447  1.00  0.00     0.004 C 
ENDBRANCH   2   3
ENDBRANCH   1   2
BRANCH   1   5
ATOM      5  C   UNL     1       2.750  15.654  23.133  1.00  0.00    -0.023 C 
ATOM      6  C   UNL     1       2.201  15.522  21.921  1.00  0.00     0.042 C 
BRANCH   6   7
ATOM      7  C   UNL     1       1.399  16.591  21.297  1.00  0.00     0.152 C 
ATOM      8  O   UNL     1       1.782  17.148  20.232  1.00  0.00    -0.295 OA
ATOM      9  C   UNL     1       0.118  17.022  21.934  1.00  0.00     0.093 C 
ENDBRANCH   6   7
ENDBRANCH   1   5
TORSDOF 4
ENDMDL
MODEL 6
REMARK VINA RESULT:    -3.542      8.239      9.587
REMARK INTER + INTRA:          -4.519
REMARK INTER:                  -4.359
REMARK INTRA:                  -0.160
REMARK UNBOUND:                -0.149
REMARK SMILES CCCCC=CC(C)=O
REMARK SMILES IDX 4 1 3 2 2 3 1 4 5 5 6 6 7 7 9 8 8 9
REMARK H PARENT
REMARK Flexibility Score: inf
ROOT
ATOM      1  C   UNL     1       2.092   9.531  16.458  1.00  0.00     0.027 C 
ENDROOT
BRANCH   1   2
ATOM      2  C   UNL     1       1.338   9.816  17.766  1.00  0.00     0.004 C 
BRANCH   2   3
ATOM      3  C   UNL     1       1.219   8.573  18.660  1.00  0.00    -0.003 C 
ATOM      4  C   UNL     1      -0.233   8.176  18.931  1.00  0.00     0.004 C 
ENDBRANCH   2   3
ENDBRANCH   1   2
BRANCH   1   5
ATOM      5  C   UNL     1       1.849  10.614  15.446  1.00  0.00    -0.023 C 
ATOM      6  C   UNL     1       1.416  11.826  15.811  1.00  0.00     0.042 C 
BRANCH   6   7
ATOM      7  C   UNL     1       1.160  12.900  14.833  1.00  0.00     0.152 C 
ATOM      8  O   UNL     1       2.090  13.349  14.109  1.00  0.00    -0.295 OA
ATOM      9  C   UNL     1      -0.217  13.465  14.700  1.00  0.00     0.093 C 
ENDBRANCH   6   7
ENDBRANCH   1   5
TORSDOF 4
ENDMDL
MODEL 7
REMARK VINA RESULT:    -3.522      7.326      8.753
REMARK INTER + INTRA:          -4.494
REMARK INTER:                  -4.250
REMARK INTRA:                  -0.244
REMARK UNBOUND:                -0.149
REMARK SMILES CCCCC=CC(C)=O
REMARK SMILES IDX 4 1 3 2 2 3 1 4 5 5 6 6 7 7 9 8 8 9
REMARK H PARENT
REMARK Flexibility Score: inf
ROOT
ATOM      1  C   UNL     1      -0.035   8.065  18.977  1.00  0.00     0.027 C 
ENDROOT
BRANCH   1   2
ATOM      2  C   UNL     1      -0.043   8.333  20.491  1.00  0.00     0.004 C 
BRANCH   2   3
ATOM      3  C   UNL     1       1.364   8.293  21.103  1.00  0.00    -0.003 C 
ATOM      4  C   UNL     1       2.001   6.905  21.029  1.00  0.00     0.004 C 
ENDBRANCH   2   3
ENDBRANCH   1   2
BRANCH   1   5
ATOM      5  C   UNL     1       0.685   9.157  18.239  1.00  0.00    -0.023 C 
ATOM      6  C   UNL     1       1.791   8.907  17.529  1.00  0.00     0.042 C 
BRANCH   6   7
ATOM      7  C   UNL     1       2.520   9.967  16.807  1.00  0.00     0.152 C 
ATOM      8  O   UNL     1       3.633  10.386  17.228  1.00  0.00    -0.295 OA
ATOM      9  C   UNL     1       1.933  10.552  15.564  1.00  0.00     0.093 C 
ENDBRANCH   6   7
ENDBRANCH   1   5
TORSDOF 4
ENDMDL
MODEL 8
REMARK VINA RESULT:    -3.359      7.410      8.364
REMARK INTER + INTRA:          -4.293
REMARK INTER:                  -4.115
REMARK INTRA:                  -0.178
REMARK UNBOUND:                -0.149
REMARK SMILES CCCCC=CC(C)=O
REMARK SMILES IDX 4 1 3 2 2 3 1 4 5 5 6 6 7 7 9 8 8 9
REMARK H PARENT
REMARK Flexibility Score: inf
ROOT
ATOM      1  C   UNL     1       0.230   8.164  18.860  1.00  0.00     0.027 C 
ENDROOT
BRANCH   1   2
ATOM      2  C   UNL     1      -0.497   8.637  20.128  1.00  0.00     0.004 C 
BRANCH   2   3
ATOM      3  C   UNL     1      -0.843  10.133  20.085  1.00  0.00    -0.003 C 
ATOM      4  C   UNL     1      -2.283  10.420  20.512  1.00  0.00     0.004 C 
ENDBRANCH   2   3
ENDBRANCH   1   2
BRANCH   1   5
ATOM      5  C   UNL     1       1.065   9.265  18.272  1.00  0.00    -0.023 C 
ATOM      6  C   UNL     1       1.713   9.107  17.113  1.00  0.00     0.042 C 
BRANCH   6   7
ATOM      7  C   UNL     1       2.548  10.172  16.524  1.00  0.00     0.152 C 
ATOM      8  O   UNL     1       3.610  10.546  17.092  1.00  0.00    -0.295 OA
ATOM      9  C   UNL     1       2.130  10.815  15.242  1.00  0.00     0.093 C 
ENDBRANCH   6   7
ENDBRANCH   1   5
TORSDOF 4
ENDMDL
MODEL 9
REMARK VINA RESULT:    -3.234      8.717     10.069
REMARK INTER + INTRA:          -4.139
REMARK INTER:                  -4.044
REMARK INTRA:                  -0.095
REMARK UNBOUND:                -0.149
REMARK SMILES CCCCC=CC(C)=O
REMARK SMILES IDX 4 1 3 2 2 3 1 4 5 5 6 6 7 7 9 8 8 9
REMARK H PARENT
REMARK Flexibility Score: inf
ROOT
ATOM      1  C   UNL     1       1.752  10.766  16.487  1.00  0.00     0.027 C 
ENDROOT
BRANCH   1   2
ATOM      2  C   UNL     1       1.732   9.242  16.683  1.00  0.00     0.004 C 
BRANCH   2   3
ATOM      3  C   UNL     1       1.645   8.839  18.162  1.00  0.00    -0.003 C 
ATOM      4  C   UNL     1       0.213   8.552  18.614  1.00  0.00     0.004 C 
ENDBRANCH   2   3
ENDBRANCH   1   2
BRANCH   1   5
ATOM      5  C   UNL     1       2.444  11.138  15.208  1.00  0.00    -0.023 C 
ATOM      6  C   UNL     1       3.295  12.168  15.148  1.00  0.00     0.042 C 
BRANCH   6   7
ATOM      7  C   UNL     1       3.976  12.558  13.899  1.00  0.00     0.152 C 
ATOM      8  O   UNL     1       4.162  11.719  12.976  1.00  0.00    -0.295 OA
ATOM      9  C   UNL     1       4.454  13.963  13.726  1.00  0.00     0.093 C 
ENDBRANCH   6   7
ENDBRANCH   1   5
TORSDOF 4
ENDMDL
