MODEL 1
REMARK VINA RESULT:    -2.542      0.000      0.000
REMARK INTER + INTRA:          -2.785
REMARK INTER:                  -2.691
REMARK INTRA:                  -0.094
REMARK UNBOUND:                -0.094
REMARK SMILES O=C([O-])[C@@H]1CCC[NH2+]1
REMARK SMILES IDX 4 1 8 2 7 3 5 4 6 5 2 8 1 9 3 10
REMARK H PARENT 8 6 8 7
REMARK Flexibility Score: inf
ROOT
ATOM      1  C   UNL     1     -47.935 -48.743  70.399  1.00  0.00     0.229 C 
ATOM      2  N   UNL     1     -46.849 -49.715  70.582  1.00  0.00    -0.339 N 
ATOM      3  C   UNL     1     -45.598 -48.956  70.697  1.00  0.00     0.261 C 
ATOM      4  C   UNL     1     -47.457 -47.435  71.016  1.00  0.00     0.077 C 
ATOM      5  C   UNL     1     -45.947 -47.484  70.906  1.00  0.00     0.068 C 
ATOM      6  H   UNL     1     -46.796 -50.405  69.795  1.00  0.00     0.346 HD
ATOM      7  H   UNL     1     -47.011 -50.243  71.472  1.00  0.00     0.346 HD
ENDROOT
BRANCH   1   8
ATOM      8  C   UNL     1     -48.269 -48.560  68.938  1.00  0.00     0.099 C 
ATOM      9  O   UNL     1     -48.355 -49.562  68.180  1.00  0.00    -0.544 OA
ATOM     10  O   UNL     1     -48.506 -47.291  68.422  1.00  0.00    -0.544 OA
ENDBRANCH   1   8
TORSDOF 1
ENDMDL
MODEL 2
REMARK VINA RESULT:    -2.478      1.981      2.438
REMARK INTER + INTRA:          -2.717
REMARK INTER:                  -2.664
REMARK INTRA:                  -0.053
REMARK UNBOUND:                -0.094
REMARK SMILES O=C([O-])[C@@H]1CCC[NH2+]1
REMARK SMILES IDX 4 1 8 2 7 3 5 4 6 5 2 8 1 9 3 10
REMARK H PARENT 8 6 8 7
REMARK Flexibility Score: inf
ROOT
ATOM      1  C   UNL     1     -47.505 -49.300  69.728  1.00  0.00     0.229 C 
ATOM      2  N   UNL     1     -48.045 -48.024  69.243  1.00  0.00    -0.339 N 
ATOM      3  C   UNL     1     -47.605 -46.980  70.176  1.00  0.00     0.261 C 
ATOM      4  C   UNL     1     -46.267 -48.964  70.549  1.00  0.00     0.077 C 
ATOM      5  C   UNL     1     -46.518 -47.565  71.073  1.00  0.00     0.068 C 
ATOM      6  H   UNL     1     -49.090 -48.038  69.165  1.00  0.00     0.346 HD
ATOM      7  H   UNL     1     -47.648 -47.823  68.295  1.00  0.00     0.346 HD
ENDROOT
BRANCH   1   8
ATOM      8  C   UNL     1     -48.520 -50.046  70.562  1.00  0.00     0.099 C 
ATOM      9  O   UNL     1     -48.216 -51.148  71.090  1.00  0.00    -0.544 OA
ATOM     10  O   UNL     1     -49.786 -49.512  70.773  1.00  0.00    -0.544 OA
ENDBRANCH   1   8
TORSDOF 1
ENDMDL
MODEL 3
REMARK VINA RESULT:    -2.466      1.983      2.513
REMARK INTER + INTRA:          -2.705
REMARK INTER:                  -2.617
REMARK INTRA:                  -0.088
REMARK UNBOUND:                -0.094
REMARK SMILES O=C([O-])[C@@H]1CCC[NH2+]1
REMARK SMILES IDX 4 1 8 2 7 3 5 4 6 5 2 8 1 9 3 10
REMARK H PARENT 8 6 8 7
REMARK Flexibility Score: inf
ROOT
ATOM      1  C   UNL     1     -47.665 -48.343  69.830  1.00  0.00     0.229 C 
ATOM      2  N   UNL     1     -47.474 -47.031  70.461  1.00  0.00    -0.339 N 
ATOM      3  C   UNL     1     -46.198 -47.075  71.184  1.00  0.00     0.261 C 
ATOM      4  C   UNL     1     -46.277 -48.942  69.643  1.00  0.00     0.077 C 
ATOM      5  C   UNL     1     -45.436 -48.320  70.738  1.00  0.00     0.068 C 
ATOM      6  H   UNL     1     -48.260 -46.781  71.107  1.00  0.00     0.346 HD
ATOM      7  H   UNL     1     -47.418 -46.299  69.714  1.00  0.00     0.346 HD
ENDROOT
BRANCH   1   8
ATOM      8  C   UNL     1     -48.529 -49.242  70.683  1.00  0.00     0.099 C 
ATOM      9  O   UNL     1     -49.612 -48.809  71.159  1.00  0.00    -0.544 OA
ATOM     10  O   UNL     1     -48.151 -50.556  70.929  1.00  0.00    -0.544 OA
ENDBRANCH   1   8
TORSDOF 1
ENDMDL
MODEL 4
REMARK VINA RESULT:    -2.373      2.512      3.031
REMARK INTER + INTRA:          -2.606
REMARK INTER:                  -2.511
REMARK INTRA:                  -0.095
REMARK UNBOUND:                -0.094
REMARK SMILES O=C([O-])[C@@H]1CCC[NH2+]1
REMARK SMILES IDX 4 1 8 2 7 3 5 4 6 5 2 8 1 9 3 10
REMARK H PARENT 8 6 8 7
REMARK Flexibility Score: inf
ROOT
ATOM      1  C   UNL     1     -46.457 -48.009  69.721  1.00  0.00     0.229 C 
ATOM      2  N   UNL     1     -47.105 -49.325  69.650  1.00  0.00    -0.339 N 
ATOM      3  C   UNL     1     -48.203 -49.325  70.624  1.00  0.00     0.261 C 
ATOM      4  C   UNL     1     -47.505 -47.036  70.246  1.00  0.00     0.077 C 
ATOM      5  C   UNL     1     -48.441 -47.887  71.079  1.00  0.00     0.068 C 
ATOM      6  H   UNL     1     -46.436 -50.109  69.843  1.00  0.00     0.346 HD
ATOM      7  H   UNL     1     -47.500 -49.459  68.690  1.00  0.00     0.346 HD
ENDROOT
BRANCH   1   8
ATOM      8  C   UNL     1     -45.248 -48.040  70.626  1.00  0.00     0.099 C 
ATOM      9  O   UNL     1     -44.594 -49.106  70.769  1.00  0.00    -0.544 OA
ATOM     10  O   UNL     1     -44.834 -46.889  71.288  1.00  0.00    -0.544 OA
ENDBRANCH   1   8
TORSDOF 1
ENDMDL
MODEL 5
REMARK VINA RESULT:    -2.370      2.238      2.771
REMARK INTER + INTRA:          -2.603
REMARK INTER:                  -2.525
REMARK INTRA:                  -0.078
REMARK UNBOUND:                -0.094
REMARK SMILES O=C([O-])[C@@H]1CCC[NH2+]1
REMARK SMILES IDX 4 1 8 2 7 3 5 4 6 5 2 8 1 9 3 10
REMARK H PARENT 8 6 8 7
REMARK Flexibility Score: inf
ROOT
ATOM      1  C   UNL     1     -46.978 -49.068  69.623  1.00  0.00     0.229 C 
ATOM      2  N   UNL     1     -48.271 -48.478  69.993  1.00  0.00    -0.339 N 
ATOM      3  C   UNL     1     -48.019 -47.514  71.070  1.00  0.00     0.261 C 
ATOM      4  C   UNL     1     -45.911 -48.052  70.006  1.00  0.00     0.077 C 
ATOM      5  C   UNL     1     -46.515 -47.269  71.153  1.00  0.00     0.068 C 
ATOM      6  H   UNL     1     -48.967 -49.202  70.295  1.00  0.00     0.346 HD
ATOM      7  H   UNL     1     -48.664 -47.971  69.165  1.00  0.00     0.346 HD
ENDROOT
BRANCH   1   8
ATOM      8  C   UNL     1     -46.751 -50.383  70.332  1.00  0.00     0.099 C 
ATOM      9  O   UNL     1     -47.713 -50.974  70.888  1.00  0.00    -0.544 OA
ATOM     10  O   UNL     1     -45.487 -50.960  70.356  1.00  0.00    -0.544 OA
ENDBRANCH   1   8
TORSDOF 1
ENDMDL
MODEL 6
REMARK VINA RESULT:    -2.331     11.125     11.511
REMARK INTER + INTRA:          -2.562
REMARK INTER:                  -2.466
REMARK INTRA:                  -0.096
REMARK UNBOUND:                -0.094
REMARK SMILES O=C([O-])[C@@H]1CCC[NH2+]1
REMARK SMILES IDX 4 1 8 2 7 3 5 4 6 5 2 8 1 9 3 10
REMARK H PARENT 8 6 8 7
REMARK Flexibility Score: inf
ROOT
ATOM      1  C   UNL     1     -49.380 -36.655  72.244  1.00  0.00     0.229 C 
ATOM      2  N   UNL     1     -49.159 -37.195  73.592  1.00  0.00    -0.339 N 
ATOM      3  C   UNL     1     -47.998 -38.089  73.520  1.00  0.00     0.261 C 
ATOM      4  C   UNL     1     -48.037 -36.712  71.528  1.00  0.00     0.077 C 
ATOM      5  C   UNL     1     -47.296 -37.858  72.185  1.00  0.00     0.068 C 
ATOM      6  H   UNL     1     -49.999 -37.703  73.960  1.00  0.00     0.346 HD
ATOM      7  H   UNL     1     -48.942 -36.405  74.244  1.00  0.00     0.346 HD
ENDROOT
BRANCH   1   8
ATOM      8  C   UNL     1     -50.424 -37.452  71.497  1.00  0.00     0.099 C 
ATOM      9  O   UNL     1     -51.357 -38.015  72.127  1.00  0.00    -0.544 OA
ATOM     10  O   UNL     1     -50.377 -37.549  70.111  1.00  0.00    -0.544 OA
ENDBRANCH   1   8
TORSDOF 1
ENDMDL
MODEL 7
REMARK VINA RESULT:    -2.324      9.603     10.332
REMARK INTER + INTRA:          -2.554
REMARK INTER:                  -2.460
REMARK INTRA:                  -0.094
REMARK UNBOUND:                -0.094
REMARK SMILES O=C([O-])[C@@H]1CCC[NH2+]1
REMARK SMILES IDX 4 1 8 2 7 3 5 4 6 5 2 8 1 9 3 10
REMARK H PARENT 8 6 8 7
REMARK Flexibility Score: inf
ROOT
ATOM      1  C   UNL     1     -45.653 -39.880  72.512  1.00  0.00     0.229 C 
ATOM      2  N   UNL     1     -46.900 -39.108  72.437  1.00  0.00    -0.339 N 
ATOM      3  C   UNL     1     -46.532 -37.688  72.374  1.00  0.00     0.261 C 
ATOM      4  C   UNL     1     -44.569 -39.018  71.879  1.00  0.00     0.077 C 
ATOM      5  C   UNL     1     -45.036 -37.593  72.088  1.00  0.00     0.068 C 
ATOM      6  H   UNL     1     -47.534 -39.294  73.251  1.00  0.00     0.346 HD
ATOM      7  H   UNL     1     -47.409 -39.368  71.559  1.00  0.00     0.346 HD
ENDROOT
BRANCH   1   8
ATOM      8  C   UNL     1     -45.305 -40.222  73.942  1.00  0.00     0.099 C 
ATOM      9  O   UNL     1     -46.211 -40.284  74.814  1.00  0.00    -0.544 OA
ATOM     10  O   UNL     1     -43.990 -40.494  74.300  1.00  0.00    -0.544 OA
ENDBRANCH   1   8
TORSDOF 1
ENDMDL
MODEL 8
REMARK VINA RESULT:    -2.315      1.779      2.249
REMARK INTER + INTRA:          -2.544
REMARK INTER:                  -2.532
REMARK INTRA:                  -0.012
REMARK UNBOUND:                -0.094
REMARK SMILES O=C([O-])[C@@H]1CCC[NH2+]1
REMARK SMILES IDX 4 1 8 2 7 3 5 4 6 5 2 8 1 9 3 10
REMARK H PARENT 8 6 8 7
REMARK Flexibility Score: inf
ROOT
ATOM      1  C   UNL     1     -46.838 -48.846  70.753  1.00  0.00     0.229 C 
ATOM      2  N   UNL     1     -47.204 -49.962  69.872  1.00  0.00    -0.339 N 
ATOM      3  C   UNL     1     -46.570 -49.717  68.571  1.00  0.00     0.261 C 
ATOM      4  C   UNL     1     -45.527 -48.283  70.221  1.00  0.00     0.077 C 
ATOM      5  C   UNL     1     -45.541 -48.603  68.741  1.00  0.00     0.068 C 
ATOM      6  H   UNL     1     -48.242 -50.063  69.767  1.00  0.00     0.346 HD
ATOM      7  H   UNL     1     -46.826 -50.853  70.274  1.00  0.00     0.346 HD
ENDROOT
BRANCH   1   8
ATOM      8  C   UNL     1     -47.913 -47.785  70.772  1.00  0.00     0.099 C 
ATOM      9  O   UNL     1     -49.022 -48.020  71.321  1.00  0.00    -0.544 OA
ATOM     10  O   UNL     1     -47.681 -46.537  70.207  1.00  0.00    -0.544 OA
ENDBRANCH   1   8
TORSDOF 1
ENDMDL
MODEL 9
REMARK VINA RESULT:    -2.306      1.626      2.062
REMARK INTER + INTRA:          -2.535
REMARK INTER:                  -2.443
REMARK INTRA:                  -0.092
REMARK UNBOUND:                -0.094
REMARK SMILES O=C([O-])[C@@H]1CCC[NH2+]1
REMARK SMILES IDX 4 1 8 2 7 3 5 4 6 5 2 8 1 9 3 10
REMARK H PARENT 8 6 8 7
REMARK Flexibility Score: inf
ROOT
ATOM      1  C   UNL     1     -46.356 -49.352  70.253  1.00  0.00     0.229 C 
ATOM      2  N   UNL     1     -45.377 -48.410  70.810  1.00  0.00    -0.339 N 
ATOM      3  C   UNL     1     -46.088 -47.158  71.095  1.00  0.00     0.261 C 
ATOM      4  C   UNL     1     -47.721 -48.918  70.770  1.00  0.00     0.077 C 
ATOM      5  C   UNL     1     -47.588 -47.428  71.010  1.00  0.00     0.068 C 
ATOM      6  H   UNL     1     -44.571 -48.243  70.161  1.00  0.00     0.346 HD
ATOM      7  H   UNL     1     -45.000 -48.801  71.706  1.00  0.00     0.346 HD
ENDROOT
BRANCH   1   8
ATOM      8  C   UNL     1     -46.325 -49.348  68.743  1.00  0.00     0.099 C 
ATOM      9  O   UNL     1     -47.276 -49.852  68.090  1.00  0.00    -0.544 OA
ATOM     10  O   UNL     1     -45.260 -48.768  68.062  1.00  0.00    -0.544 OA
ENDBRANCH   1   8
TORSDOF 1
ENDMDL
