MODEL 1
REMARK VINA RESULT:    -3.655      0.000      0.000
REMARK INTER + INTRA:         -12.612
REMARK INTER:                  -8.356
REMARK INTRA:                  -4.256
REMARK UNBOUND:                -4.256
REMARK SMILES CCCCCCCCCCCCCCCCCCCCCCCC(=O)[O-]
REMARK SMILES IDX 13 1 14 2 15 3 16 4 17 5 18 6 19 7 20 8 21 9 22 10 23 11
REMARK SMILES IDX 24 12 25 13 26 14 12 15 11 16 10 17 9 18 8 19 7 20 6 21 5 22
REMARK SMILES IDX 4 23 3 24 2 25 1 26
REMARK H PARENT
REMARK Flexibility Score: inf
ROOT
ATOM      1  C   UNL     1      16.094 132.023  60.471  1.00  0.00     0.000 C 
ENDROOT
BRANCH   1   2
ATOM      2  C   UNL     1      15.616 131.466  61.821  1.00  0.00     0.000 C 
BRANCH   2   3
ATOM      3  C   UNL     1      14.902 132.523  62.679  1.00  0.00     0.000 C 
BRANCH   3   4
ATOM      4  C   UNL     1      15.010 132.228  64.186  1.00  0.00     0.000 C 
BRANCH   4   5
ATOM      5  C   UNL     1      15.812 133.304  64.939  1.00  0.00     0.000 C 
BRANCH   5   6
ATOM      6  C   UNL     1      16.326 134.451  64.037  1.00  0.00     0.000 C 
BRANCH   6   7
ATOM      7  C   UNL     1      17.852 134.435  63.822  1.00  0.00     0.000 C 
BRANCH   7   8
ATOM      8  C   UNL     1      18.569 133.177  64.346  1.00  0.00     0.000 C 
BRANCH   8   9
ATOM      9  C   UNL     1      19.015 132.179  63.260  1.00  0.00     0.000 C 
BRANCH   9  10
ATOM     10  C   UNL     1      19.174 130.744  63.791  1.00  0.00     0.006 C 
BRANCH  10  11
ATOM     11  C   UNL     1      18.216 130.446  64.953  1.00  0.00     0.053 C 
BRANCH  11  12
ATOM     12  C   UNL     1      17.319 129.285  64.650  1.00  0.00     0.041 C 
ATOM     13  O   UNL     1      17.655 128.432  63.788  1.00  0.00    -0.550 OA
ATOM     14  O   UNL     1      16.124 129.130  65.344  1.00  0.00    -0.550 OA
ENDBRANCH  11  12
ENDBRANCH  10  11
ENDBRANCH   9  10
ENDBRANCH   8   9
ENDBRANCH   7   8
ENDBRANCH   6   7
ENDBRANCH   5   6
ENDBRANCH   4   5
ENDBRANCH   3   4
ENDBRANCH   2   3
ENDBRANCH   1   2
BRANCH   1  15
ATOM     15  C   UNL     1      16.111 133.559  60.490  1.00  0.00     0.000 C 
BRANCH  15  16
ATOM     16  C   UNL     1      17.460 134.144  60.037  1.00  0.00     0.000 C 
BRANCH  16  17
ATOM     17  C   UNL     1      18.455 133.054  59.600  1.00  0.00     0.000 C 
BRANCH  17  18
ATOM     18  C   UNL     1      19.296 133.469  58.382  1.00  0.00    -0.000 C 
BRANCH  18  19
ATOM     19  C   UNL     1      19.217 132.450  57.232  1.00  0.00    -0.000 C 
BRANCH  19  20
ATOM     20  C   UNL     1      17.802 132.328  56.634  1.00  0.00    -0.000 C 
BRANCH  20  21
ATOM     21  C   UNL     1      17.111 130.969  56.858  1.00  0.00    -0.000 C 
BRANCH  21  22
ATOM     22  C   UNL     1      15.593 131.094  57.066  1.00  0.00    -0.000 C 
BRANCH  22  23
ATOM     23  C   UNL     1      15.042 132.347  56.371  1.00  0.00    -0.000 C 
BRANCH  23  24
ATOM     24  C   UNL     1      14.390 133.339  57.352  1.00  0.00    -0.000 C 
BRANCH  24  25
ATOM     25  C   UNL     1      13.114 132.822  58.041  1.00  0.00    -0.003 C 
ATOM     26  C   UNL     1      11.832 133.336  57.389  1.00  0.00     0.004 C 
ENDBRANCH  24  25
ENDBRANCH  23  24
ENDBRANCH  22  23
ENDBRANCH  21  22
ENDBRANCH  20  21
ENDBRANCH  19  20
ENDBRANCH  18  19
ENDBRANCH  17  18
ENDBRANCH  16  17
ENDBRANCH  15  16
ENDBRANCH   1  15
TORSDOF 22
ENDMDL
MODEL 2
REMARK VINA RESULT:    -3.623      1.254      3.608
REMARK INTER + INTRA:         -12.538
REMARK INTER:                  -8.754
REMARK INTRA:                  -3.784
REMARK UNBOUND:                -4.256
REMARK SMILES CCCCCCCCCCCCCCCCCCCCCCCC(=O)[O-]
REMARK SMILES IDX 13 1 14 2 15 3 16 4 17 5 18 6 19 7 20 8 21 9 22 10 23 11
REMARK SMILES IDX 24 12 25 13 26 14 12 15 11 16 10 17 9 18 8 19 7 20 6 21 5 22
REMARK SMILES IDX 4 23 3 24 2 25 1 26
REMARK H PARENT
REMARK Flexibility Score: inf
ROOT
ATOM      1  C   UNL     1      13.821 133.375  57.480  1.00  0.00     0.000 C 
ENDROOT
BRANCH   1   2
ATOM      2  C   UNL     1      13.252 132.639  58.702  1.00  0.00     0.000 C 
BRANCH   2   3
ATOM      3  C   UNL     1      13.099 133.555  59.928  1.00  0.00     0.000 C 
BRANCH   3   4
ATOM      4  C   UNL     1      14.160 133.272  61.007  1.00  0.00     0.000 C 
BRANCH   4   5
ATOM      5  C   UNL     1      14.670 131.821  60.963  1.00  0.00     0.000 C 
BRANCH   5   6
ATOM      6  C   UNL     1      15.967 131.585  61.772  1.00  0.00     0.000 C 
BRANCH   6   7
ATOM      7  C   UNL     1      16.192 132.615  62.897  1.00  0.00     0.000 C 
BRANCH   7   8
ATOM      8  C   UNL     1      17.589 133.262  62.915  1.00  0.00     0.000 C 
BRANCH   8   9
ATOM      9  C   UNL     1      18.510 132.798  64.060  1.00  0.00     0.000 C 
BRANCH   9  10
ATOM     10  C   UNL     1      19.196 131.452  63.771  1.00  0.00     0.006 C 
BRANCH  10  11
ATOM     11  C   UNL     1      18.884 130.400  64.844  1.00  0.00     0.053 C 
BRANCH  11  12
ATOM     12  C   UNL     1      18.758 129.027  64.258  1.00  0.00     0.041 C 
ATOM     13  O   UNL     1      19.773 128.292  64.141  1.00  0.00    -0.550 OA
ATOM     14  O   UNL     1      17.512 128.549  63.867  1.00  0.00    -0.550 OA
ENDBRANCH  11  12
ENDBRANCH  10  11
ENDBRANCH   9  10
ENDBRANCH   8   9
ENDBRANCH   7   8
ENDBRANCH   6   7
ENDBRANCH   5   6
ENDBRANCH   4   5
ENDBRANCH   3   4
ENDBRANCH   2   3
ENDBRANCH   1   2
BRANCH   1  15
ATOM     15  C   UNL     1      14.629 132.417  56.592  1.00  0.00     0.000 C 
BRANCH  15  16
ATOM     16  C   UNL     1      15.263 131.263  57.387  1.00  0.00     0.000 C 
BRANCH  16  17
ATOM     17  C   UNL     1      16.643 130.859  56.838  1.00  0.00     0.000 C 
BRANCH  17  18
ATOM     18  C   UNL     1      16.812 131.193  55.346  1.00  0.00    -0.000 C 
BRANCH  18  19
ATOM     19  C   UNL     1      17.732 132.403  55.109  1.00  0.00    -0.000 C 
BRANCH  19  20
ATOM     20  C   UNL     1      19.007 132.364  55.974  1.00  0.00    -0.000 C 
BRANCH  20  21
ATOM     21  C   UNL     1      19.119 133.481  57.029  1.00  0.00    -0.000 C 
BRANCH  21  22
ATOM     22  C   UNL     1      19.664 132.984  58.377  1.00  0.00    -0.000 C 
BRANCH  22  23
ATOM     23  C   UNL     1      18.703 133.334  59.523  1.00  0.00    -0.000 C 
BRANCH  23  24
ATOM     24  C   UNL     1      17.310 133.766  59.027  1.00  0.00    -0.000 C 
BRANCH  24  25
ATOM     25  C   UNL     1      16.884 135.183  59.452  1.00  0.00    -0.003 C 
ATOM     26  C   UNL     1      17.910 135.871  60.351  1.00  0.00     0.004 C 
ENDBRANCH  24  25
ENDBRANCH  23  24
ENDBRANCH  22  23
ENDBRANCH  21  22
ENDBRANCH  20  21
ENDBRANCH  19  20
ENDBRANCH  18  19
ENDBRANCH  17  18
ENDBRANCH  16  17
ENDBRANCH  15  16
ENDBRANCH   1  15
TORSDOF 22
ENDMDL
MODEL 3
REMARK VINA RESULT:    -3.607      1.666      2.871
REMARK INTER + INTRA:         -12.502
REMARK INTER:                  -8.090
REMARK INTRA:                  -4.412
REMARK UNBOUND:                -4.256
REMARK SMILES CCCCCCCCCCCCCCCCCCCCCCCC(=O)[O-]
REMARK SMILES IDX 13 1 14 2 15 3 16 4 17 5 18 6 19 7 20 8 21 9 22 10 23 11
REMARK SMILES IDX 24 12 25 13 26 14 12 15 11 16 10 17 9 18 8 19 7 20 6 21 5 22
REMARK SMILES IDX 4 23 3 24 2 25 1 26
REMARK H PARENT
REMARK Flexibility Score: inf
ROOT
ATOM      1  C   UNL     1      14.009 134.012  57.885  1.00  0.00     0.000 C 
ENDROOT
BRANCH   1   2
ATOM      2  C   UNL     1      13.425 132.773  58.580  1.00  0.00     0.000 C 
BRANCH   2   3
ATOM      3  C   UNL     1      13.880 132.644  60.043  1.00  0.00     0.000 C 
BRANCH   3   4
ATOM      4  C   UNL     1      14.682 131.355  60.298  1.00  0.00     0.000 C 
BRANCH   4   5
ATOM      5  C   UNL     1      15.820 131.564  61.313  1.00  0.00     0.000 C 
BRANCH   5   6
ATOM      6  C   UNL     1      15.737 132.902  62.084  1.00  0.00     0.000 C 
BRANCH   6   7
ATOM      7  C   UNL     1      17.000 133.223  62.907  1.00  0.00     0.000 C 
BRANCH   7   8
ATOM      8  C   UNL     1      18.293 132.561  62.398  1.00  0.00     0.000 C 
BRANCH   8   9
ATOM      9  C   UNL     1      19.343 132.257  63.484  1.00  0.00     0.000 C 
BRANCH   9  10
ATOM     10  C   UNL     1      18.792 131.384  64.625  1.00  0.00     0.006 C 
BRANCH  10  11
ATOM     11  C   UNL     1      18.435 129.969  64.151  1.00  0.00     0.053 C 
BRANCH  11  12
ATOM     12  C   UNL     1      17.093 129.535  64.657  1.00  0.00     0.041 C 
ATOM     13  O   UNL     1      16.194 130.386  64.883  1.00  0.00    -0.550 OA
ATOM     14  O   UNL     1      16.827 128.184  64.853  1.00  0.00    -0.550 OA
ENDBRANCH  11  12
ENDBRANCH  10  11
ENDBRANCH   9  10
ENDBRANCH   8   9
ENDBRANCH   7   8
ENDBRANCH   6   7
ENDBRANCH   5   6
ENDBRANCH   4   5
ENDBRANCH   3   4
ENDBRANCH   2   3
ENDBRANCH   1   2
BRANCH   1  15
ATOM     15  C   UNL     1      15.112 134.650  58.742  1.00  0.00     0.000 C 
BRANCH  15  16
ATOM     16  C   UNL     1      16.489 134.618  58.058  1.00  0.00     0.000 C 
BRANCH  16  17
ATOM     17  C   UNL     1      17.613 134.192  59.019  1.00  0.00     0.000 C 
BRANCH  17  18
ATOM     18  C   UNL     1      18.084 132.747  58.783  1.00  0.00    -0.000 C 
BRANCH  18  19
ATOM     19  C   UNL     1      17.929 132.304  57.318  1.00  0.00    -0.000 C 
BRANCH  19  20
ATOM     20  C   UNL     1      17.149 130.983  57.170  1.00  0.00    -0.000 C 
BRANCH  20  21
ATOM     21  C   UNL     1      15.765 131.108  56.505  1.00  0.00    -0.000 C 
BRANCH  21  22
ATOM     22  C   UNL     1      15.844 131.474  55.015  1.00  0.00    -0.000 C 
BRANCH  22  23
ATOM     23  C   UNL     1      14.697 132.413  54.616  1.00  0.00    -0.000 C 
BRANCH  23  24
ATOM     24  C   UNL     1      15.176 133.839  54.287  1.00  0.00    -0.000 C 
BRANCH  24  25
ATOM     25  C   UNL     1      16.699 134.044  54.370  1.00  0.00    -0.003 C 
ATOM     26  C   UNL     1      17.333 134.380  53.022  1.00  0.00     0.004 C 
ENDBRANCH  24  25
ENDBRANCH  23  24
ENDBRANCH  22  23
ENDBRANCH  21  22
ENDBRANCH  20  21
ENDBRANCH  19  20
ENDBRANCH  18  19
ENDBRANCH  17  18
ENDBRANCH  16  17
ENDBRANCH  15  16
ENDBRANCH   1  15
TORSDOF 22
ENDMDL
MODEL 4
REMARK VINA RESULT:    -3.582      2.659      7.081
REMARK INTER + INTRA:         -12.445
REMARK INTER:                  -8.490
REMARK INTRA:                  -3.955
REMARK UNBOUND:                -4.256
REMARK SMILES CCCCCCCCCCCCCCCCCCCCCCCC(=O)[O-]
REMARK SMILES IDX 13 1 14 2 15 3 16 4 17 5 18 6 19 7 20 8 21 9 22 10 23 11
REMARK SMILES IDX 24 12 25 13 26 14 12 15 11 16 10 17 9 18 8 19 7 20 6 21 5 22
REMARK SMILES IDX 4 23 3 24 2 25 1 26
REMARK H PARENT
REMARK Flexibility Score: inf
ROOT
ATOM      1  C   UNL     1      19.193 133.192  61.744  1.00  0.00     0.000 C 
ENDROOT
BRANCH   1   2
ATOM      2  C   UNL     1      17.670 133.397  61.724  1.00  0.00     0.000 C 
BRANCH   2   3
ATOM      3  C   UNL     1      16.951 132.403  60.798  1.00  0.00     0.000 C 
BRANCH   3   4
ATOM      4  C   UNL     1      15.729 131.752  61.470  1.00  0.00     0.000 C 
BRANCH   4   5
ATOM      5  C   UNL     1      14.427 132.002  60.689  1.00  0.00     0.000 C 
BRANCH   5   6
ATOM      6  C   UNL     1      14.383 131.313  59.304  1.00  0.00     0.000 C 
BRANCH   6   7
ATOM      7  C   UNL     1      14.298 132.300  58.123  1.00  0.00     0.000 C 
BRANCH   7   8
ATOM      8  C   UNL     1      15.255 131.997  56.955  1.00  0.00     0.000 C 
BRANCH   8   9
ATOM      9  C   UNL     1      16.447 131.087  57.304  1.00  0.00     0.000 C 
BRANCH   9  10
ATOM     10  C   UNL     1      17.803 131.692  56.901  1.00  0.00     0.006 C 
BRANCH  10  11
ATOM     11  C   UNL     1      17.880 133.195  57.202  1.00  0.00     0.053 C 
BRANCH  11  12
ATOM     12  C   UNL     1      19.139 133.553  57.931  1.00  0.00     0.041 C 
ATOM     13  O   UNL     1      19.187 134.590  58.643  1.00  0.00    -0.550 OA
ATOM     14  O   UNL     1      20.252 132.724  57.846  1.00  0.00    -0.550 OA
ENDBRANCH  11  12
ENDBRANCH  10  11
ENDBRANCH   9  10
ENDBRANCH   8   9
ENDBRANCH   7   8
ENDBRANCH   6   7
ENDBRANCH   5   6
ENDBRANCH   4   5
ENDBRANCH   3   4
ENDBRANCH   2   3
ENDBRANCH   1   2
BRANCH   1  15
ATOM     15  C   UNL     1      19.602 132.244  62.881  1.00  0.00     0.000 C 
BRANCH  15  16
ATOM     16  C   UNL     1      18.920 132.589  64.216  1.00  0.00     0.000 C 
BRANCH  16  17
ATOM     17  C   UNL     1      18.849 131.382  65.169  1.00  0.00     0.000 C 
BRANCH  17  18
ATOM     18  C   UNL     1      18.773 130.039  64.426  1.00  0.00    -0.000 C 
BRANCH  18  19
ATOM     19  C   UNL     1      17.331 129.640  64.067  1.00  0.00    -0.000 C 
BRANCH  19  20
ATOM     20  C   UNL     1      16.529 129.133  65.281  1.00  0.00    -0.000 C 
BRANCH  20  21
ATOM     21  C   UNL     1      15.334 130.014  65.692  1.00  0.00    -0.000 C 
BRANCH  21  22
ATOM     22  C   UNL     1      15.627 130.895  66.916  1.00  0.00    -0.000 C 
BRANCH  22  23
ATOM     23  C   UNL     1      15.515 132.385  66.562  1.00  0.00    -0.000 C 
BRANCH  23  24
ATOM     24  C   UNL     1      15.290 132.629  65.058  1.00  0.00    -0.000 C 
BRANCH  24  25
ATOM     25  C   UNL     1      15.520 134.079  64.597  1.00  0.00    -0.003 C 
ATOM     26  C   UNL     1      14.361 134.636  63.773  1.00  0.00     0.004 C 
ENDBRANCH  24  25
ENDBRANCH  23  24
ENDBRANCH  22  23
ENDBRANCH  21  22
ENDBRANCH  20  21
ENDBRANCH  19  20
ENDBRANCH  18  19
ENDBRANCH  17  18
ENDBRANCH  16  17
ENDBRANCH  15  16
ENDBRANCH   1  15
TORSDOF 22
ENDMDL
MODEL 5
REMARK VINA RESULT:    -3.565      1.661      4.147
REMARK INTER + INTRA:         -12.405
REMARK INTER:                  -8.552
REMARK INTRA:                  -3.853
REMARK UNBOUND:                -4.256
REMARK SMILES CCCCCCCCCCCCCCCCCCCCCCCC(=O)[O-]
REMARK SMILES IDX 13 1 14 2 15 3 16 4 17 5 18 6 19 7 20 8 21 9 22 10 23 11
REMARK SMILES IDX 24 12 25 13 26 14 12 15 11 16 10 17 9 18 8 19 7 20 6 21 5 22
REMARK SMILES IDX 4 23 3 24 2 25 1 26
REMARK H PARENT
REMARK Flexibility Score: inf
ROOT
ATOM      1  C   UNL     1      16.522 131.310  57.820  1.00  0.00     0.000 C 
ENDROOT
BRANCH   1   2
ATOM      2  C   UNL     1      15.058 131.452  58.262  1.00  0.00     0.000 C 
BRANCH   2   3
ATOM      3  C   UNL     1      14.907 132.246  59.570  1.00  0.00     0.000 C 
BRANCH   3   4
ATOM      4  C   UNL     1      16.068 131.991  60.549  1.00  0.00     0.000 C 
BRANCH   4   5
ATOM      5  C   UNL     1      16.933 133.245  60.771  1.00  0.00     0.000 C 
BRANCH   5   6
ATOM      6  C   UNL     1      16.846 133.822  62.203  1.00  0.00     0.000 C 
BRANCH   6   7
ATOM      7  C   UNL     1      18.170 133.735  62.989  1.00  0.00     0.000 C 
BRANCH   7   8
ATOM      8  C   UNL     1      19.203 132.749  62.412  1.00  0.00     0.000 C 
BRANCH   8   9
ATOM      9  C   UNL     1      19.624 131.613  63.363  1.00  0.00     0.000 C 
BRANCH   9  10
ATOM     10  C   UNL     1      18.521 131.228  64.365  1.00  0.00     0.006 C 
BRANCH  10  11
ATOM     11  C   UNL     1      17.468 130.302  63.741  1.00  0.00     0.053 C 
BRANCH  11  12
ATOM     12  C   UNL     1      17.456 128.954  64.393  1.00  0.00     0.041 C 
ATOM     13  O   UNL     1      16.539 128.647  65.199  1.00  0.00    -0.550 OA
ATOM     14  O   UNL     1      18.444 128.025  64.088  1.00  0.00    -0.550 OA
ENDBRANCH  11  12
ENDBRANCH  10  11
ENDBRANCH   9  10
ENDBRANCH   8   9
ENDBRANCH   7   8
ENDBRANCH   6   7
ENDBRANCH   5   6
ENDBRANCH   4   5
ENDBRANCH   3   4
ENDBRANCH   2   3
ENDBRANCH   1   2
BRANCH   1  15
ATOM     15  C   UNL     1      16.631 130.436  56.561  1.00  0.00     0.000 C 
BRANCH  15  16
ATOM     16  C   UNL     1      17.098 131.228  55.328  1.00  0.00     0.000 C 
BRANCH  16  17
ATOM     17  C   UNL     1      15.991 131.372  54.269  1.00  0.00     0.000 C 
BRANCH  17  18
ATOM     18  C   UNL     1      15.471 132.813  54.141  1.00  0.00    -0.000 C 
BRANCH  18  19
ATOM     19  C   UNL     1      14.226 133.073  55.007  1.00  0.00    -0.000 C 
BRANCH  19  20
ATOM     20  C   UNL     1      14.464 134.138  56.096  1.00  0.00    -0.000 C 
BRANCH  20  21
ATOM     21  C   UNL     1      15.776 134.934  55.958  1.00  0.00    -0.000 C 
BRANCH  21  22
ATOM     22  C   UNL     1      16.678 134.826  57.197  1.00  0.00    -0.000 C 
BRANCH  22  23
ATOM     23  C   UNL     1      18.112 134.443  56.803  1.00  0.00    -0.000 C 
BRANCH  23  24
ATOM     24  C   UNL     1      19.064 134.357  58.011  1.00  0.00    -0.000 C 
BRANCH  24  25
ATOM     25  C   UNL     1      19.720 132.980  58.220  1.00  0.00    -0.003 C 
ATOM     26  C   UNL     1      20.282 132.383  56.932  1.00  0.00     0.004 C 
ENDBRANCH  24  25
ENDBRANCH  23  24
ENDBRANCH  22  23
ENDBRANCH  21  22
ENDBRANCH  20  21
ENDBRANCH  19  20
ENDBRANCH  18  19
ENDBRANCH  17  18
ENDBRANCH  16  17
ENDBRANCH  15  16
ENDBRANCH   1  15
TORSDOF 22
ENDMDL
MODEL 6
REMARK VINA RESULT:    -3.498      3.419      7.808
REMARK INTER + INTRA:         -12.254
REMARK INTER:                  -9.320
REMARK INTRA:                  -2.934
REMARK UNBOUND:                -4.256
REMARK SMILES CCCCCCCCCCCCCCCCCCCCCCCC(=O)[O-]
REMARK SMILES IDX 13 1 14 2 15 3 16 4 17 5 18 6 19 7 20 8 21 9 22 10 23 11
REMARK SMILES IDX 24 12 25 13 26 14 12 15 11 16 10 17 9 18 8 19 7 20 6 21 5 22
REMARK SMILES IDX 4 23 3 24 2 25 1 26
REMARK H PARENT
REMARK Flexibility Score: inf
ROOT
ATOM      1  C   UNL     1      13.895 133.452  58.719  1.00  0.00     0.000 C 
ENDROOT
BRANCH   1   2
ATOM      2  C   UNL     1      12.659 133.105  57.875  1.00  0.00     0.000 C 
BRANCH   2   3
ATOM      3  C   UNL     1      12.919 133.229  56.364  1.00  0.00     0.000 C 
BRANCH   3   4
ATOM      4  C   UNL     1      14.421 133.255  56.027  1.00  0.00     0.000 C 
BRANCH   4   5
ATOM      5  C   UNL     1      14.765 132.375  54.812  1.00  0.00     0.000 C 
BRANCH   5   6
ATOM      6  C   UNL     1      15.846 131.307  55.096  1.00  0.00     0.000 C 
BRANCH   6   7
ATOM      7  C   UNL     1      16.023 130.985  56.593  1.00  0.00     0.000 C 
BRANCH   7   8
ATOM      8  C   UNL     1      17.439 131.229  57.147  1.00  0.00     0.000 C 
BRANCH   8   9
ATOM      9  C   UNL     1      17.616 132.541  57.935  1.00  0.00     0.000 C 
BRANCH   9  10
ATOM     10  C   UNL     1      18.170 133.689  57.074  1.00  0.00     0.006 C 
BRANCH  10  11
ATOM     11  C   UNL     1      19.555 134.151  57.546  1.00  0.00     0.053 C 
BRANCH  11  12
ATOM     12  C   UNL     1      20.075 135.286  56.719  1.00  0.00     0.041 C 
ATOM     13  O   UNL     1      19.309 136.224  56.375  1.00  0.00    -0.550 OA
ATOM     14  O   UNL     1      21.416 135.322  56.351  1.00  0.00    -0.550 OA
ENDBRANCH  11  12
ENDBRANCH  10  11
ENDBRANCH   9  10
ENDBRANCH   8   9
ENDBRANCH   7   8
ENDBRANCH   6   7
ENDBRANCH   5   6
ENDBRANCH   4   5
ENDBRANCH   3   4
ENDBRANCH   2   3
ENDBRANCH   1   2
BRANCH   1  15
ATOM     15  C   UNL     1      13.848 132.735  60.077  1.00  0.00     0.000 C 
BRANCH  15  16
ATOM     16  C   UNL     1      14.696 131.452  60.101  1.00  0.00     0.000 C 
BRANCH  16  17
ATOM     17  C   UNL     1      15.840 131.523  61.128  1.00  0.00     0.000 C 
BRANCH  17  18
ATOM     18  C   UNL     1      16.404 132.944  61.296  1.00  0.00    -0.000 C 
BRANCH  18  19
ATOM     19  C   UNL     1      16.627 133.323  62.771  1.00  0.00    -0.000 C 
BRANCH  19  20
ATOM     20  C   UNL     1      18.101 133.638  63.092  1.00  0.00    -0.000 C 
BRANCH  20  21
ATOM     21  C   UNL     1      19.134 132.759  62.360  1.00  0.00    -0.000 C 
BRANCH  21  22
ATOM     22  C   UNL     1      19.726 131.656  63.251  1.00  0.00    -0.000 C 
BRANCH  22  23
ATOM     23  C   UNL     1      19.133 131.715  64.667  1.00  0.00    -0.000 C 
BRANCH  23  24
ATOM     24  C   UNL     1      18.536 130.370  65.123  1.00  0.00    -0.000 C 
BRANCH  24  25
ATOM     25  C   UNL     1      18.990 129.150  64.302  1.00  0.00    -0.003 C 
ATOM     26  C   UNL     1      17.840 128.216  63.933  1.00  0.00     0.004 C 
ENDBRANCH  24  25
ENDBRANCH  23  24
ENDBRANCH  22  23
ENDBRANCH  21  22
ENDBRANCH  20  21
ENDBRANCH  19  20
ENDBRANCH  18  19
ENDBRANCH  17  18
ENDBRANCH  16  17
ENDBRANCH  15  16
ENDBRANCH   1  15
TORSDOF 22
ENDMDL
MODEL 7
REMARK VINA RESULT:    -3.495      1.589      3.693
REMARK INTER + INTRA:         -12.245
REMARK INTER:                  -8.482
REMARK INTRA:                  -3.764
REMARK UNBOUND:                -4.256
REMARK SMILES CCCCCCCCCCCCCCCCCCCCCCCC(=O)[O-]
REMARK SMILES IDX 13 1 14 2 15 3 16 4 17 5 18 6 19 7 20 8 21 9 22 10 23 11
REMARK SMILES IDX 24 12 25 13 26 14 12 15 11 16 10 17 9 18 8 19 7 20 6 21 5 22
REMARK SMILES IDX 4 23 3 24 2 25 1 26
REMARK H PARENT
REMARK Flexibility Score: inf
ROOT
ATOM      1  C   UNL     1      13.046 132.904  58.518  1.00  0.00     0.000 C 
ENDROOT
BRANCH   1   2
ATOM      2  C   UNL     1      13.043 133.617  59.879  1.00  0.00     0.000 C 
BRANCH   2   3
ATOM      3  C   UNL     1      14.339 133.383  60.673  1.00  0.00     0.000 C 
BRANCH   3   4
ATOM      4  C   UNL     1      14.488 131.923  61.137  1.00  0.00     0.000 C 
BRANCH   4   5
ATOM      5  C   UNL     1      15.902 131.617  61.664  1.00  0.00     0.000 C 
BRANCH   5   6
ATOM      6  C   UNL     1      16.628 132.843  62.265  1.00  0.00     0.000 C 
BRANCH   6   7
ATOM      7  C   UNL     1      18.126 132.912  61.913  1.00  0.00     0.000 C 
BRANCH   7   8
ATOM      8  C   UNL     1      19.082 132.546  63.064  1.00  0.00     0.000 C 
BRANCH   8   9
ATOM      9  C   UNL     1      18.634 133.018  64.461  1.00  0.00     0.000 C 
BRANCH   9  10
ATOM     10  C   UNL     1      18.972 132.010  65.573  1.00  0.00     0.006 C 
BRANCH  10  11
ATOM     11  C   UNL     1      17.714 131.449  66.249  1.00  0.00     0.053 C 
BRANCH  11  12
ATOM     12  C   UNL     1      16.901 130.615  65.308  1.00  0.00     0.041 C 
ATOM     13  O   UNL     1      15.688 130.885  65.106  1.00  0.00    -0.550 OA
ATOM     14  O   UNL     1      17.492 129.554  64.630  1.00  0.00    -0.550 OA
ENDBRANCH  11  12
ENDBRANCH  10  11
ENDBRANCH   9  10
ENDBRANCH   8   9
ENDBRANCH   7   8
ENDBRANCH   6   7
ENDBRANCH   5   6
ENDBRANCH   4   5
ENDBRANCH   3   4
ENDBRANCH   2   3
ENDBRANCH   1   2
BRANCH   1  15
ATOM     15  C   UNL     1      13.604 133.824  57.421  1.00  0.00     0.000 C 
BRANCH  15  16
ATOM     16  C   UNL     1      13.281 133.321  56.004  1.00  0.00     0.000 C 
BRANCH  16  17
ATOM     17  C   UNL     1      14.071 134.074  54.919  1.00  0.00     0.000 C 
BRANCH  17  18
ATOM     18  C   UNL     1      15.370 133.356  54.520  1.00  0.00    -0.000 C 
BRANCH  18  19
ATOM     19  C   UNL     1      15.270 131.827  54.659  1.00  0.00    -0.000 C 
BRANCH  19  20
ATOM     20  C   UNL     1      16.637 131.155  54.888  1.00  0.00    -0.000 C 
BRANCH  20  21
ATOM     21  C   UNL     1      16.811 130.469  56.256  1.00  0.00    -0.000 C 
BRANCH  21  22
ATOM     22  C   UNL     1      16.076 131.197  57.392  1.00  0.00    -0.000 C 
BRANCH  22  23
ATOM     23  C   UNL     1      17.070 131.873  58.347  1.00  0.00    -0.000 C 
BRANCH  23  24
ATOM     24  C   UNL     1      17.154 133.398  58.144  1.00  0.00    -0.000 C 
BRANCH  24  25
ATOM     25  C   UNL     1      18.340 133.871  57.285  1.00  0.00    -0.003 C 
ATOM     26  C   UNL     1      19.495 132.871  57.259  1.00  0.00     0.004 C 
ENDBRANCH  24  25
ENDBRANCH  23  24
ENDBRANCH  22  23
ENDBRANCH  21  22
ENDBRANCH  20  21
ENDBRANCH  19  20
ENDBRANCH  18  19
ENDBRANCH  17  18
ENDBRANCH  16  17
ENDBRANCH  15  16
ENDBRANCH   1  15
TORSDOF 22
ENDMDL
MODEL 8
REMARK VINA RESULT:    -3.488      2.089      7.261
REMARK INTER + INTRA:         -12.230
REMARK INTER:                  -9.071
REMARK INTRA:                  -3.159
REMARK UNBOUND:                -4.256
REMARK SMILES CCCCCCCCCCCCCCCCCCCCCCCC(=O)[O-]
REMARK SMILES IDX 13 1 14 2 15 3 16 4 17 5 18 6 19 7 20 8 21 9 22 10 23 11
REMARK SMILES IDX 24 12 25 13 26 14 12 15 11 16 10 17 9 18 8 19 7 20 6 21 5 22
REMARK SMILES IDX 4 23 3 24 2 25 1 26
REMARK H PARENT
REMARK Flexibility Score: inf
ROOT
ATOM      1  C   UNL     1      14.424 131.234  59.191  1.00  0.00     0.000 C 
ENDROOT
BRANCH   1   2
ATOM      2  C   UNL     1      14.416 132.507  58.331  1.00  0.00     0.000 C 
BRANCH   2   3
ATOM      3  C   UNL     1      15.155 132.324  56.995  1.00  0.00     0.000 C 
BRANCH   3   4
ATOM      4  C   UNL     1      15.920 130.990  56.924  1.00  0.00     0.000 C 
BRANCH   4   5
ATOM      5  C   UNL     1      16.869 130.922  55.714  1.00  0.00     0.000 C 
BRANCH   5   6
ATOM      6  C   UNL     1      17.852 132.112  55.618  1.00  0.00     0.000 C 
BRANCH   6   7
ATOM      7  C   UNL     1      19.252 131.807  56.185  1.00  0.00     0.000 C 
BRANCH   7   8
ATOM      8  C   UNL     1      19.735 132.776  57.281  1.00  0.00     0.000 C 
BRANCH   8   9
ATOM      9  C   UNL     1      18.623 133.588  57.971  1.00  0.00     0.000 C 
BRANCH   9  10
ATOM     10  C   UNL     1      18.109 132.928  59.262  1.00  0.00     0.006 C 
BRANCH  10  11
ATOM     11  C   UNL     1      17.884 133.949  60.386  1.00  0.00     0.053 C 
BRANCH  11  12
ATOM     12  C   UNL     1      18.762 133.676  61.569  1.00  0.00     0.041 C 
ATOM     13  O   UNL     1      19.841 133.044  61.427  1.00  0.00    -0.550 OA
ATOM     14  O   UNL     1      18.399 134.147  62.827  1.00  0.00    -0.550 OA
ENDBRANCH  11  12
ENDBRANCH  10  11
ENDBRANCH   9  10
ENDBRANCH   8   9
ENDBRANCH   7   8
ENDBRANCH   6   7
ENDBRANCH   5   6
ENDBRANCH   4   5
ENDBRANCH   3   4
ENDBRANCH   2   3
ENDBRANCH   1   2
BRANCH   1  15
ATOM     15  C   UNL     1      15.101 131.493  60.545  1.00  0.00     0.000 C 
BRANCH  15  16
ATOM     16  C   UNL     1      14.198 132.264  61.522  1.00  0.00     0.000 C 
BRANCH  16  17
ATOM     17  C   UNL     1      14.980 133.291  62.360  1.00  0.00     0.000 C 
BRANCH  17  18
ATOM     18  C   UNL     1      14.915 133.004  63.869  1.00  0.00    -0.000 C 
BRANCH  18  19
ATOM     19  C   UNL     1      15.417 131.594  64.227  1.00  0.00    -0.000 C 
BRANCH  19  20
ATOM     20  C   UNL     1      15.488 131.351  65.747  1.00  0.00    -0.000 C 
BRANCH  20  21
ATOM     21  C   UNL     1      16.687 132.005  66.461  1.00  0.00    -0.000 C 
BRANCH  21  22
ATOM     22  C   UNL     1      17.981 131.186  66.337  1.00  0.00    -0.000 C 
BRANCH  22  23
ATOM     23  C   UNL     1      18.866 131.723  65.202  1.00  0.00    -0.000 C 
BRANCH  23  24
ATOM     24  C   UNL     1      18.971 130.750  64.012  1.00  0.00    -0.000 C 
BRANCH  24  25
ATOM     25  C   UNL     1      19.032 129.262  64.398  1.00  0.00    -0.003 C 
ATOM     26  C   UNL     1      17.777 128.489  63.998  1.00  0.00     0.004 C 
ENDBRANCH  24  25
ENDBRANCH  23  24
ENDBRANCH  22  23
ENDBRANCH  21  22
ENDBRANCH  20  21
ENDBRANCH  19  20
ENDBRANCH  18  19
ENDBRANCH  17  18
ENDBRANCH  16  17
ENDBRANCH  15  16
ENDBRANCH   1  15
TORSDOF 22
ENDMDL
MODEL 9
REMARK VINA RESULT:    -3.428      1.514      3.541
REMARK INTER + INTRA:         -12.092
REMARK INTER:                  -8.071
REMARK INTRA:                  -4.022
REMARK UNBOUND:                -4.256
REMARK SMILES CCCCCCCCCCCCCCCCCCCCCCCC(=O)[O-]
REMARK SMILES IDX 13 1 14 2 15 3 16 4 17 5 18 6 19 7 20 8 21 9 22 10 23 11
REMARK SMILES IDX 24 12 25 13 26 14 12 15 11 16 10 17 9 18 8 19 7 20 6 21 5 22
REMARK SMILES IDX 4 23 3 24 2 25 1 26
REMARK H PARENT
REMARK Flexibility Score: inf
ROOT
ATOM      1  C   UNL     1      14.735 131.253  59.845  1.00  0.00     0.000 C 
ENDROOT
BRANCH   1   2
ATOM      2  C   UNL     1      14.752 131.759  61.295  1.00  0.00     0.000 C 
BRANCH   2   3
ATOM      3  C   UNL     1      16.176 132.003  61.822  1.00  0.00     0.000 C 
BRANCH   3   4
ATOM      4  C   UNL     1      16.380 133.447  62.315  1.00  0.00     0.000 C 
BRANCH   4   5
ATOM      5  C   UNL     1      17.843 133.734  62.698  1.00  0.00     0.000 C 
BRANCH   5   6
ATOM      6  C   UNL     1      18.847 132.678  62.180  1.00  0.00     0.000 C 
BRANCH   6   7
ATOM      7  C   UNL     1      19.620 131.955  63.301  1.00  0.00     0.000 C 
BRANCH   7   8
ATOM      8  C   UNL     1      18.941 131.987  64.683  1.00  0.00     0.000 C 
BRANCH   8   9
ATOM      9  C   UNL     1      17.940 130.846  64.946  1.00  0.00     0.000 C 
BRANCH   9  10
ATOM     10  C   UNL     1      16.597 131.343  65.509  1.00  0.00     0.006 C 
BRANCH  10  11
ATOM     11  C   UNL     1      15.455 130.353  65.242  1.00  0.00     0.053 C 
BRANCH  11  12
ATOM     12  C   UNL     1      15.484 129.199  66.196  1.00  0.00     0.041 C 
ATOM     13  O   UNL     1      15.484 129.402  67.438  1.00  0.00    -0.550 OA
ATOM     14  O   UNL     1      15.483 127.895  65.711  1.00  0.00    -0.550 OA
ENDBRANCH  11  12
ENDBRANCH  10  11
ENDBRANCH   9  10
ENDBRANCH   8   9
ENDBRANCH   7   8
ENDBRANCH   6   7
ENDBRANCH   5   6
ENDBRANCH   4   5
ENDBRANCH   3   4
ENDBRANCH   2   3
ENDBRANCH   1   2
BRANCH   1  15
ATOM     15  C   UNL     1      13.892 132.178  58.953  1.00  0.00     0.000 C 
BRANCH  15  16
ATOM     16  C   UNL     1      14.295 133.656  59.083  1.00  0.00     0.000 C 
BRANCH  16  17
ATOM     17  C   UNL     1      13.992 134.462  57.807  1.00  0.00     0.000 C 
BRANCH  17  18
ATOM     18  C   UNL     1      13.205 133.653  56.763  1.00  0.00    -0.000 C 
BRANCH  18  19
ATOM     19  C   UNL     1      13.908 133.605  55.396  1.00  0.00    -0.000 C 
BRANCH  19  20
ATOM     20  C   UNL     1      14.432 132.200  55.040  1.00  0.00    -0.000 C 
BRANCH  20  21
ATOM     21  C   UNL     1      15.930 131.968  55.316  1.00  0.00    -0.000 C 
BRANCH  21  22
ATOM     22  C   UNL     1      16.194 130.767  56.237  1.00  0.00    -0.000 C 
BRANCH  22  23
ATOM     23  C   UNL     1      17.225 131.119  57.319  1.00  0.00    -0.000 C 
BRANCH  23  24
ATOM     24  C   UNL     1      17.545 132.625  57.376  1.00  0.00    -0.000 C 
BRANCH  24  25
ATOM     25  C   UNL     1      17.838 133.170  58.785  1.00  0.00    -0.003 C 
ATOM     26  C   UNL     1      18.702 134.430  58.770  1.00  0.00     0.004 C 
ENDBRANCH  24  25
ENDBRANCH  23  24
ENDBRANCH  22  23
ENDBRANCH  21  22
ENDBRANCH  20  21
ENDBRANCH  19  20
ENDBRANCH  18  19
ENDBRANCH  17  18
ENDBRANCH  16  17
ENDBRANCH  15  16
ENDBRANCH   1  15
TORSDOF 22
ENDMDL
