MODEL 1
REMARK VINA RESULT:     2.952      0.000      0.000
REMARK INTER + INTRA:           4.567
REMARK INTER:                   5.368
REMARK INTRA:                  -0.801
REMARK UNBOUND:                -0.801
REMARK SMILES CCCCCC=CCC=CCCCCCCCC(=O)[O-]
REMARK SMILES IDX 11 1 12 2 13 3 14 4 15 5 16 6 17 7 18 8 19 9 20 10 10 11
REMARK SMILES IDX 9 12 8 13 7 14 6 15 5 16 4 17 3 18 2 19 1 20
REMARK H PARENT
REMARK Flexibility Score: inf
ROOT
ATOM      1  C   UNL     1      31.062  17.397   5.730  1.00  0.00     0.027 C 
ENDROOT
BRANCH   1   2
ATOM      2  C   UNL     1      29.939  17.179   6.750  1.00  0.00     0.004 C 
BRANCH   2   3
ATOM      3  C   UNL     1      29.665  15.687   7.000  1.00  0.00     0.000 C 
BRANCH   3   4
ATOM      4  C   UNL     1      29.416  15.368   8.483  1.00  0.00     0.000 C 
BRANCH   4   5
ATOM      5  C   UNL     1      29.533  16.603   9.405  1.00  0.00     0.000 C 
BRANCH   5   6
ATOM      6  C   UNL     1      28.176  17.089   9.946  1.00  0.00     0.006 C 
BRANCH   6   7
ATOM      7  C   UNL     1      28.320  18.307  10.866  1.00  0.00     0.053 C 
BRANCH   7   8
ATOM      8  C   UNL     1      27.482  19.441  10.367  1.00  0.00     0.041 C 
ATOM      9  O   UNL     1      26.844  19.330   9.287  1.00  0.00    -0.550 OA
ATOM     10  O   UNL     1      27.366  20.603  11.118  1.00  0.00    -0.550 OA
ENDBRANCH   7   8
ENDBRANCH   6   7
ENDBRANCH   5   6
ENDBRANCH   4   5
ENDBRANCH   3   4
ENDBRANCH   2   3
ENDBRANCH   1   2
BRANCH   1  11
ATOM     11  C   UNL     1      30.646  18.359   4.650  1.00  0.00    -0.031 C 
ATOM     12  C   UNL     1      29.499  18.203   3.971  1.00  0.00    -0.027 C 
BRANCH  12  13
ATOM     13  C   UNL     1      29.098  19.152   2.877  1.00  0.00     0.054 C 
BRANCH  13  14
ATOM     14  C   UNL     1      28.882  18.415   1.585  1.00  0.00    -0.027 C 
ATOM     15  C   UNL     1      27.897  18.751   0.740  1.00  0.00    -0.031 C 
BRANCH  15  16
ATOM     16  C   UNL     1      27.680  18.010  -0.553  1.00  0.00     0.027 C 
BRANCH  16  17
ATOM     17  C   UNL     1      28.275  16.594  -0.518  1.00  0.00     0.004 C 
BRANCH  17  18
ATOM     18  C   UNL     1      28.134  15.875  -1.870  1.00  0.00     0.000 C 
BRANCH  18  19
ATOM     19  C   UNL     1      29.271  14.873  -2.126  1.00  0.00    -0.003 C 
ATOM     20  C   UNL     1      30.559  15.549  -2.595  1.00  0.00     0.004 C 
ENDBRANCH  18  19
ENDBRANCH  17  18
ENDBRANCH  16  17
ENDBRANCH  15  16
ENDBRANCH  13  14
ENDBRANCH  12  13
ENDBRANCH   1  11
TORSDOF 14
ENDMDL
MODEL 2
REMARK VINA RESULT:     3.078      0.657      1.058
REMARK INTER + INTRA:           4.796
REMARK INTER:                   5.560
REMARK INTRA:                  -0.764
REMARK UNBOUND:                -0.801
REMARK SMILES CCCCCC=CCC=CCCCCCCCC(=O)[O-]
REMARK SMILES IDX 11 1 12 2 13 3 14 4 15 5 16 6 17 7 18 8 19 9 20 10 10 11
REMARK SMILES IDX 9 12 8 13 7 14 6 15 5 16 4 17 3 18 2 19 1 20
REMARK H PARENT
REMARK Flexibility Score: inf
ROOT
ATOM      1  C   UNL     1      31.062  17.343   5.773  1.00  0.00     0.027 C 
ENDROOT
BRANCH   1   2
ATOM      2  C   UNL     1      30.024  17.106   6.877  1.00  0.00     0.004 C 
BRANCH   2   3
ATOM      3  C   UNL     1      29.591  15.633   6.957  1.00  0.00     0.000 C 
BRANCH   3   4
ATOM      4  C   UNL     1      29.461  15.130   8.403  1.00  0.00     0.000 C 
BRANCH   4   5
ATOM      5  C   UNL     1      27.999  15.066   8.903  1.00  0.00     0.000 C 
BRANCH   5   6
ATOM      6  C   UNL     1      27.707  16.046  10.052  1.00  0.00     0.006 C 
BRANCH   6   7
ATOM      7  C   UNL     1      28.605  17.288   9.999  1.00  0.00     0.053 C 
BRANCH   7   8
ATOM      8  C   UNL     1      27.779  18.533  10.063  1.00  0.00     0.041 C 
ATOM      9  O   UNL     1      27.776  19.239  11.107  1.00  0.00    -0.550 OA
ATOM     10  O   UNL     1      27.051  18.943   8.953  1.00  0.00    -0.550 OA
ENDBRANCH   7   8
ENDBRANCH   6   7
ENDBRANCH   5   6
ENDBRANCH   4   5
ENDBRANCH   3   4
ENDBRANCH   2   3
ENDBRANCH   1   2
BRANCH   1  11
ATOM     11  C   UNL     1      30.529  18.258   4.704  1.00  0.00    -0.031 C 
ATOM     12  C   UNL     1      29.435  17.947   3.991  1.00  0.00    -0.027 C 
BRANCH  12  13
ATOM     13  C   UNL     1      28.919  18.851   2.908  1.00  0.00     0.054 C 
BRANCH  13  14
ATOM     14  C   UNL     1      28.650  18.075   1.650  1.00  0.00    -0.027 C 
ATOM     15  C   UNL     1      28.012  18.625   0.606  1.00  0.00    -0.031 C 
BRANCH  15  16
ATOM     16  C   UNL     1      27.740  17.845  -0.653  1.00  0.00     0.027 C 
BRANCH  16  17
ATOM     17  C   UNL     1      28.695  16.653  -0.815  1.00  0.00     0.004 C 
BRANCH  17  18
ATOM     18  C   UNL     1      28.186  15.644  -1.860  1.00  0.00     0.000 C 
BRANCH  18  19
ATOM     19  C   UNL     1      29.329  14.987  -2.650  1.00  0.00    -0.003 C 
ATOM     20  C   UNL     1      30.710  15.368  -2.118  1.00  0.00     0.004 C 
ENDBRANCH  18  19
ENDBRANCH  17  18
ENDBRANCH  16  17
ENDBRANCH  15  16
ENDBRANCH  13  14
ENDBRANCH  12  13
ENDBRANCH   1  11
TORSDOF 14
ENDMDL
MODEL 3
REMARK VINA RESULT:     3.733      2.285      2.997
REMARK INTER + INTRA:           5.988
REMARK INTER:                   6.499
REMARK INTRA:                  -0.511
REMARK UNBOUND:                -0.801
REMARK SMILES CCCCCC=CCC=CCCCCCCCC(=O)[O-]
REMARK SMILES IDX 11 1 12 2 13 3 14 4 15 5 16 6 17 7 18 8 19 9 20 10 10 11
REMARK SMILES IDX 9 12 8 13 7 14 6 15 5 16 4 17 3 18 2 19 1 20
REMARK H PARENT
REMARK Flexibility Score: inf
ROOT
ATOM      1  C   UNL     1      31.005  17.233   6.217  1.00  0.00     0.027 C 
ENDROOT
BRANCH   1   2
ATOM      2  C   UNL     1      29.777  16.480   6.742  1.00  0.00     0.004 C 
BRANCH   2   3
ATOM      3  C   UNL     1      29.976  15.977   8.180  1.00  0.00     0.000 C 
BRANCH   3   4
ATOM      4  C   UNL     1      29.317  16.890   9.226  1.00  0.00     0.000 C 
BRANCH   4   5
ATOM      5  C   UNL     1      27.864  16.486   9.567  1.00  0.00     0.000 C 
BRANCH   5   6
ATOM      6  C   UNL     1      27.693  14.973   9.793  1.00  0.00     0.006 C 
BRANCH   6   7
ATOM      7  C   UNL     1      27.327  14.231   8.502  1.00  0.00     0.053 C 
BRANCH   7   8
ATOM      8  C   UNL     1      25.897  13.793   8.539  1.00  0.00     0.041 C 
ATOM      9  O   UNL     1      25.050  14.447   9.203  1.00  0.00    -0.550 OA
ATOM     10  O   UNL     1      25.488  12.690   7.799  1.00  0.00    -0.550 OA
ENDBRANCH   7   8
ENDBRANCH   6   7
ENDBRANCH   5   6
ENDBRANCH   4   5
ENDBRANCH   3   4
ENDBRANCH   2   3
ENDBRANCH   1   2
BRANCH   1  11
ATOM     11  C   UNL     1      30.638  18.180   5.107  1.00  0.00    -0.031 C 
ATOM     12  C   UNL     1      29.570  17.967   4.323  1.00  0.00    -0.027 C 
BRANCH  12  13
ATOM     13  C   UNL     1      29.220  18.902   3.200  1.00  0.00     0.054 C 
BRANCH  13  14
ATOM     14  C   UNL     1      28.666  18.142   2.028  1.00  0.00    -0.027 C 
ATOM     15  C   UNL     1      28.431  18.739   0.850  1.00  0.00    -0.031 C 
BRANCH  15  16
ATOM     16  C   UNL     1      27.873  17.977  -0.323  1.00  0.00     0.027 C 
BRANCH  16  17
ATOM     17  C   UNL     1      28.612  16.652  -0.560  1.00  0.00     0.004 C 
BRANCH  17  18
ATOM     18  C   UNL     1      28.083  15.908  -1.798  1.00  0.00     0.000 C 
BRANCH  18  19
ATOM     19  C   UNL     1      29.099  14.902  -2.361  1.00  0.00    -0.003 C 
ATOM     20  C   UNL     1      30.536  15.418  -2.300  1.00  0.00     0.004 C 
ENDBRANCH  18  19
ENDBRANCH  17  18
ENDBRANCH  16  17
ENDBRANCH  15  16
ENDBRANCH  13  14
ENDBRANCH  12  13
ENDBRANCH   1  11
TORSDOF 14
ENDMDL
MODEL 4
REMARK VINA RESULT:     3.812      4.328      9.960
REMARK INTER + INTRA:           6.131
REMARK INTER:                   6.952
REMARK INTRA:                  -0.820
REMARK UNBOUND:                -0.801
REMARK SMILES CCCCCC=CCC=CCCCCCCCC(=O)[O-]
REMARK SMILES IDX 11 1 12 2 13 3 14 4 15 5 16 6 17 7 18 8 19 9 20 10 10 11
REMARK SMILES IDX 9 12 8 13 7 14 6 15 5 16 4 17 3 18 2 19 1 20
REMARK H PARENT
REMARK Flexibility Score: inf
ROOT
ATOM      1  C   UNL     1      29.273  19.058   3.487  1.00  0.00     0.027 C 
ENDROOT
BRANCH   1   2
ATOM      2  C   UNL     1      28.662  18.073   2.483  1.00  0.00     0.004 C 
BRANCH   2   3
ATOM      3  C   UNL     1      28.993  18.447   1.030  1.00  0.00     0.000 C 
BRANCH   3   4
ATOM      4  C   UNL     1      27.737  18.611   0.158  1.00  0.00     0.000 C 
BRANCH   4   5
ATOM      5  C   UNL     1      27.559  17.483  -0.883  1.00  0.00     0.000 C 
BRANCH   5   6
ATOM      6  C   UNL     1      28.606  16.362  -0.748  1.00  0.00     0.006 C 
BRANCH   6   7
ATOM      7  C   UNL     1      28.618  15.429  -1.966  1.00  0.00     0.053 C 
BRANCH   7   8
ATOM      8  C   UNL     1      30.000  15.319  -2.525  1.00  0.00     0.041 C 
ATOM      9  O   UNL     1      30.991  15.224  -1.754  1.00  0.00    -0.550 OA
ATOM     10  O   UNL     1      30.192  15.271  -3.901  1.00  0.00    -0.550 OA
ENDBRANCH   7   8
ENDBRANCH   6   7
ENDBRANCH   5   6
ENDBRANCH   4   5
ENDBRANCH   3   4
ENDBRANCH   2   3
ENDBRANCH   1   2
BRANCH   1  11
ATOM     11  C   UNL     1      29.591  18.385   4.795  1.00  0.00    -0.031 C 
ATOM     12  C   UNL     1      30.826  17.946   5.080  1.00  0.00    -0.027 C 
BRANCH  12  13
ATOM     13  C   UNL     1      31.135  17.253   6.377  1.00  0.00     0.054 C 
BRANCH  13  14
ATOM     14  C   UNL     1      29.955  16.450   6.846  1.00  0.00    -0.027 C 
ATOM     15  C   UNL     1      29.887  15.960   8.093  1.00  0.00    -0.031 C 
BRANCH  15  16
ATOM     16  C   UNL     1      28.706  15.153   8.561  1.00  0.00     0.027 C 
BRANCH  16  17
ATOM     17  C   UNL     1      27.771  15.965   9.470  1.00  0.00     0.004 C 
BRANCH  17  18
ATOM     18  C   UNL     1      28.432  17.261   9.969  1.00  0.00     0.000 C 
BRANCH  18  19
ATOM     19  C   UNL     1      27.552  18.499   9.735  1.00  0.00    -0.003 C 
ATOM     20  C   UNL     1      27.642  19.511  10.877  1.00  0.00     0.004 C 
ENDBRANCH  18  19
ENDBRANCH  17  18
ENDBRANCH  16  17
ENDBRANCH  15  16
ENDBRANCH  13  14
ENDBRANCH  12  13
ENDBRANCH   1  11
TORSDOF 14
ENDMDL
MODEL 5
REMARK VINA RESULT:     4.522      4.458      9.720
REMARK INTER + INTRA:           7.422
REMARK INTER:                   8.194
REMARK INTRA:                  -0.772
REMARK UNBOUND:                -0.801
REMARK SMILES CCCCCC=CCC=CCCCCCCCC(=O)[O-]
REMARK SMILES IDX 11 1 12 2 13 3 14 4 15 5 16 6 17 7 18 8 19 9 20 10 10 11
REMARK SMILES IDX 9 12 8 13 7 14 6 15 5 16 4 17 3 18 2 19 1 20
REMARK H PARENT
REMARK Flexibility Score: inf
ROOT
ATOM      1  C   UNL     1      29.254  19.059   3.309  1.00  0.00     0.027 C 
ENDROOT
BRANCH   1   2
ATOM      2  C   UNL     1      28.488  18.153   2.337  1.00  0.00     0.004 C 
BRANCH   2   3
ATOM      3  C   UNL     1      28.904  18.388   0.876  1.00  0.00     0.000 C 
BRANCH   3   4
ATOM      4  C   UNL     1      27.700  18.566  -0.063  1.00  0.00     0.000 C 
BRANCH   4   5
ATOM      5  C   UNL     1      27.524  17.402  -1.065  1.00  0.00     0.000 C 
BRANCH   5   6
ATOM      6  C   UNL     1      28.440  16.201  -0.767  1.00  0.00     0.006 C 
BRANCH   6   7
ATOM      7  C   UNL     1      28.609  15.284  -1.985  1.00  0.00     0.053 C 
BRANCH   7   8
ATOM      8  C   UNL     1      30.018  15.331  -2.483  1.00  0.00     0.041 C 
ATOM      9  O   UNL     1      30.979  15.335  -1.668  1.00  0.00    -0.550 OA
ATOM     10  O   UNL     1      30.274  15.320  -3.848  1.00  0.00    -0.550 OA
ENDBRANCH   7   8
ENDBRANCH   6   7
ENDBRANCH   5   6
ENDBRANCH   4   5
ENDBRANCH   3   4
ENDBRANCH   2   3
ENDBRANCH   1   2
BRANCH   1  11
ATOM     11  C   UNL     1      29.659  18.314   4.552  1.00  0.00    -0.031 C 
ATOM     12  C   UNL     1      30.947  18.071   4.839  1.00  0.00    -0.027 C 
BRANCH  12  13
ATOM     13  C   UNL     1      31.348  17.306   6.069  1.00  0.00     0.054 C 
BRANCH  13  14
ATOM     14  C   UNL     1      30.136  16.798   6.799  1.00  0.00    -0.027 C 
ATOM     15  C   UNL     1      30.082  16.769   8.138  1.00  0.00    -0.031 C 
BRANCH  15  16
ATOM     16  C   UNL     1      28.869  16.257   8.868  1.00  0.00     0.027 C 
BRANCH  16  17
ATOM     17  C   UNL     1      28.846  14.723   8.951  1.00  0.00     0.004 C 
BRANCH  17  18
ATOM     18  C   UNL     1      27.584  14.201   9.660  1.00  0.00     0.000 C 
BRANCH  18  19
ATOM     19  C   UNL     1      26.300  14.499   8.872  1.00  0.00    -0.003 C 
ATOM     20  C   UNL     1      25.663  13.241   8.282  1.00  0.00     0.004 C 
ENDBRANCH  18  19
ENDBRANCH  17  18
ENDBRANCH  16  17
ENDBRANCH  15  16
ENDBRANCH  13  14
ENDBRANCH  12  13
ENDBRANCH   1  11
TORSDOF 14
ENDMDL
MODEL 6
REMARK VINA RESULT:     4.944      4.637      9.602
REMARK INTER + INTRA:           8.189
REMARK INTER:                   8.867
REMARK INTRA:                  -0.677
REMARK UNBOUND:                -0.801
REMARK SMILES CCCCCC=CCC=CCCCCCCCC(=O)[O-]
REMARK SMILES IDX 11 1 12 2 13 3 14 4 15 5 16 6 17 7 18 8 19 9 20 10 10 11
REMARK SMILES IDX 9 12 8 13 7 14 6 15 5 16 4 17 3 18 2 19 1 20
REMARK H PARENT
REMARK Flexibility Score: inf
ROOT
ATOM      1  C   UNL     1      30.086  18.757   3.581  1.00  0.00     0.027 C 
ENDROOT
BRANCH   1   2
ATOM      2  C   UNL     1      28.870  17.977   3.067  1.00  0.00     0.004 C 
BRANCH   2   3
ATOM      3  C   UNL     1      28.133  18.727   1.946  1.00  0.00     0.000 C 
BRANCH   3   4
ATOM      4  C   UNL     1      28.705  18.422   0.552  1.00  0.00     0.000 C 
BRANCH   4   5
ATOM      5  C   UNL     1      27.623  18.057  -0.490  1.00  0.00     0.000 C 
BRANCH   5   6
ATOM      6  C   UNL     1      27.894  16.720  -1.204  1.00  0.00     0.006 C 
BRANCH   6   7
ATOM      7  C   UNL     1      29.361  16.288  -1.089  1.00  0.00     0.053 C 
BRANCH   7   8
ATOM      8  C   UNL     1      29.715  15.344  -2.193  1.00  0.00     0.041 C 
ATOM      9  O   UNL     1      30.915  15.206  -2.550  1.00  0.00    -0.550 OA
ATOM     10  O   UNL     1      28.725  14.577  -2.796  1.00  0.00    -0.550 OA
ENDBRANCH   7   8
ENDBRANCH   6   7
ENDBRANCH   5   6
ENDBRANCH   4   5
ENDBRANCH   3   4
ENDBRANCH   2   3
ENDBRANCH   1   2
BRANCH   1  11
ATOM     11  C   UNL     1      30.304  18.530   5.053  1.00  0.00    -0.031 C 
ATOM     12  C   UNL     1      30.684  17.336   5.533  1.00  0.00    -0.027 C 
BRANCH  12  13
ATOM     13  C   UNL     1      30.878  17.107   7.006  1.00  0.00     0.054 C 
BRANCH  13  14
ATOM     14  C   UNL     1      29.588  16.691   7.654  1.00  0.00    -0.027 C 
ATOM     15  C   UNL     1      29.432  16.710   8.986  1.00  0.00    -0.031 C 
BRANCH  15  16
ATOM     16  C   UNL     1      28.140  16.289   9.635  1.00  0.00     0.027 C 
BRANCH  16  17
ATOM     17  C   UNL     1      27.985  14.762   9.685  1.00  0.00     0.004 C 
BRANCH  17  18
ATOM     18  C   UNL     1      27.205  14.220   8.475  1.00  0.00     0.000 C 
BRANCH  18  19
ATOM     19  C   UNL     1      25.741  13.898   8.813  1.00  0.00    -0.003 C 
ATOM     20  C   UNL     1      25.166  12.781   7.944  1.00  0.00     0.004 C 
ENDBRANCH  18  19
ENDBRANCH  17  18
ENDBRANCH  16  17
ENDBRANCH  15  16
ENDBRANCH  13  14
ENDBRANCH  12  13
ENDBRANCH   1  11
TORSDOF 14
ENDMDL
MODEL 7
REMARK VINA RESULT:     5.540      5.074      9.345
REMARK INTER + INTRA:           9.273
REMARK INTER:                   9.858
REMARK INTRA:                  -0.585
REMARK UNBOUND:                -0.801
REMARK SMILES CCCCCC=CCC=CCCCCCCCC(=O)[O-]
REMARK SMILES IDX 11 1 12 2 13 3 14 4 15 5 16 6 17 7 18 8 19 9 20 10 10 11
REMARK SMILES IDX 9 12 8 13 7 14 6 15 5 16 4 17 3 18 2 19 1 20
REMARK H PARENT
REMARK Flexibility Score: inf
ROOT
ATOM      1  C   UNL     1      30.391  16.870   7.308  1.00  0.00     0.027 C 
ENDROOT
BRANCH   1   2
ATOM      2  C   UNL     1      30.008  16.810   5.824  1.00  0.00     0.004 C 
BRANCH   2   3
ATOM      3  C   UNL     1      30.655  17.944   5.013  1.00  0.00     0.000 C 
BRANCH   3   4
ATOM      4  C   UNL     1      29.629  18.766   4.218  1.00  0.00     0.000 C 
BRANCH   4   5
ATOM      5  C   UNL     1      28.889  17.946   3.136  1.00  0.00     0.000 C 
BRANCH   5   6
ATOM      6  C   UNL     1      28.523  18.773   1.891  1.00  0.00     0.006 C 
BRANCH   6   7
ATOM      7  C   UNL     1      29.185  18.231   0.618  1.00  0.00     0.053 C 
BRANCH   7   8
ATOM      8  C   UNL     1      28.156  17.658  -0.302  1.00  0.00     0.041 C 
ATOM      9  O   UNL     1      27.119  18.316  -0.583  1.00  0.00    -0.550 OA
ATOM     10  O   UNL     1      28.362  16.417  -0.891  1.00  0.00    -0.550 OA
ENDBRANCH   7   8
ENDBRANCH   6   7
ENDBRANCH   5   6
ENDBRANCH   4   5
ENDBRANCH   3   4
ENDBRANCH   2   3
ENDBRANCH   1   2
BRANCH   1  11
ATOM     11  C   UNL     1      29.562  15.919   8.129  1.00  0.00    -0.031 C 
ATOM     12  C   UNL     1      28.574  16.353   8.926  1.00  0.00    -0.027 C 
BRANCH  12  13
ATOM     13  C   UNL     1      27.764  15.404   9.763  1.00  0.00     0.054 C 
BRANCH  13  14
ATOM     14  C   UNL     1      27.242  14.269   8.927  1.00  0.00    -0.027 C 
ATOM     15  C   UNL     1      25.949  13.915   8.950  1.00  0.00    -0.031 C 
BRANCH  15  16
ATOM     16  C   UNL     1      25.428  12.777   8.114  1.00  0.00     0.027 C 
BRANCH  16  17
ATOM     17  C   UNL     1      23.892  12.720   8.102  1.00  0.00     0.004 C 
BRANCH  17  18
ATOM     18  C   UNL     1      23.335  11.910   9.286  1.00  0.00     0.000 C 
BRANCH  18  19
ATOM     19  C   UNL     1      22.015  11.202   8.946  1.00  0.00    -0.003 C 
ATOM     20  C   UNL     1      21.805   9.924   9.757  1.00  0.00     0.004 C 
ENDBRANCH  18  19
ENDBRANCH  17  18
ENDBRANCH  16  17
ENDBRANCH  15  16
ENDBRANCH  13  14
ENDBRANCH  12  13
ENDBRANCH   1  11
TORSDOF 14
ENDMDL
MODEL 8
REMARK VINA RESULT:     5.928      5.865      9.620
REMARK INTER + INTRA:           9.978
REMARK INTER:                  10.535
REMARK INTRA:                  -0.556
REMARK UNBOUND:                -0.801
REMARK SMILES CCCCCC=CCC=CCCCCCCCC(=O)[O-]
REMARK SMILES IDX 11 1 12 2 13 3 14 4 15 5 16 6 17 7 18 8 19 9 20 10 10 11
REMARK SMILES IDX 9 12 8 13 7 14 6 15 5 16 4 17 3 18 2 19 1 20
REMARK H PARENT
REMARK Flexibility Score: inf
ROOT
ATOM      1  C   UNL     1      28.862  16.403   9.202  1.00  0.00     0.027 C 
ENDROOT
BRANCH   1   2
ATOM      2  C   UNL     1      30.021  16.938   8.353  1.00  0.00     0.004 C 
BRANCH   2   3
ATOM      3  C   UNL     1      29.938  16.461   6.894  1.00  0.00     0.000 C 
BRANCH   3   4
ATOM      4  C   UNL     1      30.636  17.419   5.915  1.00  0.00     0.000 C 
BRANCH   4   5
ATOM      5  C   UNL     1      29.659  18.353   5.166  1.00  0.00     0.000 C 
BRANCH   5   6
ATOM      6  C   UNL     1      29.898  18.389   3.646  1.00  0.00     0.006 C 
BRANCH   6   7
ATOM      7  C   UNL     1      28.611  18.143   2.849  1.00  0.00     0.053 C 
BRANCH   7   8
ATOM      8  C   UNL     1      28.831  18.431   1.399  1.00  0.00     0.041 C 
ATOM      9  O   UNL     1      28.197  17.787   0.521  1.00  0.00    -0.550 OA
ATOM     10  O   UNL     1      29.701  19.444   1.014  1.00  0.00    -0.550 OA
ENDBRANCH   7   8
ENDBRANCH   6   7
ENDBRANCH   5   6
ENDBRANCH   4   5
ENDBRANCH   3   4
ENDBRANCH   2   3
ENDBRANCH   1   2
BRANCH   1  11
ATOM     11  C   UNL     1      28.284  15.144   8.615  1.00  0.00    -0.031 C 
ATOM     12  C   UNL     1      27.059  14.709   8.947  1.00  0.00    -0.027 C 
BRANCH  12  13
ATOM     13  C   UNL     1      26.494  13.438   8.377  1.00  0.00     0.054 C 
BRANCH  13  14
ATOM     14  C   UNL     1      25.017  13.349   8.635  1.00  0.00    -0.027 C 
ATOM     15  C   UNL     1      24.336  12.209   8.443  1.00  0.00    -0.031 C 
BRANCH  15  16
ATOM     16  C   UNL     1      22.856  12.122   8.700  1.00  0.00     0.027 C 
BRANCH  16  17
ATOM     17  C   UNL     1      22.514  11.092   9.787  1.00  0.00     0.004 C 
BRANCH  17  18
ATOM     18  C   UNL     1      21.395  10.133   9.344  1.00  0.00     0.000 C 
BRANCH  18  19
ATOM     19  C   UNL     1      21.203   8.961  10.318  1.00  0.00    -0.003 C 
ATOM     20  C   UNL     1      21.751   7.643   9.772  1.00  0.00     0.004 C 
ENDBRANCH  18  19
ENDBRANCH  17  18
ENDBRANCH  16  17
ENDBRANCH  15  16
ENDBRANCH  13  14
ENDBRANCH  12  13
ENDBRANCH   1  11
TORSDOF 14
ENDMDL
