MODEL 1
REMARK VINA RESULT:    -4.831      0.000      0.000
REMARK INTER + INTRA:          -7.262
REMARK INTER:                  -6.808
REMARK INTRA:                  -0.454
REMARK UNBOUND:                -0.454
REMARK SMILES CC(=O)OCC[C@@H](C)CCC=C(C)C
REMARK SMILES IDX 8 1 7 2 9 3 10 4 11 5 12 6 13 7 14 8 6 9 5 10 4 11 2 12 3 13
REMARK SMILES IDX 1 14
REMARK H PARENT
REMARK Flexibility Score: inf
ROOT
ATOM      1  C   UNL     1      66.006  51.727  18.927  1.00  0.00     0.008 C 
ATOM      2  C   UNL     1      67.537  51.836  19.017  1.00  0.00    -0.011 C 
ENDROOT
BRANCH   2   3
ATOM      3  C   UNL     1      68.185  52.097  17.632  1.00  0.00     0.007 C 
BRANCH   3   4
ATOM      4  C   UNL     1      69.612  52.669  17.707  1.00  0.00     0.027 C 
BRANCH   4   5
ATOM      5  C   UNL     1      69.813  53.839  16.774  1.00  0.00    -0.028 C 
ATOM      6  C   UNL     1      71.013  54.383  16.472  1.00  0.00    -0.080 C 
ATOM      7  C   UNL     1      71.053  55.527  15.492  1.00  0.00     0.039 C 
ATOM      8  C   UNL     1      72.297  53.897  17.101  1.00  0.00     0.039 C 
ENDBRANCH   4   5
ENDBRANCH   3   4
ENDBRANCH   2   3
BRANCH   2   9
ATOM      9  C   UNL     1      67.972  52.895  20.060  1.00  0.00     0.045 C 
BRANCH   9  10
ATOM     10  C   UNL     1      68.892  52.363  21.164  1.00  0.00     0.233 C 
BRANCH  10  11
ATOM     11  O   UNL     1      68.963  50.944  21.072  1.00  0.00    -0.466 OA
BRANCH  11  12
ATOM     12  C   UNL     1      69.328  50.136  22.152  1.00  0.00     0.302 C 
ATOM     13  O   UNL     1      70.182  50.530  22.992  1.00  0.00    -0.253 OA
ATOM     14  C   UNL     1      68.663  48.815  22.340  1.00  0.00     0.139 C 
ENDBRANCH  11  12
ENDBRANCH  10  11
ENDBRANCH   9  10
ENDBRANCH   2   9
TORSDOF 7
ENDMDL
MODEL 2
REMARK VINA RESULT:    -4.574      2.094      3.689
REMARK INTER + INTRA:          -6.900
REMARK INTER:                  -6.333
REMARK INTRA:                  -0.567
REMARK UNBOUND:                -0.454
REMARK SMILES CC(=O)OCC[C@@H](C)CCC=C(C)C
REMARK SMILES IDX 8 1 7 2 9 3 10 4 11 5 12 6 13 7 14 8 6 9 5 10 4 11 2 12 3 13
REMARK SMILES IDX 1 14
REMARK H PARENT
REMARK Flexibility Score: inf
ROOT
ATOM      1  C   UNL     1      69.617  54.696  18.163  1.00  0.00     0.008 C 
ATOM      2  C   UNL     1      70.177  53.465  17.432  1.00  0.00    -0.011 C 
ENDROOT
BRANCH   2   3
ATOM      3  C   UNL     1      71.662  53.654  17.024  1.00  0.00     0.007 C 
BRANCH   3   4
ATOM      4  C   UNL     1      71.947  54.982  16.302  1.00  0.00     0.027 C 
BRANCH   4   5
ATOM      5  C   UNL     1      71.550  54.942  14.845  1.00  0.00    -0.028 C 
ATOM      6  C   UNL     1      71.628  55.993  13.999  1.00  0.00    -0.080 C 
ATOM      7  C   UNL     1      71.227  55.785  12.561  1.00  0.00     0.039 C 
ATOM      8  C   UNL     1      72.078  57.361  14.455  1.00  0.00     0.039 C 
ENDBRANCH   4   5
ENDBRANCH   3   4
ENDBRANCH   2   3
BRANCH   2   9
ATOM      9  C   UNL     1      69.972  52.170  18.258  1.00  0.00     0.045 C 
BRANCH   9  10
ATOM     10  C   UNL     1      69.470  52.399  19.688  1.00  0.00     0.233 C 
BRANCH  10  11
ATOM     11  O   UNL     1      68.298  51.620  19.903  1.00  0.00    -0.466 OA
BRANCH  11  12
ATOM     12  C   UNL     1      67.026  52.047  19.510  1.00  0.00     0.302 C 
ATOM     13  O   UNL     1      66.601  53.188  19.835  1.00  0.00    -0.253 OA
ATOM     14  C   UNL     1      66.185  51.160  18.656  1.00  0.00     0.139 C 
ENDBRANCH  11  12
ENDBRANCH  10  11
ENDBRANCH   9  10
ENDBRANCH   2   9
TORSDOF 7
ENDMDL
MODEL 3
REMARK VINA RESULT:    -4.495      2.490      5.941
REMARK INTER + INTRA:          -6.788
REMARK INTER:                  -6.466
REMARK INTRA:                  -0.323
REMARK UNBOUND:                -0.454
REMARK SMILES CC(=O)OCC[C@@H](C)CCC=C(C)C
REMARK SMILES IDX 8 1 7 2 9 3 10 4 11 5 12 6 13 7 14 8 6 9 5 10 4 11 2 12 3 13
REMARK SMILES IDX 1 14
REMARK H PARENT
REMARK Flexibility Score: inf
ROOT
ATOM      1  C   UNL     1      66.187  51.229  18.495  1.00  0.00     0.008 C 
ATOM      2  C   UNL     1      67.159  52.416  18.605  1.00  0.00    -0.011 C 
ENDROOT
BRANCH   2   3
ATOM      3  C   UNL     1      67.732  52.569  20.038  1.00  0.00     0.007 C 
BRANCH   3   4
ATOM      4  C   UNL     1      68.395  51.293  20.586  1.00  0.00     0.027 C 
BRANCH   4   5
ATOM      5  C   UNL     1      69.447  51.593  21.627  1.00  0.00    -0.028 C 
ATOM      6  C   UNL     1      69.847  50.729  22.586  1.00  0.00    -0.080 C 
ATOM      7  C   UNL     1      70.937  51.163  23.532  1.00  0.00     0.039 C 
ATOM      8  C   UNL     1      69.222  49.363  22.748  1.00  0.00     0.039 C 
ENDBRANCH   4   5
ENDBRANCH   3   4
ENDBRANCH   2   3
BRANCH   2   9
ATOM      9  C   UNL     1      68.285  52.330  17.545  1.00  0.00     0.045 C 
BRANCH   9  10
ATOM     10  C   UNL     1      69.511  53.198  17.846  1.00  0.00     0.233 C 
BRANCH  10  11
ATOM     11  O   UNL     1      69.894  53.896  16.666  1.00  0.00    -0.466 OA
BRANCH  11  12
ATOM     12  C   UNL     1      71.228  54.176  16.354  1.00  0.00     0.302 C 
ATOM     13  O   UNL     1      72.164  53.722  17.065  1.00  0.00    -0.253 OA
ATOM     14  C   UNL     1      71.545  54.980  15.140  1.00  0.00     0.139 C 
ENDBRANCH  11  12
ENDBRANCH  10  11
ENDBRANCH   9  10
ENDBRANCH   2   9
TORSDOF 7
ENDMDL
MODEL 4
REMARK VINA RESULT:    -4.460      3.755      7.292
REMARK INTER + INTRA:          -6.738
REMARK INTER:                  -6.303
REMARK INTRA:                  -0.435
REMARK UNBOUND:                -0.454
REMARK SMILES CC(=O)OCC[C@@H](C)CCC=C(C)C
REMARK SMILES IDX 8 1 7 2 9 3 10 4 11 5 12 6 13 7 14 8 6 9 5 10 4 11 2 12 3 13
REMARK SMILES IDX 1 14
REMARK H PARENT
REMARK Flexibility Score: inf
ROOT
ATOM      1  C   UNL     1      72.147  54.096  19.020  1.00  0.00     0.008 C 
ATOM      2  C   UNL     1      71.532  53.581  17.708  1.00  0.00    -0.011 C 
ENDROOT
BRANCH   2   3
ATOM      3  C   UNL     1      69.983  53.530  17.770  1.00  0.00     0.007 C 
BRANCH   3   4
ATOM      4  C   UNL     1      69.398  52.115  17.620  1.00  0.00     0.027 C 
BRANCH   4   5
ATOM      5  C   UNL     1      67.890  52.104  17.711  1.00  0.00    -0.028 C 
ATOM      6  C   UNL     1      67.191  51.876  18.846  1.00  0.00    -0.080 C 
ATOM      7  C   UNL     1      65.687  51.934  18.783  1.00  0.00     0.039 C 
ATOM      8  C   UNL     1      67.869  51.545  20.154  1.00  0.00     0.039 C 
ENDBRANCH   4   5
ENDBRANCH   3   4
ENDBRANCH   2   3
BRANCH   2   9
ATOM      9  C   UNL     1      72.028  54.397  16.488  1.00  0.00     0.045 C 
BRANCH   9  10
ATOM     10  C   UNL     1      70.912  54.995  15.624  1.00  0.00     0.233 C 
BRANCH  10  11
ATOM     11  O   UNL     1      71.288  54.921  14.253  1.00  0.00    -0.466 OA
BRANCH  11  12
ATOM     12  C   UNL     1      71.571  56.055  13.487  1.00  0.00     0.302 C 
ATOM     13  O   UNL     1      71.506  56.014  12.229  1.00  0.00    -0.253 OA
ATOM     14  C   UNL     1      71.904  57.338  14.168  1.00  0.00     0.139 C 
ENDBRANCH  11  12
ENDBRANCH  10  11
ENDBRANCH   9  10
ENDBRANCH   2   9
TORSDOF 7
ENDMDL
MODEL 5
REMARK VINA RESULT:    -4.433      2.349      3.986
REMARK INTER + INTRA:          -6.700
REMARK INTER:                  -5.712
REMARK INTRA:                  -0.989
REMARK UNBOUND:                -0.454
REMARK SMILES CC(=O)OCC[C@@H](C)CCC=C(C)C
REMARK SMILES IDX 8 1 7 2 9 3 10 4 11 5 12 6 13 7 14 8 6 9 5 10 4 11 2 12 3 13
REMARK SMILES IDX 1 14
REMARK H PARENT
REMARK Flexibility Score: inf
ROOT
ATOM      1  C   UNL     1      67.909  55.423  23.001  1.00  0.00     0.008 C 
ATOM      2  C   UNL     1      68.234  54.028  22.442  1.00  0.00    -0.011 C 
ENDROOT
BRANCH   2   3
ATOM      3  C   UNL     1      68.979  54.103  21.083  1.00  0.00     0.007 C 
BRANCH   3   4
ATOM      4  C   UNL     1      68.054  54.334  19.875  1.00  0.00     0.027 C 
BRANCH   4   5
ATOM      5  C   UNL     1      67.073  53.204  19.677  1.00  0.00    -0.028 C 
ATOM      6  C   UNL     1      67.105  52.330  18.646  1.00  0.00    -0.080 C 
ATOM      7  C   UNL     1      66.076  51.230  18.607  1.00  0.00     0.039 C 
ATOM      8  C   UNL     1      68.119  52.440  17.532  1.00  0.00     0.039 C 
ENDBRANCH   4   5
ENDBRANCH   3   4
ENDBRANCH   2   3
BRANCH   2   9
ATOM      9  C   UNL     1      69.009  53.168  23.471  1.00  0.00     0.045 C 
BRANCH   9  10
ATOM     10  C   UNL     1      70.277  52.504  22.922  1.00  0.00     0.233 C 
BRANCH  10  11
ATOM     11  O   UNL     1      70.212  51.101  23.158  1.00  0.00    -0.466 OA
BRANCH  11  12
ATOM     12  C   UNL     1      69.243  50.282  22.570  1.00  0.00     0.302 C 
ATOM     13  O   UNL     1      68.561  49.487  23.272  1.00  0.00    -0.253 OA
ATOM     14  C   UNL     1      68.981  50.388  21.107  1.00  0.00     0.139 C 
ENDBRANCH  11  12
ENDBRANCH  10  11
ENDBRANCH   9  10
ENDBRANCH   2   9
TORSDOF 7
ENDMDL
MODEL 6
REMARK VINA RESULT:    -4.427      1.159      2.285
REMARK INTER + INTRA:          -6.692
REMARK INTER:                  -6.366
REMARK INTRA:                  -0.326
REMARK UNBOUND:                -0.454
REMARK SMILES CC(=O)OCC[C@@H](C)CCC=C(C)C
REMARK SMILES IDX 8 1 7 2 9 3 10 4 11 5 12 6 13 7 14 8 6 9 5 10 4 11 2 12 3 13
REMARK SMILES IDX 1 14
REMARK H PARENT
REMARK Flexibility Score: inf
ROOT
ATOM      1  C   UNL     1      68.325  52.308  17.730  1.00  0.00     0.008 C 
ATOM      2  C   UNL     1      69.810  52.711  17.720  1.00  0.00    -0.011 C 
ENDROOT
BRANCH   2   3
ATOM      3  C   UNL     1      70.037  54.082  17.031  1.00  0.00     0.007 C 
BRANCH   3   4
ATOM      4  C   UNL     1      71.431  54.240  16.398  1.00  0.00     0.027 C 
BRANCH   4   5
ATOM      5  C   UNL     1      71.360  54.586  14.930  1.00  0.00    -0.028 C 
ATOM      6  C   UNL     1      71.540  55.826  14.423  1.00  0.00    -0.080 C 
ATOM      7  C   UNL     1      71.474  56.005  12.928  1.00  0.00     0.039 C 
ATOM      8  C   UNL     1      71.778  57.028  15.307  1.00  0.00     0.039 C 
ENDBRANCH   4   5
ENDBRANCH   3   4
ENDBRANCH   2   3
BRANCH   2   9
ATOM      9  C   UNL     1      70.418  52.679  19.144  1.00  0.00     0.045 C 
BRANCH   9  10
ATOM     10  C   UNL     1      69.437  52.269  20.248  1.00  0.00     0.233 C 
BRANCH  10  11
ATOM     11  O   UNL     1      69.731  50.941  20.667  1.00  0.00    -0.466 OA
BRANCH  11  12
ATOM     12  C   UNL     1      69.495  50.492  21.969  1.00  0.00     0.302 C 
ATOM     13  O   UNL     1      69.700  51.247  22.958  1.00  0.00    -0.253 OA
ATOM     14  C   UNL     1      68.947  49.123  22.186  1.00  0.00     0.139 C 
ENDBRANCH  11  12
ENDBRANCH  10  11
ENDBRANCH   9  10
ENDBRANCH   2   9
TORSDOF 7
ENDMDL
MODEL 7
REMARK VINA RESULT:    -4.400      3.360      6.269
REMARK INTER + INTRA:          -6.654
REMARK INTER:                  -5.980
REMARK INTRA:                  -0.674
REMARK UNBOUND:                -0.454
REMARK SMILES CC(=O)OCC[C@@H](C)CCC=C(C)C
REMARK SMILES IDX 8 1 7 2 9 3 10 4 11 5 12 6 13 7 14 8 6 9 5 10 4 11 2 12 3 13
REMARK SMILES IDX 1 14
REMARK H PARENT
REMARK Flexibility Score: inf
ROOT
ATOM      1  C   UNL     1      70.184  52.028  19.003  1.00  0.00     0.008 C 
ATOM      2  C   UNL     1      69.425  52.257  17.685  1.00  0.00    -0.011 C 
ENDROOT
BRANCH   2   3
ATOM      3  C   UNL     1      67.887  52.214  17.882  1.00  0.00     0.007 C 
BRANCH   3   4
ATOM      4  C   UNL     1      67.450  51.985  19.340  1.00  0.00     0.027 C 
BRANCH   4   5
ATOM      5  C   UNL     1      66.570  53.098  19.857  1.00  0.00    -0.028 C 
ATOM      6  C   UNL     1      66.999  54.118  20.633  1.00  0.00    -0.080 C 
ATOM      7  C   UNL     1      66.004  55.175  21.041  1.00  0.00     0.039 C 
ATOM      8  C   UNL     1      68.426  54.213  21.118  1.00  0.00     0.039 C 
ENDBRANCH   4   5
ENDBRANCH   3   4
ENDBRANCH   2   3
BRANCH   2   9
ATOM      9  C   UNL     1      69.876  53.565  16.988  1.00  0.00     0.045 C 
BRANCH   9  10
ATOM     10  C   UNL     1      71.355  53.914  17.183  1.00  0.00     0.233 C 
BRANCH  10  11
ATOM     11  O   UNL     1      71.930  54.241  15.923  1.00  0.00    -0.466 OA
BRANCH  11  12
ATOM     12  C   UNL     1      71.548  55.368  15.189  1.00  0.00     0.302 C 
ATOM     13  O   UNL     1      71.366  56.477  15.759  1.00  0.00    -0.253 OA
ATOM     14  C   UNL     1      71.404  55.265  13.708  1.00  0.00     0.139 C 
ENDBRANCH  11  12
ENDBRANCH  10  11
ENDBRANCH   9  10
ENDBRANCH   2   9
TORSDOF 7
ENDMDL
MODEL 8
REMARK VINA RESULT:    -4.334      3.396      7.103
REMARK INTER + INTRA:          -6.561
REMARK INTER:                  -6.060
REMARK INTRA:                  -0.501
REMARK UNBOUND:                -0.454
REMARK SMILES CC(=O)OCC[C@@H](C)CCC=C(C)C
REMARK SMILES IDX 8 1 7 2 9 3 10 4 11 5 12 6 13 7 14 8 6 9 5 10 4 11 2 12 3 13
REMARK SMILES IDX 1 14
REMARK H PARENT
REMARK Flexibility Score: inf
ROOT
ATOM      1  C   UNL     1      71.203  53.759  19.553  1.00  0.00     0.008 C 
ATOM      2  C   UNL     1      70.798  52.935  18.319  1.00  0.00    -0.011 C 
ENDROOT
BRANCH   2   3
ATOM      3  C   UNL     1      69.583  52.015  18.604  1.00  0.00     0.007 C 
BRANCH   3   4
ATOM      4  C   UNL     1      68.953  52.222  19.993  1.00  0.00     0.027 C 
BRANCH   4   5
ATOM      5  C   UNL     1      68.751  50.921  20.733  1.00  0.00    -0.028 C 
ATOM      6  C   UNL     1      69.331  50.611  21.914  1.00  0.00    -0.080 C 
ATOM      7  C   UNL     1      69.001  49.284  22.547  1.00  0.00     0.039 C 
ATOM      8  C   UNL     1      70.308  51.539  22.597  1.00  0.00     0.039 C 
ENDBRANCH   4   5
ENDBRANCH   3   4
ENDBRANCH   2   3
BRANCH   2   9
ATOM      9  C   UNL     1      70.552  53.840  17.086  1.00  0.00     0.045 C 
BRANCH   9  10
ATOM     10  C   UNL     1      71.822  54.443  16.474  1.00  0.00     0.233 C 
BRANCH  10  11
ATOM     11  O   UNL     1      71.679  54.499  15.058  1.00  0.00    -0.466 OA
BRANCH  11  12
ATOM     12  C   UNL     1      71.320  55.669  14.383  1.00  0.00     0.302 C 
ATOM     13  O   UNL     1      70.958  56.695  15.019  1.00  0.00    -0.253 OA
ATOM     14  C   UNL     1      71.416  55.717  12.896  1.00  0.00     0.139 C 
ENDBRANCH  11  12
ENDBRANCH  10  11
ENDBRANCH   9  10
ENDBRANCH   2   9
TORSDOF 7
ENDMDL
MODEL 9
REMARK VINA RESULT:    -4.311      1.649      4.123
REMARK INTER + INTRA:          -6.528
REMARK INTER:                  -5.629
REMARK INTRA:                  -0.899
REMARK UNBOUND:                -0.454
REMARK SMILES CC(=O)OCC[C@@H](C)CCC=C(C)C
REMARK SMILES IDX 8 1 7 2 9 3 10 4 11 5 12 6 13 7 14 8 6 9 5 10 4 11 2 12 3 13
REMARK SMILES IDX 1 14
REMARK H PARENT
REMARK Flexibility Score: inf
ROOT
ATOM      1  C   UNL     1      71.779  54.747  17.462  1.00  0.00     0.008 C 
ATOM      2  C   UNL     1      71.085  54.050  18.644  1.00  0.00    -0.011 C 
ENDROOT
BRANCH   2   3
ATOM      3  C   UNL     1      70.378  52.738  18.214  1.00  0.00     0.007 C 
BRANCH   3   4
ATOM      4  C   UNL     1      69.103  52.958  17.380  1.00  0.00     0.027 C 
BRANCH   4   5
ATOM      5  C   UNL     1      68.021  51.957  17.709  1.00  0.00    -0.028 C 
ATOM      6  C   UNL     1      67.163  52.066  18.747  1.00  0.00    -0.080 C 
ATOM      7  C   UNL     1      66.112  51.001  18.922  1.00  0.00     0.039 C 
ATOM      8  C   UNL     1      67.243  53.202  19.739  1.00  0.00     0.039 C 
ENDBRANCH   4   5
ENDBRANCH   3   4
ENDBRANCH   2   3
BRANCH   2   9
ATOM      9  C   UNL     1      72.064  53.812  19.820  1.00  0.00     0.045 C 
BRANCH   9  10
ATOM     10  C   UNL     1      71.403  53.781  21.203  1.00  0.00     0.233 C 
BRANCH  10  11
ATOM     11  O   UNL     1      71.227  52.427  21.608  1.00  0.00    -0.466 OA
BRANCH  11  12
ATOM     12  C   UNL     1      69.978  51.898  21.944  1.00  0.00     0.302 C 
ATOM     13  O   UNL     1      69.235  52.480  22.779  1.00  0.00    -0.253 OA
ATOM     14  C   UNL     1      69.500  50.657  21.269  1.00  0.00     0.139 C 
ENDBRANCH  11  12
ENDBRANCH  10  11
ENDBRANCH   9  10
ENDBRANCH   2   9
TORSDOF 7
ENDMDL
