MODEL 1
REMARK VINA RESULT:    -7.508      0.000      0.000
REMARK INTER + INTRA:          -7.508
REMARK INTER:                  -7.508
REMARK INTRA:                   0.000
REMARK UNBOUND:                 0.000
REMARK SMILES C=C1CCC[C@@]2(C)C=C3OC(=O)C(C)=C3C[C@H]12
REMARK SMILES IDX 14 1 13 2 15 3 16 4 17 5 2 6 1 7 3 8 4 9 5 10 6 11 8 12 9 13
REMARK SMILES IDX 10 14 11 15 12 16 7 17
REMARK H PARENT
REMARK Flexibility Score: inf
ROOT
ATOM      1  C   UNL     1       3.694  44.001  -2.829  1.00  0.00     0.053 C 
ATOM      2  C   UNL     1       2.232  44.209  -2.595  1.00  0.00     0.041 C 
ATOM      3  C   UNL     1       1.646  44.471  -1.430  1.00  0.00     0.005 C 
ATOM      4  C   UNL     1       2.254  44.551  -0.063  1.00  0.00     0.049 C 
ATOM      5  C   UNL     1       1.302  45.344   0.880  1.00  0.00     0.029 C 
ATOM      6  C   UNL     1       1.718  45.363   2.351  1.00  0.00    -0.073 C 
ATOM      7  C   UNL     1       2.928  44.966   2.783  1.00  0.00     0.008 C 
ATOM      8  C   UNL     1       0.728  45.896   3.363  1.00  0.00     0.031 C 
ATOM      9  C   UNL     1      -0.419  46.653   2.685  1.00  0.00     0.005 C 
ATOM     10  C   UNL     1      -1.136  45.828   1.595  1.00  0.00     0.012 C 
ATOM     11  C   UNL     1      -0.204  44.883   0.758  1.00  0.00    -0.004 C 
ATOM     12  C   UNL     1      -0.651  44.908  -0.700  1.00  0.00     0.027 C 
ATOM     13  C   UNL     1       0.228  44.663  -1.669  1.00  0.00     0.131 C 
ATOM     14  O   UNL     1      -0.049  44.556  -3.024  1.00  0.00    -0.423 OA
ATOM     15  C   UNL     1       1.180  44.281  -3.612  1.00  0.00     0.339 C 
ATOM     16  O   UNL     1       1.346  44.123  -4.849  1.00  0.00    -0.246 OA
ATOM     17  C   UNL     1      -0.374  43.425   1.257  1.00  0.00     0.016 C 
ENDROOT
TORSDOF 0
ENDMDL
MODEL 2
REMARK VINA RESULT:    -6.624      2.129      3.587
REMARK INTER + INTRA:          -6.624
REMARK INTER:                  -6.624
REMARK INTRA:                   0.000
REMARK UNBOUND:                 0.000
REMARK SMILES C=C1CCC[C@@]2(C)C=C3OC(=O)C(C)=C3C[C@H]12
REMARK SMILES IDX 14 1 13 2 15 3 16 4 17 5 2 6 1 7 3 8 4 9 5 10 6 11 8 12 9 13
REMARK SMILES IDX 10 14 11 15 12 16 7 17
REMARK H PARENT
REMARK Flexibility Score: inf
ROOT
ATOM      1  C   UNL     1       0.767  44.363  -3.154  1.00  0.00     0.053 C 
ATOM      2  C   UNL     1       1.182  44.566  -1.732  1.00  0.00     0.041 C 
ATOM      3  C   UNL     1       0.375  44.718  -0.686  1.00  0.00     0.005 C 
ATOM      4  C   UNL     1      -1.121  44.803  -0.650  1.00  0.00     0.049 C 
ATOM      5  C   UNL     1      -1.620  44.489   0.791  1.00  0.00     0.029 C 
ATOM      6  C   UNL     1      -3.118  44.701   1.014  1.00  0.00    -0.073 C 
ATOM      7  C   UNL     1      -3.998  44.886   0.014  1.00  0.00     0.008 C 
ATOM      8  C   UNL     1      -3.638  44.659   2.434  1.00  0.00     0.031 C 
ATOM      9  C   UNL     1      -2.603  44.064   3.396  1.00  0.00     0.005 C 
ATOM     10  C   UNL     1      -1.233  44.771   3.332  1.00  0.00     0.012 C 
ATOM     11  C   UNL     1      -0.803  45.256   1.903  1.00  0.00    -0.004 C 
ATOM     12  C   UNL     1       0.693  45.014   1.725  1.00  0.00     0.027 C 
ATOM     13  C   UNL     1       1.194  44.820   0.507  1.00  0.00     0.131 C 
ATOM     14  O   UNL     1       2.535  44.685   0.181  1.00  0.00    -0.423 OA
ATOM     15  C   UNL     1       2.546  44.522  -1.199  1.00  0.00     0.339 C 
ATOM     16  O   UNL     1       3.592  44.356  -1.878  1.00  0.00    -0.246 OA
ATOM     17  C   UNL     1      -1.027  46.786   1.794  1.00  0.00     0.016 C 
ENDROOT
TORSDOF 0
ENDMDL
MODEL 3
REMARK VINA RESULT:    -6.602      4.238      7.005
REMARK INTER + INTRA:          -6.602
REMARK INTER:                  -6.602
REMARK INTRA:                   0.000
REMARK UNBOUND:                 0.000
REMARK SMILES C=C1CCC[C@@]2(C)C=C3OC(=O)C(C)=C3C[C@H]12
REMARK SMILES IDX 14 1 13 2 15 3 16 4 17 5 2 6 1 7 3 8 4 9 5 10 6 11 8 12 9 13
REMARK SMILES IDX 10 14 11 15 12 16 7 17
REMARK H PARENT
REMARK Flexibility Score: inf
ROOT
ATOM      1  C   UNL     1      -0.572  47.014   7.598  1.00  0.00     0.053 C 
ATOM      2  C   UNL     1      -1.456  46.405   6.557  1.00  0.00     0.041 C 
ATOM      3  C   UNL     1      -1.111  46.083   5.314  1.00  0.00     0.005 C 
ATOM      4  C   UNL     1       0.192  46.302   4.608  1.00  0.00     0.049 C 
ATOM      5  C   UNL     1       0.282  45.346   3.382  1.00  0.00     0.029 C 
ATOM      6  C   UNL     1       1.489  45.577   2.472  1.00  0.00    -0.073 C 
ATOM      7  C   UNL     1       2.537  46.349   2.812  1.00  0.00     0.008 C 
ATOM      8  C   UNL     1       1.519  44.865   1.138  1.00  0.00     0.031 C 
ATOM      9  C   UNL     1       0.472  43.748   1.071  1.00  0.00     0.005 C 
ATOM     10  C   UNL     1      -0.956  44.228   1.406  1.00  0.00     0.012 C 
ATOM     11  C   UNL     1      -1.040  45.331   2.519  1.00  0.00    -0.004 C 
ATOM     12  C   UNL     1      -2.250  45.052   3.406  1.00  0.00     0.027 C 
ATOM     13  C   UNL     1      -2.254  45.461   4.672  1.00  0.00     0.131 C 
ATOM     14  O   UNL     1      -3.312  45.365   5.564  1.00  0.00    -0.423 OA
ATOM     15  C   UNL     1      -2.834  45.940   6.737  1.00  0.00     0.339 C 
ATOM     16  O   UNL     1      -3.507  46.033   7.796  1.00  0.00    -0.246 OA
ATOM     17  C   UNL     1      -1.279  46.711   1.854  1.00  0.00     0.016 C 
ENDROOT
TORSDOF 0
ENDMDL
MODEL 4
REMARK VINA RESULT:    -6.331     10.142     12.581
REMARK INTER + INTRA:          -6.331
REMARK INTER:                  -6.331
REMARK INTRA:                   0.000
REMARK UNBOUND:                 0.000
REMARK SMILES C=C1CCC[C@@]2(C)C=C3OC(=O)C(C)=C3C[C@H]12
REMARK SMILES IDX 14 1 13 2 15 3 16 4 17 5 2 6 1 7 3 8 4 9 5 10 6 11 8 12 9 13
REMARK SMILES IDX 10 14 11 15 12 16 7 17
REMARK H PARENT
REMARK Flexibility Score: inf
ROOT
ATOM      1  C   UNL     1       5.498  42.990  10.507  1.00  0.00     0.053 C 
ATOM      2  C   UNL     1       5.853  42.228   9.271  1.00  0.00     0.041 C 
ATOM      3  C   UNL     1       6.067  40.919   9.181  1.00  0.00     0.005 C 
ATOM      4  C   UNL     1       6.087  39.888  10.267  1.00  0.00     0.049 C 
ATOM      5  C   UNL     1       5.889  38.475   9.642  1.00  0.00     0.029 C 
ATOM      6  C   UNL     1       6.053  37.309  10.617  1.00  0.00    -0.073 C 
ATOM      7  C   UNL     1       6.102  37.461  11.953  1.00  0.00     0.008 C 
ATOM      8  C   UNL     1       6.122  35.910  10.047  1.00  0.00     0.031 C 
ATOM      9  C   UNL     1       5.668  35.875   8.583  1.00  0.00     0.005 C 
ATOM     10  C   UNL     1       6.427  36.873   7.684  1.00  0.00     0.012 C 
ATOM     11  C   UNL     1       6.794  38.236   8.370  1.00  0.00    -0.004 C 
ATOM     12  C   UNL     1       6.604  39.367   7.363  1.00  0.00     0.027 C 
ATOM     13  C   UNL     1       6.318  40.595   7.788  1.00  0.00     0.131 C 
ATOM     14  O   UNL     1       6.213  41.734   7.005  1.00  0.00    -0.423 OA
ATOM     15  C   UNL     1       5.921  42.753   7.904  1.00  0.00     0.339 C 
ATOM     16  O   UNL     1       5.739  43.953   7.571  1.00  0.00    -0.246 OA
ATOM     17  C   UNL     1       8.295  38.226   8.757  1.00  0.00     0.016 C 
ENDROOT
TORSDOF 0
ENDMDL
MODEL 5
REMARK VINA RESULT:    -6.052     12.736     13.945
REMARK INTER + INTRA:          -6.052
REMARK INTER:                  -6.052
REMARK INTRA:                   0.000
REMARK UNBOUND:                 0.000
REMARK SMILES C=C1CCC[C@@]2(C)C=C3OC(=O)C(C)=C3C[C@H]12
REMARK SMILES IDX 14 1 13 2 15 3 16 4 17 5 2 6 1 7 3 8 4 9 5 10 6 11 8 12 9 13
REMARK SMILES IDX 10 14 11 15 12 16 7 17
REMARK H PARENT
REMARK Flexibility Score: inf
ROOT
ATOM      1  C   UNL     1      10.903  35.891   7.764  1.00  0.00     0.053 C 
ATOM      2  C   UNL     1       9.485  36.312   7.551  1.00  0.00     0.041 C 
ATOM      3  C   UNL     1       8.660  36.810   8.467  1.00  0.00     0.005 C 
ATOM      4  C   UNL     1       8.887  37.010   9.934  1.00  0.00     0.049 C 
ATOM      5  C   UNL     1       7.858  38.044  10.479  1.00  0.00     0.029 C 
ATOM      6  C   UNL     1       7.866  38.223  11.998  1.00  0.00    -0.073 C 
ATOM      7  C   UNL     1       8.838  37.745  12.795  1.00  0.00     0.008 C 
ATOM      8  C   UNL     1       6.742  39.016  12.626  1.00  0.00     0.031 C 
ATOM      9  C   UNL     1       5.952  39.804  11.575  1.00  0.00     0.005 C 
ATOM     10  C   UNL     1       5.428  38.926  10.419  1.00  0.00     0.012 C 
ATOM     11  C   UNL     1       6.386  37.762   9.984  1.00  0.00    -0.004 C 
ATOM     12  C   UNL     1       6.352  37.630   8.465  1.00  0.00     0.027 C 
ATOM     13  C   UNL     1       7.406  37.141   7.816  1.00  0.00     0.131 C 
ATOM     14  O   UNL     1       7.485  36.875   6.458  1.00  0.00    -0.423 OA
ATOM     15  C   UNL     1       8.766  36.366   6.275  1.00  0.00     0.339 C 
ATOM     16  O   UNL     1       9.227  36.012   5.159  1.00  0.00    -0.246 OA
ATOM     17  C   UNL     1       5.858  36.424  10.564  1.00  0.00     0.016 C 
ENDROOT
TORSDOF 0
ENDMDL
MODEL 6
REMARK VINA RESULT:    -6.031     10.804     13.387
REMARK INTER + INTRA:          -6.031
REMARK INTER:                  -6.031
REMARK INTRA:                   0.000
REMARK UNBOUND:                 0.000
REMARK SMILES C=C1CCC[C@@]2(C)C=C3OC(=O)C(C)=C3C[C@H]12
REMARK SMILES IDX 14 1 13 2 15 3 16 4 17 5 2 6 1 7 3 8 4 9 5 10 6 11 8 12 9 13
REMARK SMILES IDX 10 14 11 15 12 16 7 17
REMARK H PARENT
REMARK Flexibility Score: inf
ROOT
ATOM      1  C   UNL     1       5.624  42.268   7.647  1.00  0.00     0.053 C 
ATOM      2  C   UNL     1       5.570  41.405   8.867  1.00  0.00     0.041 C 
ATOM      3  C   UNL     1       6.053  40.171   8.986  1.00  0.00     0.005 C 
ATOM      4  C   UNL     1       6.694  39.303   7.948  1.00  0.00     0.049 C 
ATOM      5  C   UNL     1       7.517  38.182   8.649  1.00  0.00     0.029 C 
ATOM      6  C   UNL     1       8.093  37.121   7.711  1.00  0.00    -0.073 C 
ATOM      7  C   UNL     1       8.129  37.256   6.373  1.00  0.00     0.008 C 
ATOM      8  C   UNL     1       8.689  35.875   8.327  1.00  0.00     0.031 C 
ATOM      9  C   UNL     1       8.921  36.046   9.832  1.00  0.00     0.005 C 
ATOM     10  C   UNL     1       7.657  36.489  10.599  1.00  0.00     0.012 C 
ATOM     11  C   UNL     1       6.724  37.482   9.821  1.00  0.00    -0.004 C 
ATOM     12  C   UNL     1       6.184  38.525  10.795  1.00  0.00     0.027 C 
ATOM     13  C   UNL     1       5.844  39.733  10.354  1.00  0.00     0.131 C 
ATOM     14  O   UNL     1       5.254  40.745  11.097  1.00  0.00    -0.423 OA
ATOM     15  C   UNL     1       5.083  41.788  10.195  1.00  0.00     0.339 C 
ATOM     16  O   UNL     1       4.580  42.902  10.497  1.00  0.00    -0.246 OA
ATOM     17  C   UNL     1       5.500  36.706   9.269  1.00  0.00     0.016 C 
ENDROOT
TORSDOF 0
ENDMDL
MODEL 7
REMARK VINA RESULT:    -5.891      3.179      6.000
REMARK INTER + INTRA:          -5.891
REMARK INTER:                  -5.891
REMARK INTRA:                   0.000
REMARK UNBOUND:                 0.000
REMARK SMILES C=C1CCC[C@@]2(C)C=C3OC(=O)C(C)=C3C[C@H]12
REMARK SMILES IDX 14 1 13 2 15 3 16 4 17 5 2 6 1 7 3 8 4 9 5 10 6 11 8 12 9 13
REMARK SMILES IDX 10 14 11 15 12 16 7 17
REMARK H PARENT
REMARK Flexibility Score: inf
ROOT
ATOM      1  C   UNL     1      -0.623  46.798   5.671  1.00  0.00     0.053 C 
ATOM      2  C   UNL     1       0.312  46.324   4.604  1.00  0.00     0.041 C 
ATOM      3  C   UNL     1      -0.025  45.879   3.397  1.00  0.00     0.005 C 
ATOM      4  C   UNL     1      -1.388  45.662   2.815  1.00  0.00     0.049 C 
ATOM      5  C   UNL     1      -1.284  45.610   1.262  1.00  0.00     0.029 C 
ATOM      6  C   UNL     1      -2.578  45.229   0.542  1.00  0.00    -0.073 C 
ATOM      7  C   UNL     1      -3.780  45.194   1.145  1.00  0.00     0.008 C 
ATOM      8  C   UNL     1      -2.502  44.915  -0.936  1.00  0.00     0.031 C 
ATOM      9  C   UNL     1      -1.170  45.370  -1.542  1.00  0.00     0.005 C 
ATOM     10  C   UNL     1       0.062  44.812  -0.797  1.00  0.00     0.012 C 
ATOM     11  C   UNL     1      -0.103  44.690   0.758  1.00  0.00    -0.004 C 
ATOM     12  C   UNL     1       1.206  45.090   1.431  1.00  0.00     0.027 C 
ATOM     13  C   UNL     1       1.195  45.588   2.665  1.00  0.00     0.131 C 
ATOM     14  O   UNL     1       2.303  45.904   3.436  1.00  0.00    -0.423 OA
ATOM     15  C   UNL     1       1.776  46.366   4.636  1.00  0.00     0.339 C 
ATOM     16  O   UNL     1       2.476  46.764   5.603  1.00  0.00    -0.246 OA
ATOM     17  C   UNL     1      -0.365  43.207   1.129  1.00  0.00     0.016 C 
ENDROOT
TORSDOF 0
ENDMDL
MODEL 8
REMARK VINA RESULT:    -5.636     11.233     13.936
REMARK INTER + INTRA:          -5.636
REMARK INTER:                  -5.636
REMARK INTRA:                   0.000
REMARK UNBOUND:                 0.000
REMARK SMILES C=C1CCC[C@@]2(C)C=C3OC(=O)C(C)=C3C[C@H]12
REMARK SMILES IDX 14 1 13 2 15 3 16 4 17 5 2 6 1 7 3 8 4 9 5 10 6 11 8 12 9 13
REMARK SMILES IDX 10 14 11 15 12 16 7 17
REMARK H PARENT
REMARK Flexibility Score: inf
ROOT
ATOM      1  C   UNL     1       4.072  42.299   9.493  1.00  0.00     0.053 C 
ATOM      2  C   UNL     1       5.417  42.173  10.134  1.00  0.00     0.041 C 
ATOM      3  C   UNL     1       6.183  41.086  10.161  1.00  0.00     0.005 C 
ATOM      4  C   UNL     1       5.891  39.711   9.644  1.00  0.00     0.049 C 
ATOM      5  C   UNL     1       7.228  38.934   9.460  1.00  0.00     0.029 C 
ATOM      6  C   UNL     1       7.071  37.458   9.093  1.00  0.00    -0.073 C 
ATOM      7  C   UNL     1       5.907  36.912   8.698  1.00  0.00     0.008 C 
ATOM      8  C   UNL     1       8.301  36.580   9.139  1.00  0.00     0.031 C 
ATOM      9  C   UNL     1       9.585  37.412   9.223  1.00  0.00     0.005 C 
ATOM     10  C   UNL     1       9.585  38.420  10.391  1.00  0.00     0.012 C 
ATOM     11  C   UNL     1       8.193  39.074  10.702  1.00  0.00    -0.004 C 
ATOM     12  C   UNL     1       8.400  40.545  11.051  1.00  0.00     0.027 C 
ATOM     13  C   UNL     1       7.427  41.424  10.828  1.00  0.00     0.131 C 
ATOM     14  O   UNL     1       7.434  42.766  11.178  1.00  0.00    -0.423 OA
ATOM     15  C   UNL     1       6.201  43.246  10.753  1.00  0.00     0.339 C 
ATOM     16  O   UNL     1       5.829  44.441  10.885  1.00  0.00    -0.246 OA
ATOM     17  C   UNL     1       7.579  38.397  11.955  1.00  0.00     0.016 C 
ENDROOT
TORSDOF 0
ENDMDL
MODEL 9
REMARK VINA RESULT:    -5.620     13.127     15.016
REMARK INTER + INTRA:          -5.620
REMARK INTER:                  -5.620
REMARK INTRA:                   0.000
REMARK UNBOUND:                 0.000
REMARK SMILES C=C1CCC[C@@]2(C)C=C3OC(=O)C(C)=C3C[C@H]12
REMARK SMILES IDX 14 1 13 2 15 3 16 4 17 5 2 6 1 7 3 8 4 9 5 10 6 11 8 12 9 13
REMARK SMILES IDX 10 14 11 15 12 16 7 17
REMARK H PARENT
REMARK Flexibility Score: inf
ROOT
ATOM      1  C   UNL     1      11.771  39.308   9.739  1.00  0.00     0.053 C 
ATOM      2  C   UNL     1      10.583  39.239  10.645  1.00  0.00     0.041 C 
ATOM      3  C   UNL     1       9.379  38.767  10.337  1.00  0.00     0.005 C 
ATOM      4  C   UNL     1       8.869  38.261   9.022  1.00  0.00     0.049 C 
ATOM      5  C   UNL     1       7.605  37.384   9.262  1.00  0.00     0.029 C 
ATOM      6  C   UNL     1       6.882  36.935   7.992  1.00  0.00    -0.073 C 
ATOM      7  C   UNL     1       7.409  37.047   6.759  1.00  0.00     0.008 C 
ATOM      8  C   UNL     1       5.519  36.295   8.139  1.00  0.00     0.031 C 
ATOM      9  C   UNL     1       5.239  35.893   9.591  1.00  0.00     0.005 C 
ATOM     10  C   UNL     1       5.411  37.055  10.591  1.00  0.00     0.012 C 
ATOM     11  C   UNL     1       6.574  38.053  10.254  1.00  0.00    -0.004 C 
ATOM     12  C   UNL     1       7.271  38.462  11.548  1.00  0.00     0.027 C 
ATOM     13  C   UNL     1       8.550  38.829  11.527  1.00  0.00     0.131 C 
ATOM     14  O   UNL     1       9.285  39.314  12.598  1.00  0.00    -0.423 OA
ATOM     15  C   UNL     1      10.546  39.568  12.072  1.00  0.00     0.339 C 
ATOM     16  O   UNL     1      11.511  40.015  12.746  1.00  0.00    -0.246 OA
ATOM     17  C   UNL     1       5.977  39.344   9.637  1.00  0.00     0.016 C 
ENDROOT
TORSDOF 0
ENDMDL
