MODEL 1
REMARK VINA RESULT:    -5.189      0.000      0.000
REMARK INTER + INTRA:         -10.628
REMARK INTER:                  -9.435
REMARK INTRA:                  -1.193
REMARK UNBOUND:                -1.193
REMARK SMILES CCCCCCCCCCCCCCCC(=O)[O-]
REMARK SMILES IDX 9 1 10 2 11 3 12 4 13 5 14 6 15 7 16 8 17 9 18 10 8 11 7 12
REMARK SMILES IDX 6 13 5 14 4 15 3 16 2 17 1 18
REMARK H PARENT
REMARK Flexibility Score: inf
ROOT
ATOM      1  C   UNL     1      48.123  30.103  17.762  1.00  0.00     0.000 C 
ENDROOT
BRANCH   1   2
ATOM      2  C   UNL     1      48.023  31.597  18.094  1.00  0.00     0.000 C 
BRANCH   2   3
ATOM      3  C   UNL     1      49.102  32.398  17.355  1.00  0.00     0.000 C 
BRANCH   3   4
ATOM      4  C   UNL     1      48.588  33.791  16.971  1.00  0.00     0.000 C 
BRANCH   4   5
ATOM      5  C   UNL     1      47.607  33.761  15.786  1.00  0.00     0.000 C 
BRANCH   5   6
ATOM      6  C   UNL     1      48.254  33.303  14.462  1.00  0.00     0.006 C 
BRANCH   6   7
ATOM      7  C   UNL     1      48.161  34.377  13.369  1.00  0.00     0.053 C 
BRANCH   7   8
ATOM      8  C   UNL     1      48.618  33.826  12.055  1.00  0.00     0.041 C 
ATOM      9  O   UNL     1      47.775  33.495  11.179  1.00  0.00    -0.550 OA
ATOM     10  O   UNL     1      49.971  33.621  11.822  1.00  0.00    -0.550 OA
ENDBRANCH   7   8
ENDBRANCH   6   7
ENDBRANCH   5   6
ENDBRANCH   4   5
ENDBRANCH   3   4
ENDBRANCH   2   3
ENDBRANCH   1   2
BRANCH   1  11
ATOM     11  C   UNL     1      47.390  29.781  16.451  1.00  0.00     0.000 C 
BRANCH  11  12
ATOM     12  C   UNL     1      48.326  29.193  15.382  1.00  0.00    -0.000 C 
BRANCH  12  13
ATOM     13  C   UNL     1      49.157  28.014  15.915  1.00  0.00    -0.000 C 
BRANCH  13  14
ATOM     14  C   UNL     1      48.376  26.688  15.920  1.00  0.00    -0.000 C 
BRANCH  14  15
ATOM     15  C   UNL     1      48.354  25.986  17.295  1.00  0.00    -0.000 C 
BRANCH  15  16
ATOM     16  C   UNL     1      49.750  25.494  17.716  1.00  0.00    -0.000 C 
BRANCH  16  17
ATOM     17  C   UNL     1      49.825  25.133  19.208  1.00  0.00    -0.003 C 
ATOM     18  C   UNL     1      48.521  25.419  19.951  1.00  0.00     0.004 C 
ENDBRANCH  16  17
ENDBRANCH  15  16
ENDBRANCH  14  15
ENDBRANCH  13  14
ENDBRANCH  12  13
ENDBRANCH  11  12
ENDBRANCH   1  11
TORSDOF 14
ENDMDL
MODEL 2
REMARK VINA RESULT:    -5.051      3.308      6.343
REMARK INTER + INTRA:         -10.377
REMARK INTER:                  -8.627
REMARK INTRA:                  -1.750
REMARK UNBOUND:                -1.193
REMARK SMILES CCCCCCCCCCCCCCCC(=O)[O-]
REMARK SMILES IDX 9 1 10 2 11 3 12 4 13 5 14 6 15 7 16 8 17 9 18 10 8 11 7 12
REMARK SMILES IDX 6 13 5 14 4 15 3 16 2 17 1 18
REMARK H PARENT
REMARK Flexibility Score: inf
ROOT
ATOM      1  C   UNL     1      48.485  25.578  19.370  1.00  0.00     0.000 C 
ENDROOT
BRANCH   1   2
ATOM      2  C   UNL     1      49.875  25.087  18.948  1.00  0.00     0.000 C 
BRANCH   2   3
ATOM      3  C   UNL     1      50.123  25.351  17.458  1.00  0.00     0.000 C 
BRANCH   3   4
ATOM      4  C   UNL     1      48.856  25.876  16.771  1.00  0.00     0.000 C 
BRANCH   4   5
ATOM      5  C   UNL     1      49.150  26.956  15.717  1.00  0.00     0.000 C 
BRANCH   5   6
ATOM      6  C   UNL     1      48.323  28.244  15.907  1.00  0.00     0.006 C 
BRANCH   6   7
ATOM      7  C   UNL     1      48.585  28.908  17.265  1.00  0.00     0.053 C 
BRANCH   7   8
ATOM      8  C   UNL     1      47.941  30.258  17.320  1.00  0.00     0.041 C 
ATOM      9  O   UNL     1      47.749  30.912  16.262  1.00  0.00    -0.550 OA
ATOM     10  O   UNL     1      47.609  30.818  18.547  1.00  0.00    -0.550 OA
ENDBRANCH   7   8
ENDBRANCH   6   7
ENDBRANCH   5   6
ENDBRANCH   4   5
ENDBRANCH   3   4
ENDBRANCH   2   3
ENDBRANCH   1   2
BRANCH   1  11
ATOM     11  C   UNL     1      48.272  25.396  20.880  1.00  0.00     0.000 C 
BRANCH  11  12
ATOM     12  C   UNL     1      48.340  26.725  21.650  1.00  0.00    -0.000 C 
BRANCH  12  13
ATOM     13  C   UNL     1      49.543  26.788  22.605  1.00  0.00    -0.000 C 
BRANCH  13  14
ATOM     14  C   UNL     1      50.272  25.439  22.737  1.00  0.00    -0.000 C 
BRANCH  14  15
ATOM     15  C   UNL     1      51.778  25.512  22.410  1.00  0.00    -0.000 C 
BRANCH  15  16
ATOM     16  C   UNL     1      52.203  26.918  21.952  1.00  0.00    -0.000 C 
BRANCH  16  17
ATOM     17  C   UNL     1      52.758  26.932  20.519  1.00  0.00    -0.003 C 
ATOM     18  C   UNL     1      53.654  25.730  20.222  1.00  0.00     0.004 C 
ENDBRANCH  16  17
ENDBRANCH  15  16
ENDBRANCH  14  15
ENDBRANCH  13  14
ENDBRANCH  12  13
ENDBRANCH  11  12
ENDBRANCH   1  11
TORSDOF 14
ENDMDL
MODEL 3
REMARK VINA RESULT:    -5.029      3.852      8.826
REMARK INTER + INTRA:         -10.337
REMARK INTER:                  -9.145
REMARK INTRA:                  -1.192
REMARK UNBOUND:                -1.193
REMARK SMILES CCCCCCCCCCCCCCCC(=O)[O-]
REMARK SMILES IDX 9 1 10 2 11 3 12 4 13 5 14 6 15 7 16 8 17 9 18 10 8 11 7 12
REMARK SMILES IDX 6 13 5 14 4 15 3 16 2 17 1 18
REMARK H PARENT
REMARK Flexibility Score: inf
ROOT
ATOM      1  C   UNL     1      48.510  34.614  13.662  1.00  0.00     0.000 C 
ENDROOT
BRANCH   1   2
ATOM      2  C   UNL     1      48.130  33.555  14.704  1.00  0.00     0.000 C 
BRANCH   2   3
ATOM      3  C   UNL     1      47.109  34.109  15.705  1.00  0.00     0.000 C 
BRANCH   3   4
ATOM      4  C   UNL     1      47.580  33.894  17.149  1.00  0.00     0.000 C 
BRANCH   4   5
ATOM      5  C   UNL     1      49.047  33.443  17.239  1.00  0.00     0.000 C 
BRANCH   5   6
ATOM      6  C   UNL     1      49.223  32.027  17.826  1.00  0.00     0.006 C 
BRANCH   6   7
ATOM      7  C   UNL     1      47.961  31.169  17.659  1.00  0.00     0.053 C 
BRANCH   7   8
ATOM      8  C   UNL     1      48.090  30.277  16.464  1.00  0.00     0.041 C 
ATOM      9  O   UNL     1      47.066  29.929  15.820  1.00  0.00    -0.550 OA
ATOM     10  O   UNL     1      49.336  29.783  16.099  1.00  0.00    -0.550 OA
ENDBRANCH   7   8
ENDBRANCH   6   7
ENDBRANCH   5   6
ENDBRANCH   4   5
ENDBRANCH   3   4
ENDBRANCH   2   3
ENDBRANCH   1   2
BRANCH   1  11
ATOM     11  C   UNL     1      48.047  34.196  12.258  1.00  0.00     0.000 C 
BRANCH  11  12
ATOM     12  C   UNL     1      46.536  34.396  12.052  1.00  0.00    -0.000 C 
BRANCH  12  13
ATOM     13  C   UNL     1      46.063  35.789  12.498  1.00  0.00    -0.000 C 
BRANCH  13  14
ATOM     14  C   UNL     1      44.735  35.748  13.275  1.00  0.00    -0.000 C 
BRANCH  14  15
ATOM     15  C   UNL     1      43.501  36.087  12.414  1.00  0.00    -0.000 C 
BRANCH  15  16
ATOM     16  C   UNL     1      43.473  37.569  12.001  1.00  0.00    -0.000 C 
BRANCH  16  17
ATOM     17  C   UNL     1      42.191  37.948  11.240  1.00  0.00    -0.003 C 
ATOM     18  C   UNL     1      41.884  36.990  10.090  1.00  0.00     0.004 C 
ENDBRANCH  16  17
ENDBRANCH  15  16
ENDBRANCH  14  15
ENDBRANCH  13  14
ENDBRANCH  12  13
ENDBRANCH  11  12
ENDBRANCH   1  11
TORSDOF 14
ENDMDL
MODEL 4
REMARK VINA RESULT:    -4.900      3.737      8.157
REMARK INTER + INTRA:         -10.103
REMARK INTER:                  -9.306
REMARK INTRA:                  -0.797
REMARK UNBOUND:                -1.193
REMARK SMILES CCCCCCCCCCCCCCCC(=O)[O-]
REMARK SMILES IDX 9 1 10 2 11 3 12 4 13 5 14 6 15 7 16 8 17 9 18 10 8 11 7 12
REMARK SMILES IDX 6 13 5 14 4 15 3 16 2 17 1 18
REMARK H PARENT
REMARK Flexibility Score: inf
ROOT
ATOM      1  C   UNL     1      49.343  31.791  17.580  1.00  0.00     0.000 C 
ENDROOT
BRANCH   1   2
ATOM      2  C   UNL     1      49.090  30.666  16.570  1.00  0.00     0.000 C 
BRANCH   2   3
ATOM      3  C   UNL     1      47.615  30.247  16.569  1.00  0.00     0.000 C 
BRANCH   3   4
ATOM      4  C   UNL     1      47.464  28.760  16.223  1.00  0.00     0.000 C 
BRANCH   4   5
ATOM      5  C   UNL     1      48.665  27.915  16.680  1.00  0.00     0.000 C 
BRANCH   5   6
ATOM      6  C   UNL     1      48.596  26.445  16.217  1.00  0.00     0.006 C 
BRANCH   6   7
ATOM      7  C   UNL     1      49.538  25.538  17.020  1.00  0.00     0.053 C 
BRANCH   7   8
ATOM      8  C   UNL     1      49.319  25.727  18.488  1.00  0.00     0.041 C 
ATOM      9  O   UNL     1      48.207  25.443  19.005  1.00  0.00    -0.550 OA
ATOM     10  O   UNL     1      50.325  26.274  19.275  1.00  0.00    -0.550 OA
ENDBRANCH   7   8
ENDBRANCH   6   7
ENDBRANCH   5   6
ENDBRANCH   4   5
ENDBRANCH   3   4
ENDBRANCH   2   3
ENDBRANCH   1   2
BRANCH   1  11
ATOM     11  C   UNL     1      48.246  32.862  17.496  1.00  0.00     0.000 C 
BRANCH  11  12
ATOM     12  C   UNL     1      48.545  33.931  16.433  1.00  0.00    -0.000 C 
BRANCH  12  13
ATOM     13  C   UNL     1      47.827  33.653  15.102  1.00  0.00    -0.000 C 
BRANCH  13  14
ATOM     14  C   UNL     1      48.485  34.366  13.908  1.00  0.00    -0.000 C 
BRANCH  14  15
ATOM     15  C   UNL     1      48.422  33.561  12.592  1.00  0.00    -0.000 C 
BRANCH  15  16
ATOM     16  C   UNL     1      49.714  33.697  11.768  1.00  0.00    -0.000 C 
BRANCH  16  17
ATOM     17  C   UNL     1      49.485  33.466  10.266  1.00  0.00    -0.003 C 
ATOM     18  C   UNL     1      48.007  33.522   9.879  1.00  0.00     0.004 C 
ENDBRANCH  16  17
ENDBRANCH  15  16
ENDBRANCH  14  15
ENDBRANCH  13  14
ENDBRANCH  12  13
ENDBRANCH  11  12
ENDBRANCH   1  11
TORSDOF 14
ENDMDL
MODEL 5
REMARK VINA RESULT:    -4.895      4.379      8.673
REMARK INTER + INTRA:         -10.094
REMARK INTER:                  -9.128
REMARK INTRA:                  -0.966
REMARK UNBOUND:                -1.193
REMARK SMILES CCCCCCCCCCCCCCCC(=O)[O-]
REMARK SMILES IDX 9 1 10 2 11 3 12 4 13 5 14 6 15 7 16 8 17 9 18 10 8 11 7 12
REMARK SMILES IDX 6 13 5 14 4 15 3 16 2 17 1 18
REMARK H PARENT
REMARK Flexibility Score: inf
ROOT
ATOM      1  C   UNL     1      47.952  30.225  16.303  1.00  0.00     0.000 C 
ENDROOT
BRANCH   1   2
ATOM      2  C   UNL     1      47.575  28.763  16.042  1.00  0.00     0.000 C 
BRANCH   2   3
ATOM      3  C   UNL     1      48.712  27.819  16.449  1.00  0.00     0.000 C 
BRANCH   3   4
ATOM      4  C   UNL     1      48.195  26.391  16.663  1.00  0.00     0.000 C 
BRANCH   4   5
ATOM      5  C   UNL     1      49.053  25.585  17.652  1.00  0.00     0.000 C 
BRANCH   5   6
ATOM      6  C   UNL     1      48.470  25.539  19.080  1.00  0.00     0.006 C 
BRANCH   6   7
ATOM      7  C   UNL     1      49.545  25.755  20.153  1.00  0.00     0.053 C 
BRANCH   7   8
ATOM      8  C   UNL     1      48.911  25.952  21.495  1.00  0.00     0.041 C 
ATOM      9  O   UNL     1      47.707  26.310  21.581  1.00  0.00    -0.550 OA
ATOM     10  O   UNL     1      49.669  25.799  22.649  1.00  0.00    -0.550 OA
ENDBRANCH   7   8
ENDBRANCH   6   7
ENDBRANCH   5   6
ENDBRANCH   4   5
ENDBRANCH   3   4
ENDBRANCH   2   3
ENDBRANCH   1   2
BRANCH   1  11
ATOM     11  C   UNL     1      49.329  30.326  16.977  1.00  0.00     0.000 C 
BRANCH  11  12
ATOM     12  C   UNL     1      49.582  31.710  17.597  1.00  0.00    -0.000 C 
BRANCH  12  13
ATOM     13  C   UNL     1      48.291  32.532  17.744  1.00  0.00    -0.000 C 
BRANCH  13  14
ATOM     14  C   UNL     1      48.416  33.949  17.157  1.00  0.00    -0.000 C 
BRANCH  14  15
ATOM     15  C   UNL     1      47.486  34.207  15.953  1.00  0.00    -0.000 C 
BRANCH  15  16
ATOM     16  C   UNL     1      47.971  33.487  14.682  1.00  0.00    -0.000 C 
BRANCH  16  17
ATOM     17  C   UNL     1      48.457  34.463  13.598  1.00  0.00    -0.003 C 
ATOM     18  C   UNL     1      48.119  33.990  12.185  1.00  0.00     0.004 C 
ENDBRANCH  16  17
ENDBRANCH  15  16
ENDBRANCH  14  15
ENDBRANCH  13  14
ENDBRANCH  12  13
ENDBRANCH  11  12
ENDBRANCH   1  11
TORSDOF 14
ENDMDL
MODEL 6
REMARK VINA RESULT:    -4.881      5.091      9.426
REMARK INTER + INTRA:         -10.068
REMARK INTER:                  -9.238
REMARK INTRA:                  -0.830
REMARK UNBOUND:                -1.193
REMARK SMILES CCCCCCCCCCCCCCCC(=O)[O-]
REMARK SMILES IDX 9 1 10 2 11 3 12 4 13 5 14 6 15 7 16 8 17 9 18 10 8 11 7 12
REMARK SMILES IDX 6 13 5 14 4 15 3 16 2 17 1 18
REMARK H PARENT
REMARK Flexibility Score: inf
ROOT
ATOM      1  C   UNL     1      46.864  34.596  12.475  1.00  0.00     0.000 C 
ENDROOT
BRANCH   1   2
ATOM      2  C   UNL     1      48.185  34.650  13.253  1.00  0.00     0.000 C 
BRANCH   2   3
ATOM      3  C   UNL     1      48.200  33.615  14.385  1.00  0.00     0.000 C 
BRANCH   3   4
ATOM      4  C   UNL     1      47.300  34.055  15.546  1.00  0.00     0.000 C 
BRANCH   4   5
ATOM      5  C   UNL     1      48.004  33.979  16.911  1.00  0.00     0.000 C 
BRANCH   5   6
ATOM      6  C   UNL     1      48.860  32.708  17.093  1.00  0.00     0.006 C 
BRANCH   6   7
ATOM      7  C   UNL     1      48.123  31.620  17.886  1.00  0.00     0.053 C 
BRANCH   7   8
ATOM      8  C   UNL     1      47.941  30.394  17.047  1.00  0.00     0.041 C 
ATOM      9  O   UNL     1      48.462  29.303  17.398  1.00  0.00    -0.550 OA
ATOM     10  O   UNL     1      47.247  30.472  15.847  1.00  0.00    -0.550 OA
ENDBRANCH   7   8
ENDBRANCH   6   7
ENDBRANCH   5   6
ENDBRANCH   4   5
ENDBRANCH   3   4
ENDBRANCH   2   3
ENDBRANCH   1   2
BRANCH   1  11
ATOM     11  C   UNL     1      46.095  35.919  12.605  1.00  0.00     0.000 C 
BRANCH  11  12
ATOM     12  C   UNL     1      44.659  35.719  13.116  1.00  0.00    -0.000 C 
BRANCH  12  13
ATOM     13  C   UNL     1      43.667  36.707  12.480  1.00  0.00    -0.000 C 
BRANCH  13  14
ATOM     14  C   UNL     1      42.544  36.004  11.697  1.00  0.00    -0.000 C 
BRANCH  14  15
ATOM     15  C   UNL     1      41.243  36.829  11.603  1.00  0.00    -0.000 C 
BRANCH  15  16
ATOM     16  C   UNL     1      40.065  36.134  12.308  1.00  0.00    -0.000 C 
BRANCH  16  17
ATOM     17  C   UNL     1      39.671  34.810  11.635  1.00  0.00    -0.003 C 
ATOM     18  C   UNL     1      39.112  35.007  10.226  1.00  0.00     0.004 C 
ENDBRANCH  16  17
ENDBRANCH  15  16
ENDBRANCH  14  15
ENDBRANCH  13  14
ENDBRANCH  12  13
ENDBRANCH  11  12
ENDBRANCH   1  11
TORSDOF 14
ENDMDL
MODEL 7
REMARK VINA RESULT:    -4.881      2.115      3.796
REMARK INTER + INTRA:         -10.068
REMARK INTER:                  -9.367
REMARK INTRA:                  -0.701
REMARK UNBOUND:                -1.193
REMARK SMILES CCCCCCCCCCCCCCCC(=O)[O-]
REMARK SMILES IDX 9 1 10 2 11 3 12 4 13 5 14 6 15 7 16 8 17 9 18 10 8 11 7 12
REMARK SMILES IDX 6 13 5 14 4 15 3 16 2 17 1 18
REMARK H PARENT
REMARK Flexibility Score: inf
ROOT
ATOM      1  C   UNL     1      48.843  27.727  15.539  1.00  0.00     0.000 C 
ENDROOT
BRANCH   1   2
ATOM      2  C   UNL     1      47.746  28.500  16.282  1.00  0.00     0.000 C 
BRANCH   2   3
ATOM      3  C   UNL     1      47.617  29.929  15.741  1.00  0.00     0.000 C 
BRANCH   3   4
ATOM      4  C   UNL     1      48.905  30.728  15.979  1.00  0.00     0.000 C 
BRANCH   4   5
ATOM      5  C   UNL     1      48.942  31.406  17.358  1.00  0.00     0.000 C 
BRANCH   5   6
ATOM      6  C   UNL     1      49.194  32.927  17.291  1.00  0.00     0.006 C 
BRANCH   6   7
ATOM      7  C   UNL     1      47.899  33.737  17.439  1.00  0.00     0.053 C 
BRANCH   7   8
ATOM      8  C   UNL     1      47.310  34.029  16.095  1.00  0.00     0.041 C 
ATOM      9  O   UNL     1      47.996  33.865  15.052  1.00  0.00    -0.550 OA
ATOM     10  O   UNL     1      46.021  34.539  15.999  1.00  0.00    -0.550 OA
ENDBRANCH   7   8
ENDBRANCH   6   7
ENDBRANCH   5   6
ENDBRANCH   4   5
ENDBRANCH   3   4
ENDBRANCH   2   3
ENDBRANCH   1   2
BRANCH   1  11
ATOM     11  C   UNL     1      48.634  26.211  15.672  1.00  0.00     0.000 C 
BRANCH  11  12
ATOM     12  C   UNL     1      49.418  25.608  16.848  1.00  0.00    -0.000 C 
BRANCH  12  13
ATOM     13  C   UNL     1      48.614  25.623  18.158  1.00  0.00    -0.000 C 
BRANCH  13  14
ATOM     14  C   UNL     1      49.510  25.695  19.408  1.00  0.00    -0.000 C 
BRANCH  14  15
ATOM     15  C   UNL     1      48.788  25.299  20.713  1.00  0.00    -0.000 C 
BRANCH  15  16
ATOM     16  C   UNL     1      49.775  25.040  21.864  1.00  0.00    -0.000 C 
BRANCH  16  17
ATOM     17  C   UNL     1      50.187  26.329  22.593  1.00  0.00    -0.003 C 
ATOM     18  C   UNL     1      49.035  27.324  22.729  1.00  0.00     0.004 C 
ENDBRANCH  16  17
ENDBRANCH  15  16
ENDBRANCH  14  15
ENDBRANCH  13  14
ENDBRANCH  12  13
ENDBRANCH  11  12
ENDBRANCH   1  11
TORSDOF 14
ENDMDL
MODEL 8
REMARK VINA RESULT:    -4.819      1.324      2.125
REMARK INTER + INTRA:          -9.955
REMARK INTER:                  -9.133
REMARK INTRA:                  -0.822
REMARK UNBOUND:                -1.193
REMARK SMILES CCCCCCCCCCCCCCCC(=O)[O-]
REMARK SMILES IDX 9 1 10 2 11 3 12 4 13 5 14 6 15 7 16 8 17 9 18 10 8 11 7 12
REMARK SMILES IDX 6 13 5 14 4 15 3 16 2 17 1 18
REMARK H PARENT
REMARK Flexibility Score: inf
ROOT
ATOM      1  C   UNL     1      48.207  29.776  16.655  1.00  0.00     0.000 C 
ENDROOT
BRANCH   1   2
ATOM      2  C   UNL     1      49.219  30.891  16.943  1.00  0.00     0.000 C 
BRANCH   2   3
ATOM      3  C   UNL     1      48.604  31.977  17.835  1.00  0.00     0.000 C 
BRANCH   3   4
ATOM      4  C   UNL     1      48.854  33.375  17.256  1.00  0.00     0.000 C 
BRANCH   4   5
ATOM      5  C   UNL     1      47.557  34.106  16.875  1.00  0.00     0.000 C 
BRANCH   5   6
ATOM      6  C   UNL     1      47.154  33.919  15.397  1.00  0.00     0.006 C 
BRANCH   6   7
ATOM      7  C   UNL     1      48.373  33.747  14.481  1.00  0.00     0.053 C 
BRANCH   7   8
ATOM      8  C   UNL     1      48.083  34.294  13.118  1.00  0.00     0.041 C 
ATOM      9  O   UNL     1      48.942  34.201  12.202  1.00  0.00    -0.550 OA
ATOM     10  O   UNL     1      46.888  34.960  12.878  1.00  0.00    -0.550 OA
ENDBRANCH   7   8
ENDBRANCH   6   7
ENDBRANCH   5   6
ENDBRANCH   4   5
ENDBRANCH   3   4
ENDBRANCH   2   3
ENDBRANCH   1   2
BRANCH   1  11
ATOM     11  C   UNL     1      48.680  28.439  17.244  1.00  0.00     0.000 C 
BRANCH  11  12
ATOM     12  C   UNL     1      48.584  27.282  16.235  1.00  0.00    -0.000 C 
BRANCH  12  13
ATOM     13  C   UNL     1      49.086  25.951  16.819  1.00  0.00    -0.000 C 
BRANCH  13  14
ATOM     14  C   UNL     1      48.479  25.639  18.199  1.00  0.00    -0.000 C 
BRANCH  14  15
ATOM     15  C   UNL     1      49.533  25.381  19.296  1.00  0.00    -0.000 C 
BRANCH  15  16
ATOM     16  C   UNL     1      48.892  25.209  20.685  1.00  0.00    -0.000 C 
BRANCH  16  17
ATOM     17  C   UNL     1      48.564  26.553  21.356  1.00  0.00    -0.003 C 
ATOM     18  C   UNL     1      49.391  26.799  22.617  1.00  0.00     0.004 C 
ENDBRANCH  16  17
ENDBRANCH  15  16
ENDBRANCH  14  15
ENDBRANCH  13  14
ENDBRANCH  12  13
ENDBRANCH  11  12
ENDBRANCH   1  11
TORSDOF 14
ENDMDL
MODEL 9
REMARK VINA RESULT:    -4.801      2.666      5.263
REMARK INTER + INTRA:          -9.923
REMARK INTER:                  -8.642
REMARK INTRA:                  -1.281
REMARK UNBOUND:                -1.193
REMARK SMILES CCCCCCCCCCCCCCCC(=O)[O-]
REMARK SMILES IDX 9 1 10 2 11 3 12 4 13 5 14 6 15 7 16 8 17 9 18 10 8 11 7 12
REMARK SMILES IDX 6 13 5 14 4 15 3 16 2 17 1 18
REMARK H PARENT
REMARK Flexibility Score: inf
ROOT
ATOM      1  C   UNL     1      49.795  25.833  17.922  1.00  0.00     0.000 C 
ENDROOT
BRANCH   1   2
ATOM      2  C   UNL     1      48.439  26.068  17.248  1.00  0.00     0.000 C 
BRANCH   2   3
ATOM      3  C   UNL     1      48.530  27.184  16.200  1.00  0.00     0.000 C 
BRANCH   3   4
ATOM      4  C   UNL     1      49.465  28.305  16.668  1.00  0.00     0.000 C 
BRANCH   4   5
ATOM      5  C   UNL     1      49.045  29.690  16.148  1.00  0.00     0.000 C 
BRANCH   5   6
ATOM      6  C   UNL     1      48.267  30.528  17.184  1.00  0.00     0.006 C 
BRANCH   6   7
ATOM      7  C   UNL     1      49.062  31.751  17.659  1.00  0.00     0.053 C 
BRANCH   7   8
ATOM      8  C   UNL     1      48.556  32.993  16.995  1.00  0.00     0.041 C 
ATOM      9  O   UNL     1      47.786  32.913  16.002  1.00  0.00    -0.550 OA
ATOM     10  O   UNL     1      48.984  34.239  17.437  1.00  0.00    -0.550 OA
ENDBRANCH   7   8
ENDBRANCH   6   7
ENDBRANCH   5   6
ENDBRANCH   4   5
ENDBRANCH   3   4
ENDBRANCH   2   3
ENDBRANCH   1   2
BRANCH   1  11
ATOM     11  C   UNL     1      49.625  25.099  19.261  1.00  0.00     0.000 C 
BRANCH  11  12
ATOM     12  C   UNL     1      48.333  25.500  19.992  1.00  0.00    -0.000 C 
BRANCH  12  13
ATOM     13  C   UNL     1      48.569  25.788  21.484  1.00  0.00    -0.000 C 
BRANCH  13  14
ATOM     14  C   UNL     1      50.045  25.635  21.895  1.00  0.00    -0.000 C 
BRANCH  14  15
ATOM     15  C   UNL     1      50.609  26.858  22.648  1.00  0.00    -0.000 C 
BRANCH  15  16
ATOM     16  C   UNL     1      52.099  27.090  22.341  1.00  0.00    -0.000 C 
BRANCH  16  17
ATOM     17  C   UNL     1      52.607  26.218  21.181  1.00  0.00    -0.003 C 
ATOM     18  C   UNL     1      52.959  27.036  19.939  1.00  0.00     0.004 C 
ENDBRANCH  16  17
ENDBRANCH  15  16
ENDBRANCH  14  15
ENDBRANCH  13  14
ENDBRANCH  12  13
ENDBRANCH  11  12
ENDBRANCH   1  11
TORSDOF 14
ENDMDL
