MODEL 1
REMARK VINA RESULT:    -4.364      0.000      0.000
REMARK INTER + INTRA:          -4.364
REMARK INTER:                  -4.364
REMARK INTRA:                   0.000
REMARK UNBOUND:                 0.000
REMARK SMILES C=C1CC[C@H]2C[C@@H]1C2(C)C
REMARK SMILES IDX 9 1 8 2 5 3 4 4 3 5 2 6 1 7 7 8 6 9 10 10
REMARK H PARENT
REMARK Flexibility Score: inf
ROOT
ATOM      1  C   UNL     1     152.874 137.691 163.974  1.00  0.00     0.012 C 
ATOM      2  C   UNL     1     153.903 137.319 162.872  1.00  0.00    -0.026 C 
ATOM      3  C   UNL     1     154.330 135.836 162.723  1.00  0.00    -0.004 C 
ATOM      4  C   UNL     1     153.128 134.877 162.995  1.00  0.00     0.008 C 
ATOM      5  C   UNL     1     151.851 135.253 162.152  1.00  0.00     0.031 C 
ATOM      6  C   UNL     1     152.024 136.575 161.389  1.00  0.00    -0.074 C 
ATOM      7  C   UNL     1     151.006 137.137 160.730  1.00  0.00     0.008 C 
ATOM      8  C   UNL     1     153.410 137.212 161.410  1.00  0.00     0.021 C 
ATOM      9  C   UNL     1     154.388 136.045 161.202  1.00  0.00     0.012 C 
ATOM     10  C   UNL     1     155.125 138.262 163.006  1.00  0.00     0.012 C 
ENDROOT
TORSDOF 0
ENDMDL
MODEL 2
REMARK VINA RESULT:    -4.282     22.093     23.475
REMARK INTER + INTRA:          -4.282
REMARK INTER:                  -4.282
REMARK INTRA:                   0.000
REMARK UNBOUND:                 0.000
REMARK SMILES C=C1CC[C@H]2C[C@@H]1C2(C)C
REMARK SMILES IDX 9 1 8 2 5 3 4 4 3 5 2 6 1 7 7 8 6 9 10 10
REMARK H PARENT
REMARK Flexibility Score: inf
ROOT
ATOM      1  C   UNL     1     138.076 152.581 161.059  1.00  0.00     0.012 C 
ATOM      2  C   UNL     1     138.106 153.897 161.882  1.00  0.00    -0.026 C 
ATOM      3  C   UNL     1     136.839 154.790 161.902  1.00  0.00    -0.004 C 
ATOM      4  C   UNL     1     135.540 153.922 161.904  1.00  0.00     0.008 C 
ATOM      5  C   UNL     1     135.552 152.819 163.029  1.00  0.00     0.031 C 
ATOM      6  C   UNL     1     136.905 152.737 163.752  1.00  0.00    -0.074 C 
ATOM      7  C   UNL     1     137.162 151.773 164.641  1.00  0.00     0.008 C 
ATOM      8  C   UNL     1     137.937 153.810 163.417  1.00  0.00     0.021 C 
ATOM      9  C   UNL     1     137.144 155.125 163.370  1.00  0.00     0.012 C 
ATOM     10  C   UNL     1     139.371 154.696 161.481  1.00  0.00     0.012 C 
ENDROOT
TORSDOF 0
ENDMDL
MODEL 3
REMARK VINA RESULT:    -3.253     22.045     23.599
REMARK INTER + INTRA:          -3.253
REMARK INTER:                  -3.253
REMARK INTRA:                   0.000
REMARK UNBOUND:                 0.000
REMARK SMILES C=C1CC[C@H]2C[C@@H]1C2(C)C
REMARK SMILES IDX 9 1 8 2 5 3 4 4 3 5 2 6 1 7 7 8 6 9 10 10
REMARK H PARENT
REMARK Flexibility Score: inf
ROOT
ATOM      1  C   UNL     1     137.517 152.301 164.191  1.00  0.00     0.012 C 
ATOM      2  C   UNL     1     136.484 152.621 163.076  1.00  0.00    -0.026 C 
ATOM      3  C   UNL     1     135.777 154.001 163.092  1.00  0.00    -0.004 C 
ATOM      4  C   UNL     1     136.750 155.125 163.572  1.00  0.00     0.008 C 
ATOM      5  C   UNL     1     138.114 155.123 162.781  1.00  0.00     0.031 C 
ATOM      6  C   UNL     1     138.241 153.914 161.842  1.00  0.00    -0.074 C 
ATOM      7  C   UNL     1     139.380 153.657 161.189  1.00  0.00     0.008 C 
ATOM      8  C   UNL     1     137.011 153.027 161.680  1.00  0.00     0.021 C 
ATOM      9  C   UNL     1     135.830 154.003 161.556  1.00  0.00     0.012 C 
ATOM     10  C   UNL     1     135.471 151.453 162.998  1.00  0.00     0.012 C 
ENDROOT
TORSDOF 0
ENDMDL
MODEL 4
REMARK VINA RESULT:    -3.189      0.947      2.755
REMARK INTER + INTRA:          -3.189
REMARK INTER:                  -3.189
REMARK INTRA:                   0.000
REMARK UNBOUND:                 0.000
REMARK SMILES C=C1CC[C@H]2C[C@@H]1C2(C)C
REMARK SMILES IDX 9 1 8 2 5 3 4 4 3 5 2 6 1 7 7 8 6 9 10 10
REMARK H PARENT
REMARK Flexibility Score: inf
ROOT
ATOM      1  C   UNL     1     154.715 136.109 161.232  1.00  0.00     0.012 C 
ATOM      2  C   UNL     1     153.911 136.199 162.557  1.00  0.00    -0.026 C 
ATOM      3  C   UNL     1     153.996 137.502 163.392  1.00  0.00    -0.004 C 
ATOM      4  C   UNL     1     154.077 138.758 162.465  1.00  0.00     0.008 C 
ATOM      5  C   UNL     1     152.938 138.779 161.376  1.00  0.00     0.031 C 
ATOM      6  C   UNL     1     152.117 137.481 161.364  1.00  0.00    -0.074 C 
ATOM      7  C   UNL     1     151.198 137.246 160.422  1.00  0.00     0.008 C 
ATOM      8  C   UNL     1     152.392 136.475 162.479  1.00  0.00     0.021 C 
ATOM      9  C   UNL     1     152.515 137.321 163.756  1.00  0.00     0.012 C 
ATOM     10  C   UNL     1     154.231 134.945 163.408  1.00  0.00     0.012 C 
ENDROOT
TORSDOF 0
ENDMDL
MODEL 5
REMARK VINA RESULT:    -3.125      0.977      1.247
REMARK INTER + INTRA:          -3.125
REMARK INTER:                  -3.125
REMARK INTRA:                   0.000
REMARK UNBOUND:                 0.000
REMARK SMILES C=C1CC[C@H]2C[C@@H]1C2(C)C
REMARK SMILES IDX 9 1 8 2 5 3 4 4 3 5 2 6 1 7 7 8 6 9 10 10
REMARK H PARENT
REMARK Flexibility Score: inf
ROOT
ATOM      1  C   UNL     1     152.791 137.359 163.690  1.00  0.00     0.012 C 
ATOM      2  C   UNL     1     153.711 136.380 162.912  1.00  0.00    -0.026 C 
ATOM      3  C   UNL     1     153.228 134.924 162.687  1.00  0.00    -0.004 C 
ATOM      4  C   UNL     1     151.686 134.878 162.438  1.00  0.00     0.008 C 
ATOM      5  C   UNL     1     151.225 135.878 161.310  1.00  0.00     0.031 C 
ATOM      6  C   UNL     1     152.368 136.789 160.836  1.00  0.00    -0.074 C 
ATOM      7  C   UNL     1     152.147 137.798 159.987  1.00  0.00     0.008 C 
ATOM      8  C   UNL     1     153.764 136.487 161.370  1.00  0.00     0.021 C 
ATOM      9  C   UNL     1     153.894 134.958 161.303  1.00  0.00     0.012 C 
ATOM     10  C   UNL     1     155.123 136.428 163.547  1.00  0.00     0.012 C 
ENDROOT
TORSDOF 0
ENDMDL
MODEL 6
REMARK VINA RESULT:    -2.507     21.854     23.394
REMARK INTER + INTRA:          -2.507
REMARK INTER:                  -2.507
REMARK INTRA:                   0.000
REMARK UNBOUND:                 0.000
REMARK SMILES C=C1CC[C@H]2C[C@@H]1C2(C)C
REMARK SMILES IDX 9 1 8 2 5 3 4 4 3 5 2 6 1 7 7 8 6 9 10 10
REMARK H PARENT
REMARK Flexibility Score: inf
ROOT
ATOM      1  C   UNL     1     135.708 154.143 161.297  1.00  0.00     0.012 C 
ATOM      2  C   UNL     1     136.278 153.878 162.717  1.00  0.00    -0.026 C 
ATOM      3  C   UNL     1     136.797 152.456 163.057  1.00  0.00    -0.004 C 
ATOM      4  C   UNL     1     137.498 151.805 161.822  1.00  0.00     0.008 C 
ATOM      5  C   UNL     1     138.594 152.741 161.185  1.00  0.00     0.031 C 
ATOM      6  C   UNL     1     138.602 154.143 161.816  1.00  0.00    -0.074 C 
ATOM      7  C   UNL     1     139.362 155.125 161.321  1.00  0.00     0.008 C 
ATOM      8  C   UNL     1     137.712 154.360 163.036  1.00  0.00     0.021 C 
ATOM      9  C   UNL     1     137.906 153.104 163.899  1.00  0.00     0.012 C 
ATOM     10  C   UNL     1     135.250 154.382 163.759  1.00  0.00     0.012 C 
ENDROOT
TORSDOF 0
ENDMDL
MODEL 7
REMARK VINA RESULT:    -2.474     14.868     16.870
REMARK INTER + INTRA:          -2.474
REMARK INTER:                  -2.474
REMARK INTRA:                   0.000
REMARK UNBOUND:                 0.000
REMARK SMILES C=C1CC[C@H]2C[C@@H]1C2(C)C
REMARK SMILES IDX 9 1 8 2 5 3 4 4 3 5 2 6 1 7 7 8 6 9 10 10
REMARK H PARENT
REMARK Flexibility Score: inf
ROOT
ATOM      1  C   UNL     1     137.700 138.095 161.910  1.00  0.00     0.012 C 
ATOM      2  C   UNL     1     137.378 136.903 162.852  1.00  0.00    -0.026 C 
ATOM      3  C   UNL     1     135.997 136.865 163.557  1.00  0.00    -0.004 C 
ATOM      4  C   UNL     1     134.875 137.420 162.623  1.00  0.00     0.008 C 
ATOM      5  C   UNL     1     134.877 136.738 161.203  1.00  0.00     0.031 C 
ATOM      6  C   UNL     1     136.086 135.810 161.003  1.00  0.00    -0.074 C 
ATOM      7  C   UNL     1     136.344 135.248 159.818  1.00  0.00     0.008 C 
ATOM      8  C   UNL     1     136.972 135.552 162.218  1.00  0.00     0.021 C 
ATOM      9  C   UNL     1     135.994 135.338 163.385  1.00  0.00     0.012 C 
ATOM     10  C   UNL     1     138.545 136.745 163.858  1.00  0.00     0.012 C 
ENDROOT
TORSDOF 0
ENDMDL
