MODEL 1
REMARK VINA RESULT:    -7.094      0.000      0.000
REMARK INTER + INTRA:          -7.727
REMARK INTER:                  -7.508
REMARK INTRA:                  -0.219
REMARK UNBOUND:                -0.219
REMARK SMILES C=C(C)[C@@H]1CC[C@H](C)[C@@]12CC=C(C)CC2
REMARK SMILES IDX 8 1 7 2 6 3 5 4 4 5 9 6 15 7 14 8 12 9 11 10 10 11 13 12
REMARK SMILES IDX 2 13 1 14 3 15
REMARK H PARENT
REMARK Flexibility Score: inf
ROOT
ATOM      1  C   UNL     1      -2.316 -17.692   8.925  1.00  0.00     0.008 C 
ATOM      2  C   UNL     1      -1.840 -16.245   9.169  1.00  0.00    -0.007 C 
ATOM      3  C   UNL     1      -1.041 -15.768   7.955  1.00  0.00     0.004 C 
ATOM      4  C   UNL     1      -2.064 -15.165   7.012  1.00  0.00     0.009 C 
ATOM      5  C   UNL     1      -3.117 -14.515   7.920  1.00  0.00     0.021 C 
ATOM      6  C   UNL     1      -2.969 -15.169   9.348  1.00  0.00    -0.017 C 
ATOM      7  C   UNL     1      -4.314 -15.710   9.932  1.00  0.00     0.012 C 
ATOM      8  C   UNL     1      -4.233 -16.188  11.398  1.00  0.00     0.031 C 
ATOM      9  C   UNL     1      -3.226 -15.458  12.258  1.00  0.00    -0.077 C 
ATOM     10  C   UNL     1      -2.391 -14.534  11.752  1.00  0.00    -0.027 C 
ATOM     11  C   UNL     1      -2.483 -14.062  10.330  1.00  0.00     0.035 C 
ATOM     12  C   UNL     1      -3.108 -15.831  13.709  1.00  0.00     0.039 C 
ENDROOT
BRANCH   5  13
ATOM     13  C   UNL     1      -4.521 -14.493   7.305  1.00  0.00    -0.077 C 
ATOM     14  C   UNL     1      -5.215 -13.343   7.281  1.00  0.00     0.008 C 
ATOM     15  C   UNL     1      -5.194 -15.733   6.768  1.00  0.00     0.039 C 
ENDBRANCH   5  13
TORSDOF 1
ENDMDL
MODEL 2
REMARK VINA RESULT:    -6.384      1.525      4.677
REMARK INTER + INTRA:          -6.976
REMARK INTER:                  -7.342
REMARK INTRA:                   0.366
REMARK UNBOUND:                -0.219
REMARK SMILES C=C(C)[C@@H]1CC[C@H](C)[C@@]12CC=C(C)CC2
REMARK SMILES IDX 8 1 7 2 6 3 5 4 4 5 9 6 15 7 14 8 12 9 11 10 10 11 13 12
REMARK SMILES IDX 2 13 1 14 3 15
REMARK H PARENT
REMARK Flexibility Score: inf
ROOT
ATOM      1  C   UNL     1      -2.321 -18.210   8.035  1.00  0.00     0.008 C 
ATOM      2  C   UNL     1      -3.620 -17.714   8.701  1.00  0.00    -0.007 C 
ATOM      3  C   UNL     1      -3.742 -18.338  10.092  1.00  0.00     0.004 C 
ATOM      4  C   UNL     1      -3.019 -17.386  11.025  1.00  0.00     0.009 C 
ATOM      5  C   UNL     1      -3.283 -15.984  10.457  1.00  0.00     0.021 C 
ATOM      6  C   UNL     1      -3.718 -16.166   8.951  1.00  0.00    -0.017 C 
ATOM      7  C   UNL     1      -2.905 -15.281   7.953  1.00  0.00     0.012 C 
ATOM      8  C   UNL     1      -3.429 -15.301   6.500  1.00  0.00     0.031 C 
ATOM      9  C   UNL     1      -4.922 -15.500   6.359  1.00  0.00    -0.077 C 
ATOM     10  C   UNL     1      -5.714 -15.746   7.416  1.00  0.00    -0.027 C 
ATOM     11  C   UNL     1      -5.203 -15.711   8.827  1.00  0.00     0.035 C 
ATOM     12  C   UNL     1      -5.525 -15.493   4.981  1.00  0.00     0.039 C 
ENDROOT
BRANCH   5  13
ATOM     13  C   UNL     1      -2.151 -14.990  10.740  1.00  0.00    -0.077 C 
ATOM     14  C   UNL     1      -2.279 -14.114  11.750  1.00  0.00     0.008 C 
ATOM     15  C   UNL     1      -0.907 -14.909   9.891  1.00  0.00     0.039 C 
ENDBRANCH   5  13
TORSDOF 1
ENDMDL
MODEL 3
REMARK VINA RESULT:    -6.244      1.483      2.216
REMARK INTER + INTRA:          -6.828
REMARK INTER:                  -6.531
REMARK INTRA:                  -0.297
REMARK UNBOUND:                -0.219
REMARK SMILES C=C(C)[C@@H]1CC[C@H](C)[C@@]12CC=C(C)CC2
REMARK SMILES IDX 8 1 7 2 6 3 5 4 4 5 9 6 15 7 14 8 12 9 11 10 10 11 13 12
REMARK SMILES IDX 2 13 1 14 3 15
REMARK H PARENT
REMARK Flexibility Score: inf
ROOT
ATOM      1  C   UNL     1      -0.419 -15.012   9.262  1.00  0.00     0.008 C 
ATOM      2  C   UNL     1      -1.595 -14.436  10.077  1.00  0.00    -0.007 C 
ATOM      3  C   UNL     1      -2.079 -13.144   9.417  1.00  0.00     0.004 C 
ATOM      4  C   UNL     1      -3.122 -13.574   8.405  1.00  0.00     0.009 C 
ATOM      5  C   UNL     1      -3.831 -14.778   9.042  1.00  0.00     0.021 C 
ATOM      6  C   UNL     1      -2.878 -15.339  10.167  1.00  0.00    -0.017 C 
ATOM      7  C   UNL     1      -2.615 -16.875  10.059  1.00  0.00     0.012 C 
ATOM      8  C   UNL     1      -1.837 -17.482  11.247  1.00  0.00     0.031 C 
ATOM      9  C   UNL     1      -2.067 -16.803  12.579  1.00  0.00    -0.077 C 
ATOM     10  C   UNL     1      -2.811 -15.690  12.696  1.00  0.00    -0.027 C 
ATOM     11  C   UNL     1      -3.578 -15.113  11.540  1.00  0.00     0.035 C 
ATOM     12  C   UNL     1      -1.380 -17.353  13.798  1.00  0.00     0.039 C 
ENDROOT
BRANCH   5  13
ATOM     13  C   UNL     1      -4.364 -15.783   8.016  1.00  0.00    -0.077 C 
ATOM     14  C   UNL     1      -3.822 -15.824   6.787  1.00  0.00     0.008 C 
ATOM     15  C   UNL     1      -5.525 -16.704   8.303  1.00  0.00     0.039 C 
ENDBRANCH   5  13
TORSDOF 1
ENDMDL
MODEL 4
REMARK VINA RESULT:    -6.230      1.293      4.598
REMARK INTER + INTRA:          -6.813
REMARK INTER:                  -6.939
REMARK INTRA:                   0.126
REMARK UNBOUND:                -0.219
REMARK SMILES C=C(C)[C@@H]1CC[C@H](C)[C@@]12CC=C(C)CC2
REMARK SMILES IDX 8 1 7 2 6 3 5 4 4 5 9 6 15 7 14 8 12 9 11 10 10 11 13 12
REMARK SMILES IDX 2 13 1 14 3 15
REMARK H PARENT
REMARK Flexibility Score: inf
ROOT
ATOM      1  C   UNL     1      -2.629 -13.151   8.714  1.00  0.00     0.008 C 
ATOM      2  C   UNL     1      -2.293 -14.622   8.393  1.00  0.00    -0.007 C 
ATOM      3  C   UNL     1      -1.052 -15.038   9.184  1.00  0.00     0.004 C 
ATOM      4  C   UNL     1      -1.576 -15.553  10.511  1.00  0.00     0.009 C 
ATOM      5  C   UNL     1      -2.911 -16.236  10.181  1.00  0.00     0.021 C 
ATOM      6  C   UNL     1      -3.386 -15.680   8.783  1.00  0.00    -0.017 C 
ATOM      7  C   UNL     1      -4.854 -15.145   8.787  1.00  0.00     0.012 C 
ATOM      8  C   UNL     1      -5.405 -14.765   7.396  1.00  0.00     0.031 C 
ATOM      9  C   UNL     1      -4.853 -15.575   6.244  1.00  0.00    -0.077 C 
ATOM     10  C   UNL     1      -3.877 -16.484   6.410  1.00  0.00    -0.027 C 
ATOM     11  C   UNL     1      -3.356 -16.860   7.767  1.00  0.00     0.035 C 
ATOM     12  C   UNL     1      -5.364 -15.299   4.856  1.00  0.00     0.039 C 
ENDROOT
BRANCH   5  13
ATOM     13  C   UNL     1      -3.921 -16.183  11.333  1.00  0.00    -0.077 C 
ATOM     14  C   UNL     1      -3.561 -15.630  12.503  1.00  0.00     0.008 C 
ATOM     15  C   UNL     1      -5.303 -16.782  11.232  1.00  0.00     0.039 C 
ENDBRANCH   5  13
TORSDOF 1
ENDMDL
MODEL 5
REMARK VINA RESULT:    -6.104      1.528      3.115
REMARK INTER + INTRA:          -6.680
REMARK INTER:                  -6.348
REMARK INTRA:                  -0.333
REMARK UNBOUND:                -0.219
REMARK SMILES C=C(C)[C@@H]1CC[C@H](C)[C@@]12CC=C(C)CC2
REMARK SMILES IDX 8 1 7 2 6 3 5 4 4 5 9 6 15 7 14 8 12 9 11 10 10 11 13 12
REMARK SMILES IDX 2 13 1 14 3 15
REMARK H PARENT
REMARK Flexibility Score: inf
ROOT
ATOM      1  C   UNL     1      -3.816 -15.955  11.310  1.00  0.00     0.008 C 
ATOM      2  C   UNL     1      -2.672 -16.419  10.385  1.00  0.00    -0.007 C 
ATOM      3  C   UNL     1      -2.814 -17.919  10.123  1.00  0.00     0.004 C 
ATOM      4  C   UNL     1      -3.709 -18.031   8.904  1.00  0.00     0.009 C 
ATOM      5  C   UNL     1      -3.351 -16.823   8.027  1.00  0.00     0.021 C 
ATOM      6  C   UNL     1      -2.634 -15.768   8.956  1.00  0.00    -0.017 C 
ATOM      7  C   UNL     1      -3.246 -14.334   8.865  1.00  0.00     0.012 C 
ATOM      8  C   UNL     1      -2.453 -13.245   9.622  1.00  0.00     0.031 C 
ATOM      9  C   UNL     1      -0.960 -13.473   9.695  1.00  0.00    -0.077 C 
ATOM     10  C   UNL     1      -0.383 -14.594   9.228  1.00  0.00    -0.027 C 
ATOM     11  C   UNL     1      -1.156 -15.642   8.480  1.00  0.00     0.035 C 
ATOM     12  C   UNL     1      -0.104 -12.443  10.379  1.00  0.00     0.039 C 
ENDROOT
BRANCH   5  13
ATOM     13  C   UNL     1      -4.523 -16.320   7.177  1.00  0.00    -0.077 C 
ATOM     14  C   UNL     1      -5.775 -16.412   7.656  1.00  0.00     0.008 C 
ATOM     15  C   UNL     1      -4.342 -15.770   5.783  1.00  0.00     0.039 C 
ENDBRANCH   5  13
TORSDOF 1
ENDMDL
MODEL 6
REMARK VINA RESULT:    -5.980      1.626      3.144
REMARK INTER + INTRA:          -6.549
REMARK INTER:                  -6.527
REMARK INTRA:                  -0.022
REMARK UNBOUND:                -0.219
REMARK SMILES C=C(C)[C@@H]1CC[C@H](C)[C@@]12CC=C(C)CC2
REMARK SMILES IDX 8 1 7 2 6 3 5 4 4 5 9 6 15 7 14 8 12 9 11 10 10 11 13 12
REMARK SMILES IDX 2 13 1 14 3 15
REMARK H PARENT
REMARK Flexibility Score: inf
ROOT
ATOM      1  C   UNL     1      -5.193 -16.470  11.313  1.00  0.00     0.008 C 
ATOM      2  C   UNL     1      -3.822 -17.086  10.967  1.00  0.00    -0.007 C 
ATOM      3  C   UNL     1      -3.824 -17.526   9.502  1.00  0.00     0.004 C 
ATOM      4  C   UNL     1      -3.365 -16.313   8.716  1.00  0.00     0.009 C 
ATOM      5  C   UNL     1      -2.341 -15.611   9.619  1.00  0.00     0.021 C 
ATOM      6  C   UNL     1      -2.585 -16.125  11.090  1.00  0.00    -0.017 C 
ATOM      7  C   UNL     1      -2.740 -14.977  12.138  1.00  0.00     0.012 C 
ATOM      8  C   UNL     1      -2.797 -15.448  13.608  1.00  0.00     0.031 C 
ATOM      9  C   UNL     1      -2.011 -16.705  13.910  1.00  0.00    -0.077 C 
ATOM     10  C   UNL     1      -1.397 -17.413  12.947  1.00  0.00    -0.027 C 
ATOM     11  C   UNL     1      -1.331 -16.942  11.523  1.00  0.00     0.035 C 
ATOM     12  C   UNL     1      -1.979 -17.214  15.324  1.00  0.00     0.039 C 
ENDROOT
BRANCH   5  13
ATOM     13  C   UNL     1      -2.287 -14.093   9.411  1.00  0.00    -0.077 C 
ATOM     14  C   UNL     1      -3.154 -13.511   8.566  1.00  0.00     0.008 C 
ATOM     15  C   UNL     1      -1.254 -13.216  10.074  1.00  0.00     0.039 C 
ENDBRANCH   5  13
TORSDOF 1
ENDMDL
MODEL 7
REMARK VINA RESULT:    -5.581      1.409      4.796
REMARK INTER + INTRA:          -6.126
REMARK INTER:                  -6.158
REMARK INTRA:                   0.032
REMARK UNBOUND:                -0.219
REMARK SMILES C=C(C)[C@@H]1CC[C@H](C)[C@@]12CC=C(C)CC2
REMARK SMILES IDX 8 1 7 2 6 3 5 4 4 5 9 6 15 7 14 8 12 9 11 10 10 11 13 12
REMARK SMILES IDX 2 13 1 14 3 15
REMARK H PARENT
REMARK Flexibility Score: inf
ROOT
ATOM      1  C   UNL     1      -3.446 -18.026   8.582  1.00  0.00     0.008 C 
ATOM      2  C   UNL     1      -4.352 -16.842   8.980  1.00  0.00    -0.007 C 
ATOM      3  C   UNL     1      -4.534 -16.837  10.499  1.00  0.00     0.004 C 
ATOM      4  C   UNL     1      -3.385 -16.009  11.039  1.00  0.00     0.009 C 
ATOM      5  C   UNL     1      -3.146 -14.915   9.989  1.00  0.00     0.021 C 
ATOM      6  C   UNL     1      -3.802 -15.410   8.642  1.00  0.00    -0.017 C 
ATOM      7  C   UNL     1      -2.839 -15.343   7.414  1.00  0.00     0.012 C 
ATOM      8  C   UNL     1      -3.506 -15.647   6.054  1.00  0.00     0.031 C 
ATOM      9  C   UNL     1      -4.962 -15.251   5.951  1.00  0.00    -0.077 C 
ATOM     10  C   UNL     1      -5.648 -14.768   7.000  1.00  0.00    -0.027 C 
ATOM     11  C   UNL     1      -4.991 -14.459   8.315  1.00  0.00     0.035 C 
ATOM     12  C   UNL     1      -5.681 -15.474   4.649  1.00  0.00     0.039 C 
ENDROOT
BRANCH   5  13
ATOM     13  C   UNL     1      -1.689 -14.443   9.922  1.00  0.00    -0.077 C 
ATOM     14  C   UNL     1      -0.725 -15.320   9.594  1.00  0.00     0.008 C 
ATOM     15  C   UNL     1      -1.271 -13.035  10.269  1.00  0.00     0.039 C 
ENDBRANCH   5  13
TORSDOF 1
ENDMDL
MODEL 8
REMARK VINA RESULT:    -5.470      1.547      3.811
REMARK INTER + INTRA:          -6.009
REMARK INTER:                  -5.898
REMARK INTRA:                  -0.111
REMARK UNBOUND:                -0.219
REMARK SMILES C=C(C)[C@@H]1CC[C@H](C)[C@@]12CC=C(C)CC2
REMARK SMILES IDX 8 1 7 2 6 3 5 4 4 5 9 6 15 7 14 8 12 9 11 10 10 11 13 12
REMARK SMILES IDX 2 13 1 14 3 15
REMARK H PARENT
REMARK Flexibility Score: inf
ROOT
ATOM      1  C   UNL     1      -3.207 -15.190   6.521  1.00  0.00     0.008 C 
ATOM      2  C   UNL     1      -3.861 -14.914   7.890  1.00  0.00    -0.007 C 
ATOM      3  C   UNL     1      -5.350 -15.252   7.813  1.00  0.00     0.004 C 
ATOM      4  C   UNL     1      -5.449 -16.722   8.174  1.00  0.00     0.009 C 
ATOM      5  C   UNL     1      -4.355 -16.954   9.225  1.00  0.00     0.021 C 
ATOM      6  C   UNL     1      -3.323 -15.768   9.094  1.00  0.00    -0.017 C 
ATOM      7  C   UNL     1      -1.839 -16.239   8.962  1.00  0.00     0.012 C 
ATOM      8  C   UNL     1      -0.795 -15.103   9.016  1.00  0.00     0.031 C 
ATOM      9  C   UNL     1      -1.182 -13.914   9.868  1.00  0.00    -0.077 C 
ATOM     10  C   UNL     1      -2.391 -13.812  10.446  1.00  0.00    -0.027 C 
ATOM     11  C   UNL     1      -3.397 -14.926  10.403  1.00  0.00     0.035 C 
ATOM     12  C   UNL     1      -0.208 -12.778  10.009  1.00  0.00     0.039 C 
ENDROOT
BRANCH   5  13
ATOM     13  C   UNL     1      -3.787 -18.377   9.207  1.00  0.00    -0.077 C 
ATOM     14  C   UNL     1      -3.841 -19.125  10.322  1.00  0.00     0.008 C 
ATOM     15  C   UNL     1      -3.107 -18.968   7.997  1.00  0.00     0.039 C 
ENDBRANCH   5  13
TORSDOF 1
ENDMDL
MODEL 9
REMARK VINA RESULT:    -4.681      2.157      5.507
REMARK INTER + INTRA:          -5.174
REMARK INTER:                  -4.882
REMARK INTRA:                  -0.292
REMARK UNBOUND:                -0.219
REMARK SMILES C=C(C)[C@@H]1CC[C@H](C)[C@@]12CC=C(C)CC2
REMARK SMILES IDX 8 1 7 2 6 3 5 4 4 5 9 6 15 7 14 8 12 9 11 10 10 11 13 12
REMARK SMILES IDX 2 13 1 14 3 15
REMARK H PARENT
REMARK Flexibility Score: inf
ROOT
ATOM      1  C   UNL     1      -4.964 -16.079  12.300  1.00  0.00     0.008 C 
ATOM      2  C   UNL     1      -3.656 -15.527  11.699  1.00  0.00    -0.007 C 
ATOM      3  C   UNL     1      -3.107 -14.429  12.611  1.00  0.00     0.004 C 
ATOM      4  C   UNL     1      -2.225 -15.144  13.616  1.00  0.00     0.009 C 
ATOM      5  C   UNL     1      -1.588 -16.305  12.841  1.00  0.00     0.021 C 
ATOM      6  C   UNL     1      -2.475 -16.553  11.560  1.00  0.00    -0.017 C 
ATOM      7  C   UNL     1      -2.910 -18.042  11.377  1.00  0.00     0.012 C 
ATOM      8  C   UNL     1      -3.622 -18.347  10.041  1.00  0.00     0.031 C 
ATOM      9  C   UNL     1      -3.185 -17.494   8.871  1.00  0.00    -0.077 C 
ATOM     10  C   UNL     1      -2.318 -16.476   9.012  1.00  0.00    -0.027 C 
ATOM     11  C   UNL     1      -1.617 -16.194  10.310  1.00  0.00     0.035 C 
ATOM     12  C   UNL     1      -3.798 -17.748   7.522  1.00  0.00     0.039 C 
ENDROOT
BRANCH   5  13
ATOM     13  C   UNL     1      -1.274 -17.522  13.717  1.00  0.00    -0.077 C 
ATOM     14  C   UNL     1      -1.934 -17.691  14.875  1.00  0.00     0.008 C 
ATOM     15  C   UNL     1      -0.201 -18.524  13.366  1.00  0.00     0.039 C 
ENDBRANCH   5  13
TORSDOF 1
ENDMDL
