MODEL 1
REMARK VINA RESULT:    -4.659      0.000      0.000
REMARK INTER + INTRA:          -4.659
REMARK INTER:                  -4.659
REMARK INTRA:                   0.000
REMARK UNBOUND:                 0.000
REMARK SMILES CC(C)=C1CC[C@@H](C)CC1=O
REMARK SMILES IDX 8 1 7 2 6 3 5 4 4 5 2 6 1 7 3 8 10 9 11 10 9 11
REMARK H PARENT
REMARK Flexibility Score: inf
ROOT
ATOM      1  C   UNL     1       6.004 -13.577  19.506  1.00  0.00     0.008 C 
ATOM      2  C   UNL     1       6.116 -14.557  20.680  1.00  0.00    -0.006 C 
ATOM      3  C   UNL     1       6.216 -13.796  22.012  1.00  0.00     0.008 C 
ATOM      4  C   UNL     1       6.225 -14.760  23.206  1.00  0.00     0.039 C 
ATOM      5  C   UNL     1       7.284 -15.845  23.071  1.00  0.00    -0.006 C 
ATOM      6  C   UNL     1       7.904 -16.372  24.169  1.00  0.00    -0.070 C 
ATOM      7  C   UNL     1       8.996 -17.409  24.045  1.00  0.00     0.039 C 
ATOM      8  C   UNL     1       7.551 -15.912  25.565  1.00  0.00     0.039 C 
ATOM      9  C   UNL     1       7.513 -16.372  21.693  1.00  0.00     0.159 C 
ATOM     10  O   UNL     1       7.848 -17.570  21.497  1.00  0.00    -0.295 OA
ATOM     11  C   UNL     1       7.338 -15.470  20.505  1.00  0.00     0.084 C 
ENDROOT
TORSDOF 0
ENDMDL
MODEL 2
REMARK VINA RESULT:    -4.646      1.035      4.017
REMARK INTER + INTRA:          -4.646
REMARK INTER:                  -4.646
REMARK INTRA:                   0.000
REMARK UNBOUND:                 0.000
REMARK SMILES CC(C)=C1CC[C@@H](C)CC1=O
REMARK SMILES IDX 8 1 7 2 6 3 5 4 4 5 2 6 1 7 3 8 10 9 11 10 9 11
REMARK H PARENT
REMARK Flexibility Score: inf
ROOT
ATOM      1  C   UNL     1       6.738 -16.674  25.445  1.00  0.00     0.008 C 
ATOM      2  C   UNL     1       7.106 -15.925  24.160  1.00  0.00    -0.006 C 
ATOM      3  C   UNL     1       5.892 -15.153  23.617  1.00  0.00     0.008 C 
ATOM      4  C   UNL     1       6.269 -14.315  22.389  1.00  0.00     0.039 C 
ATOM      5  C   UNL     1       6.968 -15.136  21.313  1.00  0.00    -0.006 C 
ATOM      6  C   UNL     1       6.824 -14.839  19.988  1.00  0.00    -0.070 C 
ATOM      7  C   UNL     1       7.467 -15.680  18.909  1.00  0.00     0.039 C 
ATOM      8  C   UNL     1       5.979 -13.671  19.533  1.00  0.00     0.039 C 
ATOM      9  C   UNL     1       7.900 -16.196  21.800  1.00  0.00     0.159 C 
ATOM     10  O   UNL     1       8.930 -16.513  21.147  1.00  0.00    -0.295 OA
ATOM     11  C   UNL     1       7.624 -16.903  23.095  1.00  0.00     0.084 C 
ENDROOT
TORSDOF 0
ENDMDL
MODEL 3
REMARK VINA RESULT:    -4.644      1.579      2.458
REMARK INTER + INTRA:          -4.644
REMARK INTER:                  -4.644
REMARK INTRA:                   0.000
REMARK UNBOUND:                 0.000
REMARK SMILES CC(C)=C1CC[C@@H](C)CC1=O
REMARK SMILES IDX 8 1 7 2 6 3 5 4 4 5 2 6 1 7 3 8 10 9 11 10 9 11
REMARK H PARENT
REMARK Flexibility Score: inf
ROOT
ATOM      1  C   UNL     1       6.007 -13.605  18.889  1.00  0.00     0.008 C 
ATOM      2  C   UNL     1       6.758 -14.239  20.065  1.00  0.00    -0.006 C 
ATOM      3  C   UNL     1       6.948 -15.748  19.834  1.00  0.00     0.008 C 
ATOM      4  C   UNL     1       7.788 -16.380  20.952  1.00  0.00     0.039 C 
ATOM      5  C   UNL     1       7.245 -16.065  22.340  1.00  0.00    -0.006 C 
ATOM      6  C   UNL     1       7.375 -16.950  23.371  1.00  0.00    -0.070 C 
ATOM      7  C   UNL     1       6.792 -16.673  24.738  1.00  0.00     0.039 C 
ATOM      8  C   UNL     1       8.080 -18.274  23.183  1.00  0.00     0.039 C 
ATOM      9  C   UNL     1       6.675 -14.697  22.526  1.00  0.00     0.159 C 
ATOM     10  O   UNL     1       6.752 -14.100  23.632  1.00  0.00    -0.295 OA
ATOM     11  C   UNL     1       6.000 -14.002  21.379  1.00  0.00     0.084 C 
ENDROOT
TORSDOF 0
ENDMDL
MODEL 4
REMARK VINA RESULT:    -4.638      1.628      4.428
REMARK INTER + INTRA:          -4.638
REMARK INTER:                  -4.638
REMARK INTRA:                   0.000
REMARK UNBOUND:                 0.000
REMARK SMILES CC(C)=C1CC[C@@H](C)CC1=O
REMARK SMILES IDX 8 1 7 2 6 3 5 4 4 5 2 6 1 7 3 8 10 9 11 10 9 11
REMARK H PARENT
REMARK Flexibility Score: inf
ROOT
ATOM      1  C   UNL     1       8.263 -15.351  26.051  1.00  0.00     0.008 C 
ATOM      2  C   UNL     1       7.586 -15.671  24.713  1.00  0.00    -0.006 C 
ATOM      3  C   UNL     1       8.476 -16.593  23.863  1.00  0.00     0.008 C 
ATOM      4  C   UNL     1       7.770 -17.006  22.565  1.00  0.00     0.039 C 
ATOM      5  C   UNL     1       7.247 -15.812  21.779  1.00  0.00    -0.006 C 
ATOM      6  C   UNL     1       7.185 -15.831  20.415  1.00  0.00    -0.070 C 
ATOM      7  C   UNL     1       6.720 -14.632  19.621  1.00  0.00     0.039 C 
ATOM      8  C   UNL     1       7.617 -17.048  19.628  1.00  0.00     0.039 C 
ATOM      9  C   UNL     1       6.703 -14.681  22.589  1.00  0.00     0.159 C 
ATOM     10  O   UNL     1       5.756 -13.967  22.164  1.00  0.00    -0.295 OA
ATOM     11  C   UNL     1       7.282 -14.379  23.941  1.00  0.00     0.084 C 
ENDROOT
TORSDOF 0
ENDMDL
MODEL 5
REMARK VINA RESULT:    -4.536      2.745      4.208
REMARK INTER + INTRA:          -4.536
REMARK INTER:                  -4.536
REMARK INTRA:                   0.000
REMARK UNBOUND:                 0.000
REMARK SMILES CC(C)=C1CC[C@@H](C)CC1=O
REMARK SMILES IDX 8 1 7 2 6 3 5 4 4 5 2 6 1 7 3 8 10 9 11 10 9 11
REMARK H PARENT
REMARK Flexibility Score: inf
ROOT
ATOM      1  C   UNL     1       6.619 -14.740  23.124  1.00  0.00     0.008 C 
ATOM      2  C   UNL     1       7.308 -15.990  23.683  1.00  0.00    -0.006 C 
ATOM      3  C   UNL     1       7.486 -17.047  22.581  1.00  0.00     0.008 C 
ATOM      4  C   UNL     1       8.265 -18.264  23.097  1.00  0.00     0.039 C 
ATOM      5  C   UNL     1       7.666 -18.843  24.371  1.00  0.00    -0.006 C 
ATOM      6  C   UNL     1       7.737 -20.180  24.646  1.00  0.00    -0.070 C 
ATOM      7  C   UNL     1       7.097 -20.774  25.879  1.00  0.00     0.039 C 
ATOM      8  C   UNL     1       8.430 -21.138  23.704  1.00  0.00     0.039 C 
ATOM      9  C   UNL     1       7.108 -17.855  25.342  1.00  0.00     0.159 C 
ATOM     10  O   UNL     1       7.145 -18.065  26.584  1.00  0.00    -0.295 OA
ATOM     11  C   UNL     1       6.495 -16.577  24.846  1.00  0.00     0.084 C 
ENDROOT
TORSDOF 0
ENDMDL
MODEL 6
REMARK VINA RESULT:    -4.489      2.565      3.974
REMARK INTER + INTRA:          -4.489
REMARK INTER:                  -4.489
REMARK INTRA:                   0.000
REMARK UNBOUND:                 0.000
REMARK SMILES CC(C)=C1CC[C@@H](C)CC1=O
REMARK SMILES IDX 8 1 7 2 6 3 5 4 4 5 2 6 1 7 3 8 10 9 11 10 9 11
REMARK H PARENT
REMARK Flexibility Score: inf
ROOT
ATOM      1  C   UNL     1       7.463 -14.487  24.056  1.00  0.00     0.008 C 
ATOM      2  C   UNL     1       7.017 -15.897  24.458  1.00  0.00    -0.006 C 
ATOM      3  C   UNL     1       7.627 -16.291  25.813  1.00  0.00     0.008 C 
ATOM      4  C   UNL     1       7.110 -17.658  26.281  1.00  0.00     0.039 C 
ATOM      5  C   UNL     1       7.286 -18.741  25.224  1.00  0.00    -0.006 C 
ATOM      6  C   UNL     1       7.514 -20.042  25.572  1.00  0.00    -0.070 C 
ATOM      7  C   UNL     1       7.745 -21.115  24.533  1.00  0.00     0.039 C 
ATOM      8  C   UNL     1       7.584 -20.465  27.021  1.00  0.00     0.039 C 
ATOM      9  C   UNL     1       7.077 -18.315  23.808  1.00  0.00     0.159 C 
ATOM     10  O   UNL     1       6.605 -19.107  22.949  1.00  0.00    -0.295 OA
ATOM     11  C   UNL     1       7.424 -16.917  23.385  1.00  0.00     0.084 C 
ENDROOT
TORSDOF 0
ENDMDL
MODEL 7
REMARK VINA RESULT:    -4.468      3.317      6.113
REMARK INTER + INTRA:          -4.468
REMARK INTER:                  -4.468
REMARK INTRA:                   0.000
REMARK UNBOUND:                 0.000
REMARK SMILES CC(C)=C1CC[C@@H](C)CC1=O
REMARK SMILES IDX 8 1 7 2 6 3 5 4 4 5 2 6 1 7 3 8 10 9 11 10 9 11
REMARK H PARENT
REMARK Flexibility Score: inf
ROOT
ATOM      1  C   UNL     1       7.479 -21.084  27.689  1.00  0.00     0.008 C 
ATOM      2  C   UNL     1       7.046 -20.321  26.432  1.00  0.00    -0.006 C 
ATOM      3  C   UNL     1       7.630 -20.980  25.172  1.00  0.00     0.008 C 
ATOM      4  C   UNL     1       7.124 -20.291  23.897  1.00  0.00     0.039 C 
ATOM      5  C   UNL     1       7.340 -18.784  23.923  1.00  0.00    -0.006 C 
ATOM      6  C   UNL     1       7.580 -18.081  22.777  1.00  0.00    -0.070 C 
ATOM      7  C   UNL     1       7.851 -16.594  22.796  1.00  0.00     0.039 C 
ATOM      8  C   UNL     1       7.624 -18.768  21.431  1.00  0.00     0.039 C 
ATOM      9  C   UNL     1       7.157 -18.118  25.248  1.00  0.00     0.159 C 
ATOM     10  O   UNL     1       6.717 -16.940  25.333  1.00  0.00    -0.295 OA
ATOM     11  C   UNL     1       7.492 -18.855  26.512  1.00  0.00     0.084 C 
ENDROOT
TORSDOF 0
ENDMDL
MODEL 8
REMARK VINA RESULT:    -4.408      3.923      5.824
REMARK INTER + INTRA:          -4.408
REMARK INTER:                  -4.408
REMARK INTRA:                   0.000
REMARK UNBOUND:                 0.000
REMARK SMILES CC(C)=C1CC[C@@H](C)CC1=O
REMARK SMILES IDX 8 1 7 2 6 3 5 4 4 5 2 6 1 7 3 8 10 9 11 10 9 11
REMARK H PARENT
REMARK Flexibility Score: inf
ROOT
ATOM      1  C   UNL     1       9.142 -22.796  21.407  1.00  0.00     0.008 C 
ATOM      2  C   UNL     1       8.222 -21.861  22.200  1.00  0.00    -0.006 C 
ATOM      3  C   UNL     1       8.264 -20.439  21.617  1.00  0.00     0.008 C 
ATOM      4  C   UNL     1       7.271 -19.514  22.333  1.00  0.00     0.039 C 
ATOM      5  C   UNL     1       7.444 -19.531  23.846  1.00  0.00    -0.006 C 
ATOM      6  C   UNL     1       7.185 -18.424  24.602  1.00  0.00    -0.070 C 
ATOM      7  C   UNL     1       7.406 -18.411  26.097  1.00  0.00     0.039 C 
ATOM      8  C   UNL     1       6.698 -17.139  23.971  1.00  0.00     0.039 C 
ATOM      9  C   UNL     1       7.795 -20.850  24.451  1.00  0.00     0.159 C 
ATOM     10  O   UNL     1       7.400 -21.168  25.604  1.00  0.00    -0.295 OA
ATOM     11  C   UNL     1       8.628 -21.833  23.680  1.00  0.00     0.084 C 
ENDROOT
TORSDOF 0
ENDMDL
MODEL 9
REMARK VINA RESULT:    -4.399      5.437      6.124
REMARK INTER + INTRA:          -4.399
REMARK INTER:                  -4.399
REMARK INTRA:                   0.000
REMARK UNBOUND:                 0.000
REMARK SMILES CC(C)=C1CC[C@@H](C)CC1=O
REMARK SMILES IDX 8 1 7 2 6 3 5 4 4 5 2 6 1 7 3 8 10 9 11 10 9 11
REMARK H PARENT
REMARK Flexibility Score: inf
ROOT
ATOM      1  C   UNL     1       8.979 -20.402  18.185  1.00  0.00     0.008 C 
ATOM      2  C   UNL     1       8.644 -21.054  19.531  1.00  0.00    -0.006 C 
ATOM      3  C   UNL     1       7.805 -20.103  20.399  1.00  0.00     0.008 C 
ATOM      4  C   UNL     1       7.374 -20.777  21.708  1.00  0.00     0.039 C 
ATOM      5  C   UNL     1       8.548 -21.380  22.468  1.00  0.00    -0.006 C 
ATOM      6  C   UNL     1       8.555 -21.439  23.833  1.00  0.00    -0.070 C 
ATOM      7  C   UNL     1       9.738 -21.984  24.600  1.00  0.00     0.039 C 
ATOM      8  C   UNL     1       7.389 -20.924  24.646  1.00  0.00     0.039 C 
ATOM      9  C   UNL     1       9.621 -22.000  21.634  1.00  0.00     0.159 C 
ATOM     10  O   UNL     1      10.278 -22.993  22.045  1.00  0.00    -0.295 OA
ATOM     11  C   UNL     1       9.930 -21.445  20.274  1.00  0.00     0.084 C 
ENDROOT
TORSDOF 0
ENDMDL
