MODEL 1
REMARK VINA RESULT:    -6.056      0.000      0.000
REMARK INTER + INTRA:          -7.532
REMARK INTER:                  -7.295
REMARK INTRA:                  -0.237
REMARK UNBOUND:                -0.237
REMARK SMILES O=c1c(O)c(-c2ccc(O)c(O)c2)oc2cc(O)cc(O)c12
REMARK SMILES IDX 5 1 3 2 2 3 1 4 22 5 20 6 19 7 17 8 16 9 15 10 14 11 6 12
REMARK SMILES IDX 7 13 8 14 9 15 13 16 11 17 10 18 12 20 4 22 21 24 18 26
REMARK H PARENT 10 19 12 21 4 23 21 25 18 27
REMARK Flexibility Score: inf
ROOT
ATOM      1  C   UNL     1       8.751  -1.234   9.604  1.00  0.00     0.180 A 
ATOM      2  C   UNL     1       7.463  -1.555  10.066  1.00  0.00     0.208 A 
ATOM      3  C   UNL     1       7.048  -2.897  10.050  1.00  0.00     0.238 A 
ATOM      4  O   UNL     1       5.876  -3.171  10.415  1.00  0.00    -0.285 OA
ATOM      5  C   UNL     1       7.933  -3.902   9.589  1.00  0.00     0.111 A 
ATOM      6  C   UNL     1       7.633  -5.298   9.568  1.00  0.00     0.134 A 
ATOM      7  C   UNL     1       8.533  -6.188   8.968  1.00  0.00     0.093 A 
ATOM      8  C   UNL     1       9.748  -5.743   8.450  1.00  0.00     0.123 A 
ATOM      9  C   UNL     1      10.078  -4.389   8.520  1.00  0.00     0.094 A 
ATOM     10  C   UNL     1       9.185  -3.471   9.079  1.00  0.00     0.146 A 
ATOM     11  O   UNL     1       9.532  -2.191   9.116  1.00  0.00    -0.452 OA
ENDROOT
BRANCH   1  12
ATOM     12  C   UNL     1       9.267   0.154   9.612  1.00  0.00     0.025 A 
ATOM     13  C   UNL     1       8.790   1.074   8.664  1.00  0.00     0.016 A 
ATOM     14  C   UNL     1       9.279   2.383   8.641  1.00  0.00     0.051 A 
ATOM     15  C   UNL     1      10.262   2.787   9.552  1.00  0.00     0.157 A 
ATOM     16  C   UNL     1      10.270   0.558  10.511  1.00  0.00     0.062 A 
ATOM     17  C   UNL     1      10.764   1.867  10.489  1.00  0.00     0.158 A 
BRANCH  15  18
ATOM     18  O   UNL     1      10.747   4.094   9.527  1.00  0.00    -0.504 OA
ATOM     19  H   UNL     1      10.602   4.698   8.726  1.00  0.00     0.293 HD
ENDBRANCH  15  18
BRANCH  17  20
ATOM     20  O   UNL     1      11.753   2.234  11.400  1.00  0.00    -0.504 OA
ATOM     21  H   UNL     1      12.218   1.557  11.991  1.00  0.00     0.293 HD
ENDBRANCH  17  20
ENDBRANCH   1  12
BRANCH   2  22
ATOM     22  O   UNL     1       6.598  -0.545  10.496  1.00  0.00    -0.502 OA
ATOM     23  H   UNL     1       6.856   0.123  11.212  1.00  0.00     0.293 HD
ENDBRANCH   2  22
BRANCH   6  24
ATOM     24  O   UNL     1       6.488  -5.859  10.140  1.00  0.00    -0.507 OA
ATOM     25  H   UNL     1       5.908  -6.555   9.698  1.00  0.00     0.293 HD
ENDBRANCH   6  24
BRANCH   8  26
ATOM     26  O   UNL     1      10.627  -6.659   7.875  1.00  0.00    -0.508 OA
ATOM     27  H   UNL     1      11.561  -6.799   8.241  1.00  0.00     0.293 HD
ENDBRANCH   8  26
TORSDOF 6
ENDMDL
MODEL 2
REMARK VINA RESULT:    -5.172      2.308      3.935
REMARK INTER + INTRA:          -6.467
REMARK INTER:                  -6.183
REMARK INTRA:                  -0.284
REMARK UNBOUND:                -0.237
REMARK SMILES O=c1c(O)c(-c2ccc(O)c(O)c2)oc2cc(O)cc(O)c12
REMARK SMILES IDX 5 1 3 2 2 3 1 4 22 5 20 6 19 7 17 8 16 9 15 10 14 11 6 12
REMARK SMILES IDX 7 13 8 14 9 15 13 16 11 17 10 18 12 20 4 22 21 24 18 26
REMARK H PARENT 10 19 12 21 4 23 21 25 18 27
REMARK Flexibility Score: inf
ROOT
ATOM      1  C   UNL     1       8.140  -3.166  10.060  1.00  0.00     0.180 A 
ATOM      2  C   UNL     1       8.273  -4.198   9.115  1.00  0.00     0.208 A 
ATOM      3  C   UNL     1       7.839  -5.491   9.453  1.00  0.00     0.238 A 
ATOM      4  O   UNL     1       8.011  -6.421   8.622  1.00  0.00    -0.285 OA
ATOM      5  C   UNL     1       7.262  -5.731  10.723  1.00  0.00     0.111 A 
ATOM      6  C   UNL     1       6.751  -6.992  11.155  1.00  0.00     0.134 A 
ATOM      7  C   UNL     1       6.323  -7.145  12.480  1.00  0.00     0.093 A 
ATOM      8  C   UNL     1       6.325  -6.070  13.367  1.00  0.00     0.123 A 
ATOM      9  C   UNL     1       6.767  -4.818  12.937  1.00  0.00     0.094 A 
ATOM     10  C   UNL     1       7.235  -4.642  11.633  1.00  0.00     0.146 A 
ATOM     11  O   UNL     1       7.656  -3.438  11.267  1.00  0.00    -0.452 OA
ENDROOT
BRANCH   1  12
ATOM     12  C   UNL     1       8.552  -1.774   9.769  1.00  0.00     0.025 A 
ATOM     13  C   UNL     1       9.710  -1.255  10.373  1.00  0.00     0.016 A 
ATOM     14  C   UNL     1      10.105   0.062  10.128  1.00  0.00     0.051 A 
ATOM     15  C   UNL     1       9.342   0.886   9.292  1.00  0.00     0.157 A 
ATOM     16  C   UNL     1       7.778  -0.937   8.947  1.00  0.00     0.062 A 
ATOM     17  C   UNL     1       8.169   0.384   8.702  1.00  0.00     0.158 A 
BRANCH  15  18
ATOM     18  O   UNL     1       9.740   2.200   9.049  1.00  0.00    -0.504 OA
ATOM     19  H   UNL     1      10.719   2.461   9.021  1.00  0.00     0.293 HD
ENDBRANCH  15  18
BRANCH  17  20
ATOM     20  O   UNL     1       7.380   1.183   7.875  1.00  0.00    -0.504 OA
ATOM     21  H   UNL     1       6.370   1.190   7.939  1.00  0.00     0.293 HD
ENDBRANCH  17  20
ENDBRANCH   1  12
BRANCH   2  22
ATOM     22  O   UNL     1       8.866  -3.944   7.875  1.00  0.00    -0.502 OA
ATOM     23  H   UNL     1       9.444  -4.625   7.399  1.00  0.00     0.293 HD
ENDBRANCH   2  22
BRANCH   6  24
ATOM     24  O   UNL     1       6.619  -8.107  10.323  1.00  0.00    -0.507 OA
ATOM     25  H   UNL     1       7.210  -8.923  10.359  1.00  0.00     0.293 HD
ENDBRANCH   6  24
BRANCH   8  26
ATOM     26  O   UNL     1       5.877  -6.255  14.673  1.00  0.00    -0.508 OA
ATOM     27  H   UNL     1       5.227  -6.994  14.911  1.00  0.00     0.293 HD
ENDBRANCH   8  26
TORSDOF 6
ENDMDL
MODEL 3
REMARK VINA RESULT:    -5.122      2.704      4.673
REMARK INTER + INTRA:          -6.407
REMARK INTER:                  -6.091
REMARK INTRA:                  -0.316
REMARK UNBOUND:                -0.237
REMARK SMILES O=c1c(O)c(-c2ccc(O)c(O)c2)oc2cc(O)cc(O)c12
REMARK SMILES IDX 5 1 3 2 2 3 1 4 22 5 20 6 19 7 17 8 16 9 15 10 14 11 6 12
REMARK SMILES IDX 7 13 8 14 9 15 13 16 11 17 10 18 12 20 4 22 21 24 18 26
REMARK H PARENT 10 19 12 21 4 23 21 25 18 27
REMARK Flexibility Score: inf
ROOT
ATOM      1  C   UNL     1       7.277  -4.232  10.216  1.00  0.00     0.180 A 
ATOM      2  C   UNL     1       7.122  -5.210   9.219  1.00  0.00     0.208 A 
ATOM      3  C   UNL     1       6.800  -6.524   9.598  1.00  0.00     0.238 A 
ATOM      4  O   UNL     1       6.715  -7.407   8.706  1.00  0.00    -0.285 OA
ATOM      5  C   UNL     1       6.620  -6.838  10.967  1.00  0.00     0.111 A 
ATOM      6  C   UNL     1       6.251  -8.125  11.461  1.00  0.00     0.134 A 
ATOM      7  C   UNL     1       6.230  -8.354  12.843  1.00  0.00     0.093 A 
ATOM      8  C   UNL     1       6.498  -7.327  13.747  1.00  0.00     0.123 A 
ATOM      9  C   UNL     1       6.801  -6.049  13.275  1.00  0.00     0.094 A 
ATOM     10  C   UNL     1       6.866  -5.799  11.903  1.00  0.00     0.146 A 
ATOM     11  O   UNL     1       7.167  -4.572  11.495  1.00  0.00    -0.452 OA
ENDROOT
BRANCH   1  12
ATOM     12  C   UNL     1       7.593  -2.822   9.892  1.00  0.00     0.025 A 
ATOM     13  C   UNL     1       8.933  -2.433   9.731  1.00  0.00     0.016 A 
ATOM     14  C   UNL     1       9.255  -1.104   9.446  1.00  0.00     0.051 A 
ATOM     15  C   UNL     1       8.245  -0.140   9.335  1.00  0.00     0.157 A 
ATOM     16  C   UNL     1       6.584  -1.847   9.801  1.00  0.00     0.062 A 
ATOM     17  C   UNL     1       6.903  -0.514   9.519  1.00  0.00     0.158 A 
BRANCH  15  18
ATOM     18  O   UNL     1       8.569   1.186   9.049  1.00  0.00    -0.504 OA
ATOM     19  H   UNL     1       9.532   1.490   8.968  1.00  0.00     0.293 HD
ENDBRANCH  15  18
BRANCH  17  20
ATOM     20  O   UNL     1       5.875   0.424   9.429  1.00  0.00    -0.504 OA
ATOM     21  H   UNL     1       4.901   0.166   9.523  1.00  0.00     0.293 HD
ENDBRANCH  17  20
ENDBRANCH   1  12
BRANCH   2  22
ATOM     22  O   UNL     1       7.326  -4.884   7.875  1.00  0.00    -0.502 OA
ATOM     23  H   UNL     1       8.247  -4.859   7.456  1.00  0.00     0.293 HD
ENDBRANCH   2  22
BRANCH   6  24
ATOM     24  O   UNL     1       5.875  -9.196  10.646  1.00  0.00    -0.507 OA
ATOM     25  H   UNL     1       6.200 -10.144  10.758  1.00  0.00     0.293 HD
ENDBRANCH   6  24
BRANCH   8  26
ATOM     26  O   UNL     1       6.452  -7.586  15.116  1.00  0.00    -0.508 OA
ATOM     27  H   UNL     1       7.272  -7.488  15.701  1.00  0.00     0.293 HD
ENDBRANCH   8  26
TORSDOF 6
ENDMDL
MODEL 4
REMARK VINA RESULT:    -4.927      1.749      6.701
REMARK INTER + INTRA:          -6.172
REMARK INTER:                  -5.895
REMARK INTRA:                  -0.277
REMARK UNBOUND:                -0.237
REMARK SMILES O=c1c(O)c(-c2ccc(O)c(O)c2)oc2cc(O)cc(O)c12
REMARK SMILES IDX 5 1 3 2 2 3 1 4 22 5 20 6 19 7 17 8 16 9 15 10 14 11 6 12
REMARK SMILES IDX 7 13 8 14 9 15 13 16 11 17 10 18 12 20 4 22 21 24 18 26
REMARK H PARENT 10 19 12 21 4 23 21 25 18 27
REMARK Flexibility Score: inf
ROOT
ATOM      1  C   UNL     1       8.284  -2.258   9.886  1.00  0.00     0.180 A 
ATOM      2  C   UNL     1       7.113  -1.804   9.254  1.00  0.00     0.208 A 
ATOM      3  C   UNL     1       7.032  -0.459   8.856  1.00  0.00     0.238 A 
ATOM      4  O   UNL     1       5.961  -0.046   8.340  1.00  0.00    -0.285 OA
ATOM      5  C   UNL     1       8.128   0.409   9.079  1.00  0.00     0.111 A 
ATOM      6  C   UNL     1       8.170   1.779   8.680  1.00  0.00     0.134 A 
ATOM      7  C   UNL     1       9.253   2.578   9.069  1.00  0.00     0.093 A 
ATOM      8  C   UNL     1      10.323   2.042   9.783  1.00  0.00     0.123 A 
ATOM      9  C   UNL     1      10.320   0.690  10.127  1.00  0.00     0.094 A 
ATOM     10  C   UNL     1       9.237  -0.124   9.785  1.00  0.00     0.146 A 
ATOM     11  O   UNL     1       9.268  -1.403  10.140  1.00  0.00    -0.452 OA
ENDROOT
BRANCH   1  12
ATOM     12  C   UNL     1       8.454  -3.666  10.312  1.00  0.00     0.025 A 
ATOM     13  C   UNL     1       7.849  -4.106  11.500  1.00  0.00     0.016 A 
ATOM     14  C   UNL     1       8.013  -5.424  11.932  1.00  0.00     0.051 A 
ATOM     15  C   UNL     1       8.797  -6.318  11.192  1.00  0.00     0.157 A 
ATOM     16  C   UNL     1       9.258  -4.561   9.583  1.00  0.00     0.062 A 
ATOM     17  C   UNL     1       9.426  -5.882  10.014  1.00  0.00     0.158 A 
BRANCH  15  18
ATOM     18  O   UNL     1       8.958  -7.634  11.624  1.00  0.00    -0.504 OA
ATOM     19  H   UNL     1       9.465  -7.855  12.473  1.00  0.00     0.293 HD
ENDBRANCH  15  18
BRANCH  17  20
ATOM     20  O   UNL     1      10.225  -6.743   9.262  1.00  0.00    -0.504 OA
ATOM     21  H   UNL     1      10.036  -6.938   8.287  1.00  0.00     0.293 HD
ENDBRANCH  17  20
ENDBRANCH   1  12
BRANCH   2  22
ATOM     22  O   UNL     1       6.035  -2.673   9.064  1.00  0.00    -0.502 OA
ATOM     23  H   UNL     1       6.132  -3.566   8.598  1.00  0.00     0.293 HD
ENDBRANCH   2  22
BRANCH   6  24
ATOM     24  O   UNL     1       7.196   2.391   7.886  1.00  0.00    -0.507 OA
ATOM     25  H   UNL     1       6.540   1.898   7.300  1.00  0.00     0.293 HD
ENDBRANCH   6  24
BRANCH   8  26
ATOM     26  O   UNL     1      11.391   2.863  10.140  1.00  0.00    -0.508 OA
ATOM     27  H   UNL     1      11.639   3.019  11.109  1.00  0.00     0.293 HD
ENDBRANCH   8  26
TORSDOF 6
ENDMDL
MODEL 5
REMARK VINA RESULT:    -4.913      3.692      5.666
REMARK INTER + INTRA:          -6.155
REMARK INTER:                  -6.052
REMARK INTRA:                  -0.103
REMARK UNBOUND:                -0.237
REMARK SMILES O=c1c(O)c(-c2ccc(O)c(O)c2)oc2cc(O)cc(O)c12
REMARK SMILES IDX 5 1 3 2 2 3 1 4 22 5 20 6 19 7 17 8 16 9 15 10 14 11 6 12
REMARK SMILES IDX 7 13 8 14 9 15 13 16 11 17 10 18 12 20 4 22 21 24 18 26
REMARK H PARENT 10 19 12 21 4 23 21 25 18 27
REMARK Flexibility Score: inf
ROOT
ATOM      1  C   UNL     1       8.301  -6.022  11.099  1.00  0.00     0.180 A 
ATOM      2  C   UNL     1       7.097  -6.644  11.474  1.00  0.00     0.208 A 
ATOM      3  C   UNL     1       7.147  -7.787  12.289  1.00  0.00     0.238 A 
ATOM      4  O   UNL     1       6.069  -8.371  12.577  1.00  0.00    -0.285 OA
ATOM      5  C   UNL     1       8.397  -8.282  12.734  1.00  0.00     0.111 A 
ATOM      6  C   UNL     1       8.562  -9.407  13.597  1.00  0.00     0.134 A 
ATOM      7  C   UNL     1       9.850  -9.888  13.865  1.00  0.00     0.093 A 
ATOM      8  C   UNL     1      10.978  -9.246  13.358  1.00  0.00     0.123 A 
ATOM      9  C   UNL     1      10.830  -8.109  12.562  1.00  0.00     0.094 A 
ATOM     10  C   UNL     1       9.558  -7.627  12.246  1.00  0.00     0.146 A 
ATOM     11  O   UNL     1       9.460  -6.550  11.478  1.00  0.00    -0.452 OA
ENDROOT
BRANCH   1  12
ATOM     12  C   UNL     1       8.329  -4.801  10.262  1.00  0.00     0.025 A 
ATOM     13  C   UNL     1       9.097  -4.786   9.086  1.00  0.00     0.016 A 
ATOM     14  C   UNL     1       9.154  -3.638   8.293  1.00  0.00     0.051 A 
ATOM     15  C   UNL     1       8.458  -2.483   8.670  1.00  0.00     0.157 A 
ATOM     16  C   UNL     1       7.648  -3.632  10.648  1.00  0.00     0.062 A 
ATOM     17  C   UNL     1       7.705  -2.479   9.856  1.00  0.00     0.158 A 
BRANCH  15  18
ATOM     18  O   UNL     1       8.516  -1.339   7.875  1.00  0.00    -0.504 OA
ATOM     19  H   UNL     1       9.400  -0.934   7.592  1.00  0.00     0.293 HD
ENDBRANCH  15  18
BRANCH  17  20
ATOM     20  O   UNL     1       7.013  -1.341  10.267  1.00  0.00    -0.504 OA
ATOM     21  H   UNL     1       7.391  -0.410  10.149  1.00  0.00     0.293 HD
ENDBRANCH  17  20
ENDBRANCH   1  12
BRANCH   2  22
ATOM     22  O   UNL     1       5.876  -6.152  11.006  1.00  0.00    -0.502 OA
ATOM     23  H   UNL     1       5.301  -5.519  11.548  1.00  0.00     0.293 HD
ENDBRANCH   2  22
BRANCH   6  24
ATOM     24  O   UNL     1       7.505 -10.067  14.231  1.00  0.00    -0.507 OA
ATOM     25  H   UNL     1       6.530  -9.938  14.005  1.00  0.00     0.293 HD
ENDBRANCH   6  24
BRANCH   8  26
ATOM     26  O   UNL     1      12.245  -9.742  13.659  1.00  0.00    -0.508 OA
ATOM     27  H   UNL     1      12.560  -9.847  14.616  1.00  0.00     0.293 HD
ENDBRANCH   8  26
TORSDOF 6
ENDMDL
MODEL 6
REMARK VINA RESULT:    -4.353      2.077      2.835
REMARK INTER + INTRA:          -5.481
REMARK INTER:                  -5.882
REMARK INTRA:                   0.401
REMARK UNBOUND:                -0.237
REMARK SMILES O=c1c(O)c(-c2ccc(O)c(O)c2)oc2cc(O)cc(O)c12
REMARK SMILES IDX 5 1 3 2 2 3 1 4 22 5 20 6 19 7 17 8 16 9 15 10 14 11 6 12
REMARK SMILES IDX 7 13 8 14 9 15 13 16 11 17 10 18 12 20 4 22 21 24 18 26
REMARK H PARENT 10 19 12 21 4 23 21 25 18 27
REMARK Flexibility Score: inf
ROOT
ATOM      1  C   UNL     1       8.183  -2.582   9.712  1.00  0.00     0.180 A 
ATOM      2  C   UNL     1       7.165  -3.123   8.907  1.00  0.00     0.208 A 
ATOM      3  C   UNL     1       6.750  -4.446   9.131  1.00  0.00     0.238 A 
ATOM      4  O   UNL     1       5.877  -4.942   8.373  1.00  0.00    -0.285 OA
ATOM      5  C   UNL     1       7.346  -5.205  10.168  1.00  0.00     0.111 A 
ATOM      6  C   UNL     1       6.974  -6.540  10.510  1.00  0.00     0.134 A 
ATOM      7  C   UNL     1       7.721  -7.240  11.467  1.00  0.00     0.093 A 
ATOM      8  C   UNL     1       8.780  -6.633  12.139  1.00  0.00     0.123 A 
ATOM      9  C   UNL     1       9.114  -5.308  11.855  1.00  0.00     0.094 A 
ATOM     10  C   UNL     1       8.412  -4.595  10.880  1.00  0.00     0.146 A 
ATOM     11  O   UNL     1       8.767  -3.341  10.632  1.00  0.00    -0.452 OA
ENDROOT
BRANCH   1  12
ATOM     12  C   UNL     1       8.656  -1.188   9.551  1.00  0.00     0.025 A 
ATOM     13  C   UNL     1       9.833  -0.779  10.199  1.00  0.00     0.016 A 
ATOM     14  C   UNL     1      10.286   0.537  10.078  1.00  0.00     0.051 A 
ATOM     15  C   UNL     1       9.562   1.468   9.323  1.00  0.00     0.157 A 
ATOM     16  C   UNL     1       7.920  -0.245   8.811  1.00  0.00     0.062 A 
ATOM     17  C   UNL     1       8.370   1.075   8.690  1.00  0.00     0.158 A 
BRANCH  15  18
ATOM     18  O   UNL     1      10.017   2.780   9.203  1.00  0.00    -0.504 OA
ATOM     19  H   UNL     1      10.053   3.404  10.001  1.00  0.00     0.293 HD
ENDBRANCH  15  18
BRANCH  17  20
ATOM     20  O   UNL     1       7.619   1.981   7.943  1.00  0.00    -0.504 OA
ATOM     21  H   UNL     1       7.039   2.687   8.378  1.00  0.00     0.293 HD
ENDBRANCH  17  20
ENDBRANCH   1  12
BRANCH   2  22
ATOM     22  O   UNL     1       6.606  -2.364   7.875  1.00  0.00    -0.502 OA
ATOM     23  H   UNL     1       6.606  -2.674   6.911  1.00  0.00     0.293 HD
ENDBRANCH   2  22
BRANCH   6  24
ATOM     24  O   UNL     1       5.875  -7.209   9.965  1.00  0.00    -0.507 OA
ATOM     25  H   UNL     1       5.934  -7.945   9.278  1.00  0.00     0.293 HD
ENDBRANCH   6  24
BRANCH   8  26
ATOM     26  O   UNL     1       9.491  -7.354  13.097  1.00  0.00    -0.508 OA
ATOM     27  H   UNL     1       9.208  -7.366  14.069  1.00  0.00     0.293 HD
ENDBRANCH   8  26
TORSDOF 6
ENDMDL
MODEL 7
REMARK VINA RESULT:    -3.897      3.212      5.376
REMARK INTER + INTRA:          -4.932
REMARK INTER:                  -4.995
REMARK INTRA:                   0.063
REMARK UNBOUND:                -0.237
REMARK SMILES O=c1c(O)c(-c2ccc(O)c(O)c2)oc2cc(O)cc(O)c12
REMARK SMILES IDX 5 1 3 2 2 3 1 4 22 5 20 6 19 7 17 8 16 9 15 10 14 11 6 12
REMARK SMILES IDX 7 13 8 14 9 15 13 16 11 17 10 18 12 20 4 22 21 24 18 26
REMARK H PARENT 10 19 12 21 4 23 21 25 18 27
REMARK Flexibility Score: inf
ROOT
ATOM      1  C   UNL     1       7.011  -5.467  10.317  1.00  0.00     0.180 A 
ATOM      2  C   UNL     1       6.618  -6.489   9.435  1.00  0.00     0.208 A 
ATOM      3  C   UNL     1       6.435  -7.789   9.936  1.00  0.00     0.238 A 
ATOM      4  O   UNL     1       6.136  -8.709   9.133  1.00  0.00    -0.285 OA
ATOM      5  C   UNL     1       6.630  -8.046  11.315  1.00  0.00     0.111 A 
ATOM      6  C   UNL     1       6.432  -9.315  11.938  1.00  0.00     0.134 A 
ATOM      7  C   UNL     1       6.781  -9.484  13.284  1.00  0.00     0.093 A 
ATOM      8  C   UNL     1       7.257  -8.418  14.045  1.00  0.00     0.123 A 
ATOM      9  C   UNL     1       7.398  -7.158  13.460  1.00  0.00     0.094 A 
ATOM     10  C   UNL     1       7.093  -6.966  12.111  1.00  0.00     0.146 A 
ATOM     11  O   UNL     1       7.250  -5.755  11.591  1.00  0.00    -0.452 OA
ENDROOT
BRANCH   1  12
ATOM     12  C   UNL     1       7.201  -4.070   9.868  1.00  0.00     0.025 A 
ATOM     13  C   UNL     1       6.226  -3.466   9.056  1.00  0.00     0.016 A 
ATOM     14  C   UNL     1       6.395  -2.156   8.603  1.00  0.00     0.051 A 
ATOM     15  C   UNL     1       7.547  -1.434   8.940  1.00  0.00     0.157 A 
ATOM     16  C   UNL     1       8.366  -3.349  10.185  1.00  0.00     0.062 A 
ATOM     17  C   UNL     1       8.540  -2.037   9.731  1.00  0.00     0.158 A 
BRANCH  15  18
ATOM     18  O   UNL     1       7.712  -0.126   8.488  1.00  0.00    -0.504 OA
ATOM     19  H   UNL     1       7.149   0.635   8.850  1.00  0.00     0.293 HD
ENDBRANCH  15  18
BRANCH  17  20
ATOM     20  O   UNL     1       9.705  -1.350  10.072  1.00  0.00    -0.504 OA
ATOM     21  H   UNL     1      10.131  -1.434  10.986  1.00  0.00     0.293 HD
ENDBRANCH  17  20
ENDBRANCH   1  12
BRANCH   2  22
ATOM     22  O   UNL     1       6.453  -6.219   8.074  1.00  0.00    -0.502 OA
ATOM     23  H   UNL     1       6.066  -5.346   7.736  1.00  0.00     0.293 HD
ENDBRANCH   2  22
BRANCH   6  24
ATOM     24  O   UNL     1       5.876 -10.423  11.293  1.00  0.00    -0.507 OA
ATOM     25  H   UNL     1       6.095 -10.708  10.351  1.00  0.00     0.293 HD
ENDBRANCH   6  24
BRANCH   8  26
ATOM     26  O   UNL     1       7.580  -8.619  15.385  1.00  0.00    -0.508 OA
ATOM     27  H   UNL     1       8.534  -8.783  15.682  1.00  0.00     0.293 HD
ENDBRANCH   8  26
TORSDOF 6
ENDMDL
MODEL 8
REMARK VINA RESULT:    -3.780      4.127      6.268
REMARK INTER + INTRA:          -4.790
REMARK INTER:                  -4.482
REMARK INTRA:                  -0.308
REMARK UNBOUND:                -0.237
REMARK SMILES O=c1c(O)c(-c2ccc(O)c(O)c2)oc2cc(O)cc(O)c12
REMARK SMILES IDX 5 1 3 2 2 3 1 4 22 5 20 6 19 7 17 8 16 9 15 10 14 11 6 12
REMARK SMILES IDX 7 13 8 14 9 15 13 16 11 17 10 18 12 20 4 22 21 24 18 26
REMARK H PARENT 10 19 12 21 4 23 21 25 18 27
REMARK Flexibility Score: inf
ROOT
ATOM      1  C   UNL     1       6.730  -6.090  11.830  1.00  0.00     0.180 A 
ATOM      2  C   UNL     1       6.562  -5.985  13.222  1.00  0.00     0.208 A 
ATOM      3  C   UNL     1       6.328  -7.151  13.970  1.00  0.00     0.238 A 
ATOM      4  O   UNL     1       6.126  -7.044  15.207  1.00  0.00    -0.285 OA
ATOM      5  C   UNL     1       6.283  -8.408  13.319  1.00  0.00     0.111 A 
ATOM      6  C   UNL     1       6.094  -9.657  13.984  1.00  0.00     0.134 A 
ATOM      7  C   UNL     1       5.934 -10.824  13.226  1.00  0.00     0.093 A 
ATOM      8  C   UNL     1       6.023 -10.798  11.835  1.00  0.00     0.123 A 
ATOM      9  C   UNL     1       6.267  -9.590  11.179  1.00  0.00     0.094 A 
ATOM     10  C   UNL     1       6.394  -8.404  11.904  1.00  0.00     0.146 A 
ATOM     11  O   UNL     1       6.616  -7.276  11.242  1.00  0.00    -0.452 OA
ENDROOT
BRANCH   1  12
ATOM     12  C   UNL     1       7.003  -4.911  10.979  1.00  0.00     0.025 A 
ATOM     13  C   UNL     1       5.932  -4.132  10.512  1.00  0.00     0.016 A 
ATOM     14  C   UNL     1       6.166  -3.026   9.690  1.00  0.00     0.051 A 
ATOM     15  C   UNL     1       7.471  -2.692   9.309  1.00  0.00     0.157 A 
ATOM     16  C   UNL     1       8.311  -4.584  10.576  1.00  0.00     0.062 A 
ATOM     17  C   UNL     1       8.549  -3.479   9.751  1.00  0.00     0.158 A 
BRANCH  15  18
ATOM     18  O   UNL     1       7.702  -1.588   8.490  1.00  0.00    -0.504 OA
ATOM     19  H   UNL     1       7.045  -0.817   8.442  1.00  0.00     0.293 HD
ENDBRANCH  15  18
BRANCH  17  20
ATOM     20  O   UNL     1       9.858  -3.181   9.377  1.00  0.00    -0.504 OA
ATOM     21  H   UNL     1      10.179  -3.270   8.421  1.00  0.00     0.293 HD
ENDBRANCH  17  20
ENDBRANCH   1  12
BRANCH   2  22
ATOM     22  O   UNL     1       6.589  -4.732  13.841  1.00  0.00    -0.502 OA
ATOM     23  H   UNL     1       6.840  -3.886  13.345  1.00  0.00     0.293 HD
ENDBRANCH   2  22
BRANCH   6  24
ATOM     24  O   UNL     1       6.081  -9.809  15.373  1.00  0.00    -0.507 OA
ATOM     25  H   UNL     1       5.369  -9.440  15.984  1.00  0.00     0.293 HD
ENDBRANCH   6  24
BRANCH   8  26
ATOM     26  O   UNL     1       5.875 -11.981  11.114  1.00  0.00    -0.508 OA
ATOM     27  H   UNL     1       5.930 -12.887  11.564  1.00  0.00     0.293 HD
ENDBRANCH   8  26
TORSDOF 6
ENDMDL
MODEL 9
REMARK VINA RESULT:    -3.769      4.698      6.967
REMARK INTER + INTRA:          -4.777
REMARK INTER:                  -4.895
REMARK INTRA:                   0.118
REMARK UNBOUND:                -0.237
REMARK SMILES O=c1c(O)c(-c2ccc(O)c(O)c2)oc2cc(O)cc(O)c12
REMARK SMILES IDX 5 1 3 2 2 3 1 4 22 5 20 6 19 7 17 8 16 9 15 10 14 11 6 12
REMARK SMILES IDX 7 13 8 14 9 15 13 16 11 17 10 18 12 20 4 22 21 24 18 26
REMARK H PARENT 10 19 12 21 4 23 21 25 18 27
REMARK Flexibility Score: inf
ROOT
ATOM      1  C   UNL     1       8.267  -7.164  12.141  1.00  0.00     0.180 A 
ATOM      2  C   UNL     1       7.183  -7.978  12.513  1.00  0.00     0.208 A 
ATOM      3  C   UNL     1       7.439  -9.195  13.167  1.00  0.00     0.238 A 
ATOM      4  O   UNL     1       6.468  -9.944  13.449  1.00  0.00    -0.285 OA
ATOM      5  C   UNL     1       8.773  -9.573  13.456  1.00  0.00     0.111 A 
ATOM      6  C   UNL     1       9.144 -10.763  14.151  1.00  0.00     0.134 A 
ATOM      7  C   UNL     1      10.499 -11.100  14.264  1.00  0.00     0.093 A 
ATOM      8  C   UNL     1      11.495 -10.260  13.769  1.00  0.00     0.123 A 
ATOM      9  C   UNL     1      11.144  -9.064  13.141  1.00  0.00     0.094 A 
ATOM     10  C   UNL     1       9.800  -8.718  12.979  1.00  0.00     0.146 A 
ATOM     11  O   UNL     1       9.508  -7.577  12.367  1.00  0.00    -0.452 OA
ENDROOT
BRANCH   1  12
ATOM     12  C   UNL     1       8.076  -5.857  11.471  1.00  0.00     0.025 A 
ATOM     13  C   UNL     1       7.069  -4.989  11.924  1.00  0.00     0.016 A 
ATOM     14  C   UNL     1       6.858  -3.761  11.292  1.00  0.00     0.051 A 
ATOM     15  C   UNL     1       7.636  -3.389  10.189  1.00  0.00     0.157 A 
ATOM     16  C   UNL     1       8.841  -5.490  10.350  1.00  0.00     0.062 A 
ATOM     17  C   UNL     1       8.630  -4.261   9.713  1.00  0.00     0.158 A 
BRANCH  15  18
ATOM     18  O   UNL     1       7.424  -2.162   9.562  1.00  0.00    -0.504 OA
ATOM     19  H   UNL     1       6.491  -1.835   9.341  1.00  0.00     0.293 HD
ENDBRANCH  15  18
BRANCH  17  20
ATOM     20  O   UNL     1       9.413  -3.927   8.609  1.00  0.00    -0.504 OA
ATOM     21  H   UNL     1       9.288  -3.059   8.104  1.00  0.00     0.293 HD
ENDBRANCH  17  20
ENDBRANCH   1  12
BRANCH   2  22
ATOM     22  O   UNL     1       5.876  -7.597  12.199  1.00  0.00    -0.502 OA
ATOM     23  H   UNL     1       5.615  -7.254  11.283  1.00  0.00     0.293 HD
ENDBRANCH   2  22
BRANCH   6  24
ATOM     24  O   UNL     1       8.232 -11.626  14.764  1.00  0.00    -0.507 OA
ATOM     25  H   UNL     1       7.249 -11.672  14.546  1.00  0.00     0.293 HD
ENDBRANCH   6  24
BRANCH   8  26
ATOM     26  O   UNL     1      12.833 -10.619  13.915  1.00  0.00    -0.508 OA
ATOM     27  H   UNL     1      13.571 -10.123  13.430  1.00  0.00     0.293 HD
ENDBRANCH   8  26
TORSDOF 6
ENDMDL
