MODEL 1
REMARK VINA RESULT:    -3.270      0.000      0.000
REMARK INTER + INTRA:          -7.924
REMARK INTER:                  -6.329
REMARK INTRA:                  -1.596
REMARK UNBOUND:                -1.596
REMARK SMILES CCCCCCCCCCCCCCCCCC(=O)[O-]
REMARK SMILES IDX 10 1 11 2 12 3 13 4 14 5 15 6 16 7 17 8 18 9 19 10 20 11
REMARK SMILES IDX 9 12 8 13 7 14 6 15 5 16 4 17 3 18 2 19 1 20
REMARK H PARENT
REMARK Flexibility Score: inf
ROOT
ATOM      1  C   UNL     1      12.426  -7.435   4.217  1.00  0.00     0.000 C 
ENDROOT
BRANCH   1   2
ATOM      2  C   UNL     1      11.038  -7.150   4.808  1.00  0.00     0.000 C 
BRANCH   2   3
ATOM      3  C   UNL     1      10.849  -7.876   6.148  1.00  0.00     0.000 C 
BRANCH   3   4
ATOM      4  C   UNL     1       9.498  -8.605   6.248  1.00  0.00     0.000 C 
BRANCH   4   5
ATOM      5  C   UNL     1       9.209  -9.608   5.112  1.00  0.00     0.000 C 
BRANCH   5   6
ATOM      6  C   UNL     1       7.781  -9.558   4.543  1.00  0.00     0.000 C 
BRANCH   6   7
ATOM      7  C   UNL     1       6.710  -9.384   5.633  1.00  0.00     0.006 C 
BRANCH   7   8
ATOM      8  C   UNL     1       5.527  -8.531   5.152  1.00  0.00     0.053 C 
BRANCH   8   9
ATOM      9  C   UNL     1       5.626  -7.116   5.636  1.00  0.00     0.041 C 
ATOM     10  O   UNL     1       5.084  -6.185   4.985  1.00  0.00    -0.550 OA
ATOM     11  O   UNL     1       6.292  -6.831   6.821  1.00  0.00    -0.550 OA
ENDBRANCH   8   9
ENDBRANCH   7   8
ENDBRANCH   6   7
ENDBRANCH   5   6
ENDBRANCH   4   5
ENDBRANCH   3   4
ENDBRANCH   2   3
ENDBRANCH   1   2
BRANCH   1  12
ATOM     12  C   UNL     1      12.867  -8.897   4.446  1.00  0.00     0.000 C 
BRANCH  12  13
ATOM     13  C   UNL     1      14.290  -9.031   5.017  1.00  0.00    -0.000 C 
BRANCH  13  14
ATOM     14  C   UNL     1      14.380  -8.620   6.494  1.00  0.00    -0.000 C 
BRANCH  14  15
ATOM     15  C   UNL     1      15.426  -7.518   6.749  1.00  0.00    -0.000 C 
BRANCH  15  16
ATOM     16  C   UNL     1      15.915  -6.774   5.493  1.00  0.00    -0.000 C 
BRANCH  16  17
ATOM     17  C   UNL     1      17.372  -7.096   5.132  1.00  0.00    -0.000 C 
BRANCH  17  18
ATOM     18  C   UNL     1      18.032  -7.953   6.223  1.00  0.00    -0.000 C 
BRANCH  18  19
ATOM     19  C   UNL     1      19.117  -7.190   6.998  1.00  0.00    -0.003 C 
ATOM     20  C   UNL     1      18.671  -6.791   8.405  1.00  0.00     0.004 C 
ENDBRANCH  18  19
ENDBRANCH  17  18
ENDBRANCH  16  17
ENDBRANCH  15  16
ENDBRANCH  14  15
ENDBRANCH  13  14
ENDBRANCH  12  13
ENDBRANCH   1  12
TORSDOF 16
ENDMDL
MODEL 2
REMARK VINA RESULT:    -3.196      1.760      2.678
REMARK INTER + INTRA:          -7.782
REMARK INTER:                  -5.937
REMARK INTRA:                  -1.844
REMARK UNBOUND:                -1.596
REMARK SMILES CCCCCCCCCCCCCCCCCC(=O)[O-]
REMARK SMILES IDX 10 1 11 2 12 3 13 4 14 5 15 6 16 7 17 8 18 9 19 10 20 11
REMARK SMILES IDX 9 12 8 13 7 14 6 15 5 16 4 17 3 18 2 19 1 20
REMARK H PARENT
REMARK Flexibility Score: inf
ROOT
ATOM      1  C   UNL     1      13.723  -8.254   7.200  1.00  0.00     0.000 C 
ENDROOT
BRANCH   1   2
ATOM      2  C   UNL     1      12.564  -8.267   6.192  1.00  0.00     0.000 C 
BRANCH   2   3
ATOM      3  C   UNL     1      12.931  -7.488   4.920  1.00  0.00     0.000 C 
BRANCH   3   4
ATOM      4  C   UNL     1      11.727  -7.264   3.989  1.00  0.00     0.000 C 
BRANCH   4   5
ATOM      5  C   UNL     1      10.422  -6.845   4.696  1.00  0.00     0.000 C 
BRANCH   5   6
ATOM      6  C   UNL     1       9.163  -7.612   4.253  1.00  0.00     0.000 C 
BRANCH   6   7
ATOM      7  C   UNL     1       9.077  -9.020   4.866  1.00  0.00     0.006 C 
BRANCH   7   8
ATOM      8  C   UNL     1       9.053  -8.984   6.400  1.00  0.00     0.053 C 
BRANCH   8   9
ATOM      9  C   UNL     1       7.653  -8.955   6.936  1.00  0.00     0.041 C 
ATOM     10  O   UNL     1       6.726  -9.540   6.316  1.00  0.00    -0.550 OA
ATOM     11  O   UNL     1       7.380  -8.307   8.133  1.00  0.00    -0.550 OA
ENDBRANCH   8   9
ENDBRANCH   7   8
ENDBRANCH   6   7
ENDBRANCH   5   6
ENDBRANCH   4   5
ENDBRANCH   3   4
ENDBRANCH   2   3
ENDBRANCH   1   2
BRANCH   1  12
ATOM     12  C   UNL     1      15.100  -8.275   6.504  1.00  0.00     0.000 C 
BRANCH  12  13
ATOM     13  C   UNL     1      15.576  -9.687   6.117  1.00  0.00    -0.000 C 
BRANCH  13  14
ATOM     14  C   UNL     1      16.246  -9.732   4.735  1.00  0.00    -0.000 C 
BRANCH  14  15
ATOM     15  C   UNL     1      16.496  -8.332   4.142  1.00  0.00    -0.000 C 
BRANCH  15  16
ATOM     16  C   UNL     1      17.973  -7.987   3.875  1.00  0.00    -0.000 C 
BRANCH  16  17
ATOM     17  C   UNL     1      18.438  -6.723   4.611  1.00  0.00    -0.000 C 
BRANCH  17  18
ATOM     18  C   UNL     1      19.503  -7.062   5.665  1.00  0.00    -0.000 C 
BRANCH  18  19
ATOM     19  C   UNL     1      18.941  -7.896   6.826  1.00  0.00    -0.003 C 
ATOM     20  C   UNL     1      18.618  -7.052   8.059  1.00  0.00     0.004 C 
ENDBRANCH  18  19
ENDBRANCH  17  18
ENDBRANCH  16  17
ENDBRANCH  15  16
ENDBRANCH  14  15
ENDBRANCH  13  14
ENDBRANCH  12  13
ENDBRANCH   1  12
TORSDOF 16
ENDMDL
MODEL 3
REMARK VINA RESULT:    -3.176      4.352      9.750
REMARK INTER + INTRA:          -7.742
REMARK INTER:                  -6.527
REMARK INTRA:                  -1.215
REMARK UNBOUND:                -1.596
REMARK SMILES CCCCCCCCCCCCCCCCCC(=O)[O-]
REMARK SMILES IDX 10 1 11 2 12 3 13 4 14 5 15 6 16 7 17 8 18 9 19 10 20 11
REMARK SMILES IDX 9 12 8 13 7 14 6 15 5 16 4 17 3 18 2 19 1 20
REMARK H PARENT
REMARK Flexibility Score: inf
ROOT
ATOM      1  C   UNL     1      10.841  -7.443   5.551  1.00  0.00     0.000 C 
ENDROOT
BRANCH   1   2
ATOM      2  C   UNL     1      12.123  -7.434   4.705  1.00  0.00     0.000 C 
BRANCH   2   3
ATOM      3  C   UNL     1      12.969  -8.688   4.973  1.00  0.00     0.000 C 
BRANCH   3   4
ATOM      4  C   UNL     1      13.983  -8.492   6.113  1.00  0.00     0.000 C 
BRANCH   4   5
ATOM      5  C   UNL     1      15.043  -9.605   6.245  1.00  0.00     0.000 C 
BRANCH   5   6
ATOM      6  C   UNL     1      16.498  -9.153   6.029  1.00  0.00     0.000 C 
BRANCH   6   7
ATOM      7  C   UNL     1      16.699  -7.650   6.287  1.00  0.00     0.006 C 
BRANCH   7   8
ATOM      8  C   UNL     1      18.182  -7.252   6.267  1.00  0.00     0.053 C 
BRANCH   8   9
ATOM      9  C   UNL     1      18.838  -7.476   7.595  1.00  0.00     0.041 C 
ATOM     10  O   UNL     1      19.449  -8.552   7.827  1.00  0.00    -0.550 OA
ATOM     11  O   UNL     1      18.798  -6.484   8.567  1.00  0.00    -0.550 OA
ENDBRANCH   8   9
ENDBRANCH   7   8
ENDBRANCH   6   7
ENDBRANCH   5   6
ENDBRANCH   4   5
ENDBRANCH   3   4
ENDBRANCH   2   3
ENDBRANCH   1   2
BRANCH   1  12
ATOM     12  C   UNL     1       9.674  -8.153   4.833  1.00  0.00     0.000 C 
BRANCH  12  13
ATOM     13  C   UNL     1       9.196  -9.431   5.545  1.00  0.00    -0.000 C 
BRANCH  13  14
ATOM     14  C   UNL     1       8.962  -9.223   7.049  1.00  0.00    -0.000 C 
BRANCH  14  15
ATOM     15  C   UNL     1       7.486  -8.949   7.396  1.00  0.00    -0.000 C 
BRANCH  15  16
ATOM     16  C   UNL     1       6.461  -9.791   6.614  1.00  0.00    -0.000 C 
BRANCH  16  17
ATOM     17  C   UNL     1       5.623  -8.961   5.633  1.00  0.00    -0.000 C 
BRANCH  17  18
ATOM     18  C   UNL     1       5.906  -7.460   5.803  1.00  0.00    -0.000 C 
BRANCH  18  19
ATOM     19  C   UNL     1       5.638  -6.659   4.519  1.00  0.00    -0.003 C 
ATOM     20  C   UNL     1       4.336  -5.861   4.579  1.00  0.00     0.004 C 
ENDBRANCH  18  19
ENDBRANCH  17  18
ENDBRANCH  16  17
ENDBRANCH  15  16
ENDBRANCH  14  15
ENDBRANCH  13  14
ENDBRANCH  12  13
ENDBRANCH   1  12
TORSDOF 16
ENDMDL
MODEL 4
REMARK VINA RESULT:    -3.171      4.460      9.767
REMARK INTER + INTRA:          -7.734
REMARK INTER:                  -6.322
REMARK INTRA:                  -1.412
REMARK UNBOUND:                -1.596
REMARK SMILES CCCCCCCCCCCCCCCCCC(=O)[O-]
REMARK SMILES IDX 10 1 11 2 12 3 13 4 14 5 15 6 16 7 17 8 18 9 19 10 20 11
REMARK SMILES IDX 9 12 8 13 7 14 6 15 5 16 4 17 3 18 2 19 1 20
REMARK H PARENT
REMARK Flexibility Score: inf
ROOT
ATOM      1  C   UNL     1      12.912  -8.200   6.487  1.00  0.00     0.000 C 
ENDROOT
BRANCH   1   2
ATOM      2  C   UNL     1      13.514  -8.310   5.078  1.00  0.00     0.000 C 
BRANCH   2   3
ATOM      3  C   UNL     1      15.017  -8.618   5.143  1.00  0.00     0.000 C 
BRANCH   3   4
ATOM      4  C   UNL     1      15.891  -7.418   4.739  1.00  0.00     0.000 C 
BRANCH   4   5
ATOM      5  C   UNL     1      17.354  -7.762   4.392  1.00  0.00     0.000 C 
BRANCH   5   6
ATOM      6  C   UNL     1      18.407  -6.796   4.964  1.00  0.00     0.000 C 
BRANCH   6   7
ATOM      7  C   UNL     1      19.612  -7.525   5.582  1.00  0.00     0.006 C 
BRANCH   7   8
ATOM      8  C   UNL     1      19.182  -8.677   6.502  1.00  0.00     0.053 C 
BRANCH   8   9
ATOM      9  C   UNL     1      19.345  -8.326   7.949  1.00  0.00     0.041 C 
ATOM     10  O   UNL     1      18.963  -7.205   8.376  1.00  0.00    -0.550 OA
ATOM     11  O   UNL     1      19.893  -9.248   8.832  1.00  0.00    -0.550 OA
ENDBRANCH   8   9
ENDBRANCH   7   8
ENDBRANCH   6   7
ENDBRANCH   5   6
ENDBRANCH   4   5
ENDBRANCH   3   4
ENDBRANCH   2   3
ENDBRANCH   1   2
BRANCH   1  12
ATOM     12  C   UNL     1      11.408  -7.856   6.452  1.00  0.00     0.000 C 
BRANCH  12  13
ATOM     13  C   UNL     1      10.930  -7.310   5.095  1.00  0.00    -0.000 C 
BRANCH  13  14
ATOM     14  C   UNL     1       9.731  -8.087   4.529  1.00  0.00    -0.000 C 
BRANCH  14  15
ATOM     15  C   UNL     1       9.723  -9.570   4.949  1.00  0.00    -0.000 C 
BRANCH  15  16
ATOM     16  C   UNL     1       8.405 -10.068   5.570  1.00  0.00    -0.000 C 
BRANCH  16  17
ATOM     17  C   UNL     1       8.322  -9.823   7.083  1.00  0.00    -0.000 C 
BRANCH  17  18
ATOM     18  C   UNL     1       7.442  -8.603   7.395  1.00  0.00    -0.000 C 
BRANCH  18  19
ATOM     19  C   UNL     1       6.431  -8.303   6.278  1.00  0.00    -0.003 C 
ATOM     20  C   UNL     1       6.135  -6.810   6.132  1.00  0.00     0.004 C 
ENDBRANCH  18  19
ENDBRANCH  17  18
ENDBRANCH  16  17
ENDBRANCH  15  16
ENDBRANCH  14  15
ENDBRANCH  13  14
ENDBRANCH  12  13
ENDBRANCH   1  12
TORSDOF 16
ENDMDL
MODEL 5
REMARK VINA RESULT:    -3.082      1.825      3.091
REMARK INTER + INTRA:          -7.561
REMARK INTER:                  -6.114
REMARK INTRA:                  -1.448
REMARK UNBOUND:                -1.596
REMARK SMILES CCCCCCCCCCCCCCCCCC(=O)[O-]
REMARK SMILES IDX 10 1 11 2 12 3 13 4 14 5 15 6 16 7 17 8 18 9 19 10 20 11
REMARK SMILES IDX 9 12 8 13 7 14 6 15 5 16 4 17 3 18 2 19 1 20
REMARK H PARENT
REMARK Flexibility Score: inf
ROOT
ATOM      1  C   UNL     1      14.901  -7.871   7.079  1.00  0.00     0.000 C 
ENDROOT
BRANCH   1   2
ATOM      2  C   UNL     1      13.937  -8.498   6.060  1.00  0.00     0.000 C 
BRANCH   2   3
ATOM      3  C   UNL     1      12.475  -8.231   6.447  1.00  0.00     0.000 C 
BRANCH   3   4
ATOM      4  C   UNL     1      11.687  -7.505   5.344  1.00  0.00     0.000 C 
BRANCH   4   5
ATOM      5  C   UNL     1      11.244  -8.393   4.163  1.00  0.00     0.000 C 
BRANCH   5   6
ATOM      6  C   UNL     1       9.905  -9.126   4.362  1.00  0.00     0.000 C 
BRANCH   6   7
ATOM      7  C   UNL     1       9.111  -8.599   5.569  1.00  0.00     0.006 C 
BRANCH   7   8
ATOM      8  C   UNL     1       8.673  -9.728   6.511  1.00  0.00     0.053 C 
BRANCH   8   9
ATOM      9  C   UNL     1       7.378  -9.414   7.196  1.00  0.00     0.041 C 
ATOM     10  O   UNL     1       7.376  -8.956   8.369  1.00  0.00    -0.550 OA
ATOM     11  O   UNL     1       6.175  -9.599   6.528  1.00  0.00    -0.550 OA
ENDBRANCH   8   9
ENDBRANCH   7   8
ENDBRANCH   6   7
ENDBRANCH   5   6
ENDBRANCH   4   5
ENDBRANCH   3   4
ENDBRANCH   2   3
ENDBRANCH   1   2
BRANCH   1  12
ATOM     12  C   UNL     1      16.062  -7.118   6.396  1.00  0.00     0.000 C 
BRANCH  12  13
ATOM     13  C   UNL     1      15.733  -6.638   4.971  1.00  0.00    -0.000 C 
BRANCH  13  14
ATOM     14  C   UNL     1      16.789  -7.068   3.940  1.00  0.00    -0.000 C 
BRANCH  14  15
ATOM     15  C   UNL     1      18.214  -7.122   4.524  1.00  0.00    -0.000 C 
BRANCH  15  16
ATOM     16  C   UNL     1      18.933  -8.475   4.376  1.00  0.00    -0.000 C 
BRANCH  16  17
ATOM     17  C   UNL     1      18.912  -9.312   5.663  1.00  0.00    -0.000 C 
BRANCH  17  18
ATOM     18  C   UNL     1      19.938  -8.784   6.678  1.00  0.00    -0.000 C 
BRANCH  18  19
ATOM     19  C   UNL     1      19.340  -8.600   8.081  1.00  0.00    -0.003 C 
ATOM     20  C   UNL     1      18.936  -7.153   8.368  1.00  0.00     0.004 C 
ENDBRANCH  18  19
ENDBRANCH  17  18
ENDBRANCH  16  17
ENDBRANCH  15  16
ENDBRANCH  14  15
ENDBRANCH  13  14
ENDBRANCH  12  13
ENDBRANCH   1  12
TORSDOF 16
ENDMDL
MODEL 6
REMARK VINA RESULT:    -3.054      1.229      1.906
REMARK INTER + INTRA:          -7.505
REMARK INTER:                  -6.620
REMARK INTRA:                  -0.885
REMARK UNBOUND:                -1.596
REMARK SMILES CCCCCCCCCCCCCCCCCC(=O)[O-]
REMARK SMILES IDX 10 1 11 2 12 3 13 4 14 5 15 6 16 7 17 8 18 9 19 10 20 11
REMARK SMILES IDX 9 12 8 13 7 14 6 15 5 16 4 17 3 18 2 19 1 20
REMARK H PARENT
REMARK Flexibility Score: inf
ROOT
ATOM      1  C   UNL     1      11.155  -7.135   4.830  1.00  0.00     0.000 C 
ENDROOT
BRANCH   1   2
ATOM      2  C   UNL     1      10.806  -8.033   6.026  1.00  0.00     0.000 C 
BRANCH   2   3
ATOM      3  C   UNL     1       9.491  -8.789   5.784  1.00  0.00     0.000 C 
BRANCH   3   4
ATOM      4  C   UNL     1       8.727  -9.092   7.084  1.00  0.00     0.000 C 
BRANCH   4   5
ATOM      5  C   UNL     1       7.241  -8.679   7.081  1.00  0.00     0.000 C 
BRANCH   5   6
ATOM      6  C   UNL     1       6.321  -9.548   6.206  1.00  0.00     0.000 C 
BRANCH   6   7
ATOM      7  C   UNL     1       6.061  -8.933   4.820  1.00  0.00     0.006 C 
BRANCH   7   8
ATOM      8  C   UNL     1       6.009  -7.400   4.868  1.00  0.00     0.053 C 
BRANCH   8   9
ATOM      9  C   UNL     1       4.604  -6.886   4.776  1.00  0.00     0.041 C 
ATOM     10  O   UNL     1       3.637  -7.691   4.743  1.00  0.00    -0.550 OA
ATOM     11  O   UNL     1       4.363  -5.519   4.756  1.00  0.00    -0.550 OA
ENDBRANCH   8   9
ENDBRANCH   7   8
ENDBRANCH   6   7
ENDBRANCH   5   6
ENDBRANCH   4   5
ENDBRANCH   3   4
ENDBRANCH   2   3
ENDBRANCH   1   2
BRANCH   1  12
ATOM     12  C   UNL     1      12.460  -7.575   4.133  1.00  0.00     0.000 C 
BRANCH  12  13
ATOM     13  C   UNL     1      13.403  -8.385   5.041  1.00  0.00    -0.000 C 
BRANCH  13  14
ATOM     14  C   UNL     1      14.826  -7.807   5.087  1.00  0.00    -0.000 C 
BRANCH  14  15
ATOM     15  C   UNL     1      15.320  -7.538   6.522  1.00  0.00    -0.000 C 
BRANCH  15  16
ATOM     16  C   UNL     1      16.772  -7.039   6.632  1.00  0.00    -0.000 C 
BRANCH  16  17
ATOM     17  C   UNL     1      17.210  -6.775   8.080  1.00  0.00    -0.000 C 
BRANCH  17  18
ATOM     18  C   UNL     1      18.706  -7.073   8.265  1.00  0.00    -0.000 C 
BRANCH  18  19
ATOM     19  C   UNL     1      19.204  -8.191   7.337  1.00  0.00    -0.003 C 
ATOM     20  C   UNL     1      19.877  -9.335   8.096  1.00  0.00     0.004 C 
ENDBRANCH  18  19
ENDBRANCH  17  18
ENDBRANCH  16  17
ENDBRANCH  15  16
ENDBRANCH  14  15
ENDBRANCH  13  14
ENDBRANCH  12  13
ENDBRANCH   1  12
TORSDOF 16
ENDMDL
MODEL 7
REMARK VINA RESULT:    -2.917      1.130      2.046
REMARK INTER + INTRA:          -7.241
REMARK INTER:                  -6.042
REMARK INTRA:                  -1.198
REMARK UNBOUND:                -1.596
REMARK SMILES CCCCCCCCCCCCCCCCCC(=O)[O-]
REMARK SMILES IDX 10 1 11 2 12 3 13 4 14 5 15 6 16 7 17 8 18 9 19 10 20 11
REMARK SMILES IDX 9 12 8 13 7 14 6 15 5 16 4 17 3 18 2 19 1 20
REMARK H PARENT
REMARK Flexibility Score: inf
ROOT
ATOM      1  C   UNL     1      13.113  -8.255   6.527  1.00  0.00     0.000 C 
ENDROOT
BRANCH   1   2
ATOM      2  C   UNL     1      11.971  -8.216   5.500  1.00  0.00     0.000 C 
BRANCH   2   3
ATOM      3  C   UNL     1      10.639  -7.848   6.171  1.00  0.00     0.000 C 
BRANCH   3   4
ATOM      4  C   UNL     1       9.524  -8.869   5.887  1.00  0.00     0.000 C 
BRANCH   4   5
ATOM      5  C   UNL     1       8.802  -9.414   7.137  1.00  0.00     0.000 C 
BRANCH   5   6
ATOM      6  C   UNL     1       7.291  -9.651   6.969  1.00  0.00     0.000 C 
BRANCH   6   7
ATOM      7  C   UNL     1       6.808  -9.419   5.527  1.00  0.00     0.006 C 
BRANCH   7   8
ATOM      8  C   UNL     1       5.562  -8.526   5.470  1.00  0.00     0.053 C 
BRANCH   8   9
ATOM      9  C   UNL     1       5.856  -7.195   4.847  1.00  0.00     0.041 C 
ATOM     10  O   UNL     1       6.968  -6.637   5.042  1.00  0.00    -0.550 OA
ATOM     11  O   UNL     1       4.914  -6.585   4.029  1.00  0.00    -0.550 OA
ENDBRANCH   8   9
ENDBRANCH   7   8
ENDBRANCH   6   7
ENDBRANCH   5   6
ENDBRANCH   4   5
ENDBRANCH   3   4
ENDBRANCH   2   3
ENDBRANCH   1   2
BRANCH   1  12
ATOM     12  C   UNL     1      14.486  -8.485   5.861  1.00  0.00     0.000 C 
BRANCH  12  13
ATOM     13  C   UNL     1      15.015  -7.259   5.095  1.00  0.00    -0.000 C 
BRANCH  13  14
ATOM     14  C   UNL     1      16.128  -7.616   4.097  1.00  0.00    -0.000 C 
BRANCH  14  15
ATOM     15  C   UNL     1      17.412  -6.790   4.306  1.00  0.00    -0.000 C 
BRANCH  15  16
ATOM     16  C   UNL     1      18.650  -7.599   4.735  1.00  0.00    -0.000 C 
BRANCH  16  17
ATOM     17  C   UNL     1      19.392  -6.977   5.927  1.00  0.00    -0.000 C 
BRANCH  17  18
ATOM     18  C   UNL     1      19.088  -7.745   7.223  1.00  0.00    -0.000 C 
BRANCH  18  19
ATOM     19  C   UNL     1      18.425  -6.862   8.291  1.00  0.00    -0.003 C 
ATOM     20  C   UNL     1      16.911  -6.750   8.110  1.00  0.00     0.004 C 
ENDBRANCH  18  19
ENDBRANCH  17  18
ENDBRANCH  16  17
ENDBRANCH  15  16
ENDBRANCH  14  15
ENDBRANCH  13  14
ENDBRANCH  12  13
ENDBRANCH   1  12
TORSDOF 16
ENDMDL
MODEL 8
REMARK VINA RESULT:    -2.901      4.339      9.399
REMARK INTER + INTRA:          -7.209
REMARK INTER:                  -5.948
REMARK INTRA:                  -1.262
REMARK UNBOUND:                -1.596
REMARK SMILES CCCCCCCCCCCCCCCCCC(=O)[O-]
REMARK SMILES IDX 10 1 11 2 12 3 13 4 14 5 15 6 16 7 17 8 18 9 19 10 20 11
REMARK SMILES IDX 9 12 8 13 7 14 6 15 5 16 4 17 3 18 2 19 1 20
REMARK H PARENT
REMARK Flexibility Score: inf
ROOT
ATOM      1  C   UNL     1      10.567  -7.501   5.443  1.00  0.00     0.000 C 
ENDROOT
BRANCH   1   2
ATOM      2  C   UNL     1      11.649  -8.571   5.231  1.00  0.00     0.000 C 
BRANCH   2   3
ATOM      3  C   UNL     1      12.415  -8.328   3.922  1.00  0.00     0.000 C 
BRANCH   3   4
ATOM      4  C   UNL     1      13.934  -8.205   4.132  1.00  0.00     0.000 C 
BRANCH   4   5
ATOM      5  C   UNL     1      14.369  -7.838   5.565  1.00  0.00     0.000 C 
BRANCH   5   6
ATOM      6  C   UNL     1      15.809  -8.237   5.935  1.00  0.00     0.000 C 
BRANCH   6   7
ATOM      7  C   UNL     1      16.682  -7.029   6.317  1.00  0.00     0.006 C 
BRANCH   7   8
ATOM      8  C   UNL     1      18.181  -7.351   6.239  1.00  0.00     0.053 C 
BRANCH   8   9
ATOM      9  C   UNL     1      18.788  -7.517   7.599  1.00  0.00     0.041 C 
ATOM     10  O   UNL     1      19.438  -8.558   7.880  1.00  0.00    -0.550 OA
ATOM     11  O   UNL     1      18.661  -6.509   8.546  1.00  0.00    -0.550 OA
ENDBRANCH   8   9
ENDBRANCH   7   8
ENDBRANCH   6   7
ENDBRANCH   5   6
ENDBRANCH   4   5
ENDBRANCH   3   4
ENDBRANCH   2   3
ENDBRANCH   1   2
BRANCH   1  12
ATOM     12  C   UNL     1      10.148  -6.828   4.119  1.00  0.00     0.000 C 
BRANCH  12  13
ATOM     13  C   UNL     1       8.824  -6.049   4.215  1.00  0.00    -0.000 C 
BRANCH  13  14
ATOM     14  C   UNL     1       7.598  -6.916   3.886  1.00  0.00    -0.000 C 
BRANCH  14  15
ATOM     15  C   UNL     1       6.713  -7.197   5.115  1.00  0.00    -0.000 C 
BRANCH  15  16
ATOM     16  C   UNL     1       5.617  -8.259   4.904  1.00  0.00    -0.000 C 
BRANCH  16  17
ATOM     17  C   UNL     1       5.918  -9.584   5.617  1.00  0.00    -0.000 C 
BRANCH  17  18
ATOM     18  C   UNL     1       7.432  -9.816   5.730  1.00  0.00    -0.000 C 
BRANCH  18  19
ATOM     19  C   UNL     1       7.879 -10.115   7.169  1.00  0.00    -0.003 C 
ATOM     20  C   UNL     1       7.704  -8.918   8.104  1.00  0.00     0.004 C 
ENDBRANCH  18  19
ENDBRANCH  17  18
ENDBRANCH  16  17
ENDBRANCH  15  16
ENDBRANCH  14  15
ENDBRANCH  13  14
ENDBRANCH  12  13
ENDBRANCH   1  12
TORSDOF 16
ENDMDL
MODEL 9
REMARK VINA RESULT:    -2.834      2.059      3.426
REMARK INTER + INTRA:          -7.081
REMARK INTER:                  -6.033
REMARK INTRA:                  -1.048
REMARK UNBOUND:                -1.596
REMARK SMILES CCCCCCCCCCCCCCCCCC(=O)[O-]
REMARK SMILES IDX 10 1 11 2 12 3 13 4 14 5 15 6 16 7 17 8 18 9 19 10 20 11
REMARK SMILES IDX 9 12 8 13 7 14 6 15 5 16 4 17 3 18 2 19 1 20
REMARK H PARENT
REMARK Flexibility Score: inf
ROOT
ATOM      1  C   UNL     1      15.262  -7.784   6.769  1.00  0.00     0.000 C 
ENDROOT
BRANCH   1   2
ATOM      2  C   UNL     1      14.202  -8.676   6.106  1.00  0.00     0.000 C 
BRANCH   2   3
ATOM      3  C   UNL     1      12.785  -8.245   6.513  1.00  0.00     0.000 C 
BRANCH   3   4
ATOM      4  C   UNL     1      12.023  -7.546   5.374  1.00  0.00     0.000 C 
BRANCH   4   5
ATOM      5  C   UNL     1      11.554  -8.474   4.234  1.00  0.00     0.000 C 
BRANCH   5   6
ATOM      6  C   UNL     1      10.182  -9.136   4.451  1.00  0.00     0.000 C 
BRANCH   6   7
ATOM      7  C   UNL     1       9.299  -8.364   5.448  1.00  0.00     0.006 C 
BRANCH   7   8
ATOM      8  C   UNL     1       7.996  -9.110   5.765  1.00  0.00     0.053 C 
BRANCH   8   9
ATOM      9  C   UNL     1       7.213  -8.431   6.847  1.00  0.00     0.041 C 
ATOM     10  O   UNL     1       7.414  -8.727   8.054  1.00  0.00    -0.550 OA
ATOM     11  O   UNL     1       6.282  -7.453   6.524  1.00  0.00    -0.550 OA
ENDBRANCH   8   9
ENDBRANCH   7   8
ENDBRANCH   6   7
ENDBRANCH   5   6
ENDBRANCH   4   5
ENDBRANCH   3   4
ENDBRANCH   2   3
ENDBRANCH   1   2
BRANCH   1  12
ATOM     12  C   UNL     1      15.867  -6.766   5.780  1.00  0.00     0.000 C 
BRANCH  12  13
ATOM     13  C   UNL     1      15.872  -7.251   4.319  1.00  0.00    -0.000 C 
BRANCH  13  14
ATOM     14  C   UNL     1      17.090  -8.126   3.987  1.00  0.00    -0.000 C 
BRANCH  14  15
ATOM     15  C   UNL     1      18.417  -7.343   4.006  1.00  0.00    -0.000 C 
BRANCH  15  16
ATOM     16  C   UNL     1      19.283  -7.551   5.262  1.00  0.00    -0.000 C 
BRANCH  16  17
ATOM     17  C   UNL     1      20.767  -7.778   4.939  1.00  0.00    -0.000 C 
BRANCH  17  18
ATOM     18  C   UNL     1      21.335  -6.609   4.119  1.00  0.00    -0.000 C 
BRANCH  18  19
ATOM     19  C   UNL     1      21.193  -5.259   4.837  1.00  0.00    -0.003 C 
ATOM     20  C   UNL     1      20.852  -4.114   3.883  1.00  0.00     0.004 C 
ENDBRANCH  18  19
ENDBRANCH  17  18
ENDBRANCH  16  17
ENDBRANCH  15  16
ENDBRANCH  14  15
ENDBRANCH  13  14
ENDBRANCH  12  13
ENDBRANCH   1  12
TORSDOF 16
ENDMDL
