MODEL 1
REMARK VINA RESULT:    -3.269      0.000      0.000
REMARK INTER + INTRA:          -4.594
REMARK INTER:                  -4.320
REMARK INTRA:                  -0.274
REMARK UNBOUND:                -0.274
REMARK SMILES CCCCCCCO
REMARK SMILES IDX 5 1 4 2 3 3 2 4 1 5 6 6 7 7 8 8
REMARK H PARENT 8 9
REMARK Flexibility Score: inf
ROOT
ATOM      1  C   UNL     1     163.087 177.356 187.626  1.00  0.00     0.002 C 
ENDROOT
BRANCH   1   2
ATOM      2  C   UNL     1     161.704 177.762 188.167  1.00  0.00     0.000 C 
BRANCH   2   3
ATOM      3  C   UNL     1     160.708 178.097 187.047  1.00  0.00    -0.000 C 
BRANCH   3   4
ATOM      4  C   UNL     1     160.683 177.035 185.937  1.00  0.00    -0.003 C 
ATOM      5  C   UNL     1     160.458 177.674 184.570  1.00  0.00     0.004 C 
ENDBRANCH   3   4
ENDBRANCH   2   3
ENDBRANCH   1   2
BRANCH   1   6
ATOM      6  C   UNL     1     163.829 178.527 186.959  1.00  0.00     0.028 C 
BRANCH   6   7
ATOM      7  C   UNL     1     164.302 178.224 185.530  1.00  0.00     0.156 C 
BRANCH   7   8
ATOM      8  O   UNL     1     165.633 178.625 185.342  1.00  0.00    -0.396 OA
ATOM      9  H   UNL     1     165.608 179.589 185.105  1.00  0.00     0.210 HD
ENDBRANCH   7   8
ENDBRANCH   6   7
ENDBRANCH   1   6
TORSDOF 6
ENDMDL
MODEL 2
REMARK VINA RESULT:    -3.223      1.047      1.485
REMARK INTER + INTRA:          -4.533
REMARK INTER:                  -4.307
REMARK INTRA:                  -0.226
REMARK UNBOUND:                -0.274
REMARK SMILES CCCCCCCO
REMARK SMILES IDX 5 1 4 2 3 3 2 4 1 5 6 6 7 7 8 8
REMARK H PARENT 8 9
REMARK Flexibility Score: inf
ROOT
ATOM      1  C   UNL     1     163.089 177.446 187.828  1.00  0.00     0.002 C 
ENDROOT
BRANCH   1   2
ATOM      2  C   UNL     1     161.608 177.668 188.185  1.00  0.00     0.000 C 
BRANCH   2   3
ATOM      3  C   UNL     1     160.672 177.419 186.992  1.00  0.00    -0.000 C 
BRANCH   3   4
ATOM      4  C   UNL     1     160.756 175.979 186.463  1.00  0.00    -0.003 C 
ATOM      5  C   UNL     1     160.156 174.991 187.460  1.00  0.00     0.004 C 
ENDBRANCH   3   4
ENDBRANCH   2   3
ENDBRANCH   1   2
BRANCH   1   6
ATOM      6  C   UNL     1     163.678 178.599 186.997  1.00  0.00     0.028 C 
BRANCH   6   7
ATOM      7  C   UNL     1     164.173 178.169 185.608  1.00  0.00     0.156 C 
BRANCH   7   8
ATOM      8  O   UNL     1     165.477 178.625 185.372  1.00  0.00    -0.396 OA
ATOM      9  H   UNL     1     165.405 179.588 185.143  1.00  0.00     0.210 HD
ENDBRANCH   7   8
ENDBRANCH   6   7
ENDBRANCH   1   6
TORSDOF 6
ENDMDL
MODEL 3
REMARK VINA RESULT:    -3.109     10.716     12.481
REMARK INTER + INTRA:          -4.383
REMARK INTER:                  -4.140
REMARK INTRA:                  -0.242
REMARK UNBOUND:                -0.274
REMARK SMILES CCCCCCCO
REMARK SMILES IDX 5 1 4 2 3 3 2 4 1 5 6 6 7 7 8 8
REMARK H PARENT 8 9
REMARK Flexibility Score: inf
ROOT
ATOM      1  C   UNL     1     175.941 178.209 187.621  1.00  0.00     0.002 C 
ENDROOT
BRANCH   1   2
ATOM      2  C   UNL     1     174.910 179.000 188.446  1.00  0.00     0.000 C 
BRANCH   2   3
ATOM      3  C   UNL     1     174.135 180.021 187.598  1.00  0.00    -0.000 C 
BRANCH   3   4
ATOM      4  C   UNL     1     172.621 179.765 187.598  1.00  0.00    -0.003 C 
ATOM      5  C   UNL     1     172.122 179.417 186.197  1.00  0.00     0.004 C 
ENDBRANCH   3   4
ENDBRANCH   2   3
ENDBRANCH   1   2
BRANCH   1   6
ATOM      6  C   UNL     1     175.892 178.555 186.122  1.00  0.00     0.028 C 
BRANCH   6   7
ATOM      7  C   UNL     1     176.098 177.342 185.203  1.00  0.00     0.156 C 
BRANCH   7   8
ATOM      8  O   UNL     1     177.268 176.646 185.538  1.00  0.00    -0.396 OA
ATOM      9  H   UNL     1     177.890 177.310 185.936  1.00  0.00     0.210 HD
ENDBRANCH   7   8
ENDBRANCH   6   7
ENDBRANCH   1   6
TORSDOF 6
ENDMDL
MODEL 4
REMARK VINA RESULT:    -3.081     10.823     12.573
REMARK INTER + INTRA:          -4.346
REMARK INTER:                  -4.217
REMARK INTRA:                  -0.130
REMARK UNBOUND:                -0.274
REMARK SMILES CCCCCCCO
REMARK SMILES IDX 5 1 4 2 3 3 2 4 1 5 6 6 7 7 8 8
REMARK H PARENT 8 9
REMARK Flexibility Score: inf
ROOT
ATOM      1  C   UNL     1     175.557 178.409 187.972  1.00  0.00     0.002 C 
ENDROOT
BRANCH   1   2
ATOM      2  C   UNL     1     175.184 179.896 187.837  1.00  0.00     0.000 C 
BRANCH   2   3
ATOM      3  C   UNL     1     173.903 180.110 187.016  1.00  0.00    -0.000 C 
BRANCH   3   4
ATOM      4  C   UNL     1     172.720 179.278 187.534  1.00  0.00    -0.003 C 
ATOM      5  C   UNL     1     171.436 180.103 187.558  1.00  0.00     0.004 C 
ENDBRANCH   3   4
ENDBRANCH   2   3
ENDBRANCH   1   2
BRANCH   1   6
ATOM      6  C   UNL     1     176.559 177.949 186.899  1.00  0.00     0.028 C 
BRANCH   6   7
ATOM      7  C   UNL     1     176.442 176.460 186.544  1.00  0.00     0.156 C 
BRANCH   7   8
ATOM      8  O   UNL     1     177.275 176.130 185.465  1.00  0.00    -0.396 OA
ATOM      9  H   UNL     1     176.733 176.244 184.642  1.00  0.00     0.210 HD
ENDBRANCH   7   8
ENDBRANCH   6   7
ENDBRANCH   1   6
TORSDOF 6
ENDMDL
MODEL 5
REMARK VINA RESULT:    -3.044      2.184      3.681
REMARK INTER + INTRA:          -4.297
REMARK INTER:                  -3.995
REMARK INTRA:                  -0.302
REMARK UNBOUND:                -0.274
REMARK SMILES CCCCCCCO
REMARK SMILES IDX 5 1 4 2 3 3 2 4 1 5 6 6 7 7 8 8
REMARK H PARENT 8 9
REMARK Flexibility Score: inf
ROOT
ATOM      1  C   UNL     1     161.058 177.199 187.736  1.00  0.00     0.002 C 
ENDROOT
BRANCH   1   2
ATOM      2  C   UNL     1     162.486 177.430 188.262  1.00  0.00     0.000 C 
BRANCH   2   3
ATOM      3  C   UNL     1     163.541 176.648 187.464  1.00  0.00    -0.000 C 
BRANCH   3   4
ATOM      4  C   UNL     1     164.249 177.512 186.410  1.00  0.00    -0.003 C 
ATOM      5  C   UNL     1     164.392 178.954 186.888  1.00  0.00     0.004 C 
ENDBRANCH   3   4
ENDBRANCH   2   3
ENDBRANCH   1   2
BRANCH   1   6
ATOM      6  C   UNL     1     160.628 178.256 186.704  1.00  0.00     0.028 C 
BRANCH   6   7
ATOM      7  C   UNL     1     160.620 177.738 185.258  1.00  0.00     0.156 C 
BRANCH   7   8
ATOM      8  O   UNL     1     159.940 178.622 184.408  1.00  0.00    -0.396 OA
ATOM      9  H   UNL     1     159.690 178.103 183.600  1.00  0.00     0.210 HD
ENDBRANCH   7   8
ENDBRANCH   6   7
ENDBRANCH   1   6
TORSDOF 6
ENDMDL
MODEL 6
REMARK VINA RESULT:    -3.032      1.476      2.924
REMARK INTER + INTRA:          -4.281
REMARK INTER:                  -4.001
REMARK INTRA:                  -0.279
REMARK UNBOUND:                -0.274
REMARK SMILES CCCCCCCO
REMARK SMILES IDX 5 1 4 2 3 3 2 4 1 5 6 6 7 7 8 8
REMARK H PARENT 8 9
REMARK Flexibility Score: inf
ROOT
ATOM      1  C   UNL     1     160.652 177.151 185.262  1.00  0.00     0.002 C 
ENDROOT
BRANCH   1   2
ATOM      2  C   UNL     1     160.760 178.220 186.364  1.00  0.00     0.000 C 
BRANCH   2   3
ATOM      3  C   UNL     1     160.890 177.608 187.767  1.00  0.00    -0.000 C 
BRANCH   3   4
ATOM      4  C   UNL     1     162.349 177.503 188.236  1.00  0.00    -0.003 C 
ATOM      5  C   UNL     1     162.933 176.131 187.910  1.00  0.00     0.004 C 
ENDBRANCH   3   4
ENDBRANCH   2   3
ENDBRANCH   1   2
BRANCH   1   6
ATOM      6  C   UNL     1     161.622 177.404 184.094  1.00  0.00     0.028 C 
BRANCH   6   7
ATOM      7  C   UNL     1     163.064 177.687 184.540  1.00  0.00     0.156 C 
BRANCH   7   8
ATOM      8  O   UNL     1     163.713 178.544 183.640  1.00  0.00    -0.396 OA
ATOM      9  H   UNL     1     163.346 179.453 183.798  1.00  0.00     0.210 HD
ENDBRANCH   7   8
ENDBRANCH   6   7
ENDBRANCH   1   6
TORSDOF 6
ENDMDL
MODEL 7
REMARK VINA RESULT:    -2.976      2.757      3.652
REMARK INTER + INTRA:          -4.208
REMARK INTER:                  -3.972
REMARK INTRA:                  -0.236
REMARK UNBOUND:                -0.274
REMARK SMILES CCCCCCCO
REMARK SMILES IDX 5 1 4 2 3 3 2 4 1 5 6 6 7 7 8 8
REMARK H PARENT 8 9
REMARK Flexibility Score: inf
ROOT
ATOM      1  C   UNL     1     160.633 178.253 186.853  1.00  0.00     0.002 C 
ENDROOT
BRANCH   1   2
ATOM      2  C   UNL     1     160.936 177.237 187.969  1.00  0.00     0.000 C 
BRANCH   2   3
ATOM      3  C   UNL     1     162.180 176.387 187.668  1.00  0.00    -0.000 C 
BRANCH   3   4
ATOM      4  C   UNL     1     161.851 174.896 187.492  1.00  0.00    -0.003 C 
ATOM      5  C   UNL     1     160.342 174.668 187.451  1.00  0.00     0.004 C 
ENDBRANCH   3   4
ENDBRANCH   2   3
ENDBRANCH   1   2
BRANCH   1   6
ATOM      6  C   UNL     1     161.225 177.836 185.495  1.00  0.00     0.028 C 
BRANCH   6   7
ATOM      7  C   UNL     1     160.196 177.812 184.355  1.00  0.00     0.156 C 
BRANCH   7   8
ATOM      8  O   UNL     1     159.889 176.496 183.979  1.00  0.00    -0.396 OA
ATOM      9  H   UNL     1     160.424 175.901 184.566  1.00  0.00     0.210 HD
ENDBRANCH   7   8
ENDBRANCH   6   7
ENDBRANCH   1   6
TORSDOF 6
ENDMDL
MODEL 8
REMARK VINA RESULT:    -2.857     10.159     12.301
REMARK INTER + INTRA:          -4.050
REMARK INTER:                  -3.754
REMARK INTRA:                  -0.296
REMARK UNBOUND:                -0.274
REMARK SMILES CCCCCCCO
REMARK SMILES IDX 5 1 4 2 3 3 2 4 1 5 6 6 7 7 8 8
REMARK H PARENT 8 9
REMARK Flexibility Score: inf
ROOT
ATOM      1  C   UNL     1     173.432 178.491 187.873  1.00  0.00     0.002 C 
ENDROOT
BRANCH   1   2
ATOM      2  C   UNL     1     174.789 179.089 188.289  1.00  0.00     0.000 C 
BRANCH   2   3
ATOM      3  C   UNL     1     175.643 179.506 187.081  1.00  0.00    -0.000 C 
BRANCH   3   4
ATOM      4  C   UNL     1     175.992 178.324 186.165  1.00  0.00    -0.003 C 
ATOM      5  C   UNL     1     177.039 177.419 186.809  1.00  0.00     0.004 C 
ENDBRANCH   3   4
ENDBRANCH   2   3
ENDBRANCH   1   2
BRANCH   1   6
ATOM      6  C   UNL     1     172.432 179.561 187.403  1.00  0.00     0.028 C 
BRANCH   6   7
ATOM      7  C   UNL     1     171.952 179.365 185.958  1.00  0.00     0.156 C 
BRANCH   7   8
ATOM      8  O   UNL     1     172.747 180.090 185.058  1.00  0.00    -0.396 OA
ATOM      9  H   UNL     1     172.131 180.668 184.537  1.00  0.00     0.210 HD
ENDBRANCH   7   8
ENDBRANCH   6   7
ENDBRANCH   1   6
TORSDOF 6
ENDMDL
