MODEL 1
REMARK VINA RESULT:     3.903      0.000      0.000
REMARK INTER + INTRA:           5.487
REMARK INTER:                   4.245
REMARK INTRA:                   1.242
REMARK UNBOUND:                 1.242
REMARK SMILES C[C@H]1[C@H](C)CC[C@@]2(C(=O)[O-])CC[C@@]3(C)C(=CC[C@H]4[C@]5(C)CC[C@@H](O)C(C)(C)[C@@H]5CC[C@@]43C)[C@H]12
REMARK SMILES IDX 7 1 6 2 11 3 33 4 5 5 12 6 15 7 2 8 3 9 13 10 16 11 1 12
REMARK SMILES IDX 4 13 14 14 31 15 17 16 18 17 30 18 32 19 19 20 29 21 28 22
REMARK SMILES IDX 21 23 20 24 25 25 22 26 23 27 26 28 27 29 8 30 9 31 10 32
REMARK SMILES IDX 24 33
REMARK H PARENT 24 34
REMARK Flexibility Score: inf
ROOT
ATOM      1  C   UNL     1      10.785  22.244   9.813  1.00  0.00     0.017 C 
ATOM      2  C   UNL     1      12.332  22.361  10.061  1.00  0.00     0.014 C 
ATOM      3  C   UNL     1      10.437  23.124   8.581  1.00  0.00     0.014 C 
ATOM      4  C   UNL     1      10.347  20.777   9.475  1.00  0.00     0.030 C 
ATOM      5  C   UNL     1      13.067  21.022  10.156  1.00  0.00     0.004 C 
ATOM      6  C   UNL     1       8.940  23.125   8.243  1.00  0.00     0.013 C 
ATOM      7  C   UNL     1       8.828  20.735   9.145  1.00  0.00    -0.063 C 
ATOM      8  C   UNL     1      10.892  19.703  10.496  1.00  0.00    -0.003 C 
ATOM      9  C   UNL     1      12.325  20.017  11.043  1.00  0.00    -0.011 C 
ATOM     10  C   UNL     1       8.297  21.700   8.058  1.00  0.00    -0.006 C 
ATOM     11  C   UNL     1       8.004  19.807   9.703  1.00  0.00    -0.027 C 
ATOM     12  C   UNL     1      10.917  18.304   9.835  1.00  0.00     0.008 C 
ATOM     13  C   UNL     1      12.312  20.459  12.517  1.00  0.00     0.008 C 
ATOM     14  C   UNL     1       8.801  21.155   6.681  1.00  0.00     0.017 C 
ATOM     15  C   UNL     1       6.685  21.810   8.133  1.00  0.00    -0.020 C 
ATOM     16  C   UNL     1       6.543  19.620   9.385  1.00  0.00     0.032 C 
ATOM     17  C   UNL     1       6.053  20.381   8.123  1.00  0.00     0.006 C 
ATOM     18  C   UNL     1       6.129  22.550   6.899  1.00  0.00     0.008 C 
ATOM     19  C   UNL     1       6.267  22.567   9.445  1.00  0.00     0.012 C 
ATOM     20  C   UNL     1       4.469  20.282   7.766  1.00  0.00    -0.025 C 
ATOM     21  C   UNL     1       4.616  22.764   6.913  1.00  0.00     0.005 C 
ATOM     22  C   UNL     1       3.744  21.698   7.655  1.00  0.00     0.003 C 
ATOM     23  C   UNL     1       4.326  19.571   6.382  1.00  0.00     0.010 C 
ATOM     24  C   UNL     1       3.762  19.398   8.840  1.00  0.00     0.012 C 
ATOM     25  C   UNL     1       2.258  21.674   7.058  1.00  0.00    -0.006 C 
ATOM     26  C   UNL     1       2.893  19.490   5.840  1.00  0.00     0.033 C 
ATOM     27  C   UNL     1       2.233  20.875   5.718  1.00  0.00     0.120 C 
ATOM     28  C   UNL     1       1.221  21.087   8.075  1.00  0.00     0.014 C 
ATOM     29  C   UNL     1       1.757  23.125   6.767  1.00  0.00     0.014 C 
ENDROOT
BRANCH   1  30
ATOM     30  C   UNL     1      10.047  22.789  11.036  1.00  0.00     0.048 C 
ATOM     31  O   UNL     1      10.697  23.116  12.066  1.00  0.00    -0.550 OA
ATOM     32  O   UNL     1       8.664  22.923  11.051  1.00  0.00    -0.550 OA
ENDBRANCH   1  30
BRANCH  27  33
ATOM     33  O   UNL     1       0.907  20.725   5.270  1.00  0.00    -0.393 OA
ATOM     34  H   UNL     1       0.952  20.379   4.340  1.00  0.00     0.210 HD
ENDBRANCH  27  33
TORSDOF 2
ENDMDL
MODEL 2
REMARK VINA RESULT:     4.481      1.738      8.521
REMARK INTER + INTRA:           6.116
REMARK INTER:                   4.927
REMARK INTRA:                   1.190
REMARK UNBOUND:                 1.242
REMARK SMILES C[C@H]1[C@H](C)CC[C@@]2(C(=O)[O-])CC[C@@]3(C)C(=CC[C@H]4[C@]5(C)CC[C@@H](O)C(C)(C)[C@@H]5CC[C@@]43C)[C@H]12
REMARK SMILES IDX 7 1 6 2 11 3 33 4 5 5 12 6 15 7 2 8 3 9 13 10 16 11 1 12
REMARK SMILES IDX 4 13 14 14 31 15 17 16 18 17 30 18 32 19 19 20 29 21 28 22
REMARK SMILES IDX 21 23 20 24 25 25 22 26 23 27 26 28 27 29 8 30 9 31 10 32
REMARK SMILES IDX 24 33
REMARK H PARENT 24 34
REMARK Flexibility Score: inf
ROOT
ATOM      1  C   UNL     1       1.481  20.404   6.833  1.00  0.00     0.017 C 
ATOM      2  C   UNL     1       0.136  20.123   6.072  1.00  0.00     0.014 C 
ATOM      3  C   UNL     1       2.070  19.034   7.271  1.00  0.00     0.014 C 
ATOM      4  C   UNL     1       2.548  21.097   5.917  1.00  0.00     0.030 C 
ATOM      5  C   UNL     1       0.037  20.770   4.688  1.00  0.00     0.004 C 
ATOM      6  C   UNL     1       3.381  19.164   8.057  1.00  0.00     0.013 C 
ATOM      7  C   UNL     1       3.888  21.264   6.689  1.00  0.00    -0.063 C 
ATOM      8  C   UNL     1       1.997  22.362   5.149  1.00  0.00    -0.003 C 
ATOM      9  C   UNL     1       0.503  22.230   4.699  1.00  0.00    -0.011 C 
ATOM     10  C   UNL     1       4.505  20.006   7.346  1.00  0.00    -0.006 C 
ATOM     11  C   UNL     1       4.563  22.445   6.695  1.00  0.00    -0.027 C 
ATOM     12  C   UNL     1       2.862  22.644   3.897  1.00  0.00     0.008 C 
ATOM     13  C   UNL     1      -0.443  23.125   5.520  1.00  0.00     0.008 C 
ATOM     14  C   UNL     1       5.067  19.117   6.188  1.00  0.00     0.017 C 
ATOM     15  C   UNL     1       5.640  20.425   8.419  1.00  0.00    -0.020 C 
ATOM     16  C   UNL     1       5.907  22.689   7.331  1.00  0.00     0.032 C 
ATOM     17  C   UNL     1       6.664  21.402   7.757  1.00  0.00     0.006 C 
ATOM     18  C   UNL     1       6.441  19.189   8.879  1.00  0.00     0.008 C 
ATOM     19  C   UNL     1       4.967  21.119   9.658  1.00  0.00     0.012 C 
ATOM     20  C   UNL     1       8.089  21.598   8.517  1.00  0.00    -0.025 C 
ATOM     21  C   UNL     1       7.495  19.474   9.949  1.00  0.00     0.005 C 
ATOM     22  C   UNL     1       8.160  20.890   9.944  1.00  0.00     0.003 C 
ATOM     23  C   UNL     1       9.207  20.968   7.625  1.00  0.00     0.010 C 
ATOM     24  C   UNL     1       8.384  23.123   8.657  1.00  0.00     0.012 C 
ATOM     25  C   UNL     1       9.611  20.831  10.621  1.00  0.00    -0.006 C 
ATOM     26  C   UNL     1      10.610  20.970   8.246  1.00  0.00     0.033 C 
ATOM     27  C   UNL     1      10.649  20.255   9.608  1.00  0.00     0.120 C 
ATOM     28  C   UNL     1      10.072  22.228  11.156  1.00  0.00     0.014 C 
ATOM     29  C   UNL     1       9.596  19.905  11.879  1.00  0.00     0.014 C 
ENDROOT
BRANCH   1  30
ATOM     30  C   UNL     1       1.177  21.234   8.079  1.00  0.00     0.048 C 
ATOM     31  O   UNL     1       1.619  20.867   9.202  1.00  0.00    -0.550 OA
ATOM     32  O   UNL     1       0.407  22.390   8.013  1.00  0.00    -0.550 OA
ENDBRANCH   1  30
BRANCH  27  33
ATOM     33  O   UNL     1      11.947  20.341  10.146  1.00  0.00    -0.393 OA
ATOM     34  H   UNL     1      11.913  19.936  11.052  1.00  0.00     0.210 HD
ENDBRANCH  27  33
TORSDOF 2
ENDMDL
MODEL 3
REMARK VINA RESULT:     5.219      1.737      3.072
REMARK INTER + INTRA:           6.919
REMARK INTER:                   5.595
REMARK INTRA:                   1.324
REMARK UNBOUND:                 1.242
REMARK SMILES C[C@H]1[C@H](C)CC[C@@]2(C(=O)[O-])CC[C@@]3(C)C(=CC[C@H]4[C@]5(C)CC[C@@H](O)C(C)(C)[C@@H]5CC[C@@]43C)[C@H]12
REMARK SMILES IDX 7 1 6 2 11 3 33 4 5 5 12 6 15 7 2 8 3 9 13 10 16 11 1 12
REMARK SMILES IDX 4 13 14 14 31 15 17 16 18 17 30 18 32 19 19 20 29 21 28 22
REMARK SMILES IDX 21 23 20 24 25 25 22 26 23 27 26 28 27 29 8 30 9 31 10 32
REMARK SMILES IDX 24 33
REMARK H PARENT 24 34
REMARK Flexibility Score: inf
ROOT
ATOM      1  C   UNL     1       9.948  20.669  10.605  1.00  0.00     0.017 C 
ATOM      2  C   UNL     1      11.274  20.841  11.431  1.00  0.00     0.014 C 
ATOM      3  C   UNL     1       8.757  20.937  11.567  1.00  0.00     0.014 C 
ATOM      4  C   UNL     1       9.840  21.705   9.433  1.00  0.00     0.030 C 
ATOM      5  C   UNL     1      12.292  21.801  10.812  1.00  0.00     0.004 C 
ATOM      6  C   UNL     1       7.388  20.774  10.892  1.00  0.00     0.013 C 
ATOM      7  C   UNL     1       8.471  21.555   8.711  1.00  0.00    -0.063 C 
ATOM      8  C   UNL     1      11.130  21.767   8.524  1.00  0.00    -0.003 C 
ATOM      9  C   UNL     1      12.469  21.564   9.309  1.00  0.00    -0.011 C 
ATOM     10  C   UNL     1       7.189  21.613   9.576  1.00  0.00    -0.006 C 
ATOM     11  C   UNL     1       8.384  21.490   7.355  1.00  0.00    -0.027 C 
ATOM     12  C   UNL     1      11.196  23.125   7.785  1.00  0.00     0.008 C 
ATOM     13  C   UNL     1      13.125  20.202   9.019  1.00  0.00     0.008 C 
ATOM     14  C   UNL     1       7.004  23.103  10.016  1.00  0.00     0.017 C 
ATOM     15  C   UNL     1       5.919  21.046   8.748  1.00  0.00    -0.020 C 
ATOM     16  C   UNL     1       7.109  21.438   6.554  1.00  0.00     0.032 C 
ATOM     17  C   UNL     1       5.824  21.762   7.363  1.00  0.00     0.006 C 
ATOM     18  C   UNL     1       4.602  21.345   9.494  1.00  0.00     0.008 C 
ATOM     19  C   UNL     1       6.076  19.497   8.537  1.00  0.00     0.012 C 
ATOM     20  C   UNL     1       4.404  21.650   6.576  1.00  0.00    -0.025 C 
ATOM     21  C   UNL     1       3.348  20.785   8.823  1.00  0.00     0.005 C 
ATOM     22  C   UNL     1       3.363  20.658   7.264  1.00  0.00     0.003 C 
ATOM     23  C   UNL     1       3.752  23.070   6.546  1.00  0.00     0.010 C 
ATOM     24  C   UNL     1       4.675  21.211   5.103  1.00  0.00     0.012 C 
ATOM     25  C   UNL     1       1.871  20.702   6.683  1.00  0.00    -0.006 C 
ATOM     26  C   UNL     1       2.347  23.124   5.930  1.00  0.00     0.033 C 
ATOM     27  C   UNL     1       1.360  22.176   6.634  1.00  0.00     0.120 C 
ATOM     28  C   UNL     1       1.764  20.031   5.272  1.00  0.00     0.014 C 
ATOM     29  C   UNL     1       0.900  19.882   7.591  1.00  0.00     0.014 C 
ENDROOT
BRANCH   1  30
ATOM     30  C   UNL     1       9.864  19.229  10.101  1.00  0.00     0.048 C 
ATOM     31  O   UNL     1      10.922  18.580   9.876  1.00  0.00    -0.550 OA
ATOM     32  O   UNL     1       8.641  18.611   9.867  1.00  0.00    -0.550 OA
ENDBRANCH   1  30
BRANCH  27  33
ATOM     33  O   UNL     1       0.112  22.234   5.988  1.00  0.00    -0.393 OA
ATOM     34  H   UNL     1      -0.213  23.169   6.066  1.00  0.00     0.210 HD
ENDBRANCH  27  33
TORSDOF 2
ENDMDL
