MODEL 1
REMARK VINA RESULT:    -3.128      0.000      0.000
REMARK INTER + INTRA:          -4.929
REMARK INTER:                  -4.774
REMARK INTRA:                  -0.155
REMARK UNBOUND:                -0.155
REMARK SMILES CC1=CCC[C@H](C)C(=O)C[C@@H](C(C)C)C(=O)C1
REMARK SMILES IDX 8 1 9 2 6 3 7 4 5 5 4 6 3 7 2 8 1 9 10 11 11 12 15 13 16 14
REMARK SMILES IDX 17 15 12 17 13 18 14 19
REMARK H PARENT
REMARK Flexibility Score: 70.00
ROOT
ATOM      1  C   UNL     1      15.588  25.109  31.428  1.00  0.00     0.136 C 
ATOM      2  O   UNL     1      14.981  25.998  32.003  1.00  0.00    -0.299 OA
ENDROOT
BRANCH   1   3
ATOM      3  C   UNL     1      16.413  25.480  30.204  1.00  0.00     0.053 C 
ATOM      4  C   UNL     1      15.569  25.493  28.921  1.00  0.00     0.016 C 
BRANCH   3   5
ATOM      5  C   UNL     1      17.144  26.821  30.411  1.00  0.00     0.015 C 
BRANCH   5   6
ATOM      6  C   UNL     1      18.348  26.678  31.364  1.00  0.00     0.028 C 
BRANCH   6   7
ATOM      7  C   UNL     1      18.108  27.355  32.689  1.00  0.00    -0.028 C 
ATOM      8  C   UNL     1      18.086  26.720  33.883  1.00  0.00    -0.070 CG0
ATOM      9  C   UNL     1      17.851  27.545  35.124  1.00  0.00     0.039 C 
ATOM     10  G   UNL     1      18.249  25.215  34.028  1.00  0.00     0.000 G0
ENDBRANCH   6   7
ENDBRANCH   5   6
ENDBRANCH   3   5
ENDBRANCH   1   3
BRANCH   1  11
ATOM     11  C   UNL     1      15.554  23.699  31.991  1.00  0.00     0.087 C 
BRANCH  11  12
ATOM     12  C   UNL     1      16.623  23.333  33.060  1.00  0.00     0.066 C 
BRANCH  12  13
ATOM     13  C   UNL     1      16.946  24.453  34.045  1.00  0.00     0.140 C 
ATOM     14  O   UNL     1      16.121  24.712  34.912  1.00  0.00    -0.299 OA
BRANCH  13  15
ATOM     15  C   UNL     1      18.257  25.206  34.045  1.00  0.00     0.106 CG0
ATOM     16  G   UNL     1      18.055  26.705  33.890  1.00  0.00     0.000 G0
ENDBRANCH  13  15
ENDBRANCH  12  13
BRANCH  12  17
ATOM     17  C   UNL     1      17.839  22.493  32.544  1.00  0.00    -0.006 C 
ATOM     18  C   UNL     1      18.523  21.597  33.585  1.00  0.00     0.008 C 
ATOM     19  C   UNL     1      17.476  21.677  31.291  1.00  0.00     0.008 C 
ENDBRANCH  12  17
ENDBRANCH  11  12
ENDBRANCH   1  11
TORSDOF 1
ENDMDL
MODEL 2
REMARK VINA RESULT:    -2.971      2.404      3.427
REMARK INTER + INTRA:          -4.690
REMARK INTER:                  -4.669
REMARK INTRA:                  -0.022
REMARK UNBOUND:                -0.155
REMARK SMILES CC1=CCC[C@H](C)C(=O)C[C@@H](C(C)C)C(=O)C1
REMARK SMILES IDX 8 1 9 2 6 3 7 4 5 5 4 6 3 7 2 8 1 9 10 11 11 12 15 13 16 14
REMARK SMILES IDX 17 15 12 17 13 18 14 19
REMARK H PARENT
REMARK Flexibility Score: 70.00
ROOT
ATOM      1  C   UNL     1      17.555  26.275  31.081  1.00  0.00     0.136 C 
ATOM      2  O   UNL     1      18.640  26.270  30.522  1.00  0.00    -0.299 OA
ENDROOT
BRANCH   1   3
ATOM      3  C   UNL     1      16.386  26.942  30.371  1.00  0.00     0.053 C 
ATOM      4  C   UNL     1      16.815  28.210  29.617  1.00  0.00     0.016 C 
BRANCH   3   5
ATOM      5  C   UNL     1      15.662  25.951  29.437  1.00  0.00     0.015 C 
BRANCH   5   6
ATOM      6  C   UNL     1      14.162  25.837  29.775  1.00  0.00     0.028 C 
BRANCH   6   7
ATOM      7  C   UNL     1      13.765  26.737  30.917  1.00  0.00    -0.028 C 
ATOM      8  C   UNL     1      13.617  26.330  32.199  1.00  0.00    -0.070 CG0
ATOM      9  C   UNL     1      13.232  27.359  33.232  1.00  0.00     0.039 C 
ATOM     10  G   UNL     1      13.783  24.884  32.638  1.00  0.00     0.000 G0
ENDBRANCH   6   7
ENDBRANCH   5   6
ENDBRANCH   3   5
ENDBRANCH   1   3
BRANCH   1  11
ATOM     11  C   UNL     1      17.400  25.561  32.411  1.00  0.00     0.087 C 
BRANCH  11  12
ATOM     12  C   UNL     1      16.399  24.372  32.471  1.00  0.00     0.066 C 
BRANCH  12  13
ATOM     13  C   UNL     1      15.128  24.652  33.270  1.00  0.00     0.140 C 
ATOM     14  O   UNL     1      15.222  24.738  34.487  1.00  0.00    -0.299 OA
BRANCH  13  15
ATOM     15  C   UNL     1      13.782  24.895  32.628  1.00  0.00     0.106 CG0
ATOM     16  G   UNL     1      13.611  26.342  32.190  1.00  0.00     0.000 G0
ENDBRANCH  13  15
ENDBRANCH  12  13
BRANCH  12  17
ATOM     17  C   UNL     1      17.037  22.956  32.662  1.00  0.00    -0.006 C 
ATOM     18  C   UNL     1      17.650  22.324  31.405  1.00  0.00     0.008 C 
ATOM     19  C   UNL     1      18.052  22.940  33.818  1.00  0.00     0.008 C 
ENDBRANCH  12  17
ENDBRANCH  11  12
ENDBRANCH   1  11
TORSDOF 1
ENDMDL
MODEL 3
REMARK VINA RESULT:    -2.886      3.214      5.288
REMARK INTER + INTRA:          -4.560
REMARK INTER:                  -4.657
REMARK INTRA:                   0.097
REMARK UNBOUND:                -0.155
REMARK SMILES CC1=CCC[C@H](C)C(=O)C[C@@H](C(C)C)C(=O)C1
REMARK SMILES IDX 8 1 9 2 6 3 7 4 5 5 4 6 3 7 2 8 1 9 10 11 11 12 15 13 16 14
REMARK SMILES IDX 17 15 12 17 13 18 14 19
REMARK H PARENT
REMARK Flexibility Score: 70.00
ROOT
ATOM      1  C   UNL     1      13.807  25.092  33.472  1.00  0.00     0.136 C 
ATOM      2  O   UNL     1      14.374  25.322  34.528  1.00  0.00    -0.299 OA
ENDROOT
BRANCH   1   3
ATOM      3  C   UNL     1      12.286  25.155  33.446  1.00  0.00     0.053 C 
ATOM      4  C   UNL     1      11.758  26.530  33.879  1.00  0.00     0.016 C 
BRANCH   3   5
ATOM      5  C   UNL     1      11.735  24.751  32.064  1.00  0.00     0.015 C 
BRANCH   5   6
ATOM      6  C   UNL     1      11.606  25.965  31.121  1.00  0.00     0.028 C 
BRANCH   6   7
ATOM      7  C   UNL     1      12.223  25.704  29.771  1.00  0.00    -0.028 C 
ATOM      8  C   UNL     1      13.394  26.233  29.347  1.00  0.00    -0.070 CG0
ATOM      9  C   UNL     1      13.888  25.860  27.972  1.00  0.00     0.039 C 
ATOM     10  G   UNL     1      14.213  27.211  30.175  1.00  0.00     0.000 G0
ENDBRANCH   6   7
ENDBRANCH   5   6
ENDBRANCH   3   5
ENDBRANCH   1   3
BRANCH   1  11
ATOM     11  C   UNL     1      14.633  24.829  32.225  1.00  0.00     0.087 C 
BRANCH  11  12
ATOM     12  C   UNL     1      15.770  25.838  31.896  1.00  0.00     0.066 C 
BRANCH  12  13
ATOM     13  C   UNL     1      15.565  26.627  30.606  1.00  0.00     0.140 C 
ATOM     14  O   UNL     1      16.521  26.752  29.851  1.00  0.00    -0.299 OA
BRANCH  13  15
ATOM     15  C   UNL     1      14.230  27.197  30.184  1.00  0.00     0.106 CG0
ATOM     16  G   UNL     1      13.429  26.214  29.346  1.00  0.00     0.000 G0
ENDBRANCH  13  15
ENDBRANCH  12  13
BRANCH  12  17
ATOM     17  C   UNL     1      17.226  25.335  32.175  1.00  0.00    -0.006 C 
ATOM     18  C   UNL     1      18.058  26.195  33.134  1.00  0.00     0.008 C 
ATOM     19  C   UNL     1      17.242  23.863  32.626  1.00  0.00     0.008 C 
ENDBRANCH  12  17
ENDBRANCH  11  12
ENDBRANCH   1  11
TORSDOF 1
ENDMDL
MODEL 4
REMARK VINA RESULT:    -2.800      1.801      4.052
REMARK INTER + INTRA:          -4.428
REMARK INTER:                  -4.816
REMARK INTRA:                   0.388
REMARK UNBOUND:                -0.155
REMARK SMILES CC1=CCC[C@H](C)C(=O)C[C@@H](C(C)C)C(=O)C1
REMARK SMILES IDX 8 1 9 2 6 3 7 4 5 5 4 6 3 7 2 8 1 9 10 11 11 12 15 13 16 14
REMARK SMILES IDX 17 15 12 17 13 18 14 19
REMARK H PARENT
REMARK Flexibility Score: 70.00
ROOT
ATOM      1  C   UNL     1      16.249  23.726  32.043  1.00  0.00     0.136 C 
ATOM      2  O   UNL     1      16.857  24.104  31.055  1.00  0.00    -0.299 OA
ENDROOT
BRANCH   1   3
ATOM      3  C   UNL     1      16.824  22.561  32.837  1.00  0.00     0.053 C 
ATOM      4  C   UNL     1      17.367  21.453  31.922  1.00  0.00     0.016 C 
BRANCH   3   5
ATOM      5  C   UNL     1      17.895  23.042  33.835  1.00  0.00     0.015 C 
BRANCH   5   6
ATOM      6  C   UNL     1      17.449  24.311  34.589  1.00  0.00     0.028 C 
BRANCH   6   7
ATOM      7  C   UNL     1      18.261  25.520  34.199  1.00  0.00    -0.028 C 
ATOM      8  C   UNL     1      17.738  26.726  33.881  1.00  0.00    -0.070 CG0
ATOM      9  C   UNL     1      18.688  27.843  33.529  1.00  0.00     0.039 C 
ATOM     10  G   UNL     1      16.242  26.997  33.827  1.00  0.00     0.000 G0
ENDBRANCH   6   7
ENDBRANCH   5   6
ENDBRANCH   3   5
ENDBRANCH   1   3
BRANCH   1  11
ATOM     11  C   UNL     1      14.999  24.469  32.478  1.00  0.00     0.087 C 
BRANCH  11  12
ATOM     12  C   UNL     1      14.763  25.883  31.876  1.00  0.00     0.066 C 
BRANCH  12  13
ATOM     13  C   UNL     1      15.721  26.958  32.384  1.00  0.00     0.140 C 
ATOM     14  O   UNL     1      16.029  27.862  31.618  1.00  0.00    -0.299 OA
BRANCH  13  15
ATOM     15  C   UNL     1      16.248  26.997  33.800  1.00  0.00     0.106 CG0
ATOM     16  G   UNL     1      17.744  26.730  33.860  1.00  0.00     0.000 G0
ENDBRANCH  13  15
ENDBRANCH  12  13
BRANCH  12  17
ATOM     17  C   UNL     1      13.266  26.312  31.714  1.00  0.00    -0.006 C 
ATOM     18  C   UNL     1      12.849  26.764  30.308  1.00  0.00     0.008 C 
ATOM     19  C   UNL     1      12.305  25.230  32.236  1.00  0.00     0.008 C 
ENDBRANCH  12  17
ENDBRANCH  11  12
ENDBRANCH   1  11
TORSDOF 1
ENDMDL
MODEL 5
REMARK VINA RESULT:    -2.727      2.242      3.290
REMARK INTER + INTRA:          -4.317
REMARK INTER:                  -4.460
REMARK INTRA:                   0.143
REMARK UNBOUND:                -0.155
REMARK SMILES CC1=CCC[C@H](C)C(=O)C[C@@H](C(C)C)C(=O)C1
REMARK SMILES IDX 8 1 9 2 6 3 7 4 5 5 4 6 3 7 2 8 1 9 10 11 11 12 15 13 16 14
REMARK SMILES IDX 17 15 12 17 13 18 14 19
REMARK H PARENT
REMARK Flexibility Score: 70.00
ROOT
ATOM      1  C   UNL     1      13.635  25.467  32.732  1.00  0.00     0.136 C 
ATOM      2  O   UNL     1      13.150  25.780  31.657  1.00  0.00    -0.299 OA
ENDROOT
BRANCH   1   3
ATOM      3  C   UNL     1      13.150  26.195  33.977  1.00  0.00     0.053 C 
ATOM      4  C   UNL     1      12.033  25.425  34.697  1.00  0.00     0.016 C 
BRANCH   3   5
ATOM      5  C   UNL     1      14.320  26.510  34.930  1.00  0.00     0.015 C 
BRANCH   5   6
ATOM      6  C   UNL     1      14.974  27.869  34.605  1.00  0.00     0.028 C 
BRANCH   6   7
ATOM      7  C   UNL     1      16.479  27.782  34.569  1.00  0.00    -0.028 C 
ATOM      8  C   UNL     1      17.207  27.533  33.456  1.00  0.00    -0.070 CG0
ATOM      9  C   UNL     1      18.709  27.495  33.582  1.00  0.00     0.039 C 
ATOM     10  G   UNL     1      16.582  27.254  32.098  1.00  0.00     0.000 G0
ENDBRANCH   6   7
ENDBRANCH   5   6
ENDBRANCH   3   5
ENDBRANCH   1   3
BRANCH   1  11
ATOM     11  C   UNL     1      14.637  24.328  32.793  1.00  0.00     0.087 C 
BRANCH  11  12
ATOM     12  C   UNL     1      16.146  24.704  32.789  1.00  0.00     0.066 C 
BRANCH  12  13
ATOM     13  C   UNL     1      16.533  25.766  31.762  1.00  0.00     0.140 C 
ATOM     14  O   UNL     1      16.764  25.401  30.617  1.00  0.00    -0.299 OA
BRANCH  13  15
ATOM     15  C   UNL     1      16.576  27.245  32.074  1.00  0.00     0.106 CG0
ATOM     16  G   UNL     1      17.204  27.525  33.430  1.00  0.00     0.000 G0
ENDBRANCH  13  15
ENDBRANCH  12  13
BRANCH  12  17
ATOM     17  C   UNL     1      17.144  23.511  32.958  1.00  0.00    -0.006 C 
ATOM     18  C   UNL     1      17.791  23.371  34.342  1.00  0.00     0.008 C 
ATOM     19  C   UNL     1      16.513  22.176  32.525  1.00  0.00     0.008 C 
ENDBRANCH  12  17
ENDBRANCH  11  12
ENDBRANCH   1  11
TORSDOF 1
ENDMDL
MODEL 6
REMARK VINA RESULT:    -2.698      2.625      4.496
REMARK INTER + INTRA:          -4.274
REMARK INTER:                  -4.569
REMARK INTRA:                   0.296
REMARK UNBOUND:                -0.155
REMARK SMILES CC1=CCC[C@H](C)C(=O)C[C@@H](C(C)C)C(=O)C1
REMARK SMILES IDX 8 1 9 2 6 3 7 4 5 5 4 6 3 7 2 8 1 9 10 11 11 12 15 13 16 14
REMARK SMILES IDX 17 15 12 17 13 18 14 19
REMARK H PARENT
REMARK Flexibility Score: 70.00
ROOT
ATOM      1  C   UNL     1      16.726  25.018  34.041  1.00  0.00     0.136 C 
ATOM      2  O   UNL     1      17.256  25.932  34.651  1.00  0.00    -0.299 OA
ENDROOT
BRANCH   1   3
ATOM      3  C   UNL     1      17.595  24.166  33.127  1.00  0.00     0.053 C 
ATOM      4  C   UNL     1      17.722  22.722  33.633  1.00  0.00     0.016 C 
BRANCH   3   5
ATOM      5  C   UNL     1      17.086  24.210  31.673  1.00  0.00     0.015 C 
BRANCH   5   6
ATOM      6  C   UNL     1      17.222  25.618  31.059  1.00  0.00     0.028 C 
BRANCH   6   7
ATOM      7  C   UNL     1      15.975  26.043  30.327  1.00  0.00    -0.028 C 
ATOM      8  C   UNL     1      15.080  26.943  30.793  1.00  0.00    -0.070 CG0
ATOM      9  C   UNL     1      13.889  27.276  29.930  1.00  0.00     0.039 C 
ATOM     10  G   UNL     1      15.199  27.605  32.157  1.00  0.00     0.000 G0
ENDBRANCH   6   7
ENDBRANCH   5   6
ENDBRANCH   3   5
ENDBRANCH   1   3
BRANCH   1  11
ATOM     11  C   UNL     1      15.254  24.725  34.270  1.00  0.00     0.087 C 
BRANCH  11  12
ATOM     12  C   UNL     1      14.232  25.422  33.327  1.00  0.00     0.066 C 
BRANCH  12  13
ATOM     13  C   UNL     1      14.393  26.937  33.226  1.00  0.00     0.140 C 
ATOM     14  O   UNL     1      13.879  27.629  34.096  1.00  0.00    -0.299 OA
BRANCH  13  15
ATOM     15  C   UNL     1      15.210  27.615  32.150  1.00  0.00     0.106 CG0
ATOM     16  G   UNL     1      15.067  26.923  30.803  1.00  0.00     0.000 G0
ENDBRANCH  13  15
ENDBRANCH  12  13
BRANCH  12  17
ATOM     17  C   UNL     1      12.763  24.886  33.402  1.00  0.00    -0.006 C 
ATOM     18  C   UNL     1      11.975  25.271  34.661  1.00  0.00     0.008 C 
ATOM     19  C   UNL     1      11.962  25.246  32.138  1.00  0.00     0.008 C 
ENDBRANCH  12  17
ENDBRANCH  11  12
ENDBRANCH   1  11
TORSDOF 1
ENDMDL
MODEL 7
REMARK VINA RESULT:    -2.695      7.268      9.464
REMARK INTER + INTRA:          -4.268
REMARK INTER:                  -4.238
REMARK INTRA:                  -0.030
REMARK UNBOUND:                -0.155
REMARK SMILES CC1=CCC[C@H](C)C(=O)C[C@@H](C(C)C)C(=O)C1
REMARK SMILES IDX 8 1 9 2 6 3 7 4 5 5 4 6 3 7 2 8 1 9 10 11 11 12 15 13 16 14
REMARK SMILES IDX 17 15 12 17 13 18 14 19
REMARK H PARENT
REMARK Flexibility Score: 70.00
ROOT
ATOM      1  C   UNL     1      14.866  27.106  27.115  1.00  0.00     0.136 C 
ATOM      2  O   UNL     1      15.272  26.158  27.767  1.00  0.00    -0.299 OA
ENDROOT
BRANCH   1   3
ATOM      3  C   UNL     1      15.103  27.095  25.612  1.00  0.00     0.053 C 
ATOM      4  C   UNL     1      16.595  27.002  25.263  1.00  0.00     0.016 C 
BRANCH   3   5
ATOM      5  C   UNL     1      14.294  25.975  24.928  1.00  0.00     0.015 C 
BRANCH   5   6
ATOM      6  C   UNL     1      12.935  26.484  24.407  1.00  0.00     0.028 C 
BRANCH   6   7
ATOM      7  C   UNL     1      13.081  27.709  23.540  1.00  0.00    -0.028 C 
ATOM      8  C   UNL     1      12.519  28.911  23.807  1.00  0.00    -0.070 CG0
ATOM      9  C   UNL     1      12.776  30.045  22.848  1.00  0.00     0.039 C 
ATOM     10  G   UNL     1      11.616  29.159  25.005  1.00  0.00     0.000 G0
ENDBRANCH   6   7
ENDBRANCH   5   6
ENDBRANCH   3   5
ENDBRANCH   1   3
BRANCH   1  11
ATOM     11  C   UNL     1      14.088  28.209  27.810  1.00  0.00     0.087 C 
BRANCH  11  12
ATOM     12  C   UNL     1      12.608  28.417  27.380  1.00  0.00     0.066 C 
BRANCH  12  13
ATOM     13  C   UNL     1      12.408  29.448  26.272  1.00  0.00     0.140 C 
ATOM     14  O   UNL     1      12.969  30.531  26.387  1.00  0.00    -0.299 OA
BRANCH  13  15
ATOM     15  C   UNL     1      11.614  29.174  25.016  1.00  0.00     0.106 CG0
ATOM     16  G   UNL     1      12.513  28.914  23.818  1.00  0.00     0.000 G0
ENDBRANCH  13  15
ENDBRANCH  12  13
BRANCH  12  17
ATOM     17  C   UNL     1      11.560  28.439  28.542  1.00  0.00    -0.006 C 
ATOM     18  C   UNL     1      10.231  29.141  28.231  1.00  0.00     0.008 C 
ATOM     19  C   UNL     1      11.303  27.029  29.102  1.00  0.00     0.008 C 
ENDBRANCH  12  17
ENDBRANCH  11  12
ENDBRANCH   1  11
TORSDOF 1
ENDMDL
MODEL 8
REMARK VINA RESULT:    -2.615      2.979      4.547
REMARK INTER + INTRA:          -4.147
REMARK INTER:                  -3.947
REMARK INTRA:                  -0.200
REMARK UNBOUND:                -0.155
REMARK SMILES CC1=CCC[C@H](C)C(=O)C[C@@H](C(C)C)C(=O)C1
REMARK SMILES IDX 8 1 9 2 6 3 7 4 5 5 4 6 3 7 2 8 1 9 10 11 11 12 15 13 16 14
REMARK SMILES IDX 17 15 12 17 13 18 14 19
REMARK H PARENT
REMARK Flexibility Score: 70.00
ROOT
ATOM      1  C   UNL     1      15.505  24.812  33.494  1.00  0.00     0.136 C 
ATOM      2  O   UNL     1      14.728  24.235  32.751  1.00  0.00    -0.299 OA
ENDROOT
BRANCH   1   3
ATOM      3  C   UNL     1      16.997  24.641  33.244  1.00  0.00     0.053 C 
ATOM      4  C   UNL     1      17.458  23.195  33.475  1.00  0.00     0.016 C 
BRANCH   3   5
ATOM      5  C   UNL     1      17.387  25.138  31.838  1.00  0.00     0.015 C 
BRANCH   5   6
ATOM      6  C   UNL     1      17.968  26.566  31.875  1.00  0.00     0.028 C 
BRANCH   6   7
ATOM      7  C   UNL     1      17.002  27.588  31.332  1.00  0.00    -0.028 C 
ATOM      8  C   UNL     1      16.306  28.466  32.090  1.00  0.00    -0.070 CG0
ATOM      9  C   UNL     1      15.390  29.440  31.391  1.00  0.00     0.039 C 
ATOM     10  G   UNL     1      16.375  28.492  33.608  1.00  0.00     0.000 G0
ENDBRANCH   6   7
ENDBRANCH   5   6
ENDBRANCH   3   5
ENDBRANCH   1   3
BRANCH   1  11
ATOM     11  C   UNL     1      14.960  25.724  34.578  1.00  0.00     0.087 C 
BRANCH  11  12
ATOM     12  C   UNL     1      14.215  27.011  34.121  1.00  0.00     0.066 C 
BRANCH  12  13
ATOM     13  C   UNL     1      15.025  28.297  34.263  1.00  0.00     0.140 C 
ATOM     14  O   UNL     1      14.581  29.180  34.986  1.00  0.00    -0.299 OA
BRANCH  13  15
ATOM     15  C   UNL     1      16.374  28.505  33.613  1.00  0.00     0.106 CG0
ATOM     16  G   UNL     1      16.291  28.452  32.095  1.00  0.00     0.000 G0
ENDBRANCH  13  15
ENDBRANCH  12  13
BRANCH  12  17
ATOM     17  C   UNL     1      12.704  27.099  34.518  1.00  0.00    -0.006 C 
ATOM     18  C   UNL     1      11.752  27.591  33.419  1.00  0.00     0.008 C 
ATOM     19  C   UNL     1      12.195  25.774  35.113  1.00  0.00     0.008 C 
ENDBRANCH  12  17
ENDBRANCH  11  12
ENDBRANCH   1  11
TORSDOF 1
ENDMDL
MODEL 9
REMARK VINA RESULT:    -2.602      5.945      7.646
REMARK INTER + INTRA:          -4.127
REMARK INTER:                  -3.924
REMARK INTRA:                  -0.202
REMARK UNBOUND:                -0.155
REMARK SMILES CC1=CCC[C@H](C)C(=O)C[C@@H](C(C)C)C(=O)C1
REMARK SMILES IDX 8 1 9 2 6 3 7 4 5 5 4 6 3 7 2 8 1 9 10 11 11 12 15 13 16 14
REMARK SMILES IDX 17 15 12 17 13 18 14 19
REMARK H PARENT
REMARK Flexibility Score: 70.00
ROOT
ATOM      1  C   UNL     1      13.834  26.352  26.749  1.00  0.00     0.136 C 
ATOM      2  O   UNL     1      13.987  25.446  27.553  1.00  0.00    -0.299 OA
ENDROOT
BRANCH   1   3
ATOM      3  C   UNL     1      14.192  26.086  25.294  1.00  0.00     0.053 C 
ATOM      4  C   UNL     1      13.130  26.637  24.329  1.00  0.00     0.016 C 
BRANCH   3   5
ATOM      5  C   UNL     1      15.594  26.630  24.956  1.00  0.00     0.015 C 
BRANCH   5   6
ATOM      6  C   UNL     1      16.599  26.372  26.097  1.00  0.00     0.028 C 
BRANCH   6   7
ATOM      7  C   UNL     1      17.490  27.562  26.351  1.00  0.00    -0.028 C 
ATOM      8  C   UNL     1      17.373  28.396  27.409  1.00  0.00    -0.070 CG0
ATOM      9  C   UNL     1      18.356  29.533  27.531  1.00  0.00     0.039 C 
ATOM     10  G   UNL     1      16.280  28.263  28.458  1.00  0.00     0.000 G0
ENDBRANCH   6   7
ENDBRANCH   5   6
ENDBRANCH   3   5
ENDBRANCH   1   3
BRANCH   1  11
ATOM     11  C   UNL     1      13.232  27.666  27.214  1.00  0.00     0.087 C 
BRANCH  11  12
ATOM     12  C   UNL     1      14.104  28.944  27.060  1.00  0.00     0.066 C 
BRANCH  12  13
ATOM     13  C   UNL     1      15.096  29.177  28.197  1.00  0.00     0.140 C 
ATOM     14  O   UNL     1      14.891  30.117  28.954  1.00  0.00    -0.299 OA
BRANCH  13  15
ATOM     15  C   UNL     1      16.271  28.267  28.473  1.00  0.00     0.106 CG0
ATOM     16  G   UNL     1      17.357  28.401  27.417  1.00  0.00     0.000 G0
ENDBRANCH  13  15
ENDBRANCH  12  13
BRANCH  12  17
ATOM     17  C   UNL     1      13.362  30.212  26.519  1.00  0.00    -0.006 C 
ATOM     18  C   UNL     1      13.670  30.599  25.067  1.00  0.00     0.008 C 
ATOM     19  C   UNL     1      11.841  30.116  26.736  1.00  0.00     0.008 C 
ENDBRANCH  12  17
ENDBRANCH  11  12
ENDBRANCH   1  11
TORSDOF 1
ENDMDL
