MODEL 1
REMARK VINA RESULT:    -4.958      0.000      0.000
REMARK INTER + INTRA:          -8.302
REMARK INTER:                  -7.567
REMARK INTRA:                  -0.734
REMARK UNBOUND:                -0.734
REMARK SMILES O=C([O-])CCCCCCCCC(=O)[O-]
REMARK SMILES IDX 7 1 6 2 5 3 4 4 2 5 1 6 3 7 8 8 9 9 10 10 11 11 12 12 13 13
REMARK SMILES IDX 14 14
REMARK H PARENT
REMARK Flexibility Score: inf
ROOT
ATOM      1  C   UNL     1     104.745  25.485 197.170  1.00  0.00     0.000 C 
ENDROOT
BRANCH   1   2
ATOM      2  C   UNL     1     103.246  25.155 197.069  1.00  0.00     0.000 C 
BRANCH   2   3
ATOM      3  C   UNL     1     102.798  24.098 198.096  1.00  0.00     0.006 C 
BRANCH   3   4
ATOM      4  C   UNL     1     103.901  23.110 198.511  1.00  0.00     0.053 C 
BRANCH   4   5
ATOM      5  C   UNL     1     104.242  23.228 199.964  1.00  0.00     0.041 C 
ATOM      6  O   UNL     1     105.442  23.348 200.326  1.00  0.00    -0.550 OA
ATOM      7  O   UNL     1     103.236  23.174 200.921  1.00  0.00    -0.550 OA
ENDBRANCH   4   5
ENDBRANCH   3   4
ENDBRANCH   2   3
ENDBRANCH   1   2
BRANCH   1   8
ATOM      8  C   UNL     1     105.555  24.914 195.995  1.00  0.00     0.000 C 
BRANCH   8   9
ATOM      9  C   UNL     1     104.674  24.528 194.797  1.00  0.00     0.000 C 
BRANCH   9  10
ATOM     10  C   UNL     1     104.848  23.043 194.445  1.00  0.00     0.006 C 
BRANCH  10  11
ATOM     11  C   UNL     1     103.763  22.542 193.482  1.00  0.00     0.053 C 
BRANCH  11  12
ATOM     12  C   UNL     1     102.469  22.277 194.190  1.00  0.00     0.041 C 
ATOM     13  O   UNL     1     102.471  21.776 195.345  1.00  0.00    -0.550 OA
ATOM     14  O   UNL     1     101.262  22.553 193.561  1.00  0.00    -0.550 OA
ENDBRANCH  11  12
ENDBRANCH  10  11
ENDBRANCH   9  10
ENDBRANCH   8   9
ENDBRANCH   1   8
TORSDOF 9
ENDMDL
MODEL 2
REMARK VINA RESULT:    -4.814      1.033      5.183
REMARK INTER + INTRA:          -8.081
REMARK INTER:                  -7.511
REMARK INTRA:                  -0.570
REMARK UNBOUND:                -0.734
REMARK SMILES O=C([O-])CCCCCCCCC(=O)[O-]
REMARK SMILES IDX 7 1 6 2 5 3 4 4 2 5 1 6 3 7 8 8 9 9 10 10 11 11 12 12 13 13
REMARK SMILES IDX 14 14
REMARK H PARENT
REMARK Flexibility Score: inf
ROOT
ATOM      1  C   UNL     1     105.716  24.961 196.094  1.00  0.00     0.000 C 
ENDROOT
BRANCH   1   2
ATOM      2  C   UNL     1     104.805  24.688 194.886  1.00  0.00     0.000 C 
BRANCH   2   3
ATOM      3  C   UNL     1     104.752  23.197 194.503  1.00  0.00     0.006 C 
BRANCH   3   4
ATOM      4  C   UNL     1     103.637  22.838 193.507  1.00  0.00     0.053 C 
BRANCH   4   5
ATOM      5  C   UNL     1     102.430  22.279 194.194  1.00  0.00     0.041 C 
ATOM      6  O   UNL     1     102.551  21.662 195.285  1.00  0.00    -0.550 OA
ATOM      7  O   UNL     1     101.175  22.411 193.612  1.00  0.00    -0.550 OA
ENDBRANCH   4   5
ENDBRANCH   3   4
ENDBRANCH   2   3
ENDBRANCH   1   2
BRANCH   1   8
ATOM      8  C   UNL     1     104.931  25.419 197.334  1.00  0.00     0.000 C 
BRANCH   8   9
ATOM      9  C   UNL     1     103.442  25.047 197.265  1.00  0.00     0.000 C 
BRANCH   9  10
ATOM     10  C   UNL     1     103.148  23.803 198.118  1.00  0.00     0.006 C 
BRANCH  10  11
ATOM     11  C   UNL     1     101.730  23.822 198.705  1.00  0.00     0.053 C 
BRANCH  11  12
ATOM     12  C   UNL     1     101.733  23.551 200.178  1.00  0.00     0.041 C 
ATOM     13  O   UNL     1     100.720  23.824 200.874  1.00  0.00    -0.550 OA
ATOM     14  O   UNL     1     102.867  23.028 200.787  1.00  0.00    -0.550 OA
ENDBRANCH  11  12
ENDBRANCH  10  11
ENDBRANCH   9  10
ENDBRANCH   8   9
ENDBRANCH   1   8
TORSDOF 9
ENDMDL
MODEL 3
REMARK VINA RESULT:    -4.768      2.923      4.063
REMARK INTER + INTRA:          -8.011
REMARK INTER:                  -7.240
REMARK INTRA:                  -0.771
REMARK UNBOUND:                -0.734
REMARK SMILES O=C([O-])CCCCCCCCC(=O)[O-]
REMARK SMILES IDX 7 1 6 2 5 3 4 4 2 5 1 6 3 7 8 8 9 9 10 10 11 11 12 12 13 13
REMARK SMILES IDX 14 14
REMARK H PARENT
REMARK Flexibility Score: inf
ROOT
ATOM      1  C   UNL     1     103.203  21.760 195.907  1.00  0.00     0.000 C 
ENDROOT
BRANCH   1   2
ATOM      2  C   UNL     1     102.740  22.571 197.129  1.00  0.00     0.000 C 
BRANCH   2   3
ATOM      3  C   UNL     1     103.704  23.718 197.484  1.00  0.00     0.006 C 
BRANCH   3   4
ATOM      4  C   UNL     1     103.472  25.012 196.686  1.00  0.00     0.053 C 
BRANCH   4   5
ATOM      5  C   UNL     1     104.758  25.695 196.339  1.00  0.00     0.041 C 
ATOM      6  O   UNL     1     105.119  25.794 195.136  1.00  0.00    -0.550 OA
ATOM      7  O   UNL     1     105.573  26.197 197.346  1.00  0.00    -0.550 OA
ENDBRANCH   4   5
ENDBRANCH   3   4
ENDBRANCH   2   3
ENDBRANCH   1   2
BRANCH   1   8
ATOM      8  C   UNL     1     102.359  22.045 194.654  1.00  0.00     0.000 C 
BRANCH   8   9
ATOM      9  C   UNL     1     103.184  22.643 193.505  1.00  0.00     0.000 C 
BRANCH   9  10
ATOM     10  C   UNL     1     104.689  22.507 193.782  1.00  0.00     0.006 C 
BRANCH  10  11
ATOM     11  C   UNL     1     105.370  21.522 192.822  1.00  0.00     0.053 C 
BRANCH  11  12
ATOM     12  C   UNL     1     106.636  20.968 193.398  1.00  0.00     0.041 C 
ATOM     13  O   UNL     1     106.671  20.583 194.597  1.00  0.00    -0.550 OA
ATOM     14  O   UNL     1     107.787  20.907 192.623  1.00  0.00    -0.550 OA
ENDBRANCH  11  12
ENDBRANCH  10  11
ENDBRANCH   9  10
ENDBRANCH   8   9
ENDBRANCH   1   8
TORSDOF 9
ENDMDL
MODEL 4
REMARK VINA RESULT:    -4.761      2.299      5.491
REMARK INTER + INTRA:          -8.000
REMARK INTER:                  -7.401
REMARK INTRA:                  -0.599
REMARK UNBOUND:                -0.734
REMARK SMILES O=C([O-])CCCCCCCCC(=O)[O-]
REMARK SMILES IDX 7 1 6 2 5 3 4 4 2 5 1 6 3 7 8 8 9 9 10 10 11 11 12 12 13 13
REMARK SMILES IDX 14 14
REMARK H PARENT
REMARK Flexibility Score: inf
ROOT
ATOM      1  C   UNL     1     105.534  25.343 195.854  1.00  0.00     0.000 C 
ENDROOT
BRANCH   1   2
ATOM      2  C   UNL     1     104.856  24.324 194.923  1.00  0.00     0.000 C 
BRANCH   2   3
ATOM      3  C   UNL     1     105.400  22.895 195.105  1.00  0.00     0.006 C 
BRANCH   3   4
ATOM      4  C   UNL     1     105.376  22.041 193.827  1.00  0.00     0.053 C 
BRANCH   4   5
ATOM      5  C   UNL     1     106.585  21.166 193.714  1.00  0.00     0.041 C 
ATOM      6  O   UNL     1     107.037  20.852 192.581  1.00  0.00    -0.550 OA
ATOM      7  O   UNL     1     107.196  20.671 194.859  1.00  0.00    -0.550 OA
ENDBRANCH   4   5
ENDBRANCH   3   4
ENDBRANCH   2   3
ENDBRANCH   1   2
BRANCH   1   8
ATOM      8  C   UNL     1     104.760  25.550 197.166  1.00  0.00     0.000 C 
BRANCH   8   9
ATOM      9  C   UNL     1     103.292  25.108 197.066  1.00  0.00     0.000 C 
BRANCH   9  10
ATOM     10  C   UNL     1     102.947  24.104 198.176  1.00  0.00     0.006 C 
BRANCH  10  11
ATOM     11  C   UNL     1     104.124  23.177 198.509  1.00  0.00     0.053 C 
BRANCH  11  12
ATOM     12  C   UNL     1     104.469  23.216 199.966  1.00  0.00     0.041 C 
ATOM     13  O   UNL     1     103.557  23.177 200.834  1.00  0.00    -0.550 OA
ATOM     14  O   UNL     1     105.794  23.328 200.365  1.00  0.00    -0.550 OA
ENDBRANCH  11  12
ENDBRANCH  10  11
ENDBRANCH   9  10
ENDBRANCH   8   9
ENDBRANCH   1   8
TORSDOF 9
ENDMDL
MODEL 5
REMARK VINA RESULT:    -4.703      1.675      4.315
REMARK INTER + INTRA:          -7.912
REMARK INTER:                  -6.795
REMARK INTRA:                  -1.116
REMARK UNBOUND:                -0.734
REMARK SMILES O=C([O-])CCCCCCCCC(=O)[O-]
REMARK SMILES IDX 7 1 6 2 5 3 4 4 2 5 1 6 3 7 8 8 9 9 10 10 11 11 12 12 13 13
REMARK SMILES IDX 14 14
REMARK H PARENT
REMARK Flexibility Score: inf
ROOT
ATOM      1  C   UNL     1     104.585  22.227 193.853  1.00  0.00     0.000 C 
ENDROOT
BRANCH   1   2
ATOM      2  C   UNL     1     103.318  22.912 193.313  1.00  0.00     0.000 C 
BRANCH   2   3
ATOM      3  C   UNL     1     102.024  22.194 193.740  1.00  0.00     0.006 C 
BRANCH   3   4
ATOM      4  C   UNL     1     101.563  22.516 195.171  1.00  0.00     0.053 C 
BRANCH   4   5
ATOM      5  C   UNL     1     101.640  21.320 196.068  1.00  0.00     0.041 C 
ATOM      6  O   UNL     1     102.735  20.990 196.594  1.00  0.00    -0.550 OA
ATOM      7  O   UNL     1     100.506  20.551 196.299  1.00  0.00    -0.550 OA
ENDBRANCH   4   5
ENDBRANCH   3   4
ENDBRANCH   2   3
ENDBRANCH   1   2
BRANCH   1   8
ATOM      8  C   UNL     1     105.315  23.079 194.904  1.00  0.00     0.000 C 
BRANCH   8   9
ATOM      9  C   UNL     1     104.932  24.565 194.834  1.00  0.00     0.000 C 
BRANCH   9  10
ATOM     10  C   UNL     1     104.911  25.191 196.237  1.00  0.00     0.006 C 
BRANCH  10  11
ATOM     11  C   UNL     1     103.494  25.256 196.824  1.00  0.00     0.053 C 
BRANCH  11  12
ATOM     12  C   UNL     1     103.296  24.247 197.912  1.00  0.00     0.041 C 
ATOM     13  O   UNL     1     104.262  23.541 198.306  1.00  0.00    -0.550 OA
ATOM     14  O   UNL     1     102.037  24.061 198.469  1.00  0.00    -0.550 OA
ENDBRANCH  11  12
ENDBRANCH  10  11
ENDBRANCH   9  10
ENDBRANCH   8   9
ENDBRANCH   1   8
TORSDOF 9
ENDMDL
MODEL 6
REMARK VINA RESULT:    -4.701      2.795      6.006
REMARK INTER + INTRA:          -7.908
REMARK INTER:                  -7.574
REMARK INTRA:                  -0.334
REMARK UNBOUND:                -0.734
REMARK SMILES O=C([O-])CCCCCCCCC(=O)[O-]
REMARK SMILES IDX 7 1 6 2 5 3 4 4 2 5 1 6 3 7 8 8 9 9 10 10 11 11 12 12 13 13
REMARK SMILES IDX 14 14
REMARK H PARENT
REMARK Flexibility Score: inf
ROOT
ATOM      1  C   UNL     1     102.251  22.179 194.251  1.00  0.00     0.000 C 
ENDROOT
BRANCH   1   2
ATOM      2  C   UNL     1     103.431  22.812 193.494  1.00  0.00     0.000 C 
BRANCH   2   3
ATOM      3  C   UNL     1     104.796  22.260 193.947  1.00  0.00     0.006 C 
BRANCH   3   4
ATOM      4  C   UNL     1     105.503  21.383 192.900  1.00  0.00     0.053 C 
BRANCH   4   5
ATOM      5  C   UNL     1     106.867  20.962 193.350  1.00  0.00     0.041 C 
ATOM      6  O   UNL     1     107.814  20.891 192.523  1.00  0.00    -0.550 OA
ATOM      7  O   UNL     1     107.085  20.617 194.678  1.00  0.00    -0.550 OA
ENDBRANCH   4   5
ENDBRANCH   3   4
ENDBRANCH   2   3
ENDBRANCH   1   2
BRANCH   1   8
ATOM      8  C   UNL     1     102.436  22.224 195.776  1.00  0.00     0.000 C 
BRANCH   8   9
ATOM      9  C   UNL     1     102.006  23.566 196.387  1.00  0.00     0.000 C 
BRANCH   9  10
ATOM     10  C   UNL     1     102.457  23.670 197.852  1.00  0.00     0.006 C 
BRANCH  10  11
ATOM     11  C   UNL     1     101.523  22.912 198.804  1.00  0.00     0.053 C 
BRANCH  11  12
ATOM     12  C   UNL     1     101.718  23.332 200.228  1.00  0.00     0.041 C 
ATOM     13  O   UNL     1     100.768  23.850 200.871  1.00  0.00    -0.550 OA
ATOM     14  O   UNL     1     102.959  23.182 200.835  1.00  0.00    -0.550 OA
ENDBRANCH  11  12
ENDBRANCH  10  11
ENDBRANCH   9  10
ENDBRANCH   8   9
ENDBRANCH   1   8
TORSDOF 9
ENDMDL
MODEL 7
REMARK VINA RESULT:    -4.693      1.208      2.351
REMARK INTER + INTRA:          -7.896
REMARK INTER:                  -7.054
REMARK INTRA:                  -0.842
REMARK UNBOUND:                -0.734
REMARK SMILES O=C([O-])CCCCCCCCC(=O)[O-]
REMARK SMILES IDX 7 1 6 2 5 3 4 4 2 5 1 6 3 7 8 8 9 9 10 10 11 11 12 12 13 13
REMARK SMILES IDX 14 14
REMARK H PARENT
REMARK Flexibility Score: inf
ROOT
ATOM      1  C   UNL     1     104.825  24.252 194.905  1.00  0.00     0.000 C 
ENDROOT
BRANCH   1   2
ATOM      2  C   UNL     1     105.752  24.869 195.966  1.00  0.00     0.000 C 
BRANCH   2   3
ATOM      3  C   UNL     1     104.989  25.360 197.212  1.00  0.00     0.006 C 
BRANCH   3   4
ATOM      4  C   UNL     1     104.070  24.304 197.848  1.00  0.00     0.053 C 
BRANCH   4   5
ATOM      5  C   UNL     1     104.840  23.294 198.641  1.00  0.00     0.041 C 
ATOM      6  O   UNL     1     105.327  23.604 199.760  1.00  0.00    -0.550 OA
ATOM      7  O   UNL     1     105.045  22.019 198.130  1.00  0.00    -0.550 OA
ENDBRANCH   4   5
ENDBRANCH   3   4
ENDBRANCH   2   3
ENDBRANCH   1   2
BRANCH   1   8
ATOM      8  C   UNL     1     105.204  22.802 194.562  1.00  0.00     0.000 C 
BRANCH   8   9
ATOM      9  C   UNL     1     104.335  22.210 193.442  1.00  0.00     0.000 C 
BRANCH   9  10
ATOM     10  C   UNL     1     103.008  22.973 193.317  1.00  0.00     0.006 C 
BRANCH  10  11
ATOM     11  C   UNL     1     101.814  22.149 193.821  1.00  0.00     0.053 C 
BRANCH  11  12
ATOM     12  C   UNL     1     101.527  22.413 195.267  1.00  0.00     0.041 C 
ATOM     13  O   UNL     1     100.659  23.265 195.595  1.00  0.00    -0.550 OA
ATOM     14  O   UNL     1     102.241  21.744 196.253  1.00  0.00    -0.550 OA
ENDBRANCH  11  12
ENDBRANCH  10  11
ENDBRANCH   9  10
ENDBRANCH   8   9
ENDBRANCH   1   8
TORSDOF 9
ENDMDL
MODEL 8
REMARK VINA RESULT:    -4.680      3.164      3.893
REMARK INTER + INTRA:          -7.877
REMARK INTER:                  -7.141
REMARK INTRA:                  -0.736
REMARK UNBOUND:                -0.734
REMARK SMILES O=C([O-])CCCCCCCCC(=O)[O-]
REMARK SMILES IDX 7 1 6 2 5 3 4 4 2 5 1 6 3 7 8 8 9 9 10 10 11 11 12 12 13 13
REMARK SMILES IDX 14 14
REMARK H PARENT
REMARK Flexibility Score: inf
ROOT
ATOM      1  C   UNL     1     101.593  23.576 200.440  1.00  0.00     0.000 C 
ENDROOT
BRANCH   1   2
ATOM      2  C   UNL     1     103.021  23.167 200.839  1.00  0.00     0.000 C 
BRANCH   2   3
ATOM      3  C   UNL     1     104.002  23.190 199.652  1.00  0.00     0.006 C 
BRANCH   3   4
ATOM      4  C   UNL     1     105.484  23.254 200.056  1.00  0.00     0.053 C 
BRANCH   4   5
ATOM      5  C   UNL     1     106.309  22.241 199.325  1.00  0.00     0.041 C 
ATOM      6  O   UNL     1     107.476  21.973 199.716  1.00  0.00    -0.550 OA
ATOM      7  O   UNL     1     105.801  21.616 198.193  1.00  0.00    -0.550 OA
ENDBRANCH   4   5
ENDBRANCH   3   4
ENDBRANCH   2   3
ENDBRANCH   1   2
BRANCH   1   8
ATOM      8  C   UNL     1     101.456  23.846 198.933  1.00  0.00     0.000 C 
BRANCH   8   9
ATOM      9  C   UNL     1     100.492  22.871 198.240  1.00  0.00     0.000 C 
BRANCH   9  10
ATOM     10  C   UNL     1     100.911  22.631 196.782  1.00  0.00     0.006 C 
BRANCH  10  11
ATOM     11  C   UNL     1     102.244  21.877 196.676  1.00  0.00     0.053 C 
BRANCH  11  12
ATOM     12  C   UNL     1     102.100  20.436 197.055  1.00  0.00     0.041 C 
ATOM     13  O   UNL     1     102.965  19.883 197.784  1.00  0.00    -0.550 OA
ATOM     14  O   UNL     1     101.028  19.693 196.577  1.00  0.00    -0.550 OA
ENDBRANCH  11  12
ENDBRANCH  10  11
ENDBRANCH   9  10
ENDBRANCH   8   9
ENDBRANCH   1   8
TORSDOF 9
ENDMDL
MODEL 9
REMARK VINA RESULT:    -4.677      2.271      4.183
REMARK INTER + INTRA:          -7.873
REMARK INTER:                  -6.873
REMARK INTRA:                  -1.000
REMARK UNBOUND:                -0.734
REMARK SMILES O=C([O-])CCCCCCCCC(=O)[O-]
REMARK SMILES IDX 7 1 6 2 5 3 4 4 2 5 1 6 3 7 8 8 9 9 10 10 11 11 12 12 13 13
REMARK SMILES IDX 14 14
REMARK H PARENT
REMARK Flexibility Score: inf
ROOT
ATOM      1  C   UNL     1     102.855  22.891 193.399  1.00  0.00     0.000 C 
ENDROOT
BRANCH   1   2
ATOM      2  C   UNL     1     101.791  22.052 194.126  1.00  0.00     0.000 C 
BRANCH   2   3
ATOM      3  C   UNL     1     101.219  22.760 195.368  1.00  0.00     0.006 C 
BRANCH   3   4
ATOM      4  C   UNL     1     101.353  21.959 196.673  1.00  0.00     0.053 C 
BRANCH   4   5
ATOM      5  C   UNL     1     100.377  22.412 197.714  1.00  0.00     0.041 C 
ATOM      6  O   UNL     1      99.164  22.084 197.632  1.00  0.00    -0.550 OA
ATOM      7  O   UNL     1     100.801  23.225 198.758  1.00  0.00    -0.550 OA
ENDBRANCH   4   5
ENDBRANCH   3   4
ENDBRANCH   2   3
ENDBRANCH   1   2
BRANCH   1   8
ATOM      8  C   UNL     1     104.273  22.323 193.568  1.00  0.00     0.000 C 
BRANCH   8   9
ATOM      9  C   UNL     1     105.032  22.958 194.743  1.00  0.00     0.000 C 
BRANCH   9  10
ATOM     10  C   UNL     1     104.754  24.467 194.823  1.00  0.00     0.006 C 
BRANCH  10  11
ATOM     11  C   UNL     1     105.020  25.035 196.224  1.00  0.00     0.053 C 
BRANCH  11  12
ATOM     12  C   UNL     1     103.909  24.713 197.175  1.00  0.00     0.041 C 
ATOM     13  O   UNL     1     102.827  25.355 197.126  1.00  0.00    -0.550 OA
ATOM     14  O   UNL     1     104.080  23.726 198.138  1.00  0.00    -0.550 OA
ENDBRANCH  11  12
ENDBRANCH  10  11
ENDBRANCH   9  10
ENDBRANCH   8   9
ENDBRANCH   1   8
TORSDOF 9
ENDMDL
