MODEL 1
REMARK VINA RESULT:    -6.203      0.000      0.000
REMARK INTER + INTRA:          -6.968
REMARK INTER:                  -6.747
REMARK INTRA:                  -0.221
REMARK UNBOUND:                -0.221
REMARK SMILES CC1=CCC[C@@]2(C)CC[C@@H](C(C)(C)O)C[C@@H]12
REMARK SMILES IDX 11 1 12 2 13 3 10 4 1 5 2 6 3 7 16 8 4 9 6 10 15 11 5 12
REMARK SMILES IDX 7 13 8 14 9 15 14 16
REMARK H PARENT 14 17
REMARK Flexibility Score: inf
ROOT
ATOM      1  C   UNL     1     114.839 120.930 132.970  1.00  0.00     0.062 C 
ATOM      2  C   UNL     1     113.810 120.145 132.119  1.00  0.00     0.042 C 
ATOM      3  C   UNL     1     115.572 119.903 133.859  1.00  0.00     0.042 C 
ENDROOT
BRANCH   1   4
ATOM      4  C   UNL     1     115.905 121.737 132.119  1.00  0.00     0.021 C 
ATOM      5  C   UNL     1     115.165 118.832 128.968  1.00  0.00     0.039 C 
ATOM      6  C   UNL     1     114.720 120.280 128.889  1.00  0.00    -0.074 C 
ATOM      7  C   UNL     1     113.760 120.547 127.982  1.00  0.00    -0.028 C 
ATOM      8  C   UNL     1     115.561 121.431 129.479  1.00  0.00     0.021 C 
ATOM      9  C   UNL     1     113.529 121.935 127.483  1.00  0.00     0.028 C 
ATOM     10  C   UNL     1     114.867 122.878 129.458  1.00  0.00    -0.026 C 
ATOM     11  C   UNL     1     116.351 121.077 130.792  1.00  0.00     0.015 C 
ATOM     12  C   UNL     1     113.521 122.888 128.662  1.00  0.00     0.011 C 
ATOM     13  C   UNL     1     115.839 123.874 128.765  1.00  0.00     0.012 C 
ATOM     14  C   UNL     1     114.528 123.444 130.870  1.00  0.00     0.008 C 
ATOM     15  C   UNL     1     115.620 123.228 131.901  1.00  0.00     0.007 C 
ENDBRANCH   1   4
BRANCH   1  16
ATOM     16  O   UNL     1     114.164 121.798 133.854  1.00  0.00    -0.390 OA
ATOM     17  H   UNL     1     114.513 121.654 134.772  1.00  0.00     0.211 HD
ENDBRANCH   1  16
TORSDOF 2
ENDMDL
MODEL 2
REMARK VINA RESULT:    -6.063      1.869      4.071
REMARK INTER + INTRA:          -6.816
REMARK INTER:                  -6.552
REMARK INTRA:                  -0.264
REMARK UNBOUND:                -0.221
REMARK SMILES CC1=CCC[C@@]2(C)CC[C@@H](C(C)(C)O)C[C@@H]12
REMARK SMILES IDX 11 1 12 2 13 3 10 4 1 5 2 6 3 7 16 8 4 9 6 10 15 11 5 12
REMARK SMILES IDX 7 13 8 14 9 15 14 16
REMARK H PARENT 14 17
REMARK Flexibility Score: inf
ROOT
ATOM      1  C   UNL     1     116.268 124.716 129.529  1.00  0.00     0.062 C 
ATOM      2  C   UNL     1     116.441 123.793 128.299  1.00  0.00     0.042 C 
ATOM      3  C   UNL     1     115.837 126.101 129.000  1.00  0.00     0.042 C 
ENDROOT
BRANCH   1   4
ATOM      4  C   UNL     1     115.198 124.204 130.581  1.00  0.00     0.021 C 
ATOM      5  C   UNL     1     113.116 122.461 127.183  1.00  0.00     0.039 C 
ATOM      6  C   UNL     1     113.833 121.637 128.235  1.00  0.00    -0.074 C 
ATOM      7  C   UNL     1     114.126 120.370 127.883  1.00  0.00    -0.028 C 
ATOM      8  C   UNL     1     113.860 122.046 129.722  1.00  0.00     0.021 C 
ATOM      9  C   UNL     1     114.421 119.328 128.911  1.00  0.00     0.028 C 
ATOM     10  C   UNL     1     114.800 121.156 130.669  1.00  0.00    -0.026 C 
ATOM     11  C   UNL     1     113.904 123.597 129.988  1.00  0.00     0.015 C 
ATOM     12  C   UNL     1     115.379 119.903 129.935  1.00  0.00     0.011 C 
ATOM     13  C   UNL     1     113.948 120.655 131.869  1.00  0.00     0.012 C 
ATOM     14  C   UNL     1     116.034 121.917 131.243  1.00  0.00     0.008 C 
ATOM     15  C   UNL     1     115.724 123.323 131.720  1.00  0.00     0.007 C 
ENDBRANCH   1   4
BRANCH   1  16
ATOM     16  O   UNL     1     117.514 124.911 130.159  1.00  0.00    -0.390 OA
ATOM     17  H   UNL     1     118.125 124.175 129.893  1.00  0.00     0.211 HD
ENDBRANCH   1  16
TORSDOF 2
ENDMDL
MODEL 3
REMARK VINA RESULT:    -6.029      2.005      4.488
REMARK INTER + INTRA:          -6.778
REMARK INTER:                  -6.495
REMARK INTRA:                  -0.284
REMARK UNBOUND:                -0.221
REMARK SMILES CC1=CCC[C@@]2(C)CC[C@@H](C(C)(C)O)C[C@@H]12
REMARK SMILES IDX 11 1 12 2 13 3 10 4 1 5 2 6 3 7 16 8 4 9 6 10 15 11 5 12
REMARK SMILES IDX 7 13 8 14 9 15 14 16
REMARK H PARENT 14 17
REMARK Flexibility Score: inf
ROOT
ATOM      1  C   UNL     1     115.832 124.949 129.567  1.00  0.00     0.062 C 
ATOM      2  C   UNL     1     115.645 124.835 131.100  1.00  0.00     0.042 C 
ATOM      3  C   UNL     1     117.188 125.646 129.326  1.00  0.00     0.042 C 
ENDROOT
BRANCH   1   4
ATOM      4  C   UNL     1     115.817 123.560 128.805  1.00  0.00     0.021 C 
ATOM      5  C   UNL     1     117.876 121.955 132.284  1.00  0.00     0.039 C 
ATOM      6  C   UNL     1     116.439 121.615 131.934  1.00  0.00    -0.074 C 
ATOM      7  C   UNL     1     115.702 121.099 132.936  1.00  0.00    -0.028 C 
ATOM      8  C   UNL     1     115.963 121.468 130.474  1.00  0.00     0.021 C 
ATOM      9  C   UNL     1     114.452 120.329 132.662  1.00  0.00     0.028 C 
ATOM     10  C   UNL     1     114.383 121.272 130.278  1.00  0.00    -0.026 C 
ATOM     11  C   UNL     1     116.660 122.430 129.443  1.00  0.00     0.015 C 
ATOM     12  C   UNL     1     113.627 121.076 131.633  1.00  0.00     0.011 C 
ATOM     13  C   UNL     1     114.153 119.999 129.415  1.00  0.00     0.012 C 
ATOM     14  C   UNL     1     113.674 122.465 129.568  1.00  0.00     0.008 C 
ATOM     15  C   UNL     1     114.443 123.024 128.385  1.00  0.00     0.007 C 
ENDBRANCH   1   4
BRANCH   1  16
ATOM     16  O   UNL     1     114.852 125.809 129.030  1.00  0.00    -0.390 OA
ATOM     17  H   UNL     1     114.333 126.208 129.777  1.00  0.00     0.211 HD
ENDBRANCH   1  16
TORSDOF 2
ENDMDL
MODEL 4
REMARK VINA RESULT:    -5.960      1.840      4.357
REMARK INTER + INTRA:          -6.704
REMARK INTER:                  -6.424
REMARK INTRA:                  -0.280
REMARK UNBOUND:                -0.221
REMARK SMILES CC1=CCC[C@@]2(C)CC[C@@H](C(C)(C)O)C[C@@H]12
REMARK SMILES IDX 11 1 12 2 13 3 10 4 1 5 2 6 3 7 16 8 4 9 6 10 15 11 5 12
REMARK SMILES IDX 7 13 8 14 9 15 14 16
REMARK H PARENT 14 17
REMARK Flexibility Score: inf
ROOT
ATOM      1  C   UNL     1     114.041 123.029 128.769  1.00  0.00     0.062 C 
ATOM      2  C   UNL     1     115.584 123.027 128.637  1.00  0.00     0.042 C 
ATOM      3  C   UNL     1     113.467 122.637 127.390  1.00  0.00     0.042 C 
ENDROOT
BRANCH   1   4
ATOM      4  C   UNL     1     113.482 122.034 129.868  1.00  0.00     0.021 C 
ATOM      5  C   UNL     1     116.737 119.389 128.718  1.00  0.00     0.039 C 
ATOM      6  C   UNL     1     116.686 120.120 130.046  1.00  0.00    -0.074 C 
ATOM      7  C   UNL     1     117.858 120.221 130.702  1.00  0.00    -0.028 C 
ATOM      8  C   UNL     1     115.361 120.364 130.798  1.00  0.00     0.021 C 
ATOM      9  C   UNL     1     117.905 120.508 132.166  1.00  0.00     0.028 C 
ATOM     10  C   UNL     1     115.465 121.296 132.100  1.00  0.00    -0.026 C 
ATOM     11  C   UNL     1     114.108 120.619 129.881  1.00  0.00     0.015 C 
ATOM     12  C   UNL     1     116.944 121.638 132.479  1.00  0.00     0.011 C 
ATOM     13  C   UNL     1     114.830 120.534 133.297  1.00  0.00     0.012 C 
ATOM     14  C   UNL     1     114.737 122.668 131.965  1.00  0.00     0.008 C 
ATOM     15  C   UNL     1     113.377 122.581 131.297  1.00  0.00     0.007 C 
ENDBRANCH   1   4
BRANCH   1  16
ATOM     16  O   UNL     1     113.585 124.339 129.021  1.00  0.00    -0.390 OA
ATOM     17  H   UNL     1     113.791 124.907 128.233  1.00  0.00     0.211 HD
ENDBRANCH   1  16
TORSDOF 2
ENDMDL
MODEL 5
REMARK VINA RESULT:    -5.930      1.286      2.003
REMARK INTER + INTRA:          -6.671
REMARK INTER:                  -6.505
REMARK INTRA:                  -0.166
REMARK UNBOUND:                -0.221
REMARK SMILES CC1=CCC[C@@]2(C)CC[C@@H](C(C)(C)O)C[C@@H]12
REMARK SMILES IDX 11 1 12 2 13 3 10 4 1 5 2 6 3 7 16 8 4 9 6 10 15 11 5 12
REMARK SMILES IDX 7 13 8 14 9 15 14 16
REMARK H PARENT 14 17
REMARK Flexibility Score: inf
ROOT
ATOM      1  C   UNL     1     115.408 121.134 133.415  1.00  0.00     0.062 C 
ATOM      2  C   UNL     1     114.375 120.017 133.130  1.00  0.00     0.042 C 
ATOM      3  C   UNL     1     116.786 120.453 133.555  1.00  0.00     0.042 C 
ENDROOT
BRANCH   1   4
ATOM      4  C   UNL     1     115.489 122.247 132.289  1.00  0.00     0.021 C 
ATOM      5  C   UNL     1     118.186 119.541 130.210  1.00  0.00     0.039 C 
ATOM      6  C   UNL     1     116.778 119.845 129.734  1.00  0.00    -0.074 C 
ATOM      7  C   UNL     1     116.256 118.965 128.858  1.00  0.00    -0.028 C 
ATOM      8  C   UNL     1     116.141 121.241 129.892  1.00  0.00     0.021 C 
ATOM      9  C   UNL     1     115.102 119.332 127.985  1.00  0.00     0.028 C 
ATOM     10  C   UNL     1     114.592 121.346 129.488  1.00  0.00    -0.026 C 
ATOM     11  C   UNL     1     116.558 122.023 131.192  1.00  0.00     0.015 C 
ATOM     12  C   UNL     1     114.054 120.038 128.823  1.00  0.00     0.011 C 
ATOM     13  C   UNL     1     114.433 122.504 128.463  1.00  0.00     0.012 C 
ATOM     14  C   UNL     1     113.637 121.634 130.687  1.00  0.00     0.008 C 
ATOM     15  C   UNL     1     114.160 122.677 131.656  1.00  0.00     0.007 C 
ENDBRANCH   1   4
BRANCH   1  16
ATOM     16  O   UNL     1     115.138 121.727 134.666  1.00  0.00    -0.390 OA
ATOM     17  H   UNL     1     114.359 121.267 135.076  1.00  0.00     0.211 HD
ENDBRANCH   1  16
TORSDOF 2
ENDMDL
MODEL 6
REMARK VINA RESULT:    -5.609      3.616      5.742
REMARK INTER + INTRA:          -6.321
REMARK INTER:                  -6.025
REMARK INTRA:                  -0.296
REMARK UNBOUND:                -0.221
REMARK SMILES CC1=CCC[C@@]2(C)CC[C@@H](C(C)(C)O)C[C@@H]12
REMARK SMILES IDX 11 1 12 2 13 3 10 4 1 5 2 6 3 7 16 8 4 9 6 10 15 11 5 12
REMARK SMILES IDX 7 13 8 14 9 15 14 16
REMARK H PARENT 14 17
REMARK Flexibility Score: inf
ROOT
ATOM      1  C   UNL     1     118.543 127.312 130.279  1.00  0.00     0.062 C 
ATOM      2  C   UNL     1     119.289 125.977 130.520  1.00  0.00     0.042 C 
ATOM      3  C   UNL     1     119.452 128.184 129.386  1.00  0.00     0.042 C 
ENDROOT
BRANCH   1   4
ATOM      4  C   UNL     1     117.129 127.150 129.582  1.00  0.00     0.021 C 
ATOM      5  C   UNL     1     119.084 124.318 126.922  1.00  0.00     0.039 C 
ATOM      6  C   UNL     1     118.073 123.911 127.977  1.00  0.00    -0.074 C 
ATOM      7  C   UNL     1     118.079 122.608 128.318  1.00  0.00    -0.028 C 
ATOM      8  C   UNL     1     116.859 124.793 128.335  1.00  0.00     0.021 C 
ATOM      9  C   UNL     1     116.904 121.976 128.988  1.00  0.00     0.028 C 
ATOM     10  C   UNL     1     115.985 124.295 129.586  1.00  0.00    -0.026 C 
ATOM     11  C   UNL     1     117.114 126.344 128.261  1.00  0.00     0.015 C 
ATOM     12  C   UNL     1     116.423 122.886 130.102  1.00  0.00     0.011 C 
ATOM     13  C   UNL     1     114.501 124.199 129.135  1.00  0.00     0.012 C 
ATOM     14  C   UNL     1     116.049 125.238 130.826  1.00  0.00     0.008 C 
ATOM     15  C   UNL     1     115.968 126.714 130.484  1.00  0.00     0.007 C 
ENDBRANCH   1   4
BRANCH   1  16
ATOM     16  O   UNL     1     118.409 128.011 131.496  1.00  0.00    -0.390 OA
ATOM     17  H   UNL     1     118.005 128.899 131.313  1.00  0.00     0.211 HD
ENDBRANCH   1  16
TORSDOF 2
ENDMDL
MODEL 7
REMARK VINA RESULT:    -5.601      2.081      4.079
REMARK INTER + INTRA:          -6.313
REMARK INTER:                  -6.066
REMARK INTRA:                  -0.248
REMARK UNBOUND:                -0.221
REMARK SMILES CC1=CCC[C@@]2(C)CC[C@@H](C(C)(C)O)C[C@@H]12
REMARK SMILES IDX 11 1 12 2 13 3 10 4 1 5 2 6 3 7 16 8 4 9 6 10 15 11 5 12
REMARK SMILES IDX 7 13 8 14 9 15 14 16
REMARK H PARENT 14 17
REMARK Flexibility Score: inf
ROOT
ATOM      1  C   UNL     1     117.228 123.836 128.964  1.00  0.00     0.062 C 
ATOM      2  C   UNL     1     117.490 122.345 129.286  1.00  0.00     0.042 C 
ATOM      3  C   UNL     1     117.654 124.066 127.499  1.00  0.00     0.042 C 
ENDROOT
BRANCH   1   4
ATOM      4  C   UNL     1     115.719 124.285 129.145  1.00  0.00     0.021 C 
ATOM      5  C   UNL     1     114.681 120.172 128.188  1.00  0.00     0.039 C 
ATOM      6  C   UNL     1     114.521 120.772 129.571  1.00  0.00    -0.074 C 
ATOM      7  C   UNL     1     114.402 119.888 130.581  1.00  0.00    -0.028 C 
ATOM      8  C   UNL     1     114.106 122.243 129.785  1.00  0.00     0.021 C 
ATOM      9  C   UNL     1     113.818 120.286 131.895  1.00  0.00     0.028 C 
ATOM     10  C   UNL     1     114.146 122.760 131.303  1.00  0.00    -0.026 C 
ATOM     11  C   UNL     1     114.650 123.254 128.710  1.00  0.00     0.015 C 
ATOM     12  C   UNL     1     114.423 121.609 132.324  1.00  0.00     0.011 C 
ATOM     13  C   UNL     1     112.761 123.378 131.644  1.00  0.00     0.012 C 
ATOM     14  C   UNL     1     115.234 123.842 131.582  1.00  0.00     0.008 C 
ATOM     15  C   UNL     1     115.345 124.899 130.499  1.00  0.00     0.007 C 
ENDBRANCH   1   4
BRANCH   1  16
ATOM     16  O   UNL     1     118.075 124.649 129.747  1.00  0.00    -0.390 OA
ATOM     17  H   UNL     1     118.215 125.511 129.276  1.00  0.00     0.211 HD
ENDBRANCH   1  16
TORSDOF 2
ENDMDL
MODEL 8
REMARK VINA RESULT:    -5.589      1.342      2.171
REMARK INTER + INTRA:          -6.300
REMARK INTER:                  -6.170
REMARK INTRA:                  -0.131
REMARK UNBOUND:                -0.221
REMARK SMILES CC1=CCC[C@@]2(C)CC[C@@H](C(C)(C)O)C[C@@H]12
REMARK SMILES IDX 11 1 12 2 13 3 10 4 1 5 2 6 3 7 16 8 4 9 6 10 15 11 5 12
REMARK SMILES IDX 7 13 8 14 9 15 14 16
REMARK H PARENT 14 17
REMARK Flexibility Score: inf
ROOT
ATOM      1  C   UNL     1     114.915 121.113 133.009  1.00  0.00     0.062 C 
ATOM      2  C   UNL     1     113.739 120.154 132.701  1.00  0.00     0.042 C 
ATOM      3  C   UNL     1     115.174 121.041 134.529  1.00  0.00     0.042 C 
ENDROOT
BRANCH   1   4
ATOM      4  C   UNL     1     116.255 120.768 132.236  1.00  0.00     0.021 C 
ATOM      5  C   UNL     1     113.861 120.921 128.607  1.00  0.00     0.039 C 
ATOM      6  C   UNL     1     114.904 121.963 128.964  1.00  0.00    -0.074 C 
ATOM      7  C   UNL     1     114.802 123.136 128.310  1.00  0.00    -0.028 C 
ATOM      8  C   UNL     1     116.216 121.598 129.687  1.00  0.00     0.021 C 
ATOM      9  C   UNL     1     115.960 124.075 128.217  1.00  0.00     0.028 C 
ATOM     10  C   UNL     1     117.128 122.839 130.137  1.00  0.00    -0.026 C 
ATOM     11  C   UNL     1     116.100 120.428 130.734  1.00  0.00     0.015 C 
ATOM     12  C   UNL     1     116.601 124.204 129.585  1.00  0.00     0.011 C 
ATOM     13  C   UNL     1     118.561 122.619 129.576  1.00  0.00     0.012 C 
ATOM     14  C   UNL     1     117.241 123.024 131.681  1.00  0.00     0.008 C 
ATOM     15  C   UNL     1     117.432 121.727 132.445  1.00  0.00     0.007 C 
ENDBRANCH   1   4
BRANCH   1  16
ATOM     16  O   UNL     1     114.528 122.443 132.743  1.00  0.00    -0.390 OA
ATOM     17  H   UNL     1     114.022 122.791 133.522  1.00  0.00     0.211 HD
ENDBRANCH   1  16
TORSDOF 2
ENDMDL
MODEL 9
REMARK VINA RESULT:    -5.472      2.742      4.455
REMARK INTER + INTRA:          -6.173
REMARK INTER:                  -5.909
REMARK INTRA:                  -0.264
REMARK UNBOUND:                -0.221
REMARK SMILES CC1=CCC[C@@]2(C)CC[C@@H](C(C)(C)O)C[C@@H]12
REMARK SMILES IDX 11 1 12 2 13 3 10 4 1 5 2 6 3 7 16 8 4 9 6 10 15 11 5 12
REMARK SMILES IDX 7 13 8 14 9 15 14 16
REMARK H PARENT 14 17
REMARK Flexibility Score: inf
ROOT
ATOM      1  C   UNL     1     114.574 123.055 130.009  1.00  0.00     0.062 C 
ATOM      2  C   UNL     1     114.884 123.345 128.520  1.00  0.00     0.042 C 
ATOM      3  C   UNL     1     114.361 121.532 130.141  1.00  0.00     0.042 C 
ENDROOT
BRANCH   1   4
ATOM      4  C   UNL     1     115.715 123.510 131.011  1.00  0.00     0.021 C 
ATOM      5  C   UNL     1     118.497 122.657 127.779  1.00  0.00     0.039 C 
ATOM      6  C   UNL     1     118.182 124.061 128.260  1.00  0.00    -0.074 C 
ATOM      7  C   UNL     1     118.502 125.054 127.409  1.00  0.00    -0.028 C 
ATOM      8  C   UNL     1     117.912 124.379 129.745  1.00  0.00     0.021 C 
ATOM      9  C   UNL     1     118.662 126.461 127.884  1.00  0.00     0.028 C 
ATOM     10  C   UNL     1     117.431 125.877 130.057  1.00  0.00    -0.026 C 
ATOM     11  C   UNL     1     117.167 123.247 130.547  1.00  0.00     0.015 C 
ATOM     12  C   UNL     1     117.506 126.806 128.801  1.00  0.00     0.011 C 
ATOM     13  C   UNL     1     118.366 126.472 131.147  1.00  0.00     0.012 C 
ATOM     14  C   UNL     1     115.964 125.984 130.574  1.00  0.00     0.008 C 
ATOM     15  C   UNL     1     115.591 124.924 131.593  1.00  0.00     0.007 C 
ENDBRANCH   1   4
BRANCH   1  16
ATOM     16  O   UNL     1     113.347 123.652 130.366  1.00  0.00    -0.390 OA
ATOM     17  H   UNL     1     113.518 124.585 130.658  1.00  0.00     0.211 HD
ENDBRANCH   1  16
TORSDOF 2
ENDMDL
