MODEL 1
REMARK VINA RESULT:    -4.058      0.000      0.000
REMARK INTER + INTRA:          -5.827
REMARK INTER:                  -5.481
REMARK INTRA:                  -0.346
REMARK UNBOUND:                -0.346
REMARK SMILES CCCCCCCC(=O)[O-]
REMARK SMILES IDX 5 1 6 2 7 3 8 4 9 5 10 6 4 7 3 8 2 9 1 10
REMARK H PARENT
REMARK Flexibility Score: inf
ROOT
ATOM      1  C   UNL     1      14.431 -30.241  21.676  1.00  0.00     0.000 C 
ENDROOT
BRANCH   1   2
ATOM      2  C   UNL     1      13.440 -31.411  21.574  1.00  0.00     0.006 C 
BRANCH   2   3
ATOM      3  C   UNL     1      13.867 -32.459  20.539  1.00  0.00     0.053 C 
BRANCH   3   4
ATOM      4  C   UNL     1      14.719 -33.507  21.179  1.00  0.00     0.041 C 
ATOM      5  O   UNL     1      15.198 -34.444  20.487  1.00  0.00    -0.550 OA
ATOM      6  O   UNL     1      14.946 -33.479  22.549  1.00  0.00    -0.550 OA
ENDBRANCH   3   4
ENDBRANCH   2   3
ENDBRANCH   1   2
BRANCH   1   7
ATOM      7  C   UNL     1      14.497 -29.641  23.089  1.00  0.00     0.000 C 
BRANCH   7   8
ATOM      8  C   UNL     1      13.207 -29.936  23.870  1.00  0.00    -0.000 C 
BRANCH   8   9
ATOM      9  C   UNL     1      12.395 -28.667  24.171  1.00  0.00    -0.003 C 
ATOM     10  C   UNL     1      11.186 -28.506  23.250  1.00  0.00     0.004 C 
ENDBRANCH   8   9
ENDBRANCH   7   8
ENDBRANCH   1   7
TORSDOF 6
ENDMDL
MODEL 2
REMARK VINA RESULT:    -4.021      1.275      2.101
REMARK INTER + INTRA:          -5.777
REMARK INTER:                  -5.541
REMARK INTRA:                  -0.236
REMARK UNBOUND:                -0.346
REMARK SMILES CCCCCCCC(=O)[O-]
REMARK SMILES IDX 5 1 6 2 7 3 8 4 9 5 10 6 4 7 3 8 2 9 1 10
REMARK H PARENT
REMARK Flexibility Score: inf
ROOT
ATOM      1  C   UNL     1      13.344 -31.695  20.696  1.00  0.00     0.000 C 
ENDROOT
BRANCH   1   2
ATOM      2  C   UNL     1      14.244 -32.830  21.210  1.00  0.00     0.006 C 
BRANCH   2   3
ATOM      3  C   UNL     1      14.666 -33.798  20.098  1.00  0.00     0.053 C 
BRANCH   3   4
ATOM      4  C   UNL     1      15.603 -34.833  20.636  1.00  0.00     0.041 C 
ATOM      5  O   UNL     1      16.010 -34.763  21.826  1.00  0.00    -0.550 OA
ATOM      6  O   UNL     1      16.066 -35.848  19.810  1.00  0.00    -0.550 OA
ENDBRANCH   3   4
ENDBRANCH   2   3
ENDBRANCH   1   2
BRANCH   1   7
ATOM      7  C   UNL     1      12.574 -30.992  21.825  1.00  0.00     0.000 C 
BRANCH   7   8
ATOM      8  C   UNL     1      13.246 -31.240  23.184  1.00  0.00    -0.000 C 
BRANCH   8   9
ATOM      9  C   UNL     1      13.609 -29.935  23.910  1.00  0.00    -0.003 C 
ATOM     10  C   UNL     1      12.457 -28.931  23.933  1.00  0.00     0.004 C 
ENDBRANCH   8   9
ENDBRANCH   7   8
ENDBRANCH   1   7
TORSDOF 6
ENDMDL
MODEL 3
REMARK VINA RESULT:    -3.825      2.014      3.130
REMARK INTER + INTRA:          -5.513
REMARK INTER:                  -5.247
REMARK INTRA:                  -0.266
REMARK UNBOUND:                -0.346
REMARK SMILES CCCCCCCC(=O)[O-]
REMARK SMILES IDX 5 1 6 2 7 3 8 4 9 5 10 6 4 7 3 8 2 9 1 10
REMARK H PARENT
REMARK Flexibility Score: inf
ROOT
ATOM      1  C   UNL     1      14.654 -33.102  22.035  1.00  0.00     0.000 C 
ENDROOT
BRANCH   1   2
ATOM      2  C   UNL     1      15.416 -34.331  21.516  1.00  0.00     0.006 C 
BRANCH   2   3
ATOM      3  C   UNL     1      15.290 -34.507  19.998  1.00  0.00     0.053 C 
BRANCH   3   4
ATOM      4  C   UNL     1      16.556 -35.066  19.430  1.00  0.00     0.041 C 
ATOM      5  O   UNL     1      17.428 -34.296  18.946  1.00  0.00    -0.550 OA
ATOM      6  O   UNL     1      16.753 -36.440  19.390  1.00  0.00    -0.550 OA
ENDBRANCH   3   4
ENDBRANCH   2   3
ENDBRANCH   1   2
BRANCH   1   7
ATOM      7  C   UNL     1      13.901 -32.357  20.922  1.00  0.00     0.000 C 
BRANCH   7   8
ATOM      8  C   UNL     1      13.089 -31.187  21.498  1.00  0.00    -0.000 C 
BRANCH   8   9
ATOM      9  C   UNL     1      13.099 -31.161  23.034  1.00  0.00    -0.003 C 
ATOM     10  C   UNL     1      12.948 -29.750  23.603  1.00  0.00     0.004 C 
ENDBRANCH   8   9
ENDBRANCH   7   8
ENDBRANCH   1   7
TORSDOF 6
ENDMDL
MODEL 4
REMARK VINA RESULT:    -3.764      1.822      2.205
REMARK INTER + INTRA:          -5.430
REMARK INTER:                  -5.107
REMARK INTRA:                  -0.323
REMARK UNBOUND:                -0.346
REMARK SMILES CCCCCCCC(=O)[O-]
REMARK SMILES IDX 5 1 6 2 7 3 8 4 9 5 10 6 4 7 3 8 2 9 1 10
REMARK H PARENT
REMARK Flexibility Score: inf
ROOT
ATOM      1  C   UNL     1      13.843 -31.521  24.233  1.00  0.00     0.000 C 
ENDROOT
BRANCH   1   2
ATOM      2  C   UNL     1      14.365 -32.966  24.219  1.00  0.00     0.006 C 
BRANCH   2   3
ATOM      3  C   UNL     1      15.804 -33.070  23.698  1.00  0.00     0.053 C 
BRANCH   3   4
ATOM      4  C   UNL     1      15.895 -34.101  22.619  1.00  0.00     0.041 C 
ATOM      5  O   UNL     1      16.801 -34.975  22.652  1.00  0.00    -0.550 OA
ATOM      6  O   UNL     1      15.010 -34.069  21.550  1.00  0.00    -0.550 OA
ENDBRANCH   3   4
ENDBRANCH   2   3
ENDBRANCH   1   2
BRANCH   1   7
ATOM      7  C   UNL     1      14.492 -30.646  23.151  1.00  0.00     0.000 C 
BRANCH   7   8
ATOM      8  C   UNL     1      13.961 -29.205  23.219  1.00  0.00    -0.000 C 
BRANCH   8   9
ATOM      9  C   UNL     1      12.746 -29.068  24.150  1.00  0.00    -0.003 C 
ATOM     10  C   UNL     1      11.541 -28.431  23.459  1.00  0.00     0.004 C 
ENDBRANCH   8   9
ENDBRANCH   7   8
ENDBRANCH   1   7
TORSDOF 6
ENDMDL
MODEL 5
REMARK VINA RESULT:    -3.699      8.858     10.083
REMARK INTER + INTRA:          -5.342
REMARK INTER:                  -5.101
REMARK INTRA:                  -0.241
REMARK UNBOUND:                -0.346
REMARK SMILES CCCCCCCC(=O)[O-]
REMARK SMILES IDX 5 1 6 2 7 3 8 4 9 5 10 6 4 7 3 8 2 9 1 10
REMARK H PARENT
REMARK Flexibility Score: inf
ROOT
ATOM      1  C   UNL     1      20.284 -27.152  20.775  1.00  0.00     0.000 C 
ENDROOT
BRANCH   1   2
ATOM      2  C   UNL     1      20.773 -25.821  20.182  1.00  0.00     0.006 C 
BRANCH   2   3
ATOM      3  C   UNL     1      22.000 -25.263  20.913  1.00  0.00     0.053 C 
BRANCH   3   4
ATOM      4  C   UNL     1      23.106 -24.991  19.943  1.00  0.00     0.041 C 
ATOM      5  O   UNL     1      23.336 -25.795  19.002  1.00  0.00    -0.550 OA
ATOM      6  O   UNL     1      23.914 -23.874  20.107  1.00  0.00    -0.550 OA
ENDBRANCH   3   4
ENDBRANCH   2   3
ENDBRANCH   1   2
BRANCH   1   7
ATOM      7  C   UNL     1      21.403 -28.198  20.887  1.00  0.00     0.000 C 
BRANCH   7   8
ATOM      8  C   UNL     1      20.926 -29.430  21.672  1.00  0.00    -0.000 C 
BRANCH   8   9
ATOM      9  C   UNL     1      21.066 -30.732  20.869  1.00  0.00    -0.003 C 
ATOM     10  C   UNL     1      19.929 -31.717  21.135  1.00  0.00     0.004 C 
ENDBRANCH   8   9
ENDBRANCH   7   8
ENDBRANCH   1   7
TORSDOF 6
ENDMDL
MODEL 6
REMARK VINA RESULT:    -3.698      1.514      2.201
REMARK INTER + INTRA:          -5.341
REMARK INTER:                  -4.942
REMARK INTRA:                  -0.398
REMARK UNBOUND:                -0.346
REMARK SMILES CCCCCCCC(=O)[O-]
REMARK SMILES IDX 5 1 6 2 7 3 8 4 9 5 10 6 4 7 3 8 2 9 1 10
REMARK H PARENT
REMARK Flexibility Score: inf
ROOT
ATOM      1  C   UNL     1      15.066 -31.927  23.967  1.00  0.00     0.000 C 
ENDROOT
BRANCH   1   2
ATOM      2  C   UNL     1      15.792 -32.340  22.677  1.00  0.00     0.006 C 
BRANCH   2   3
ATOM      3  C   UNL     1      15.594 -33.822  22.336  1.00  0.00     0.053 C 
BRANCH   3   4
ATOM      4  C   UNL     1      14.996 -33.970  20.973  1.00  0.00     0.041 C 
ATOM      5  O   UNL     1      14.221 -33.084  20.522  1.00  0.00    -0.550 OA
ATOM      6  O   UNL     1      15.253 -35.107  20.220  1.00  0.00    -0.550 OA
ENDBRANCH   3   4
ENDBRANCH   2   3
ENDBRANCH   1   2
BRANCH   1   7
ATOM      7  C   UNL     1      13.546 -31.808  23.780  1.00  0.00     0.000 C 
BRANCH   7   8
ATOM      8  C   UNL     1      13.197 -30.626  22.861  1.00  0.00    -0.000 C 
BRANCH   8   9
ATOM      9  C   UNL     1      13.663 -29.278  23.433  1.00  0.00    -0.003 C 
ATOM     10  C   UNL     1      12.569 -28.561  24.224  1.00  0.00     0.004 C 
ENDBRANCH   8   9
ENDBRANCH   7   8
ENDBRANCH   1   7
TORSDOF 6
ENDMDL
MODEL 7
REMARK VINA RESULT:    -3.683      3.456      4.779
REMARK INTER + INTRA:          -5.321
REMARK INTER:                  -4.808
REMARK INTRA:                  -0.513
REMARK UNBOUND:                -0.346
REMARK SMILES CCCCCCCC(=O)[O-]
REMARK SMILES IDX 5 1 6 2 7 3 8 4 9 5 10 6 4 7 3 8 2 9 1 10
REMARK H PARENT
REMARK Flexibility Score: inf
ROOT
ATOM      1  C   UNL     1      13.554 -31.386  21.770  1.00  0.00     0.000 C 
ENDROOT
BRANCH   1   2
ATOM      2  C   UNL     1      12.455 -30.550  22.445  1.00  0.00     0.006 C 
BRANCH   2   3
ATOM      3  C   UNL     1      12.928 -29.896  23.749  1.00  0.00     0.053 C 
BRANCH   3   4
ATOM      4  C   UNL     1      12.496 -28.464  23.802  1.00  0.00     0.041 C 
ATOM      5  O   UNL     1      13.263 -27.588  24.282  1.00  0.00    -0.550 OA
ATOM      6  O   UNL     1      11.228 -28.104  23.366  1.00  0.00    -0.550 OA
ENDBRANCH   3   4
ENDBRANCH   2   3
ENDBRANCH   1   2
BRANCH   1   7
ATOM      7  C   UNL     1      14.697 -30.524  21.212  1.00  0.00     0.000 C 
BRANCH   7   8
ATOM      8  C   UNL     1      15.998 -30.770  21.991  1.00  0.00    -0.000 C 
BRANCH   8   9
ATOM      9  C   UNL     1      16.559 -29.487  22.623  1.00  0.00    -0.003 C 
ATOM     10  C   UNL     1      15.888 -28.222  22.090  1.00  0.00     0.004 C 
ENDBRANCH   8   9
ENDBRANCH   7   8
ENDBRANCH   1   7
TORSDOF 6
ENDMDL
MODEL 8
REMARK VINA RESULT:    -3.658      2.773      6.083
REMARK INTER + INTRA:          -5.287
REMARK INTER:                  -5.129
REMARK INTRA:                  -0.157
REMARK UNBOUND:                -0.346
REMARK SMILES CCCCCCCC(=O)[O-]
REMARK SMILES IDX 5 1 6 2 7 3 8 4 9 5 10 6 4 7 3 8 2 9 1 10
REMARK H PARENT
REMARK Flexibility Score: inf
ROOT
ATOM      1  C   UNL     1      15.091 -33.366  21.001  1.00  0.00     0.000 C 
ENDROOT
BRANCH   1   2
ATOM      2  C   UNL     1      13.860 -32.502  20.686  1.00  0.00     0.006 C 
BRANCH   2   3
ATOM      3  C   UNL     1      13.960 -31.091  21.279  1.00  0.00     0.053 C 
BRANCH   3   4
ATOM      4  C   UNL     1      12.861 -30.862  22.268  1.00  0.00     0.041 C 
ATOM      5  O   UNL     1      11.688 -30.635  21.870  1.00  0.00    -0.550 OA
ATOM      6  O   UNL     1      13.141 -30.850  23.628  1.00  0.00    -0.550 OA
ENDBRANCH   3   4
ENDBRANCH   2   3
ENDBRANCH   1   2
BRANCH   1   7
ATOM      7  C   UNL     1      15.159 -34.637  20.141  1.00  0.00     0.000 C 
BRANCH   7   8
ATOM      8  C   UNL     1      16.540 -34.780  19.481  1.00  0.00    -0.000 C 
BRANCH   8   9
ATOM      9  C   UNL     1      17.027 -36.236  19.442  1.00  0.00    -0.003 C 
ATOM     10  C   UNL     1      17.548 -36.723  20.794  1.00  0.00     0.004 C 
ENDBRANCH   8   9
ENDBRANCH   7   8
ENDBRANCH   1   7
TORSDOF 6
ENDMDL
MODEL 9
REMARK VINA RESULT:    -3.621      3.255      5.394
REMARK INTER + INTRA:          -5.237
REMARK INTER:                  -5.011
REMARK INTRA:                  -0.226
REMARK UNBOUND:                -0.346
REMARK SMILES CCCCCCCC(=O)[O-]
REMARK SMILES IDX 5 1 6 2 7 3 8 4 9 5 10 6 4 7 3 8 2 9 1 10
REMARK H PARENT
REMARK Flexibility Score: inf
ROOT
ATOM      1  C   UNL     1      13.828 -32.103  24.244  1.00  0.00     0.000 C 
ENDROOT
BRANCH   1   2
ATOM      2  C   UNL     1      14.032 -30.841  23.391  1.00  0.00     0.006 C 
BRANCH   2   3
ATOM      3  C   UNL     1      12.728 -30.335  22.762  1.00  0.00     0.053 C 
BRANCH   3   4
ATOM      4  C   UNL     1      12.305 -29.050  23.401  1.00  0.00     0.041 C 
ATOM      5  O   UNL     1      11.226 -28.497  23.058  1.00  0.00    -0.550 OA
ATOM      6  O   UNL     1      13.124 -28.437  24.339  1.00  0.00    -0.550 OA
ENDBRANCH   3   4
ENDBRANCH   2   3
ENDBRANCH   1   2
BRANCH   1   7
ATOM      7  C   UNL     1      14.734 -33.265  23.809  1.00  0.00     0.000 C 
BRANCH   7   8
ATOM      8  C   UNL     1      15.048 -33.183  22.308  1.00  0.00    -0.000 C 
BRANCH   8   9
ATOM      9  C   UNL     1      15.738 -34.450  21.779  1.00  0.00    -0.003 C 
ATOM     10  C   UNL     1      15.302 -34.814  20.360  1.00  0.00     0.004 C 
ENDBRANCH   8   9
ENDBRANCH   7   8
ENDBRANCH   1   7
TORSDOF 6
ENDMDL
