MODEL 1
REMARK VINA RESULT:    -6.968      0.000      0.000
REMARK INTER + INTRA:         -12.213
REMARK INTER:                 -10.431
REMARK INTRA:                  -1.782
REMARK UNBOUND:                -1.782
REMARK SMILES O=c1c(O[C@H]2O[C@H](CO)[C@H](O)[C@@H](O)[C@@H]2O)c(-c2cc(O)c(O)c(O)c2)oc2cc(O)cc(O)c12
REMARK SMILES IDX 4 1 3 2 16 3 26 4 2 5 27 6 1 7 34 8 28 9 32 10 29 11 31 12
REMARK SMILES IDX 17 13 18 14 19 15 25 16 21 17 23 18 20 19 22 21 24 23 33 25
REMARK SMILES IDX 30 27 5 29 14 30 6 31 12 32 7 33 10 34 15 35 13 37 8 39 9 40
REMARK SMILES IDX 11 42
REMARK H PARENT 20 20 22 22 24 24 33 26 30 28 15 36 13 38 9 41 11 43
REMARK Flexibility Score: inf
ROOT
ATOM      1  O   UNL     1     -38.417   5.653  81.803  1.00  0.00    -0.454 OA
ENDROOT
BRANCH   1   2
ATOM      2  C   UNL     1     -39.208   5.064  80.796  1.00  0.00     0.214 A 
ATOM      3  C   UNL     1     -38.666   4.971  79.499  1.00  0.00     0.181 A 
ATOM      4  O   UNL     1     -39.342   4.360  78.533  1.00  0.00    -0.452 OA
ATOM      5  C   UNL     1     -40.501   4.539  81.021  1.00  0.00     0.239 A 
ATOM      6  C   UNL     1     -40.548   3.837  78.705  1.00  0.00     0.146 A 
ATOM      7  O   UNL     1     -41.040   4.643  82.154  1.00  0.00    -0.285 OA
ATOM      8  C   UNL     1     -41.189   3.907  79.964  1.00  0.00     0.111 A 
ATOM      9  C   UNL     1     -41.182   3.219  77.623  1.00  0.00     0.094 A 
ATOM     10  C   UNL     1     -42.479   3.339  80.109  1.00  0.00     0.134 A 
ATOM     11  C   UNL     1     -42.454   2.668  77.770  1.00  0.00     0.123 A 
ATOM     12  C   UNL     1     -43.100   2.727  79.011  1.00  0.00     0.093 A 
BRANCH   3  13
ATOM     13  C   UNL     1     -37.327   5.517  79.175  1.00  0.00     0.029 A 
ATOM     14  C   UNL     1     -36.185   4.738  79.419  1.00  0.00     0.062 A 
ATOM     15  C   UNL     1     -34.907   5.226  79.127  1.00  0.00     0.162 A 
ATOM     16  C   UNL     1     -37.179   6.783  78.588  1.00  0.00     0.062 A 
ATOM     17  C   UNL     1     -34.763   6.514  78.559  1.00  0.00     0.200 A 
ATOM     18  C   UNL     1     -35.904   7.282  78.290  1.00  0.00     0.162 A 
BRANCH  15  19
ATOM     19  O   UNL     1     -33.817   4.404  79.419  1.00  0.00    -0.504 OA
ATOM     20  H   UNL     1     -33.060   4.218  78.778  1.00  0.00     0.293 HD
ENDBRANCH  15  19
BRANCH  17  21
ATOM     21  O   UNL     1     -33.516   7.062  78.248  1.00  0.00    -0.502 OA
ATOM     22  H   UNL     1     -32.874   6.665  77.577  1.00  0.00     0.293 HD
ENDBRANCH  17  21
BRANCH  18  23
ATOM     23  O   UNL     1     -35.764   8.546  77.720  1.00  0.00    -0.504 OA
ATOM     24  H   UNL     1     -36.159   8.765  76.812  1.00  0.00     0.293 HD
ENDBRANCH  18  23
ENDBRANCH   3  13
BRANCH  10  25
ATOM     25  O   UNL     1     -43.146   3.376  81.336  1.00  0.00    -0.507 OA
ATOM     26  H   UNL     1     -43.799   4.116  81.565  1.00  0.00     0.293 HD
ENDBRANCH  10  25
BRANCH  11  27
ATOM     27  O   UNL     1     -43.071   2.063  76.677  1.00  0.00    -0.508 OA
ATOM     28  H   UNL     1     -42.800   2.283  75.726  1.00  0.00     0.293 HD
ENDBRANCH  11  27
ENDBRANCH   1   2
BRANCH   1  29
ATOM     29  C   UNL     1     -37.601   4.981  82.767  1.00  0.00     0.339 C 
ATOM     30  C   UNL     1     -38.080   5.329  84.193  1.00  0.00     0.214 C 
ATOM     31  O   UNL     1     -36.225   5.289  82.592  1.00  0.00    -0.332 OA
ATOM     32  C   UNL     1     -37.751   6.791  84.546  1.00  0.00     0.180 C 
ATOM     33  C   UNL     1     -35.977   6.677  82.754  1.00  0.00     0.179 C 
ATOM     34  C   UNL     1     -36.282   7.116  84.205  1.00  0.00     0.177 C 
BRANCH  30  35
ATOM     35  O   UNL     1     -37.466   4.475  85.125  1.00  0.00    -0.384 OA
ATOM     36  H   UNL     1     -36.501   4.444  84.898  1.00  0.00     0.211 HD
ENDBRANCH  30  35
BRANCH  32  37
ATOM     37  O   UNL     1     -38.613   7.648  83.838  1.00  0.00    -0.387 OA
ATOM     38  H   UNL     1     -38.086   8.454  83.596  1.00  0.00     0.211 HD
ENDBRANCH  32  37
BRANCH  33  39
ATOM     39  C   UNL     1     -34.521   6.961  82.372  1.00  0.00     0.191 C 
BRANCH  39  40
ATOM     40  O   UNL     1     -33.772   5.776  82.397  1.00  0.00    -0.394 OA
ATOM     41  H   UNL     1     -34.381   5.074  82.744  1.00  0.00     0.210 HD
ENDBRANCH  39  40
ENDBRANCH  33  39
BRANCH  34  42
ATOM     42  O   UNL     1     -35.422   6.452  85.097  1.00  0.00    -0.387 OA
ATOM     43  H   UNL     1     -35.986   5.838  85.636  1.00  0.00     0.211 HD
ENDBRANCH  34  42
ENDBRANCH   1  29
TORSDOF 13
ENDMDL
MODEL 2
REMARK VINA RESULT:    -6.963      0.074      1.449
REMARK INTER + INTRA:         -12.205
REMARK INTER:                 -10.431
REMARK INTRA:                  -1.774
REMARK UNBOUND:                -1.782
REMARK SMILES O=c1c(O[C@H]2O[C@H](CO)[C@H](O)[C@@H](O)[C@@H]2O)c(-c2cc(O)c(O)c(O)c2)oc2cc(O)cc(O)c12
REMARK SMILES IDX 4 1 3 2 16 3 26 4 2 5 27 6 1 7 34 8 28 9 32 10 29 11 31 12
REMARK SMILES IDX 17 13 18 14 19 15 25 16 21 17 23 18 20 19 22 21 24 23 33 25
REMARK SMILES IDX 30 27 5 29 14 30 6 31 12 32 7 33 10 34 15 35 13 37 8 39 9 40
REMARK SMILES IDX 11 42
REMARK H PARENT 20 20 22 22 24 24 33 26 30 28 15 36 13 38 9 41 11 43
REMARK Flexibility Score: inf
ROOT
ATOM      1  O   UNL     1     -38.418   5.600  81.813  1.00  0.00    -0.454 OA
ENDROOT
BRANCH   1   2
ATOM      2  C   UNL     1     -39.203   5.017  80.799  1.00  0.00     0.214 A 
ATOM      3  C   UNL     1     -38.645   4.909  79.510  1.00  0.00     0.181 A 
ATOM      4  O   UNL     1     -39.317   4.301  78.539  1.00  0.00    -0.452 OA
ATOM      5  C   UNL     1     -40.506   4.513  81.010  1.00  0.00     0.239 A 
ATOM      6  C   UNL     1     -40.533   3.798  78.698  1.00  0.00     0.146 A 
ATOM      7  O   UNL     1     -41.059   4.631  82.134  1.00  0.00    -0.285 OA
ATOM      8  C   UNL     1     -41.190   3.884  79.947  1.00  0.00     0.111 A 
ATOM      9  C   UNL     1     -41.161   3.183  77.610  1.00  0.00     0.094 A 
ATOM     10  C   UNL     1     -42.489   3.337  80.078  1.00  0.00     0.134 A 
ATOM     11  C   UNL     1     -42.443   2.651  77.743  1.00  0.00     0.123 A 
ATOM     12  C   UNL     1     -43.105   2.727  78.975  1.00  0.00     0.093 A 
BRANCH   3  13
ATOM     13  C   UNL     1     -37.293   5.432  79.202  1.00  0.00     0.029 A 
ATOM     14  C   UNL     1     -37.155   6.731  78.691  1.00  0.00     0.062 A 
ATOM     15  C   UNL     1     -35.893   7.254  78.387  1.00  0.00     0.162 A 
ATOM     16  C   UNL     1     -36.143   4.669  79.452  1.00  0.00     0.062 A 
ATOM     17  C   UNL     1     -34.738   6.469  78.617  1.00  0.00     0.200 A 
ATOM     18  C   UNL     1     -34.873   5.181  79.154  1.00  0.00     0.162 A 
BRANCH  15  19
ATOM     19  O   UNL     1     -35.835   8.545  77.859  1.00  0.00    -0.504 OA
ATOM     20  H   UNL     1     -36.377   9.323  78.205  1.00  0.00     0.293 HD
ENDBRANCH  15  19
BRANCH  17  21
ATOM     21  O   UNL     1     -33.449   6.929  78.333  1.00  0.00    -0.502 OA
ATOM     22  H   UNL     1     -32.605   6.512  78.700  1.00  0.00     0.293 HD
ENDBRANCH  17  21
BRANCH  18  23
ATOM     23  O   UNL     1     -33.735   4.412  79.392  1.00  0.00    -0.504 OA
ATOM     24  H   UNL     1     -32.867   4.584  78.898  1.00  0.00     0.293 HD
ENDBRANCH  18  23
ENDBRANCH   3  13
BRANCH  10  25
ATOM     25  O   UNL     1     -43.173   3.391  81.295  1.00  0.00    -0.507 OA
ATOM     26  H   UNL     1     -44.145   3.117  81.373  1.00  0.00     0.293 HD
ENDBRANCH  10  25
BRANCH  11  27
ATOM     27  O   UNL     1     -43.054   2.049  76.645  1.00  0.00    -0.508 OA
ATOM     28  H   UNL     1     -43.715   1.288  76.758  1.00  0.00     0.293 HD
ENDBRANCH  11  27
ENDBRANCH   1   2
BRANCH   1  29
ATOM     29  C   UNL     1     -37.597   4.924  82.770  1.00  0.00     0.339 C 
ATOM     30  C   UNL     1     -38.071   5.263  84.201  1.00  0.00     0.214 C 
ATOM     31  O   UNL     1     -36.222   5.234  82.592  1.00  0.00    -0.332 OA
ATOM     32  C   UNL     1     -37.742   6.723  84.560  1.00  0.00     0.180 C 
ATOM     33  C   UNL     1     -35.975   6.621  82.762  1.00  0.00     0.179 C 
ATOM     34  C   UNL     1     -36.274   7.052  84.216  1.00  0.00     0.177 C 
BRANCH  30  35
ATOM     35  O   UNL     1     -37.453   4.403  85.125  1.00  0.00    -0.384 OA
ATOM     36  H   UNL     1     -37.390   4.897  85.983  1.00  0.00     0.211 HD
ENDBRANCH  30  35
BRANCH  32  37
ATOM     37  O   UNL     1     -38.607   7.583  83.861  1.00  0.00    -0.387 OA
ATOM     38  H   UNL     1     -38.638   7.262  82.922  1.00  0.00     0.211 HD
ENDBRANCH  32  37
BRANCH  33  39
ATOM     39  C   UNL     1     -34.520   6.909  82.375  1.00  0.00     0.191 C 
BRANCH  39  40
ATOM     40  O   UNL     1     -33.772   5.724  82.387  1.00  0.00    -0.394 OA
ATOM     41  H   UNL     1     -34.212   5.114  81.739  1.00  0.00     0.210 HD
ENDBRANCH  39  40
ENDBRANCH  33  39
BRANCH  34  42
ATOM     42  O   UNL     1     -35.410   6.382  85.101  1.00  0.00    -0.387 OA
ATOM     43  H   UNL     1     -35.585   5.411  84.993  1.00  0.00     0.211 HD
ENDBRANCH  34  42
ENDBRANCH   1  29
TORSDOF 13
ENDMDL
MODEL 3
REMARK VINA RESULT:    -6.797      0.948      1.139
REMARK INTER + INTRA:         -11.956
REMARK INTER:                 -10.524
REMARK INTRA:                  -1.432
REMARK UNBOUND:                -1.782
REMARK SMILES O=c1c(O[C@H]2O[C@H](CO)[C@H](O)[C@@H](O)[C@@H]2O)c(-c2cc(O)c(O)c(O)c2)oc2cc(O)cc(O)c12
REMARK SMILES IDX 4 1 3 2 16 3 26 4 2 5 27 6 1 7 34 8 28 9 32 10 29 11 31 12
REMARK SMILES IDX 17 13 18 14 19 15 25 16 21 17 23 18 20 19 22 21 24 23 33 25
REMARK SMILES IDX 30 27 5 29 14 30 6 31 12 32 7 33 10 34 15 35 13 37 8 39 9 40
REMARK SMILES IDX 11 42
REMARK H PARENT 20 20 22 22 24 24 33 26 30 28 15 36 13 38 9 41 11 43
REMARK Flexibility Score: inf
ROOT
ATOM      1  O   UNL     1     -38.530   5.929  81.575  1.00  0.00    -0.454 OA
ENDROOT
BRANCH   1   2
ATOM      2  C   UNL     1     -39.272   5.209  80.618  1.00  0.00     0.214 A 
ATOM      3  C   UNL     1     -38.692   5.002  79.350  1.00  0.00     0.181 A 
ATOM      4  O   UNL     1     -39.321   4.268  78.439  1.00  0.00    -0.452 OA
ATOM      5  C   UNL     1     -40.551   4.663  80.867  1.00  0.00     0.239 A 
ATOM      6  C   UNL     1     -40.513   3.722  78.638  1.00  0.00     0.146 A 
ATOM      7  O   UNL     1     -41.123   4.864  81.970  1.00  0.00    -0.285 OA
ATOM      8  C   UNL     1     -41.189   3.898  79.867  1.00  0.00     0.111 A 
ATOM      9  C   UNL     1     -41.095   2.971  77.612  1.00  0.00     0.094 A 
ATOM     10  C   UNL     1     -42.461   3.301  80.042  1.00  0.00     0.134 A 
ATOM     11  C   UNL     1     -42.351   2.390  77.787  1.00  0.00     0.123 A 
ATOM     12  C   UNL     1     -43.031   2.554  79.001  1.00  0.00     0.093 A 
BRANCH   3  13
ATOM     13  C   UNL     1     -37.365   5.561  79.002  1.00  0.00     0.029 A 
ATOM     14  C   UNL     1     -36.213   4.790  79.215  1.00  0.00     0.062 A 
ATOM     15  C   UNL     1     -34.945   5.290  78.899  1.00  0.00     0.162 A 
ATOM     16  C   UNL     1     -37.240   6.832  78.421  1.00  0.00     0.062 A 
ATOM     17  C   UNL     1     -34.823   6.583  78.338  1.00  0.00     0.200 A 
ATOM     18  C   UNL     1     -35.976   7.343  78.099  1.00  0.00     0.162 A 
BRANCH  15  19
ATOM     19  O   UNL     1     -33.842   4.474  79.161  1.00  0.00    -0.504 OA
ATOM     20  H   UNL     1     -33.091   4.310  78.508  1.00  0.00     0.293 HD
ENDBRANCH  15  19
BRANCH  17  21
ATOM     21  O   UNL     1     -33.588   7.143  78.003  1.00  0.00    -0.502 OA
ATOM     22  H   UNL     1     -32.925   7.498  78.678  1.00  0.00     0.293 HD
ENDBRANCH  17  21
BRANCH  18  23
ATOM     23  O   UNL     1     -35.859   8.613  77.535  1.00  0.00    -0.504 OA
ATOM     24  H   UNL     1     -36.402   8.885  76.723  1.00  0.00     0.293 HD
ENDBRANCH  18  23
ENDBRANCH   3  13
BRANCH  10  25
ATOM     25  O   UNL     1     -43.162   3.441  81.242  1.00  0.00    -0.507 OA
ATOM     26  H   UNL     1     -43.918   4.108  81.343  1.00  0.00     0.293 HD
ENDBRANCH  10  25
BRANCH  11  27
ATOM     27  O   UNL     1     -42.917   1.652  76.751  1.00  0.00    -0.508 OA
ATOM     28  H   UNL     1     -43.617   0.941  76.927  1.00  0.00     0.293 HD
ENDBRANCH  11  27
ENDBRANCH   1   2
BRANCH   1  29
ATOM     29  C   UNL     1     -38.404   5.640  82.970  1.00  0.00     0.339 C 
ATOM     30  C   UNL     1     -38.018   6.922  83.739  1.00  0.00     0.214 C 
ATOM     31  O   UNL     1     -37.471   4.593  83.205  1.00  0.00    -0.332 OA
ATOM     32  C   UNL     1     -36.569   7.339  83.427  1.00  0.00     0.180 C 
ATOM     33  C   UNL     1     -36.173   4.941  82.749  1.00  0.00     0.179 C 
ATOM     34  C   UNL     1     -35.615   6.133  83.559  1.00  0.00     0.177 C 
BRANCH  30  35
ATOM     35  O   UNL     1     -38.156   6.710  85.121  1.00  0.00    -0.384 OA
ATOM     36  H   UNL     1     -38.740   5.917  85.236  1.00  0.00     0.211 HD
ENDBRANCH  30  35
BRANCH  32  37
ATOM     37  O   UNL     1     -36.505   7.867  82.126  1.00  0.00    -0.387 OA
ATOM     38  H   UNL     1     -36.874   7.177  81.515  1.00  0.00     0.211 HD
ENDBRANCH  32  37
BRANCH  33  39
ATOM     39  C   UNL     1     -35.270   3.708  82.864  1.00  0.00     0.191 C 
BRANCH  39  40
ATOM     40  O   UNL     1     -34.137   3.858  82.052  1.00  0.00    -0.394 OA
ATOM     41  H   UNL     1     -34.282   4.689  81.528  1.00  0.00     0.210 HD
ENDBRANCH  39  40
ENDBRANCH  33  39
BRANCH  34  42
ATOM     42  O   UNL     1     -35.479   5.772  84.911  1.00  0.00    -0.387 OA
ATOM     43  H   UNL     1     -35.830   6.530  85.447  1.00  0.00     0.211 HD
ENDBRANCH  34  42
ENDBRANCH   1  29
TORSDOF 13
ENDMDL
MODEL 4
REMARK VINA RESULT:    -6.680      1.966      6.352
REMARK INTER + INTRA:         -11.781
REMARK INTER:                  -9.998
REMARK INTRA:                  -1.783
REMARK UNBOUND:                -1.782
REMARK SMILES O=c1c(O[C@H]2O[C@H](CO)[C@H](O)[C@@H](O)[C@@H]2O)c(-c2cc(O)c(O)c(O)c2)oc2cc(O)cc(O)c12
REMARK SMILES IDX 4 1 3 2 16 3 26 4 2 5 27 6 1 7 34 8 28 9 32 10 29 11 31 12
REMARK SMILES IDX 17 13 18 14 19 15 25 16 21 17 23 18 20 19 22 21 24 23 33 25
REMARK SMILES IDX 30 27 5 29 14 30 6 31 12 32 7 33 10 34 15 35 13 37 8 39 9 40
REMARK SMILES IDX 11 42
REMARK H PARENT 20 20 22 22 24 24 33 26 30 28 15 36 13 38 9 41 11 43
REMARK Flexibility Score: inf
ROOT
ATOM      1  O   UNL     1     -37.895   5.088  81.867  1.00  0.00    -0.454 OA
ENDROOT
BRANCH   1   2
ATOM      2  C   UNL     1     -37.229   5.842  80.881  1.00  0.00     0.214 A 
ATOM      3  C   UNL     1     -37.587   5.634  79.534  1.00  0.00     0.181 A 
ATOM      4  O   UNL     1     -37.040   6.371  78.575  1.00  0.00    -0.452 OA
ATOM      5  C   UNL     1     -36.241   6.810  81.170  1.00  0.00     0.239 A 
ATOM      6  C   UNL     1     -36.124   7.303  78.803  1.00  0.00     0.146 A 
ATOM      7  O   UNL     1     -35.859   6.994  82.355  1.00  0.00    -0.285 OA
ATOM      8  C   UNL     1     -35.677   7.564  80.119  1.00  0.00     0.111 A 
ATOM      9  C   UNL     1     -35.603   8.022  77.723  1.00  0.00     0.094 A 
ATOM     10  C   UNL     1     -34.696   8.566  80.323  1.00  0.00     0.134 A 
ATOM     11  C   UNL     1     -34.632   9.002  77.929  1.00  0.00     0.123 A 
ATOM     12  C   UNL     1     -34.182   9.274  79.227  1.00  0.00     0.093 A 
BRANCH   3  13
ATOM     13  C   UNL     1     -38.597   4.622  79.146  1.00  0.00     0.029 A 
ATOM     14  C   UNL     1     -38.180   3.338  78.766  1.00  0.00     0.062 A 
ATOM     15  C   UNL     1     -39.108   2.361  78.391  1.00  0.00     0.162 A 
ATOM     16  C   UNL     1     -39.970   4.909  79.193  1.00  0.00     0.062 A 
ATOM     17  C   UNL     1     -40.490   2.665  78.416  1.00  0.00     0.200 A 
ATOM     18  C   UNL     1     -40.911   3.939  78.822  1.00  0.00     0.162 A 
BRANCH  15  19
ATOM     19  O   UNL     1     -38.617   1.114  78.002  1.00  0.00    -0.504 OA
ATOM     20  H   UNL     1     -38.117   0.945  77.142  1.00  0.00     0.293 HD
ENDBRANCH  15  19
BRANCH  17  21
ATOM     21  O   UNL     1     -41.470   1.738  78.050  1.00  0.00    -0.502 OA
ATOM     22  H   UNL     1     -42.243   1.467  78.642  1.00  0.00     0.293 HD
ENDBRANCH  17  21
BRANCH  18  23
ATOM     23  O   UNL     1     -42.272   4.236  78.857  1.00  0.00    -0.504 OA
ATOM     24  H   UNL     1     -42.631   5.017  79.395  1.00  0.00     0.293 HD
ENDBRANCH  18  23
ENDBRANCH   3  13
BRANCH  10  25
ATOM     25  O   UNL     1     -34.231   8.864  81.606  1.00  0.00    -0.507 OA
ATOM     26  H   UNL     1     -33.261   9.102  81.779  1.00  0.00     0.293 HD
ENDBRANCH  10  25
BRANCH  11  27
ATOM     27  O   UNL     1     -34.120   9.702  76.840  1.00  0.00    -0.508 OA
ATOM     28  H   UNL     1     -33.652  10.594  76.955  1.00  0.00     0.293 HD
ENDBRANCH  11  27
ENDBRANCH   1   2
BRANCH   1  29
ATOM     29  C   UNL     1     -38.898   5.547  82.778  1.00  0.00     0.339 C 
ATOM     30  C   UNL     1     -38.452   5.275  84.231  1.00  0.00     0.214 C 
ATOM     31  O   UNL     1     -40.163   4.959  82.503  1.00  0.00    -0.332 OA
ATOM     32  C   UNL     1     -38.484   3.768  84.545  1.00  0.00     0.180 C 
ATOM     33  C   UNL     1     -40.118   3.546  82.635  1.00  0.00     0.179 C 
ATOM     34  C   UNL     1     -39.825   3.147  84.099  1.00  0.00     0.177 C 
BRANCH  30  35
ATOM     35  O   UNL     1     -39.295   5.957  85.125  1.00  0.00    -0.384 OA
ATOM     36  H   UNL     1     -38.724   6.291  85.864  1.00  0.00     0.211 HD
ENDBRANCH  30  35
BRANCH  32  37
ATOM     37  O   UNL     1     -37.415   3.132  83.892  1.00  0.00    -0.387 OA
ATOM     38  H   UNL     1     -37.705   2.964  82.957  1.00  0.00     0.211 HD
ENDBRANCH  32  37
BRANCH  33  39
ATOM     39  C   UNL     1     -41.452   2.969  82.149  1.00  0.00     0.191 C 
BRANCH  39  40
ATOM     40  O   UNL     1     -42.403   3.990  82.014  1.00  0.00    -0.394 OA
ATOM     41  H   UNL     1     -41.918   4.769  81.634  1.00  0.00     0.210 HD
ENDBRANCH  39  40
ENDBRANCH  33  39
BRANCH  34  42
ATOM     42  O   UNL     1     -40.864   3.592  84.935  1.00  0.00    -0.387 OA
ATOM     43  H   UNL     1     -41.714   3.297  84.518  1.00  0.00     0.211 HD
ENDBRANCH  34  42
ENDBRANCH   1  29
TORSDOF 13
ENDMDL
MODEL 5
REMARK VINA RESULT:    -6.423      2.048      6.290
REMARK INTER + INTRA:         -11.397
REMARK INTER:                 -10.025
REMARK INTRA:                  -1.372
REMARK UNBOUND:                -1.782
REMARK SMILES O=c1c(O[C@H]2O[C@H](CO)[C@H](O)[C@@H](O)[C@@H]2O)c(-c2cc(O)c(O)c(O)c2)oc2cc(O)cc(O)c12
REMARK SMILES IDX 4 1 3 2 16 3 26 4 2 5 27 6 1 7 34 8 28 9 32 10 29 11 31 12
REMARK SMILES IDX 17 13 18 14 19 15 25 16 21 17 23 18 20 19 22 21 24 23 33 25
REMARK SMILES IDX 30 27 5 29 14 30 6 31 12 32 7 33 10 34 15 35 13 37 8 39 9 40
REMARK SMILES IDX 11 42
REMARK H PARENT 20 20 22 22 24 24 33 26 30 28 15 36 13 38 9 41 11 43
REMARK Flexibility Score: inf
ROOT
ATOM      1  O   UNL     1     -36.707   3.966  81.687  1.00  0.00    -0.454 OA
ENDROOT
BRANCH   1   2
ATOM      2  C   UNL     1     -36.235   4.981  80.832  1.00  0.00     0.214 A 
ATOM      3  C   UNL     1     -36.905   5.181  79.609  1.00  0.00     0.181 A 
ATOM      4  O   UNL     1     -36.544   6.172  78.802  1.00  0.00    -0.452 OA
ATOM      5  C   UNL     1     -35.145   5.825  81.144  1.00  0.00     0.239 A 
ATOM      6  C   UNL     1     -35.540   6.998  79.065  1.00  0.00     0.146 A 
ATOM      7  O   UNL     1     -34.490   5.650  82.205  1.00  0.00    -0.285 OA
ATOM      8  C   UNL     1     -34.787   6.859  80.254  1.00  0.00     0.111 A 
ATOM      9  C   UNL     1     -35.234   8.007  78.148  1.00  0.00     0.094 A 
ATOM     10  C   UNL     1     -33.721   7.759  80.499  1.00  0.00     0.134 A 
ATOM     11  C   UNL     1     -34.179   8.887  78.391  1.00  0.00     0.123 A 
ATOM     12  C   UNL     1     -33.426   8.763  79.565  1.00  0.00     0.093 A 
BRANCH   3  13
ATOM     13  C   UNL     1     -38.042   4.325  79.197  1.00  0.00     0.029 A 
ATOM     14  C   UNL     1     -37.796   3.029  78.722  1.00  0.00     0.062 A 
ATOM     15  C   UNL     1     -38.848   2.197  78.322  1.00  0.00     0.162 A 
ATOM     16  C   UNL     1     -39.368   4.770  79.315  1.00  0.00     0.062 A 
ATOM     17  C   UNL     1     -40.181   2.661  78.419  1.00  0.00     0.200 A 
ATOM     18  C   UNL     1     -40.430   3.947  78.920  1.00  0.00     0.162 A 
BRANCH  15  19
ATOM     19  O   UNL     1     -38.524   0.929  77.837  1.00  0.00    -0.504 OA
ATOM     20  H   UNL     1     -37.907   0.283  78.306  1.00  0.00     0.293 HD
ENDBRANCH  15  19
BRANCH  17  21
ATOM     21  O   UNL     1     -41.277   1.884  78.034  1.00  0.00    -0.502 OA
ATOM     22  H   UNL     1     -42.123   2.259  77.629  1.00  0.00     0.293 HD
ENDBRANCH  17  21
BRANCH  18  23
ATOM     23  O   UNL     1     -41.744   4.401  79.027  1.00  0.00    -0.504 OA
ATOM     24  H   UNL     1     -42.209   4.472  79.925  1.00  0.00     0.293 HD
ENDBRANCH  18  23
ENDBRANCH   3  13
BRANCH  10  25
ATOM     25  O   UNL     1     -32.956   7.666  81.664  1.00  0.00    -0.507 OA
ATOM     26  H   UNL     1     -32.211   6.986  81.759  1.00  0.00     0.293 HD
ENDBRANCH  10  25
BRANCH  11  27
ATOM     27  O   UNL     1     -33.884   9.881  77.461  1.00  0.00    -0.508 OA
ATOM     28  H   UNL     1     -34.586  10.545  77.155  1.00  0.00     0.293 HD
ENDBRANCH  11  27
ENDBRANCH   1   2
BRANCH   1  29
ATOM     29  C   UNL     1     -36.903   4.046  83.102  1.00  0.00     0.339 C 
ATOM     30  C   UNL     1     -37.488   2.717  83.627  1.00  0.00     0.214 C 
ATOM     31  O   UNL     1     -37.726   5.151  83.454  1.00  0.00    -0.332 OA
ATOM     32  C   UNL     1     -38.948   2.537  83.171  1.00  0.00     0.180 C 
ATOM     33  C   UNL     1     -39.017   5.042  82.876  1.00  0.00     0.179 C 
ATOM     34  C   UNL     1     -39.766   3.816  83.446  1.00  0.00     0.177 C 
BRANCH  30  35
ATOM     35  O   UNL     1     -37.431   2.692  85.031  1.00  0.00    -0.384 OA
ATOM     36  H   UNL     1     -36.488   2.507  85.280  1.00  0.00     0.211 HD
ENDBRANCH  30  35
BRANCH  32  37
ATOM     37  O   UNL     1     -38.974   2.231  81.799  1.00  0.00    -0.387 OA
ATOM     38  H   UNL     1     -39.929   2.186  81.530  1.00  0.00     0.211 HD
ENDBRANCH  32  37
BRANCH  33  39
ATOM     39  C   UNL     1     -39.781   6.344  83.141  1.00  0.00     0.191 C 
BRANCH  39  40
ATOM     40  O   UNL     1     -39.417   6.876  84.385  1.00  0.00    -0.394 OA
ATOM     41  H   UNL     1     -38.603   6.383  84.668  1.00  0.00     0.210 HD
ENDBRANCH  39  40
ENDBRANCH  33  39
BRANCH  34  42
ATOM     42  O   UNL     1     -39.961   3.975  84.830  1.00  0.00    -0.387 OA
ATOM     43  H   UNL     1     -40.906   3.736  85.015  1.00  0.00     0.211 HD
ENDBRANCH  34  42
ENDBRANCH   1  29
TORSDOF 13
ENDMDL
MODEL 6
REMARK VINA RESULT:    -6.134      2.099      5.792
REMARK INTER + INTRA:         -10.964
REMARK INTER:                  -9.975
REMARK INTRA:                  -0.990
REMARK UNBOUND:                -1.782
REMARK SMILES O=c1c(O[C@H]2O[C@H](CO)[C@H](O)[C@@H](O)[C@@H]2O)c(-c2cc(O)c(O)c(O)c2)oc2cc(O)cc(O)c12
REMARK SMILES IDX 4 1 3 2 16 3 26 4 2 5 27 6 1 7 34 8 28 9 32 10 29 11 31 12
REMARK SMILES IDX 17 13 18 14 19 15 25 16 21 17 23 18 20 19 22 21 24 23 33 25
REMARK SMILES IDX 30 27 5 29 14 30 6 31 12 32 7 33 10 34 15 35 13 37 8 39 9 40
REMARK SMILES IDX 11 42
REMARK H PARENT 20 20 22 22 24 24 33 26 30 28 15 36 13 38 9 41 11 43
REMARK Flexibility Score: inf
ROOT
ATOM      1  O   UNL     1     -38.280   5.431  81.801  1.00  0.00    -0.454 OA
ENDROOT
BRANCH   1   2
ATOM      2  C   UNL     1     -37.551   6.112  80.806  1.00  0.00     0.214 A 
ATOM      3  C   UNL     1     -37.795   5.774  79.459  1.00  0.00     0.181 A 
ATOM      4  O   UNL     1     -37.187   6.437  78.483  1.00  0.00    -0.452 OA
ATOM      5  C   UNL     1     -36.609   7.129  81.081  1.00  0.00     0.239 A 
ATOM      6  C   UNL     1     -36.312   7.411  78.696  1.00  0.00     0.146 A 
ATOM      7  O   UNL     1     -36.328   7.428  82.271  1.00  0.00    -0.285 OA
ATOM      8  C   UNL     1     -35.978   7.801  80.013  1.00  0.00     0.111 A 
ATOM      9  C   UNL     1     -35.720   8.044  77.599  1.00  0.00     0.094 A 
ATOM     10  C   UNL     1     -35.037   8.843  80.202  1.00  0.00     0.134 A 
ATOM     11  C   UNL     1     -34.789   9.065  77.790  1.00  0.00     0.123 A 
ATOM     12  C   UNL     1     -34.450   9.464  79.090  1.00  0.00     0.093 A 
BRANCH   3  13
ATOM     13  C   UNL     1     -38.750   4.704  79.087  1.00  0.00     0.029 A 
ATOM     14  C   UNL     1     -38.265   3.440  78.721  1.00  0.00     0.062 A 
ATOM     15  C   UNL     1     -39.140   2.410  78.362  1.00  0.00     0.162 A 
ATOM     16  C   UNL     1     -40.136   4.917  79.136  1.00  0.00     0.062 A 
ATOM     17  C   UNL     1     -40.537   2.639  78.388  1.00  0.00     0.200 A 
ATOM     18  C   UNL     1     -41.024   3.893  78.780  1.00  0.00     0.162 A 
BRANCH  15  19
ATOM     19  O   UNL     1     -38.583   1.187  77.986  1.00  0.00    -0.504 OA
ATOM     20  H   UNL     1     -38.976   0.576  77.285  1.00  0.00     0.293 HD
ENDBRANCH  15  19
BRANCH  17  21
ATOM     21  O   UNL     1     -41.465   1.655  78.037  1.00  0.00    -0.502 OA
ATOM     22  H   UNL     1     -42.451   1.829  77.905  1.00  0.00     0.293 HD
ENDBRANCH  17  21
BRANCH  18  23
ATOM     23  O   UNL     1     -42.399   4.116  78.817  1.00  0.00    -0.504 OA
ATOM     24  H   UNL     1     -42.914   4.111  79.691  1.00  0.00     0.293 HD
ENDBRANCH  18  23
ENDBRANCH   3  13
BRANCH  10  25
ATOM     25  O   UNL     1     -34.683   9.268  81.484  1.00  0.00    -0.507 OA
ATOM     26  H   UNL     1     -35.036   8.807  82.315  1.00  0.00     0.293 HD
ENDBRANCH  10  25
BRANCH  11  27
ATOM     27  O   UNL     1     -34.205   9.679  76.685  1.00  0.00    -0.508 OA
ATOM     28  H   UNL     1     -33.204   9.652  76.531  1.00  0.00     0.293 HD
ENDBRANCH  11  27
ENDBRANCH   1   2
BRANCH   1  29
ATOM     29  C   UNL     1     -38.179   4.049  82.155  1.00  0.00     0.339 C 
ATOM     30  C   UNL     1     -38.658   3.844  83.610  1.00  0.00     0.214 C 
ATOM     31  O   UNL     1     -36.859   3.556  81.969  1.00  0.00    -0.332 OA
ATOM     32  C   UNL     1     -37.655   4.444  84.611  1.00  0.00     0.180 C 
ATOM     33  C   UNL     1     -35.926   4.247  82.784  1.00  0.00     0.179 C 
ATOM     34  C   UNL     1     -36.217   3.991  84.280  1.00  0.00     0.177 C 
BRANCH  30  35
ATOM     35  O   UNL     1     -38.816   2.472  83.871  1.00  0.00    -0.384 OA
ATOM     36  H   UNL     1     -39.600   2.165  83.346  1.00  0.00     0.211 HD
ENDBRANCH  30  35
BRANCH  32  37
ATOM     37  O   UNL     1     -37.741   5.847  84.575  1.00  0.00    -0.387 OA
ATOM     38  H   UNL     1     -38.147   6.090  83.702  1.00  0.00     0.211 HD
ENDBRANCH  32  37
BRANCH  33  39
ATOM     39  C   UNL     1     -34.513   3.795  82.397  1.00  0.00     0.191 C 
BRANCH  39  40
ATOM     40  O   UNL     1     -33.724   3.633  83.544  1.00  0.00    -0.394 OA
ATOM     41  H   UNL     1     -33.902   2.714  83.873  1.00  0.00     0.210 HD
ENDBRANCH  39  40
ENDBRANCH  33  39
BRANCH  34  42
ATOM     42  O   UNL     1     -36.064   2.624  84.571  1.00  0.00    -0.387 OA
ATOM     43  H   UNL     1     -35.950   2.157  83.703  1.00  0.00     0.211 HD
ENDBRANCH  34  42
ENDBRANCH   1  29
TORSDOF 13
ENDMDL
MODEL 7
REMARK VINA RESULT:    -6.077      2.438      7.244
REMARK INTER + INTRA:         -10.879
REMARK INTER:                  -9.829
REMARK INTRA:                  -1.049
REMARK UNBOUND:                -1.782
REMARK SMILES O=c1c(O[C@H]2O[C@H](CO)[C@H](O)[C@@H](O)[C@@H]2O)c(-c2cc(O)c(O)c(O)c2)oc2cc(O)cc(O)c12
REMARK SMILES IDX 4 1 3 2 16 3 26 4 2 5 27 6 1 7 34 8 28 9 32 10 29 11 31 12
REMARK SMILES IDX 17 13 18 14 19 15 25 16 21 17 23 18 20 19 22 21 24 23 33 25
REMARK SMILES IDX 30 27 5 29 14 30 6 31 12 32 7 33 10 34 15 35 13 37 8 39 9 40
REMARK SMILES IDX 11 42
REMARK H PARENT 20 20 22 22 24 24 33 26 30 28 15 36 13 38 9 41 11 43
REMARK Flexibility Score: inf
ROOT
ATOM      1  O   UNL     1     -37.590   6.813  79.053  1.00  0.00    -0.454 OA
ENDROOT
BRANCH   1   2
ATOM      2  C   UNL     1     -36.885   6.268  80.144  1.00  0.00     0.214 A 
ATOM      3  C   UNL     1     -37.183   4.945  80.530  1.00  0.00     0.181 A 
ATOM      4  O   UNL     1     -36.496   4.362  81.505  1.00  0.00    -0.452 OA
ATOM      5  C   UNL     1     -35.882   6.963  80.855  1.00  0.00     0.239 A 
ATOM      6  C   UNL     1     -35.534   4.971  82.185  1.00  0.00     0.146 A 
ATOM      7  O   UNL     1     -35.618   8.161  80.573  1.00  0.00    -0.285 OA
ATOM      8  C   UNL     1     -35.183   6.309  81.892  1.00  0.00     0.111 A 
ATOM      9  C   UNL     1     -34.873   4.273  83.200  1.00  0.00     0.094 A 
ATOM     10  C   UNL     1     -34.152   6.927  82.642  1.00  0.00     0.134 A 
ATOM     11  C   UNL     1     -33.863   4.888  83.939  1.00  0.00     0.123 A 
ATOM     12  C   UNL     1     -33.503   6.213  83.659  1.00  0.00     0.093 A 
BRANCH   3  13
ATOM     13  C   UNL     1     -38.237   4.156  79.850  1.00  0.00     0.029 A 
ATOM     14  C   UNL     1     -37.883   3.004  79.132  1.00  0.00     0.062 A 
ATOM     15  C   UNL     1     -38.854   2.239  78.477  1.00  0.00     0.162 A 
ATOM     16  C   UNL     1     -39.590   4.514  79.946  1.00  0.00     0.062 A 
ATOM     17  C   UNL     1     -40.215   2.620  78.556  1.00  0.00     0.200 A 
ATOM     18  C   UNL     1     -40.572   3.756  79.296  1.00  0.00     0.162 A 
BRANCH  15  19
ATOM     19  O   UNL     1     -38.425   1.119  77.763  1.00  0.00    -0.504 OA
ATOM     20  H   UNL     1     -37.777   0.433  78.120  1.00  0.00     0.293 HD
ENDBRANCH  15  19
BRANCH  17  21
ATOM     21  O   UNL     1     -41.234   1.903  77.923  1.00  0.00    -0.502 OA
ATOM     22  H   UNL     1     -41.092   1.310  77.118  1.00  0.00     0.293 HD
ENDBRANCH  17  21
BRANCH  18  23
ATOM     23  O   UNL     1     -41.913   4.126  79.384  1.00  0.00    -0.504 OA
ATOM     24  H   UNL     1     -42.646   3.437  79.511  1.00  0.00     0.293 HD
ENDBRANCH  18  23
ENDBRANCH   3  13
BRANCH  10  25
ATOM     25  O   UNL     1     -33.765   8.244  82.382  1.00  0.00    -0.507 OA
ATOM     26  H   UNL     1     -33.450   8.862  83.120  1.00  0.00     0.293 HD
ENDBRANCH  10  25
BRANCH  11  27
ATOM     27  O   UNL     1     -33.221   4.178  84.951  1.00  0.00    -0.508 OA
ATOM     28  H   UNL     1     -32.998   3.195  84.849  1.00  0.00     0.293 HD
ENDBRANCH  11  27
ENDBRANCH   1   2
BRANCH   1  29
ATOM     29  C   UNL     1     -38.449   7.956  79.060  1.00  0.00     0.339 C 
ATOM     30  C   UNL     1     -39.739   7.649  78.269  1.00  0.00     0.214 C 
ATOM     31  O   UNL     1     -37.790   9.109  78.552  1.00  0.00    -0.332 OA
ATOM     32  C   UNL     1     -39.451   7.549  76.760  1.00  0.00     0.180 C 
ATOM     33  C   UNL     1     -37.382   8.923  77.205  1.00  0.00     0.179 C 
ATOM     34  C   UNL     1     -38.612   8.753  76.284  1.00  0.00     0.177 C 
BRANCH  30  35
ATOM     35  O   UNL     1     -40.691   8.657  78.497  1.00  0.00    -0.384 OA
ATOM     36  H   UNL     1     -40.729   9.212  77.676  1.00  0.00     0.211 HD
ENDBRANCH  30  35
BRANCH  32  37
ATOM     37  O   UNL     1     -38.770   6.348  76.493  1.00  0.00    -0.387 OA
ATOM     38  H   UNL     1     -38.994   6.088  75.561  1.00  0.00     0.211 HD
ENDBRANCH  32  37
BRANCH  33  39
ATOM     39  C   UNL     1     -36.523  10.121  76.786  1.00  0.00     0.191 C 
BRANCH  39  40
ATOM     40  O   UNL     1     -35.184   9.907  77.140  1.00  0.00    -0.394 OA
ATOM     41  H   UNL     1     -34.642  10.422  76.488  1.00  0.00     0.210 HD
ENDBRANCH  39  40
ENDBRANCH  33  39
BRANCH  34  42
ATOM     42  O   UNL     1     -39.392   9.923  76.306  1.00  0.00    -0.387 OA
ATOM     43  H   UNL     1     -40.342   9.635  76.286  1.00  0.00     0.211 HD
ENDBRANCH  34  42
ENDBRANCH   1  29
TORSDOF 13
ENDMDL
MODEL 8
REMARK VINA RESULT:    -6.044      2.934      5.796
REMARK INTER + INTRA:         -10.829
REMARK INTER:                  -9.041
REMARK INTRA:                  -1.788
REMARK UNBOUND:                -1.782
REMARK SMILES O=c1c(O[C@H]2O[C@H](CO)[C@H](O)[C@@H](O)[C@@H]2O)c(-c2cc(O)c(O)c(O)c2)oc2cc(O)cc(O)c12
REMARK SMILES IDX 4 1 3 2 16 3 26 4 2 5 27 6 1 7 34 8 28 9 32 10 29 11 31 12
REMARK SMILES IDX 17 13 18 14 19 15 25 16 21 17 23 18 20 19 22 21 24 23 33 25
REMARK SMILES IDX 30 27 5 29 14 30 6 31 12 32 7 33 10 34 15 35 13 37 8 39 9 40
REMARK SMILES IDX 11 42
REMARK H PARENT 20 20 22 22 24 24 33 26 30 28 15 36 13 38 9 41 11 43
REMARK Flexibility Score: inf
ROOT
ATOM      1  O   UNL     1     -37.501   5.922  79.906  1.00  0.00    -0.454 OA
ENDROOT
BRANCH   1   2
ATOM      2  C   UNL     1     -38.639   6.598  79.425  1.00  0.00     0.214 A 
ATOM      3  C   UNL     1     -39.817   6.541  80.197  1.00  0.00     0.181 A 
ATOM      4  O   UNL     1     -40.895   7.222  79.823  1.00  0.00    -0.452 OA
ATOM      5  C   UNL     1     -38.658   7.349  78.228  1.00  0.00     0.239 A 
ATOM      6  C   UNL     1     -40.949   7.954  78.719  1.00  0.00     0.146 A 
ATOM      7  O   UNL     1     -37.641   7.388  77.487  1.00  0.00    -0.285 OA
ATOM      8  C   UNL     1     -39.828   8.049  77.863  1.00  0.00     0.111 A 
ATOM      9  C   UNL     1     -42.134   8.628  78.409  1.00  0.00     0.094 A 
ATOM     10  C   UNL     1     -39.924   8.839  76.691  1.00  0.00     0.134 A 
ATOM     11  C   UNL     1     -42.226   9.400  77.251  1.00  0.00     0.123 A 
ATOM     12  C   UNL     1     -41.122   9.505  76.395  1.00  0.00     0.093 A 
BRANCH   3  13
ATOM     13  C   UNL     1     -39.887   5.757  81.452  1.00  0.00     0.029 A 
ATOM     14  C   UNL     1     -39.685   6.401  82.682  1.00  0.00     0.062 A 
ATOM     15  C   UNL     1     -39.741   5.688  83.884  1.00  0.00     0.162 A 
ATOM     16  C   UNL     1     -40.195   4.388  81.439  1.00  0.00     0.062 A 
ATOM     17  C   UNL     1     -40.026   4.302  83.863  1.00  0.00     0.200 A 
ATOM     18  C   UNL     1     -40.256   3.663  82.636  1.00  0.00     0.162 A 
BRANCH  15  19
ATOM     19  O   UNL     1     -39.506   6.392  85.067  1.00  0.00    -0.504 OA
ATOM     20  H   UNL     1     -38.632   6.375  85.572  1.00  0.00     0.293 HD
ENDBRANCH  15  19
BRANCH  17  21
ATOM     21  O   UNL     1     -40.094   3.531  85.026  1.00  0.00    -0.502 OA
ATOM     22  H   UNL     1     -40.501   2.608  85.071  1.00  0.00     0.293 HD
ENDBRANCH  17  21
BRANCH  18  23
ATOM     23  O   UNL     1     -40.549   2.301  82.615  1.00  0.00    -0.504 OA
ATOM     24  H   UNL     1     -41.235   1.916  81.975  1.00  0.00     0.293 HD
ENDBRANCH  18  23
ENDBRANCH   3  13
BRANCH  10  25
ATOM     25  O   UNL     1     -38.839   8.969  75.821  1.00  0.00    -0.507 OA
ATOM     26  H   UNL     1     -38.174   9.728  75.909  1.00  0.00     0.293 HD
ENDBRANCH  10  25
BRANCH  11  27
ATOM     27  O   UNL     1     -43.417  10.058  76.956  1.00  0.00    -0.508 OA
ATOM     28  H   UNL     1     -44.206  10.036  77.591  1.00  0.00     0.293 HD
ENDBRANCH  11  27
ENDBRANCH   1   2
BRANCH   1  29
ATOM     29  C   UNL     1     -36.437   6.466  80.693  1.00  0.00     0.339 C 
ATOM     30  C   UNL     1     -35.086   6.230  79.985  1.00  0.00     0.214 C 
ATOM     31  O   UNL     1     -36.434   5.930  82.010  1.00  0.00    -0.332 OA
ATOM     32  C   UNL     1     -34.698   4.740  80.016  1.00  0.00     0.180 C 
ATOM     33  C   UNL     1     -36.245   4.524  81.998  1.00  0.00     0.179 C 
ATOM     34  C   UNL     1     -34.847   4.169  81.442  1.00  0.00     0.177 C 
BRANCH  30  35
ATOM     35  O   UNL     1     -34.080   6.988  80.609  1.00  0.00    -0.384 OA
ATOM     36  H   UNL     1     -33.237   6.471  80.532  1.00  0.00     0.211 HD
ENDBRANCH  30  35
BRANCH  32  37
ATOM     37  O   UNL     1     -35.513   4.026  79.121  1.00  0.00    -0.387 OA
ATOM     38  H   UNL     1     -35.643   3.121  79.507  1.00  0.00     0.211 HD
ENDBRANCH  32  37
BRANCH  33  39
ATOM     39  C   UNL     1     -36.437   3.995  83.423  1.00  0.00     0.191 C 
BRANCH  39  40
ATOM     40  O   UNL     1     -35.440   3.060  83.733  1.00  0.00    -0.394 OA
ATOM     41  H   UNL     1     -34.920   3.450  84.483  1.00  0.00     0.210 HD
ENDBRANCH  39  40
ENDBRANCH  33  39
BRANCH  34  42
ATOM     42  O   UNL     1     -33.850   4.699  82.280  1.00  0.00    -0.387 OA
ATOM     43  H   UNL     1     -33.178   5.129  81.690  1.00  0.00     0.211 HD
ENDBRANCH  34  42
ENDBRANCH   1  29
TORSDOF 13
ENDMDL
MODEL 9
REMARK VINA RESULT:    -5.928      2.698      7.544
REMARK INTER + INTRA:         -10.656
REMARK INTER:                  -9.381
REMARK INTRA:                  -1.276
REMARK UNBOUND:                -1.782
REMARK SMILES O=c1c(O[C@H]2O[C@H](CO)[C@H](O)[C@@H](O)[C@@H]2O)c(-c2cc(O)c(O)c(O)c2)oc2cc(O)cc(O)c12
REMARK SMILES IDX 4 1 3 2 16 3 26 4 2 5 27 6 1 7 34 8 28 9 32 10 29 11 31 12
REMARK SMILES IDX 17 13 18 14 19 15 25 16 21 17 23 18 20 19 22 21 24 23 33 25
REMARK SMILES IDX 30 27 5 29 14 30 6 31 12 32 7 33 10 34 15 35 13 37 8 39 9 40
REMARK SMILES IDX 11 42
REMARK H PARENT 20 20 22 22 24 24 33 26 30 28 15 36 13 38 9 41 11 43
REMARK Flexibility Score: inf
ROOT
ATOM      1  O   UNL     1     -39.114   6.914  79.894  1.00  0.00    -0.454 OA
ENDROOT
BRANCH   1   2
ATOM      2  C   UNL     1     -38.156   6.207  80.647  1.00  0.00     0.214 A 
ATOM      3  C   UNL     1     -38.439   4.870  80.988  1.00  0.00     0.181 A 
ATOM      4  O   UNL     1     -37.537   4.139  81.634  1.00  0.00    -0.452 OA
ATOM      5  C   UNL     1     -36.920   6.756  81.055  1.00  0.00     0.239 A 
ATOM      6  C   UNL     1     -36.358   4.608  82.019  1.00  0.00     0.146 A 
ATOM      7  O   UNL     1     -36.648   7.961  80.811  1.00  0.00    -0.285 OA
ATOM      8  C   UNL     1     -35.995   5.948  81.749  1.00  0.00     0.111 A 
ATOM      9  C   UNL     1     -35.480   3.761  82.700  1.00  0.00     0.094 A 
ATOM     10  C   UNL     1     -34.727   6.414  82.178  1.00  0.00     0.134 A 
ATOM     11  C   UNL     1     -34.236   4.226  83.126  1.00  0.00     0.123 A 
ATOM     12  C   UNL     1     -33.861   5.550  82.863  1.00  0.00     0.093 A 
BRANCH   3  13
ATOM     13  C   UNL     1     -39.722   4.228  80.618  1.00  0.00     0.029 A 
ATOM     14  C   UNL     1     -40.803   4.276  81.510  1.00  0.00     0.062 A 
ATOM     15  C   UNL     1     -42.026   3.677  81.190  1.00  0.00     0.162 A 
ATOM     16  C   UNL     1     -39.891   3.607  79.370  1.00  0.00     0.062 A 
ATOM     17  C   UNL     1     -42.183   3.030  79.941  1.00  0.00     0.200 A 
ATOM     18  C   UNL     1     -41.112   3.005  79.037  1.00  0.00     0.162 A 
BRANCH  15  19
ATOM     19  O   UNL     1     -43.049   3.745  82.138  1.00  0.00    -0.504 OA
ATOM     20  H   UNL     1     -43.643   4.550  82.274  1.00  0.00     0.293 HD
ENDBRANCH  15  19
BRANCH  17  21
ATOM     21  O   UNL     1     -43.375   2.409  79.561  1.00  0.00    -0.502 OA
ATOM     22  H   UNL     1     -43.628   2.205  78.605  1.00  0.00     0.293 HD
ENDBRANCH  17  21
BRANCH  18  23
ATOM     23  O   UNL     1     -41.268   2.379  77.802  1.00  0.00    -0.504 OA
ATOM     24  H   UNL     1     -41.164   1.376  77.699  1.00  0.00     0.293 HD
ENDBRANCH  18  23
ENDBRANCH   3  13
BRANCH  10  25
ATOM     25  O   UNL     1     -34.321   7.726  81.925  1.00  0.00    -0.507 OA
ATOM     26  H   UNL     1     -34.029   8.346  82.671  1.00  0.00     0.293 HD
ENDBRANCH  10  25
BRANCH  11  27
ATOM     27  O   UNL     1     -33.378   3.368  83.809  1.00  0.00    -0.508 OA
ATOM     28  H   UNL     1     -33.572   3.068  84.757  1.00  0.00     0.293 HD
ENDBRANCH  11  27
ENDBRANCH   1   2
BRANCH   1  29
ATOM     29  C   UNL     1     -39.526   6.651  78.549  1.00  0.00     0.339 C 
ATOM     30  C   UNL     1     -38.510   7.263  77.560  1.00  0.00     0.214 C 
ATOM     31  O   UNL     1     -40.842   7.127  78.303  1.00  0.00    -0.332 OA
ATOM     32  C   UNL     1     -38.593   8.800  77.562  1.00  0.00     0.180 C 
ATOM     33  C   UNL     1     -40.929   8.533  78.480  1.00  0.00     0.179 C 
ATOM     34  C   UNL     1     -40.059   9.266  77.434  1.00  0.00     0.177 C 
BRANCH  30  35
ATOM     35  O   UNL     1     -38.759   6.783  76.263  1.00  0.00    -0.384 OA
ATOM     36  H   UNL     1     -38.938   5.811  76.342  1.00  0.00     0.211 HD
ENDBRANCH  30  35
BRANCH  32  37
ATOM     37  O   UNL     1     -38.030   9.297  78.750  1.00  0.00    -0.387 OA
ATOM     38  H   UNL     1     -37.607  10.167  78.529  1.00  0.00     0.211 HD
ENDBRANCH  32  37
BRANCH  33  39
ATOM     39  C   UNL     1     -42.401   8.947  78.382  1.00  0.00     0.191 C 
BRANCH  39  40
ATOM     40  O   UNL     1     -42.527  10.116  77.620  1.00  0.00    -0.394 OA
ATOM     41  H   UNL     1     -42.541   9.826  76.670  1.00  0.00     0.210 HD
ENDBRANCH  39  40
ENDBRANCH  33  39
BRANCH  34  42
ATOM     42  O   UNL     1     -40.538   8.998  76.140  1.00  0.00    -0.387 OA
ATOM     43  H   UNL     1     -41.525   9.100  76.172  1.00  0.00     0.211 HD
ENDBRANCH  34  42
ENDBRANCH   1  29
TORSDOF 13
ENDMDL
