MODEL 1
REMARK VINA RESULT:    -6.982      0.000      0.000
REMARK INTER + INTRA:         -12.889
REMARK INTER:                 -11.880
REMARK INTRA:                  -1.009
REMARK UNBOUND:                -1.009
REMARK SMILES CCCCCCCCCCCCCC(=O)[O-]
REMARK SMILES IDX 8 1 9 2 10 3 11 4 12 5 13 6 14 7 15 8 16 9 7 10 6 11 5 12
REMARK SMILES IDX 4 13 3 14 2 15 1 16
REMARK H PARENT
REMARK Flexibility Score: inf
ROOT
ATOM      1  C   UNL     1      29.072  -2.072  19.260  1.00  0.00     0.000 C 
ENDROOT
BRANCH   1   2
ATOM      2  C   UNL     1      28.244  -1.359  20.339  1.00  0.00     0.000 C 
BRANCH   2   3
ATOM      3  C   UNL     1      27.007  -0.646  19.761  1.00  0.00     0.000 C 
BRANCH   3   4
ATOM      4  C   UNL     1      25.708  -1.440  20.013  1.00  0.00     0.000 C 
BRANCH   4   5
ATOM      5  C   UNL     1      24.429  -0.632  19.734  1.00  0.00     0.006 C 
BRANCH   5   6
ATOM      6  C   UNL     1      24.707   0.855  19.480  1.00  0.00     0.053 C 
BRANCH   6   7
ATOM      7  C   UNL     1      23.594   1.465  18.689  1.00  0.00     0.041 C 
ATOM      8  O   UNL     1      22.506   1.759  19.250  1.00  0.00    -0.550 OA
ATOM      9  O   UNL     1      23.739   1.664  17.322  1.00  0.00    -0.550 OA
ENDBRANCH   6   7
ENDBRANCH   5   6
ENDBRANCH   4   5
ENDBRANCH   3   4
ENDBRANCH   2   3
ENDBRANCH   1   2
BRANCH   1  10
ATOM     10  C   UNL     1      29.342  -3.547  19.602  1.00  0.00     0.000 C 
BRANCH  10  11
ATOM     11  C   UNL     1      28.827  -4.513  18.521  1.00  0.00    -0.000 C 
BRANCH  11  12
ATOM     12  C   UNL     1      27.295  -4.686  18.477  1.00  0.00    -0.000 C 
BRANCH  12  13
ATOM     13  C   UNL     1      26.622  -4.893  19.846  1.00  0.00    -0.000 C 
BRANCH  13  14
ATOM     14  C   UNL     1      25.891  -6.239  19.954  1.00  0.00    -0.000 C 
BRANCH  14  15
ATOM     15  C   UNL     1      26.729  -7.368  19.342  1.00  0.00    -0.003 C 
ATOM     16  C   UNL     1      26.732  -8.601  20.241  1.00  0.00     0.004 C 
ENDBRANCH  14  15
ENDBRANCH  13  14
ENDBRANCH  12  13
ENDBRANCH  11  12
ENDBRANCH  10  11
ENDBRANCH   1  10
TORSDOF 12
ENDMDL
MODEL 2
REMARK VINA RESULT:    -6.971      3.715      6.575
REMARK INTER + INTRA:         -12.870
REMARK INTER:                 -11.792
REMARK INTRA:                  -1.079
REMARK UNBOUND:                -1.009
REMARK SMILES CCCCCCCCCCCCCC(=O)[O-]
REMARK SMILES IDX 8 1 9 2 10 3 11 4 12 5 13 6 14 7 15 8 16 9 7 10 6 11 5 12
REMARK SMILES IDX 4 13 3 14 2 15 1 16
REMARK H PARENT
REMARK Flexibility Score: inf
ROOT
ATOM      1  C   UNL     1      28.885  -3.730  19.549  1.00  0.00     0.000 C 
ENDROOT
BRANCH   1   2
ATOM      2  C   UNL     1      28.577  -4.593  18.317  1.00  0.00     0.000 C 
BRANCH   2   3
ATOM      3  C   UNL     1      27.142  -5.151  18.329  1.00  0.00     0.000 C 
BRANCH   3   4
ATOM      4  C   UNL     1      26.492  -5.054  19.725  1.00  0.00     0.000 C 
BRANCH   4   5
ATOM      5  C   UNL     1      24.965  -5.239  19.708  1.00  0.00     0.006 C 
BRANCH   5   6
ATOM      6  C   UNL     1      24.542  -6.676  19.379  1.00  0.00     0.053 C 
BRANCH   6   7
ATOM      7  C   UNL     1      24.673  -7.548  20.587  1.00  0.00     0.041 C 
ATOM      8  O   UNL     1      23.905  -7.385  21.571  1.00  0.00    -0.550 OA
ATOM      9  O   UNL     1      25.675  -8.508  20.647  1.00  0.00    -0.550 OA
ENDBRANCH   6   7
ENDBRANCH   5   6
ENDBRANCH   4   5
ENDBRANCH   3   4
ENDBRANCH   2   3
ENDBRANCH   1   2
BRANCH   1  10
ATOM     10  C   UNL     1      29.473  -2.358  19.177  1.00  0.00     0.000 C 
BRANCH  10  11
ATOM     11  C   UNL     1      28.709  -1.188  19.822  1.00  0.00    -0.000 C 
BRANCH  11  12
ATOM     12  C   UNL     1      27.396  -1.578  20.529  1.00  0.00    -0.000 C 
BRANCH  12  13
ATOM     13  C   UNL     1      26.110  -1.247  19.750  1.00  0.00    -0.000 C 
BRANCH  13  14
ATOM     14  C   UNL     1      25.772   0.252  19.766  1.00  0.00    -0.000 C 
BRANCH  14  15
ATOM     15  C   UNL     1      24.264   0.475  19.604  1.00  0.00    -0.003 C 
ATOM     16  C   UNL     1      23.974   1.512  18.523  1.00  0.00     0.004 C 
ENDBRANCH  14  15
ENDBRANCH  13  14
ENDBRANCH  12  13
ENDBRANCH  11  12
ENDBRANCH  10  11
ENDBRANCH   1  10
TORSDOF 12
ENDMDL
MODEL 3
REMARK VINA RESULT:    -6.965      3.603      6.628
REMARK INTER + INTRA:         -12.860
REMARK INTER:                 -11.854
REMARK INTRA:                  -1.006
REMARK UNBOUND:                -1.009
REMARK SMILES CCCCCCCCCCCCCC(=O)[O-]
REMARK SMILES IDX 8 1 9 2 10 3 11 4 12 5 13 6 14 7 15 8 16 9 7 10 6 11 5 12
REMARK SMILES IDX 4 13 3 14 2 15 1 16
REMARK H PARENT
REMARK Flexibility Score: inf
ROOT
ATOM      1  C   UNL     1      28.744  -4.691  18.634  1.00  0.00     0.000 C 
ENDROOT
BRANCH   1   2
ATOM      2  C   UNL     1      27.288  -4.527  18.175  1.00  0.00     0.000 C 
BRANCH   2   3
ATOM      3  C   UNL     1      26.275  -4.928  19.264  1.00  0.00     0.000 C 
BRANCH   3   4
ATOM      4  C   UNL     1      26.738  -6.167  20.059  1.00  0.00     0.000 C 
BRANCH   4   5
ATOM      5  C   UNL     1      26.104  -7.481  19.574  1.00  0.00     0.006 C 
BRANCH   5   6
ATOM      6  C   UNL     1      25.612  -8.367  20.725  1.00  0.00     0.053 C 
BRANCH   6   7
ATOM      7  C   UNL     1      24.240  -7.953  21.153  1.00  0.00     0.041 C 
ATOM      8  O   UNL     1      23.815  -8.259  22.297  1.00  0.00    -0.550 OA
ATOM      9  O   UNL     1      23.412  -7.272  20.270  1.00  0.00    -0.550 OA
ENDBRANCH   6   7
ENDBRANCH   5   6
ENDBRANCH   4   5
ENDBRANCH   3   4
ENDBRANCH   2   3
ENDBRANCH   1   2
BRANCH   1  10
ATOM     10  C   UNL     1      29.420  -3.346  18.948  1.00  0.00     0.000 C 
BRANCH  10  11
ATOM     11  C   UNL     1      28.595  -2.474  19.911  1.00  0.00    -0.000 C 
BRANCH  11  12
ATOM     12  C   UNL     1      28.426  -1.004  19.477  1.00  0.00    -0.000 C 
BRANCH  12  13
ATOM     13  C   UNL     1      27.075  -0.365  19.845  1.00  0.00    -0.000 C 
BRANCH  13  14
ATOM     14  C   UNL     1      25.973  -1.405  20.101  1.00  0.00    -0.000 C 
BRANCH  14  15
ATOM     15  C   UNL     1      24.588  -0.820  19.801  1.00  0.00    -0.003 C 
ATOM     16  C   UNL     1      24.673   0.676  19.514  1.00  0.00     0.004 C 
ENDBRANCH  14  15
ENDBRANCH  13  14
ENDBRANCH  12  13
ENDBRANCH  11  12
ENDBRANCH  10  11
ENDBRANCH   1  10
TORSDOF 12
ENDMDL
MODEL 4
REMARK VINA RESULT:    -6.941      3.826      6.679
REMARK INTER + INTRA:         -12.819
REMARK INTER:                 -11.859
REMARK INTRA:                  -0.960
REMARK UNBOUND:                -1.009
REMARK SMILES CCCCCCCCCCCCCC(=O)[O-]
REMARK SMILES IDX 8 1 9 2 10 3 11 4 12 5 13 6 14 7 15 8 16 9 7 10 6 11 5 12
REMARK SMILES IDX 4 13 3 14 2 15 1 16
REMARK H PARENT
REMARK Flexibility Score: inf
ROOT
ATOM      1  C   UNL     1      28.954  -4.262  18.554  1.00  0.00     0.000 C 
ENDROOT
BRANCH   1   2
ATOM      2  C   UNL     1      27.594  -4.946  18.355  1.00  0.00     0.000 C 
BRANCH   2   3
ATOM      3  C   UNL     1      26.943  -5.367  19.685  1.00  0.00     0.000 C 
BRANCH   3   4
ATOM      4  C   UNL     1      25.402  -5.365  19.604  1.00  0.00     0.000 C 
BRANCH   4   5
ATOM      5  C   UNL     1      24.797  -6.757  19.359  1.00  0.00     0.006 C 
BRANCH   5   6
ATOM      6  C   UNL     1      25.099  -7.746  20.492  1.00  0.00     0.053 C 
BRANCH   6   7
ATOM      7  C   UNL     1      23.846  -8.088  21.234  1.00  0.00     0.041 C 
ATOM      8  O   UNL     1      23.883  -8.306  22.474  1.00  0.00    -0.550 OA
ATOM      9  O   UNL     1      22.644  -8.214  20.550  1.00  0.00    -0.550 OA
ENDBRANCH   6   7
ENDBRANCH   5   6
ENDBRANCH   4   5
ENDBRANCH   3   4
ENDBRANCH   2   3
ENDBRANCH   1   2
BRANCH   1  10
ATOM     10  C   UNL     1      28.958  -3.289  19.745  1.00  0.00     0.000 C 
BRANCH  10  11
ATOM     11  C   UNL     1      28.879  -1.815  19.310  1.00  0.00    -0.000 C 
BRANCH  11  12
ATOM     12  C   UNL     1      27.644  -1.048  19.826  1.00  0.00    -0.000 C 
BRANCH  12  13
ATOM     13  C   UNL     1      26.418  -1.923  20.144  1.00  0.00    -0.000 C 
BRANCH  13  14
ATOM     14  C   UNL     1      25.091  -1.159  20.019  1.00  0.00    -0.000 C 
BRANCH  14  15
ATOM     15  C   UNL     1      25.339   0.318  19.689  1.00  0.00    -0.003 C 
ATOM     16  C   UNL     1      24.089   0.968  19.103  1.00  0.00     0.004 C 
ENDBRANCH  14  15
ENDBRANCH  13  14
ENDBRANCH  12  13
ENDBRANCH  11  12
ENDBRANCH  10  11
ENDBRANCH   1  10
TORSDOF 12
ENDMDL
MODEL 5
REMARK VINA RESULT:    -6.865      1.291      1.857
REMARK INTER + INTRA:         -12.689
REMARK INTER:                 -11.469
REMARK INTRA:                  -1.221
REMARK UNBOUND:                -1.009
REMARK SMILES CCCCCCCCCCCCCC(=O)[O-]
REMARK SMILES IDX 8 1 9 2 10 3 11 4 12 5 13 6 14 7 15 8 16 9 7 10 6 11 5 12
REMARK SMILES IDX 4 13 3 14 2 15 1 16
REMARK H PARENT
REMARK Flexibility Score: inf
ROOT
ATOM      1  C   UNL     1      28.948  -3.536  19.767  1.00  0.00     0.000 C 
ENDROOT
BRANCH   1   2
ATOM      2  C   UNL     1      29.474  -2.137  19.411  1.00  0.00     0.000 C 
BRANCH   2   3
ATOM      3  C   UNL     1      28.460  -1.024  19.733  1.00  0.00     0.000 C 
BRANCH   3   4
ATOM      4  C   UNL     1      27.186  -1.576  20.406  1.00  0.00     0.000 C 
BRANCH   4   5
ATOM      5  C   UNL     1      25.958  -1.589  19.479  1.00  0.00     0.006 C 
BRANCH   5   6
ATOM      6  C   UNL     1      24.754  -0.848  20.075  1.00  0.00     0.053 C 
BRANCH   6   7
ATOM      7  C   UNL     1      24.618   0.508  19.459  1.00  0.00     0.041 C 
ATOM      8  O   UNL     1      25.617   1.271  19.383  1.00  0.00    -0.550 OA
ATOM      9  O   UNL     1      23.379   0.949  19.013  1.00  0.00    -0.550 OA
ENDBRANCH   6   7
ENDBRANCH   5   6
ENDBRANCH   4   5
ENDBRANCH   3   4
ENDBRANCH   2   3
ENDBRANCH   1   2
BRANCH   1  10
ATOM     10  C   UNL     1      28.778  -4.436  18.531  1.00  0.00     0.000 C 
BRANCH  10  11
ATOM     11  C   UNL     1      27.319  -4.869  18.307  1.00  0.00    -0.000 C 
BRANCH  11  12
ATOM     12  C   UNL     1      26.557  -5.279  19.584  1.00  0.00    -0.000 C 
BRANCH  12  13
ATOM     13  C   UNL     1      25.025  -5.156  19.499  1.00  0.00    -0.000 C 
BRANCH  13  14
ATOM     14  C   UNL     1      24.314  -6.518  19.547  1.00  0.00    -0.000 C 
BRANCH  14  15
ATOM     15  C   UNL     1      25.167  -7.555  20.288  1.00  0.00    -0.003 C 
ATOM     16  C   UNL     1      24.317  -8.377  21.253  1.00  0.00     0.004 C 
ENDBRANCH  14  15
ENDBRANCH  13  14
ENDBRANCH  12  13
ENDBRANCH  11  12
ENDBRANCH  10  11
ENDBRANCH   1  10
TORSDOF 12
ENDMDL
MODEL 6
REMARK VINA RESULT:    -6.713      3.912      6.532
REMARK INTER + INTRA:         -12.431
REMARK INTER:                 -11.131
REMARK INTRA:                  -1.299
REMARK UNBOUND:                -1.009
REMARK SMILES CCCCCCCCCCCCCC(=O)[O-]
REMARK SMILES IDX 8 1 9 2 10 3 11 4 12 5 13 6 14 7 15 8 16 9 7 10 6 11 5 12
REMARK SMILES IDX 4 13 3 14 2 15 1 16
REMARK H PARENT
REMARK Flexibility Score: inf
ROOT
ATOM      1  C   UNL     1      28.537  -4.484  18.508  1.00  0.00     0.000 C 
ENDROOT
BRANCH   1   2
ATOM      2  C   UNL     1      27.019  -4.442  18.283  1.00  0.00     0.000 C 
BRANCH   2   3
ATOM      3  C   UNL     1      26.224  -4.506  19.601  1.00  0.00     0.000 C 
BRANCH   3   4
ATOM      4  C   UNL     1      24.741  -4.865  19.369  1.00  0.00     0.000 C 
BRANCH   4   5
ATOM      5  C   UNL     1      24.464  -6.378  19.388  1.00  0.00     0.006 C 
BRANCH   5   6
ATOM      6  C   UNL     1      25.214  -7.107  20.510  1.00  0.00     0.053 C 
BRANCH   6   7
ATOM      7  C   UNL     1      26.259  -8.011  19.938  1.00  0.00     0.041 C 
ATOM      8  O   UNL     1      26.708  -8.970  20.619  1.00  0.00    -0.550 OA
ATOM      9  O   UNL     1      26.774  -7.766  18.671  1.00  0.00    -0.550 OA
ENDBRANCH   6   7
ENDBRANCH   5   6
ENDBRANCH   4   5
ENDBRANCH   3   4
ENDBRANCH   2   3
ENDBRANCH   1   2
BRANCH   1  10
ATOM     10  C   UNL     1      28.975  -3.676  19.741  1.00  0.00     0.000 C 
BRANCH  10  11
ATOM     11  C   UNL     1      29.652  -2.345  19.372  1.00  0.00    -0.000 C 
BRANCH  11  12
ATOM     12  C   UNL     1      28.960  -1.085  19.930  1.00  0.00    -0.000 C 
BRANCH  12  13
ATOM     13  C   UNL     1      27.568  -0.790  19.344  1.00  0.00    -0.000 C 
BRANCH  13  14
ATOM     14  C   UNL     1      26.442  -0.930  20.380  1.00  0.00    -0.000 C 
BRANCH  14  15
ATOM     15  C   UNL     1      25.072  -0.986  19.694  1.00  0.00    -0.003 C 
ATOM     16  C   UNL     1      24.460   0.407  19.571  1.00  0.00     0.004 C 
ENDBRANCH  14  15
ENDBRANCH  13  14
ENDBRANCH  12  13
ENDBRANCH  11  12
ENDBRANCH  10  11
ENDBRANCH   1  10
TORSDOF 12
ENDMDL
MODEL 7
REMARK VINA RESULT:    -6.688      3.186      4.348
REMARK INTER + INTRA:         -12.389
REMARK INTER:                 -11.368
REMARK INTRA:                  -1.021
REMARK UNBOUND:                -1.009
REMARK SMILES CCCCCCCCCCCCCC(=O)[O-]
REMARK SMILES IDX 8 1 9 2 10 3 11 4 12 5 13 6 14 7 15 8 16 9 7 10 6 11 5 12
REMARK SMILES IDX 4 13 3 14 2 15 1 16
REMARK H PARENT
REMARK Flexibility Score: inf
ROOT
ATOM      1  C   UNL     1      25.372  -3.051  19.246  1.00  0.00     0.000 C 
ENDROOT
BRANCH   1   2
ATOM      2  C   UNL     1      25.275  -1.983  20.345  1.00  0.00     0.000 C 
BRANCH   2   3
ATOM      3  C   UNL     1      25.456  -0.554  19.799  1.00  0.00     0.000 C 
BRANCH   3   4
ATOM      4  C   UNL     1      26.942  -0.149  19.713  1.00  0.00     0.000 C 
BRANCH   4   5
ATOM      5  C   UNL     1      27.893  -1.148  20.395  1.00  0.00     0.006 C 
BRANCH   5   6
ATOM      6  C   UNL     1      29.306  -1.129  19.799  1.00  0.00     0.053 C 
BRANCH   6   7
ATOM      7  C   UNL     1      29.731  -2.513  19.423  1.00  0.00     0.041 C 
ATOM      8  O   UNL     1      29.822  -3.408  20.304  1.00  0.00    -0.550 OA
ATOM      9  O   UNL     1      30.076  -2.802  18.109  1.00  0.00    -0.550 OA
ENDBRANCH   6   7
ENDBRANCH   5   6
ENDBRANCH   4   5
ENDBRANCH   3   4
ENDBRANCH   2   3
ENDBRANCH   1   2
BRANCH   1  10
ATOM     10  C   UNL     1      26.254  -4.242  19.655  1.00  0.00     0.000 C 
BRANCH  10  11
ATOM     11  C   UNL     1      27.116  -4.772  18.495  1.00  0.00    -0.000 C 
BRANCH  11  12
ATOM     12  C   UNL     1      27.576  -6.237  18.641  1.00  0.00    -0.000 C 
BRANCH  12  13
ATOM     13  C   UNL     1      26.442  -7.263  18.811  1.00  0.00    -0.000 C 
BRANCH  13  14
ATOM     14  C   UNL     1      26.706  -8.262  19.948  1.00  0.00    -0.000 C 
BRANCH  14  15
ATOM     15  C   UNL     1      25.486  -8.378  20.870  1.00  0.00    -0.003 C 
ATOM     16  C   UNL     1      24.399  -7.385  20.470  1.00  0.00     0.004 C 
ENDBRANCH  14  15
ENDBRANCH  13  14
ENDBRANCH  12  13
ENDBRANCH  11  12
ENDBRANCH  10  11
ENDBRANCH   1  10
TORSDOF 12
ENDMDL
MODEL 8
REMARK VINA RESULT:    -6.302      3.638      7.453
REMARK INTER + INTRA:         -11.733
REMARK INTER:                 -11.105
REMARK INTRA:                  -0.628
REMARK UNBOUND:                -1.009
REMARK SMILES CCCCCCCCCCCCCC(=O)[O-]
REMARK SMILES IDX 8 1 9 2 10 3 11 4 12 5 13 6 14 7 15 8 16 9 7 10 6 11 5 12
REMARK SMILES IDX 4 13 3 14 2 15 1 16
REMARK H PARENT
REMARK Flexibility Score: inf
ROOT
ATOM      1  C   UNL     1      26.235  -4.170  19.544  1.00  0.00     0.000 C 
ENDROOT
BRANCH   1   2
ATOM      2  C   UNL     1      26.720  -5.563  19.972  1.00  0.00     0.000 C 
BRANCH   2   3
ATOM      3  C   UNL     1      27.007  -6.484  18.772  1.00  0.00     0.000 C 
BRANCH   3   4
ATOM      4  C   UNL     1      26.920  -7.977  19.151  1.00  0.00     0.000 C 
BRANCH   4   5
ATOM      5  C   UNL     1      26.437  -8.218  20.592  1.00  0.00     0.006 C 
BRANCH   5   6
ATOM      6  C   UNL     1      25.089  -8.947  20.655  1.00  0.00     0.053 C 
BRANCH   6   7
ATOM      7  C   UNL     1      24.020  -8.027  21.152  1.00  0.00     0.041 C 
ATOM      8  O   UNL     1      23.376  -7.309  20.343  1.00  0.00    -0.550 OA
ATOM      9  O   UNL     1      23.769  -7.925  22.514  1.00  0.00    -0.550 OA
ENDBRANCH   6   7
ENDBRANCH   5   6
ENDBRANCH   4   5
ENDBRANCH   3   4
ENDBRANCH   2   3
ENDBRANCH   1   2
BRANCH   1  10
ATOM     10  C   UNL     1      27.391  -3.172  19.362  1.00  0.00     0.000 C 
BRANCH  10  11
ATOM     11  C   UNL     1      27.306  -1.979  20.330  1.00  0.00    -0.000 C 
BRANCH  11  12
ATOM     12  C   UNL     1      26.603  -0.728  19.763  1.00  0.00    -0.000 C 
BRANCH  12  13
ATOM     13  C   UNL     1      25.066  -0.747  19.849  1.00  0.00    -0.000 C 
BRANCH  13  14
ATOM     14  C   UNL     1      24.448   0.659  19.795  1.00  0.00    -0.000 C 
BRANCH  14  15
ATOM     15  C   UNL     1      23.976   0.994  18.375  1.00  0.00    -0.003 C 
ATOM     16  C   UNL     1      24.010   2.500  18.125  1.00  0.00     0.004 C 
ENDBRANCH  14  15
ENDBRANCH  13  14
ENDBRANCH  12  13
ENDBRANCH  11  12
ENDBRANCH  10  11
ENDBRANCH   1  10
TORSDOF 12
ENDMDL
MODEL 9
REMARK VINA RESULT:    -6.288      3.852      6.822
REMARK INTER + INTRA:         -11.708
REMARK INTER:                 -10.499
REMARK INTRA:                  -1.209
REMARK UNBOUND:                -1.009
REMARK SMILES CCCCCCCCCCCCCC(=O)[O-]
REMARK SMILES IDX 8 1 9 2 10 3 11 4 12 5 13 6 14 7 15 8 16 9 7 10 6 11 5 12
REMARK SMILES IDX 4 13 3 14 2 15 1 16
REMARK H PARENT
REMARK Flexibility Score: inf
ROOT
ATOM      1  C   UNL     1      26.007  -3.596  19.740  1.00  0.00     0.000 C 
ENDROOT
BRANCH   1   2
ATOM      2  C   UNL     1      26.583  -4.417  18.577  1.00  0.00     0.000 C 
BRANCH   2   3
ATOM      3  C   UNL     1      27.529  -5.535  19.053  1.00  0.00     0.000 C 
BRANCH   3   4
ATOM      4  C   UNL     1      26.900  -6.935  18.894  1.00  0.00     0.000 C 
BRANCH   4   5
ATOM      5  C   UNL     1      26.077  -7.381  20.115  1.00  0.00     0.006 C 
BRANCH   5   6
ATOM      6  C   UNL     1      24.580  -7.080  19.967  1.00  0.00     0.053 C 
BRANCH   6   7
ATOM      7  C   UNL     1      23.788  -7.875  20.956  1.00  0.00     0.041 C 
ATOM      8  O   UNL     1      23.942  -7.683  22.191  1.00  0.00    -0.550 OA
ATOM      9  O   UNL     1      22.915  -8.862  20.517  1.00  0.00    -0.550 OA
ENDBRANCH   6   7
ENDBRANCH   5   6
ENDBRANCH   4   5
ENDBRANCH   3   4
ENDBRANCH   2   3
ENDBRANCH   1   2
BRANCH   1  10
ATOM     10  C   UNL     1      25.078  -2.467  19.264  1.00  0.00     0.000 C 
BRANCH  10  11
ATOM     11  C   UNL     1      25.028  -1.283  20.246  1.00  0.00    -0.000 C 
BRANCH  11  12
ATOM     12  C   UNL     1      25.517   0.062  19.670  1.00  0.00    -0.000 C 
BRANCH  12  13
ATOM     13  C   UNL     1      26.946   0.465  20.076  1.00  0.00    -0.000 C 
BRANCH  13  14
ATOM     14  C   UNL     1      28.026  -0.276  19.273  1.00  0.00    -0.000 C 
BRANCH  14  15
ATOM     15  C   UNL     1      28.829  -1.219  20.177  1.00  0.00    -0.003 C 
ATOM     16  C   UNL     1      29.484  -2.333  19.366  1.00  0.00     0.004 C 
ENDBRANCH  14  15
ENDBRANCH  13  14
ENDBRANCH  12  13
ENDBRANCH  11  12
ENDBRANCH  10  11
ENDBRANCH   1  10
TORSDOF 12
ENDMDL
