MODEL 1
REMARK VINA RESULT:    -4.193      0.000      0.000
REMARK INTER + INTRA:          -9.215
REMARK INTER:                  -7.380
REMARK INTRA:                  -1.836
REMARK UNBOUND:                -1.836
REMARK SMILES CCCCCCCCCCCCCCC(=O)[O-]
REMARK SMILES IDX 9 1 10 2 11 3 12 4 13 5 14 6 15 7 16 8 17 9 8 10 7 11 6 12
REMARK SMILES IDX 5 13 4 14 3 15 2 16 1 17
REMARK H PARENT
REMARK Flexibility Score: inf
ROOT
ATOM      1  C   UNL     1       8.230 -18.356  23.423  1.00  0.00     0.000 C 
ENDROOT
BRANCH   1   2
ATOM      2  C   UNL     1       6.745 -17.972  23.509  1.00  0.00     0.000 C 
BRANCH   2   3
ATOM      3  C   UNL     1       6.522 -16.870  24.551  1.00  0.00     0.000 C 
BRANCH   3   4
ATOM      4  C   UNL     1       6.168 -15.537  23.874  1.00  0.00     0.000 C 
BRANCH   4   5
ATOM      5  C   UNL     1       7.358 -14.566  23.819  1.00  0.00     0.006 C 
BRANCH   5   6
ATOM      6  C   UNL     1       8.220 -14.617  25.088  1.00  0.00     0.053 C 
BRANCH   6   7
ATOM      7  C   UNL     1       9.639 -14.936  24.741  1.00  0.00     0.041 C 
ATOM      8  O   UNL     1      10.238 -14.277  23.850  1.00  0.00    -0.550 OA
ATOM      9  O   UNL     1      10.287 -15.993  25.367  1.00  0.00    -0.550 OA
ENDBRANCH   6   7
ENDBRANCH   5   6
ENDBRANCH   4   5
ENDBRANCH   3   4
ENDBRANCH   2   3
ENDBRANCH   1   2
BRANCH   1  10
ATOM     10  C   UNL     1       8.983 -17.602  22.312  1.00  0.00     0.000 C 
BRANCH  10  11
ATOM     11  C   UNL     1       8.273 -17.565  20.946  1.00  0.00    -0.000 C 
BRANCH  11  12
ATOM     12  C   UNL     1       8.226 -16.156  20.331  1.00  0.00    -0.000 C 
BRANCH  12  13
ATOM     13  C   UNL     1       6.850 -15.808  19.735  1.00  0.00    -0.000 C 
BRANCH  13  14
ATOM     14  C   UNL     1       6.207 -14.516  20.275  1.00  0.00    -0.000 C 
BRANCH  14  15
ATOM     15  C   UNL     1       6.255 -13.307  19.317  1.00  0.00    -0.000 C 
BRANCH  15  16
ATOM     16  C   UNL     1       6.517 -13.664  17.843  1.00  0.00    -0.003 C 
ATOM     17  C   UNL     1       7.827 -13.079  17.314  1.00  0.00     0.004 C 
ENDBRANCH  15  16
ENDBRANCH  14  15
ENDBRANCH  13  14
ENDBRANCH  12  13
ENDBRANCH  11  12
ENDBRANCH  10  11
ENDBRANCH   1  10
TORSDOF 13
ENDMDL
MODEL 2
REMARK VINA RESULT:    -4.181      3.501      6.081
REMARK INTER + INTRA:          -9.193
REMARK INTER:                  -7.258
REMARK INTRA:                  -1.935
REMARK UNBOUND:                -1.836
REMARK SMILES CCCCCCCCCCCCCCC(=O)[O-]
REMARK SMILES IDX 9 1 10 2 11 3 12 4 13 5 14 6 15 7 16 8 17 9 8 10 7 11 6 12
REMARK SMILES IDX 5 13 4 14 3 15 2 16 1 17
REMARK H PARENT
REMARK Flexibility Score: inf
ROOT
ATOM      1  C   UNL     1       8.451 -14.654  24.974  1.00  0.00     0.000 C 
ENDROOT
BRANCH   1   2
ATOM      2  C   UNL     1       9.848 -14.962  24.414  1.00  0.00     0.000 C 
BRANCH   2   3
ATOM      3  C   UNL     1      10.522 -16.087  25.209  1.00  0.00     0.000 C 
BRANCH   3   4
ATOM      4  C   UNL     1       9.657 -16.506  26.409  1.00  0.00     0.000 C 
BRANCH   4   5
ATOM      5  C   UNL     1       9.483 -18.030  26.508  1.00  0.00     0.006 C 
BRANCH   5   6
ATOM      6  C   UNL     1      10.628 -18.706  27.274  1.00  0.00     0.053 C 
BRANCH   6   7
ATOM      7  C   UNL     1      11.290 -19.737  26.416  1.00  0.00     0.041 C 
ATOM      8  O   UNL     1      11.663 -20.832  26.913  1.00  0.00    -0.550 OA
ATOM      9  O   UNL     1      11.541 -19.469  25.075  1.00  0.00    -0.550 OA
ENDBRANCH   6   7
ENDBRANCH   5   6
ENDBRANCH   4   5
ENDBRANCH   3   4
ENDBRANCH   2   3
ENDBRANCH   1   2
BRANCH   1  10
ATOM     10  C   UNL     1       7.373 -14.550  23.879  1.00  0.00     0.000 C 
BRANCH  10  11
ATOM     11  C   UNL     1       6.174 -15.501  24.046  1.00  0.00    -0.000 C 
BRANCH  11  12
ATOM     12  C   UNL     1       6.585 -16.911  24.503  1.00  0.00    -0.000 C 
BRANCH  12  13
ATOM     13  C   UNL     1       7.237 -17.739  23.380  1.00  0.00    -0.000 C 
BRANCH  13  14
ATOM     14  C   UNL     1       6.974 -19.256  23.444  1.00  0.00    -0.000 C 
BRANCH  14  15
ATOM     15  C   UNL     1       8.237 -20.141  23.494  1.00  0.00    -0.000 C 
BRANCH  15  16
ATOM     16  C   UNL     1       8.293 -21.119  24.681  1.00  0.00    -0.003 C 
ATOM     17  C   UNL     1       7.207 -20.851  25.723  1.00  0.00     0.004 C 
ENDBRANCH  15  16
ENDBRANCH  14  15
ENDBRANCH  13  14
ENDBRANCH  12  13
ENDBRANCH  11  12
ENDBRANCH  10  11
ENDBRANCH   1  10
TORSDOF 13
ENDMDL
MODEL 3
REMARK VINA RESULT:    -4.167      3.605      5.337
REMARK INTER + INTRA:          -9.170
REMARK INTER:                  -7.600
REMARK INTRA:                  -1.569
REMARK UNBOUND:                -1.836
REMARK SMILES CCCCCCCCCCCCCCC(=O)[O-]
REMARK SMILES IDX 9 1 10 2 11 3 12 4 13 5 14 6 15 7 16 8 17 9 8 10 7 11 6 12
REMARK SMILES IDX 5 13 4 14 3 15 2 16 1 17
REMARK H PARENT
REMARK Flexibility Score: inf
ROOT
ATOM      1  C   UNL     1       8.727 -18.726  26.321  1.00  0.00     0.000 C 
ENDROOT
BRANCH   1   2
ATOM      2  C   UNL     1       7.489 -19.569  26.663  1.00  0.00     0.000 C 
BRANCH   2   3
ATOM      3  C   UNL     1       7.493 -20.891  25.886  1.00  0.00     0.000 C 
BRANCH   3   4
ATOM      4  C   UNL     1       7.185 -20.655  24.399  1.00  0.00     0.000 C 
BRANCH   4   5
ATOM      5  C   UNL     1       8.355 -21.047  23.483  1.00  0.00     0.006 C 
BRANCH   5   6
ATOM      6  C   UNL     1       8.144 -20.598  22.031  1.00  0.00     0.053 C 
BRANCH   6   7
ATOM      7  C   UNL     1       8.283 -21.761  21.101  1.00  0.00     0.041 C 
ATOM      8  O   UNL     1       8.225 -21.588  19.855  1.00  0.00    -0.550 OA
ATOM      9  O   UNL     1       8.428 -23.046  21.610  1.00  0.00    -0.550 OA
ENDBRANCH   6   7
ENDBRANCH   5   6
ENDBRANCH   4   5
ENDBRANCH   3   4
ENDBRANCH   2   3
ENDBRANCH   1   2
BRANCH   1  10
ATOM     10  C   UNL     1       8.374 -17.307  25.837  1.00  0.00     0.000 C 
BRANCH  10  11
ATOM     11  C   UNL     1       6.868 -16.999  25.748  1.00  0.00    -0.000 C 
BRANCH  11  12
ATOM     12  C   UNL     1       6.345 -16.975  24.303  1.00  0.00    -0.000 C 
BRANCH  12  13
ATOM     13  C   UNL     1       7.474 -16.927  23.257  1.00  0.00    -0.000 C 
BRANCH  13  14
ATOM     14  C   UNL     1       7.756 -15.534  22.658  1.00  0.00    -0.000 C 
BRANCH  14  15
ATOM     15  C   UNL     1       6.675 -14.469  22.935  1.00  0.00    -0.000 C 
BRANCH  15  16
ATOM     16  C   UNL     1       5.928 -13.968  21.687  1.00  0.00    -0.003 C 
ATOM     17  C   UNL     1       6.399 -14.646  20.400  1.00  0.00     0.004 C 
ENDBRANCH  15  16
ENDBRANCH  14  15
ENDBRANCH  13  14
ENDBRANCH  12  13
ENDBRANCH  11  12
ENDBRANCH  10  11
ENDBRANCH   1  10
TORSDOF 13
ENDMDL
MODEL 4
REMARK VINA RESULT:    -4.142      1.971      4.753
REMARK INTER + INTRA:          -9.125
REMARK INTER:                  -7.535
REMARK INTRA:                  -1.589
REMARK UNBOUND:                -1.836
REMARK SMILES CCCCCCCCCCCCCCC(=O)[O-]
REMARK SMILES IDX 9 1 10 2 11 3 12 4 13 5 14 6 15 7 16 8 17 9 8 10 7 11 6 12
REMARK SMILES IDX 5 13 4 14 3 15 2 16 1 17
REMARK H PARENT
REMARK Flexibility Score: inf
ROOT
ATOM      1  C   UNL     1       7.557 -15.741  22.078  1.00  0.00     0.000 C 
ENDROOT
BRANCH   1   2
ATOM      2  C   UNL     1       6.466 -14.869  22.717  1.00  0.00     0.000 C 
BRANCH   2   3
ATOM      3  C   UNL     1       5.953 -15.497  24.019  1.00  0.00     0.000 C 
BRANCH   3   4
ATOM      4  C   UNL     1       6.711 -16.795  24.339  1.00  0.00     0.000 C 
BRANCH   4   5
ATOM      5  C   UNL     1       7.072 -16.918  25.827  1.00  0.00     0.006 C 
BRANCH   5   6
ATOM      6  C   UNL     1       8.020 -15.808  26.299  1.00  0.00     0.053 C 
BRANCH   6   7
ATOM      7  C   UNL     1       9.289 -15.836  25.507  1.00  0.00     0.041 C 
ATOM      8  O   UNL     1       9.603 -14.859  24.777  1.00  0.00    -0.550 OA
ATOM      9  O   UNL     1      10.102 -16.962  25.536  1.00  0.00    -0.550 OA
ENDBRANCH   6   7
ENDBRANCH   5   6
ENDBRANCH   4   5
ENDBRANCH   3   4
ENDBRANCH   2   3
ENDBRANCH   1   2
BRANCH   1  10
ATOM     10  C   UNL     1       7.438 -15.828  20.545  1.00  0.00     0.000 C 
BRANCH  10  11
ATOM     11  C   UNL     1       7.527 -17.249  19.960  1.00  0.00    -0.000 C 
BRANCH  11  12
ATOM     12  C   UNL     1       7.970 -18.298  20.994  1.00  0.00    -0.000 C 
BRANCH  12  13
ATOM     13  C   UNL     1       7.805 -19.744  20.489  1.00  0.00    -0.000 C 
BRANCH  13  14
ATOM     14  C   UNL     1       6.939 -20.656  21.379  1.00  0.00    -0.000 C 
BRANCH  14  15
ATOM     15  C   UNL     1       6.782 -20.191  22.842  1.00  0.00    -0.000 C 
BRANCH  15  16
ATOM     16  C   UNL     1       7.760 -20.845  23.834  1.00  0.00    -0.003 C 
ATOM     17  C   UNL     1       7.295 -20.736  25.286  1.00  0.00     0.004 C 
ENDBRANCH  15  16
ENDBRANCH  14  15
ENDBRANCH  13  14
ENDBRANCH  12  13
ENDBRANCH  11  12
ENDBRANCH  10  11
ENDBRANCH   1  10
TORSDOF 13
ENDMDL
MODEL 5
REMARK VINA RESULT:    -4.128      3.644      6.329
REMARK INTER + INTRA:          -9.101
REMARK INTER:                  -7.045
REMARK INTRA:                  -2.056
REMARK UNBOUND:                -1.836
REMARK SMILES CCCCCCCCCCCCCCC(=O)[O-]
REMARK SMILES IDX 9 1 10 2 11 3 12 4 13 5 14 6 15 7 16 8 17 9 8 10 7 11 6 12
REMARK SMILES IDX 5 13 4 14 3 15 2 16 1 17
REMARK H PARENT
REMARK Flexibility Score: inf
ROOT
ATOM      1  C   UNL     1       7.834 -17.672  23.321  1.00  0.00     0.000 C 
ENDROOT
BRANCH   1   2
ATOM      2  C   UNL     1       6.728 -17.188  24.270  1.00  0.00     0.000 C 
BRANCH   2   3
ATOM      3  C   UNL     1       7.275 -16.973  25.687  1.00  0.00     0.000 C 
BRANCH   3   4
ATOM      4  C   UNL     1       8.747 -17.404  25.778  1.00  0.00     0.000 C 
BRANCH   4   5
ATOM      5  C   UNL     1       9.693 -16.223  26.048  1.00  0.00     0.006 C 
BRANCH   5   6
ATOM      6  C   UNL     1      10.762 -16.063  24.959  1.00  0.00     0.053 C 
BRANCH   6   7
ATOM      7  C   UNL     1      10.474 -14.858  24.120  1.00  0.00     0.041 C 
ATOM      8  O   UNL     1       9.311 -14.377  24.080  1.00  0.00    -0.550 OA
ATOM      9  O   UNL     1      11.478 -14.296  23.342  1.00  0.00    -0.550 OA
ENDBRANCH   6   7
ENDBRANCH   5   6
ENDBRANCH   4   5
ENDBRANCH   3   4
ENDBRANCH   2   3
ENDBRANCH   1   2
BRANCH   1  10
ATOM     10  C   UNL     1       7.472 -18.979  22.592  1.00  0.00     0.000 C 
BRANCH  10  11
ATOM     11  C   UNL     1       6.735 -20.025  23.448  1.00  0.00    -0.000 C 
BRANCH  11  12
ATOM     12  C   UNL     1       7.688 -20.910  24.268  1.00  0.00    -0.000 C 
BRANCH  12  13
ATOM     13  C   UNL     1       7.371 -20.897  25.775  1.00  0.00    -0.000 C 
BRANCH  13  14
ATOM     14  C   UNL     1       8.600 -20.896  26.706  1.00  0.00    -0.000 C 
BRANCH  14  15
ATOM     15  C   UNL     1       9.962 -21.039  25.996  1.00  0.00    -0.000 C 
BRANCH  15  16
ATOM     16  C   UNL     1      11.107 -20.227  26.628  1.00  0.00    -0.003 C 
ATOM     17  C   UNL     1      10.717 -19.588  27.961  1.00  0.00     0.004 C 
ENDBRANCH  15  16
ENDBRANCH  14  15
ENDBRANCH  13  14
ENDBRANCH  12  13
ENDBRANCH  11  12
ENDBRANCH  10  11
ENDBRANCH   1  10
TORSDOF 13
ENDMDL
MODEL 6
REMARK VINA RESULT:    -4.094      3.550      6.681
REMARK INTER + INTRA:          -9.041
REMARK INTER:                  -6.827
REMARK INTRA:                  -2.213
REMARK UNBOUND:                -1.836
REMARK SMILES CCCCCCCCCCCCCCC(=O)[O-]
REMARK SMILES IDX 9 1 10 2 11 3 12 4 13 5 14 6 15 7 16 8 17 9 8 10 7 11 6 12
REMARK SMILES IDX 5 13 4 14 3 15 2 16 1 17
REMARK H PARENT
REMARK Flexibility Score: inf
ROOT
ATOM      1  C   UNL     1       8.614 -14.633  24.972  1.00  0.00     0.000 C 
ENDROOT
BRANCH   1   2
ATOM      2  C   UNL     1       7.509 -14.215  23.989  1.00  0.00     0.000 C 
BRANCH   2   3
ATOM      3  C   UNL     1       6.885 -15.441  23.311  1.00  0.00     0.000 C 
BRANCH   3   4
ATOM      4  C   UNL     1       6.215 -16.360  24.345  1.00  0.00     0.000 C 
BRANCH   4   5
ATOM      5  C   UNL     1       6.884 -17.740  24.431  1.00  0.00     0.006 C 
BRANCH   5   6
ATOM      6  C   UNL     1       7.648 -18.107  23.152  1.00  0.00     0.053 C 
BRANCH   6   7
ATOM      7  C   UNL     1       7.455 -19.554  22.827  1.00  0.00     0.041 C 
ATOM      8  O   UNL     1       6.301 -20.059  22.840  1.00  0.00    -0.550 OA
ATOM      9  O   UNL     1       8.555 -20.359  22.557  1.00  0.00    -0.550 OA
ENDBRANCH   6   7
ENDBRANCH   5   6
ENDBRANCH   4   5
ENDBRANCH   3   4
ENDBRANCH   2   3
ENDBRANCH   1   2
BRANCH   1  10
ATOM     10  C   UNL     1       9.887 -15.135  24.267  1.00  0.00     0.000 C 
BRANCH  10  11
ATOM     11  C   UNL     1      10.571 -16.345  24.931  1.00  0.00    -0.000 C 
BRANCH  11  12
ATOM     12  C   UNL     1      10.122 -16.565  26.385  1.00  0.00    -0.000 C 
BRANCH  12  13
ATOM     13  C   UNL     1       9.753 -18.030  26.683  1.00  0.00    -0.000 C 
BRANCH  13  14
ATOM     14  C   UNL     1      10.232 -19.055  25.636  1.00  0.00    -0.000 C 
BRANCH  14  15
ATOM     15  C   UNL     1       9.775 -20.507  25.882  1.00  0.00    -0.000 C 
BRANCH  15  16
ATOM     16  C   UNL     1       8.647 -20.662  26.918  1.00  0.00    -0.003 C 
ATOM     17  C   UNL     1       7.283 -20.924  26.278  1.00  0.00     0.004 C 
ENDBRANCH  15  16
ENDBRANCH  14  15
ENDBRANCH  13  14
ENDBRANCH  12  13
ENDBRANCH  11  12
ENDBRANCH  10  11
ENDBRANCH   1  10
TORSDOF 13
ENDMDL
MODEL 7
REMARK VINA RESULT:    -4.093      3.027      5.185
REMARK INTER + INTRA:          -9.039
REMARK INTER:                  -7.065
REMARK INTRA:                  -1.974
REMARK UNBOUND:                -1.836
REMARK SMILES CCCCCCCCCCCCCCC(=O)[O-]
REMARK SMILES IDX 9 1 10 2 11 3 12 4 13 5 14 6 15 7 16 8 17 9 8 10 7 11 6 12
REMARK SMILES IDX 5 13 4 14 3 15 2 16 1 17
REMARK H PARENT
REMARK Flexibility Score: inf
ROOT
ATOM      1  C   UNL     1       7.227 -18.462  26.538  1.00  0.00     0.000 C 
ENDROOT
BRANCH   1   2
ATOM      2  C   UNL     1       7.074 -16.962  26.245  1.00  0.00     0.000 C 
BRANCH   2   3
ATOM      3  C   UNL     1       6.447 -16.733  24.864  1.00  0.00     0.000 C 
BRANCH   3   4
ATOM      4  C   UNL     1       7.188 -15.624  24.101  1.00  0.00     0.000 C 
BRANCH   4   5
ATOM      5  C   UNL     1       8.050 -16.171  22.953  1.00  0.00     0.006 C 
BRANCH   5   6
ATOM      6  C   UNL     1       9.450 -16.594  23.415  1.00  0.00     0.053 C 
BRANCH   6   7
ATOM      7  C   UNL     1      10.018 -15.577  24.354  1.00  0.00     0.041 C 
ATOM      8  O   UNL     1      10.222 -14.398  23.964  1.00  0.00    -0.550 OA
ATOM      9  O   UNL     1      10.367 -15.944  25.648  1.00  0.00    -0.550 OA
ENDBRANCH   6   7
ENDBRANCH   5   6
ENDBRANCH   4   5
ENDBRANCH   3   4
ENDBRANCH   2   3
ENDBRANCH   1   2
BRANCH   1  10
ATOM     10  C   UNL     1       8.600 -19.020  26.121  1.00  0.00     0.000 C 
BRANCH  10  11
ATOM     11  C   UNL     1       8.564 -20.105  25.030  1.00  0.00    -0.000 C 
BRANCH  11  12
ATOM     12  C   UNL     1       7.135 -20.479  24.601  1.00  0.00    -0.000 C 
BRANCH  12  13
ATOM     13  C   UNL     1       6.793 -20.003  23.177  1.00  0.00    -0.000 C 
BRANCH  13  14
ATOM     14  C   UNL     1       7.919 -20.174  22.138  1.00  0.00    -0.000 C 
BRANCH  14  15
ATOM     15  C   UNL     1       7.614 -21.165  20.996  1.00  0.00    -0.000 C 
BRANCH  15  16
ATOM     16  C   UNL     1       8.231 -22.564  21.173  1.00  0.00    -0.003 C 
ATOM     17  C   UNL     1       9.255 -22.622  22.306  1.00  0.00     0.004 C 
ENDBRANCH  15  16
ENDBRANCH  14  15
ENDBRANCH  13  14
ENDBRANCH  12  13
ENDBRANCH  11  12
ENDBRANCH  10  11
ENDBRANCH   1  10
TORSDOF 13
ENDMDL
MODEL 8
REMARK VINA RESULT:    -4.038      2.888      5.321
REMARK INTER + INTRA:          -8.943
REMARK INTER:                  -6.633
REMARK INTRA:                  -2.310
REMARK UNBOUND:                -1.836
REMARK SMILES CCCCCCCCCCCCCCC(=O)[O-]
REMARK SMILES IDX 9 1 10 2 11 3 12 4 13 5 14 6 15 7 16 8 17 9 8 10 7 11 6 12
REMARK SMILES IDX 5 13 4 14 3 15 2 16 1 17
REMARK H PARENT
REMARK Flexibility Score: inf
ROOT
ATOM      1  C   UNL     1      10.499 -16.593  25.692  1.00  0.00     0.000 C 
ENDROOT
BRANCH   1   2
ATOM      2  C   UNL     1       9.269 -16.803  26.588  1.00  0.00     0.000 C 
BRANCH   2   3
ATOM      3  C   UNL     1       8.120 -15.876  26.171  1.00  0.00     0.000 C 
BRANCH   3   4
ATOM      4  C   UNL     1       6.889 -16.687  25.737  1.00  0.00     0.000 C 
BRANCH   4   5
ATOM      5  C   UNL     1       6.380 -16.290  24.343  1.00  0.00     0.006 C 
BRANCH   5   6
ATOM      6  C   UNL     1       6.815 -14.876  23.936  1.00  0.00     0.053 C 
BRANCH   6   7
ATOM      7  C   UNL     1       6.643 -14.681  22.463  1.00  0.00     0.041 C 
ATOM      8  O   UNL     1       5.980 -13.704  22.025  1.00  0.00    -0.550 OA
ATOM      9  O   UNL     1       7.173 -15.607  21.573  1.00  0.00    -0.550 OA
ENDBRANCH   6   7
ENDBRANCH   5   6
ENDBRANCH   4   5
ENDBRANCH   3   4
ENDBRANCH   2   3
ENDBRANCH   1   2
BRANCH   1  10
ATOM     10  C   UNL     1      10.276 -15.526  24.604  1.00  0.00     0.000 C 
BRANCH  10  11
ATOM     11  C   UNL     1      10.345 -16.042  23.155  1.00  0.00    -0.000 C 
BRANCH  11  12
ATOM     12  C   UNL     1      10.470 -17.572  23.068  1.00  0.00    -0.000 C 
BRANCH  12  13
ATOM     13  C   UNL     1       9.561 -18.187  21.988  1.00  0.00    -0.000 C 
BRANCH  13  14
ATOM     14  C   UNL     1       8.330 -18.947  22.521  1.00  0.00    -0.000 C 
BRANCH  14  15
ATOM     15  C   UNL     1       8.430 -19.415  23.987  1.00  0.00    -0.000 C 
BRANCH  15  16
ATOM     16  C   UNL     1       7.350 -20.423  24.418  1.00  0.00    -0.003 C 
ATOM     17  C   UNL     1       7.444 -20.801  25.896  1.00  0.00     0.004 C 
ENDBRANCH  15  16
ENDBRANCH  14  15
ENDBRANCH  13  14
ENDBRANCH  12  13
ENDBRANCH  11  12
ENDBRANCH  10  11
ENDBRANCH   1  10
TORSDOF 13
ENDMDL
MODEL 9
REMARK VINA RESULT:    -4.030      3.571      5.860
REMARK INTER + INTRA:          -8.928
REMARK INTER:                  -6.640
REMARK INTRA:                  -2.287
REMARK UNBOUND:                -1.836
REMARK SMILES CCCCCCCCCCCCCCC(=O)[O-]
REMARK SMILES IDX 9 1 10 2 11 3 12 4 13 5 14 6 15 7 16 8 17 9 8 10 7 11 6 12
REMARK SMILES IDX 5 13 4 14 3 15 2 16 1 17
REMARK H PARENT
REMARK Flexibility Score: inf
ROOT
ATOM      1  C   UNL     1       6.574 -16.317  24.517  1.00  0.00     0.000 C 
ENDROOT
BRANCH   1   2
ATOM      2  C   UNL     1       7.166 -16.870  25.822  1.00  0.00     0.000 C 
BRANCH   2   3
ATOM      3  C   UNL     1       8.258 -15.941  26.367  1.00  0.00     0.000 C 
BRANCH   3   4
ATOM      4  C   UNL     1       9.611 -16.665  26.436  1.00  0.00     0.000 C 
BRANCH   4   5
ATOM      5  C   UNL     1       9.461 -18.185  26.605  1.00  0.00     0.006 C 
BRANCH   5   6
ATOM      6  C   UNL     1      10.812 -18.901  26.731  1.00  0.00     0.053 C 
BRANCH   6   7
ATOM      7  C   UNL     1      10.838 -19.751  27.962  1.00  0.00     0.041 C 
ATOM      8  O   UNL     1      11.664 -19.511  28.882  1.00  0.00    -0.550 OA
ATOM      9  O   UNL     1       9.982 -20.840  28.073  1.00  0.00    -0.550 OA
ENDBRANCH   6   7
ENDBRANCH   5   6
ENDBRANCH   4   5
ENDBRANCH   3   4
ENDBRANCH   2   3
ENDBRANCH   1   2
BRANCH   1  10
ATOM     10  C   UNL     1       7.616 -15.597  23.641  1.00  0.00     0.000 C 
BRANCH  10  11
ATOM     11  C   UNL     1       8.093 -16.385  22.408  1.00  0.00    -0.000 C 
BRANCH  11  12
ATOM     12  C   UNL     1       9.376 -17.191  22.669  1.00  0.00    -0.000 C 
BRANCH  12  13
ATOM     13  C   UNL     1       9.099 -18.674  22.978  1.00  0.00    -0.000 C 
BRANCH  13  14
ATOM     14  C   UNL     1       7.746 -19.210  22.469  1.00  0.00    -0.000 C 
BRANCH  14  15
ATOM     15  C   UNL     1       6.949 -20.054  23.486  1.00  0.00    -0.000 C 
BRANCH  15  16
ATOM     16  C   UNL     1       7.813 -20.836  24.491  1.00  0.00    -0.003 C 
ATOM     17  C   UNL     1       7.168 -20.942  25.873  1.00  0.00     0.004 C 
ENDBRANCH  15  16
ENDBRANCH  14  15
ENDBRANCH  13  14
ENDBRANCH  12  13
ENDBRANCH  11  12
ENDBRANCH  10  11
ENDBRANCH   1  10
TORSDOF 13
ENDMDL
