MODEL 1
REMARK VINA RESULT:    22.799      0.000      0.000
REMARK INTER + INTRA:          26.773
REMARK INTER:                  26.797
REMARK INTRA:                  -0.024
REMARK UNBOUND:                -0.024
REMARK SMILES O=c1c(O)c(-c2ccc(O)cc2)oc2cc(O)cc(O)c12
REMARK SMILES IDX 5 1 3 2 2 3 1 4 21 5 19 6 18 7 16 8 15 9 14 10 13 11 6 12
REMARK SMILES IDX 7 13 8 14 9 15 12 16 11 17 10 18 4 20 20 22 17 24
REMARK H PARENT 10 19 4 21 20 23 17 25
REMARK Flexibility Score: inf
ROOT
ATOM      1  C   UNL     1      -3.901   2.668  13.966  1.00  0.00     0.180 A 
ATOM      2  C   UNL     1      -3.894   2.252  15.310  1.00  0.00     0.208 A 
ATOM      3  C   UNL     1      -4.957   2.630  16.145  1.00  0.00     0.238 A 
ATOM      4  O   UNL     1      -4.972   2.208  17.331  1.00  0.00    -0.285 OA
ATOM      5  C   UNL     1      -6.004   3.432  15.633  1.00  0.00     0.111 A 
ATOM      6  C   UNL     1      -7.110   3.908  16.400  1.00  0.00     0.134 A 
ATOM      7  C   UNL     1      -8.155   4.584  15.759  1.00  0.00     0.093 A 
ATOM      8  C   UNL     1      -8.102   4.861  14.391  1.00  0.00     0.123 A 
ATOM      9  C   UNL     1      -6.999   4.453  13.645  1.00  0.00     0.094 A 
ATOM     10  C   UNL     1      -5.958   3.743  14.249  1.00  0.00     0.146 A 
ATOM     11  O   UNL     1      -4.930   3.365  13.499  1.00  0.00    -0.452 OA
ENDROOT
BRANCH   1  12
ATOM     12  C   UNL     1      -2.803   2.331  13.031  1.00  0.00     0.021 A 
ATOM     13  C   UNL     1      -2.090   3.364  12.401  1.00  0.00     0.016 A 
ATOM     14  C   UNL     1      -1.035   3.070  11.532  1.00  0.00     0.047 A 
ATOM     15  C   UNL     1      -0.671   1.738  11.295  1.00  0.00     0.115 A 
ATOM     16  C   UNL     1      -2.418   0.997  12.803  1.00  0.00     0.016 A 
ATOM     17  C   UNL     1      -1.362   0.705  11.934  1.00  0.00     0.047 A 
BRANCH  15  18
ATOM     18  O   UNL     1       0.378   1.432  10.430  1.00  0.00    -0.508 OA
ATOM     19  H   UNL     1       0.212   1.171   9.466  1.00  0.00     0.293 HD
ENDBRANCH  15  18
ENDBRANCH   1  12
BRANCH   2  20
ATOM     20  O   UNL     1      -2.861   1.441  15.789  1.00  0.00    -0.502 OA
ATOM     21  H   UNL     1      -3.025   0.511  16.157  1.00  0.00     0.293 HD
ENDBRANCH   2  20
BRANCH   6  22
ATOM     22  O   UNL     1      -7.216   3.766  17.787  1.00  0.00    -0.507 OA
ATOM     23  H   UNL     1      -7.082   2.901  18.288  1.00  0.00     0.293 HD
ENDBRANCH   6  22
BRANCH   8  24
ATOM     24  O   UNL     1      -9.139   5.549  13.764  1.00  0.00    -0.508 OA
ATOM     25  H   UNL     1      -9.969   5.835  14.271  1.00  0.00     0.293 HD
ENDBRANCH   8  24
TORSDOF 5
ENDMDL
MODEL 2
REMARK VINA RESULT:    22.822      2.221      6.471
REMARK INTER + INTRA:          26.800
REMARK INTER:                  27.083
REMARK INTRA:                  -0.282
REMARK UNBOUND:                -0.024
REMARK SMILES O=c1c(O)c(-c2ccc(O)cc2)oc2cc(O)cc(O)c12
REMARK SMILES IDX 5 1 3 2 2 3 1 4 21 5 19 6 18 7 16 8 15 9 14 10 13 11 6 12
REMARK SMILES IDX 7 13 8 14 9 15 12 16 11 17 10 18 4 20 20 22 17 24
REMARK H PARENT 10 19 4 21 20 23 17 25
REMARK Flexibility Score: inf
ROOT
ATOM      1  C   UNL     1      -6.348   5.158  15.342  1.00  0.00     0.180 A 
ATOM      2  C   UNL     1      -6.471   4.581  16.620  1.00  0.00     0.208 A 
ATOM      3  C   UNL     1      -5.749   3.413  16.912  1.00  0.00     0.238 A 
ATOM      4  O   UNL     1      -5.821   2.934  18.074  1.00  0.00    -0.285 OA
ATOM      5  C   UNL     1      -4.927   2.827  15.920  1.00  0.00     0.111 A 
ATOM      6  C   UNL     1      -4.183   1.621  16.093  1.00  0.00     0.134 A 
ATOM      7  C   UNL     1      -3.301   1.203  15.090  1.00  0.00     0.093 A 
ATOM      8  C   UNL     1      -3.187   1.912  13.891  1.00  0.00     0.123 A 
ATOM      9  C   UNL     1      -3.953   3.057  13.688  1.00  0.00     0.094 A 
ATOM     10  C   UNL     1      -4.814   3.519  14.687  1.00  0.00     0.146 A 
ATOM     11  O   UNL     1      -5.519   4.620  14.456  1.00  0.00    -0.452 OA
ENDROOT
BRANCH   1  12
ATOM     12  C   UNL     1      -7.098   6.374  14.952  1.00  0.00     0.021 A 
ATOM     13  C   UNL     1      -6.556   7.639  15.234  1.00  0.00     0.016 A 
ATOM     14  C   UNL     1      -7.235   8.801  14.854  1.00  0.00     0.047 A 
ATOM     15  C   UNL     1      -8.457   8.711  14.174  1.00  0.00     0.115 A 
ATOM     16  C   UNL     1      -8.314   6.292  14.251  1.00  0.00     0.016 A 
ATOM     17  C   UNL     1      -8.991   7.456  13.871  1.00  0.00     0.047 A 
BRANCH  15  18
ATOM     18  O   UNL     1      -9.142   9.862  13.791  1.00  0.00    -0.508 OA
ATOM     19  H   UNL     1      -9.154  10.691  14.374  1.00  0.00     0.293 HD
ENDBRANCH  15  18
ENDBRANCH   1  12
BRANCH   2  20
ATOM     20  O   UNL     1      -7.272   5.190  17.591  1.00  0.00    -0.502 OA
ATOM     21  H   UNL     1      -8.282   5.225  17.519  1.00  0.00     0.293 HD
ENDBRANCH   2  20
BRANCH   6  22
ATOM     22  O   UNL     1      -4.294   0.791  17.212  1.00  0.00    -0.507 OA
ATOM     23  H   UNL     1      -5.165   0.476  17.612  1.00  0.00     0.293 HD
ENDBRANCH   6  22
BRANCH   8  24
ATOM     24  O   UNL     1      -2.318   1.481  12.890  1.00  0.00    -0.508 OA
ATOM     25  H   UNL     1      -1.947   0.537  12.880  1.00  0.00     0.293 HD
ENDBRANCH   8  24
TORSDOF 5
ENDMDL
MODEL 3
REMARK VINA RESULT:    23.191      2.590      4.355
REMARK INTER + INTRA:          27.234
REMARK INTER:                  27.511
REMARK INTRA:                  -0.276
REMARK UNBOUND:                -0.024
REMARK SMILES O=c1c(O)c(-c2ccc(O)cc2)oc2cc(O)cc(O)c12
REMARK SMILES IDX 5 1 3 2 2 3 1 4 21 5 19 6 18 7 16 8 15 9 14 10 13 11 6 12
REMARK SMILES IDX 7 13 8 14 9 15 12 16 11 17 10 18 4 20 20 22 17 24
REMARK H PARENT 10 19 4 21 20 23 17 25
REMARK Flexibility Score: inf
ROOT
ATOM      1  C   UNL     1      -5.685   3.912  15.037  1.00  0.00     0.180 A 
ATOM      2  C   UNL     1      -6.799   3.728  14.199  1.00  0.00     0.208 A 
ATOM      3  C   UNL     1      -7.671   4.806  13.980  1.00  0.00     0.238 A 
ATOM      4  O   UNL     1      -8.636   4.651  13.185  1.00  0.00    -0.285 OA
ATOM      5  C   UNL     1      -7.430   6.048  14.614  1.00  0.00     0.111 A 
ATOM      6  C   UNL     1      -8.270   7.196  14.496  1.00  0.00     0.134 A 
ATOM      7  C   UNL     1      -7.864   8.411  15.062  1.00  0.00     0.093 A 
ATOM      8  C   UNL     1      -6.680   8.502  15.798  1.00  0.00     0.123 A 
ATOM      9  C   UNL     1      -5.883   7.373  15.970  1.00  0.00     0.094 A 
ATOM     10  C   UNL     1      -6.243   6.156  15.385  1.00  0.00     0.146 A 
ATOM     11  O   UNL     1      -5.449   5.107  15.565  1.00  0.00    -0.452 OA
ENDROOT
BRANCH   1  12
ATOM     12  C   UNL     1      -4.735   2.816  15.337  1.00  0.00     0.021 A 
ATOM     13  C   UNL     1      -3.669   2.566  14.456  1.00  0.00     0.016 A 
ATOM     14  C   UNL     1      -2.747   1.552  14.730  1.00  0.00     0.047 A 
ATOM     15  C   UNL     1      -2.871   0.784  15.896  1.00  0.00     0.115 A 
ATOM     16  C   UNL     1      -4.841   2.055  16.515  1.00  0.00     0.016 A 
ATOM     17  C   UNL     1      -3.916   1.041  16.786  1.00  0.00     0.047 A 
BRANCH  15  18
ATOM     18  O   UNL     1      -1.958  -0.230  16.179  1.00  0.00    -0.508 OA
ATOM     19  H   UNL     1      -1.275  -0.136  16.921  1.00  0.00     0.293 HD
ENDBRANCH  15  18
ENDBRANCH   1  12
BRANCH   2  20
ATOM     20  O   UNL     1      -7.006   2.500  13.565  1.00  0.00    -0.502 OA
ATOM     21  H   UNL     1      -7.648   2.390  12.789  1.00  0.00     0.293 HD
ENDBRANCH   2  20
BRANCH   6  22
ATOM     22  O   UNL     1      -9.515   7.188  13.861  1.00  0.00    -0.507 OA
ATOM     23  H   UNL     1     -10.259   6.536  14.060  1.00  0.00     0.293 HD
ENDBRANCH   6  22
BRANCH   8  24
ATOM     24  O   UNL     1      -6.292   9.711  16.372  1.00  0.00    -0.508 OA
ATOM     25  H   UNL     1      -5.755   9.742  17.232  1.00  0.00     0.293 HD
ENDBRANCH   8  24
TORSDOF 5
ENDMDL
