MODEL 1
REMARK VINA RESULT:    -5.266      0.000      0.000
REMARK INTER + INTRA:          -5.611
REMARK INTER:                  -5.574
REMARK INTRA:                  -0.038
REMARK UNBOUND:                -0.038
REMARK SMILES COc1ccc2ccc(=O)oc2c1
REMARK SMILES IDX 3 1 13 2 12 3 6 4 5 5 4 6 7 7 8 8 9 9 10 10 11 11 2 12 1 13
REMARK H PARENT
REMARK Flexibility Score: inf
ROOT
ATOM      1  C   UNL     1      30.173  23.070  48.665  1.00  0.00     0.122 A 
ATOM      2  C   UNL     1      29.989  22.782  50.033  1.00  0.00     0.094 A 
ATOM      3  C   UNL     1      28.843  23.229  50.699  1.00  0.00     0.142 A 
ATOM      4  C   UNL     1      27.867  23.971  49.999  1.00  0.00     0.018 A 
ATOM      5  C   UNL     1      28.049  24.258  48.641  1.00  0.00     0.016 A 
ATOM      6  C   UNL     1      29.198  23.808  47.981  1.00  0.00     0.047 A 
ATOM      7  C   UNL     1      26.733  24.404  50.693  1.00  0.00     0.019 A 
ATOM      8  C   UNL     1      26.598  24.093  52.045  1.00  0.00     0.094 A 
ATOM      9  C   UNL     1      27.606  23.353  52.674  1.00  0.00     0.336 A 
ATOM     10  O   UNL     1      27.503  23.061  53.895  1.00  0.00    -0.246 OA
ATOM     11  O   UNL     1      28.676  22.954  51.991  1.00  0.00    -0.423 OA
ENDROOT
BRANCH   1  12
ATOM     12  O   UNL     1      31.305  22.645  47.954  1.00  0.00    -0.497 OA
ATOM     13  C   UNL     1      32.060  21.479  48.265  1.00  0.00     0.278 C 
ENDBRANCH   1  12
TORSDOF 1
ENDMDL
MODEL 2
REMARK VINA RESULT:    -5.235      2.436      2.978
REMARK INTER + INTRA:          -5.578
REMARK INTER:                  -5.545
REMARK INTRA:                  -0.033
REMARK UNBOUND:                -0.038
REMARK SMILES COc1ccc2ccc(=O)oc2c1
REMARK SMILES IDX 3 1 13 2 12 3 6 4 5 5 4 6 7 7 8 8 9 9 10 10 11 11 2 12 1 13
REMARK H PARENT
REMARK Flexibility Score: inf
ROOT
ATOM      1  C   UNL     1      27.345  23.121  48.713  1.00  0.00     0.122 A 
ATOM      2  C   UNL     1      26.640  22.317  49.631  1.00  0.00     0.094 A 
ATOM      3  C   UNL     1      26.704  22.591  51.002  1.00  0.00     0.142 A 
ATOM      4  C   UNL     1      27.477  23.676  51.467  1.00  0.00     0.018 A 
ATOM      5  C   UNL     1      28.177  24.476  50.555  1.00  0.00     0.016 A 
ATOM      6  C   UNL     1      28.109  24.196  49.186  1.00  0.00     0.047 A 
ATOM      7  C   UNL     1      27.521  23.923  52.843  1.00  0.00     0.019 A 
ATOM      8  C   UNL     1      26.805  23.098  53.709  1.00  0.00     0.094 A 
ATOM      9  C   UNL     1      26.060  22.040  53.177  1.00  0.00     0.336 A 
ATOM     10  O   UNL     1      25.407  21.284  53.943  1.00  0.00    -0.246 OA
ATOM     11  O   UNL     1      26.036  21.827  51.864  1.00  0.00    -0.423 OA
ENDROOT
BRANCH   1  12
ATOM     12  O   UNL     1      27.313  22.887  47.330  1.00  0.00    -0.497 OA
ATOM     13  C   UNL     1      26.899  23.845  46.362  1.00  0.00     0.278 C 
ENDBRANCH   1  12
TORSDOF 1
ENDMDL
MODEL 3
REMARK VINA RESULT:    -5.138      1.152      4.657
REMARK INTER + INTRA:          -5.476
REMARK INTER:                  -5.442
REMARK INTRA:                  -0.034
REMARK UNBOUND:                -0.038
REMARK SMILES COc1ccc2ccc(=O)oc2c1
REMARK SMILES IDX 3 1 13 2 12 3 6 4 5 5 4 6 7 7 8 8 9 9 10 10 11 11 2 12 1 13
REMARK H PARENT
REMARK Flexibility Score: inf
ROOT
ATOM      1  C   UNL     1      27.161  23.272  52.269  1.00  0.00     0.122 A 
ATOM      2  C   UNL     1      28.355  22.700  51.786  1.00  0.00     0.094 A 
ATOM      3  C   UNL     1      28.819  23.016  50.504  1.00  0.00     0.142 A 
ATOM      4  C   UNL     1      28.089  23.910  49.692  1.00  0.00     0.018 A 
ATOM      5  C   UNL     1      26.902  24.478  50.171  1.00  0.00     0.016 A 
ATOM      6  C   UNL     1      26.444  24.158  51.454  1.00  0.00     0.047 A 
ATOM      7  C   UNL     1      28.579  24.204  48.415  1.00  0.00     0.019 A 
ATOM      8  C   UNL     1      29.765  23.612  47.985  1.00  0.00     0.094 A 
ATOM      9  C   UNL     1      30.436  22.736  48.844  1.00  0.00     0.336 A 
ATOM     10  O   UNL     1      31.509  22.191  48.474  1.00  0.00    -0.246 OA
ATOM     11  O   UNL     1      29.948  22.472  50.054  1.00  0.00    -0.423 OA
ENDROOT
BRANCH   1  12
ATOM     12  O   UNL     1      26.654  22.987  53.546  1.00  0.00    -0.497 OA
ATOM     13  C   UNL     1      26.173  21.711  53.953  1.00  0.00     0.278 C 
ENDBRANCH   1  12
TORSDOF 1
ENDMDL
MODEL 4
REMARK VINA RESULT:    -5.121      2.108      5.074
REMARK INTER + INTRA:          -5.458
REMARK INTER:                  -5.424
REMARK INTRA:                  -0.035
REMARK UNBOUND:                -0.038
REMARK SMILES COc1ccc2ccc(=O)oc2c1
REMARK SMILES IDX 3 1 13 2 12 3 6 4 5 5 4 6 7 7 8 8 9 9 10 10 11 11 2 12 1 13
REMARK H PARENT
REMARK Flexibility Score: inf
ROOT
ATOM      1  C   UNL     1      27.062  23.706  51.945  1.00  0.00     0.122 A 
ATOM      2  C   UNL     1      26.474  23.799  50.667  1.00  0.00     0.094 A 
ATOM      3  C   UNL     1      27.279  23.896  49.527  1.00  0.00     0.142 A 
ATOM      4  C   UNL     1      28.684  23.900  49.656  1.00  0.00     0.018 A 
ATOM      5  C   UNL     1      29.269  23.808  50.925  1.00  0.00     0.016 A 
ATOM      6  C   UNL     1      28.458  23.712  52.061  1.00  0.00     0.047 A 
ATOM      7  C   UNL     1      29.461  23.999  48.497  1.00  0.00     0.019 A 
ATOM      8  C   UNL     1      28.831  24.089  47.257  1.00  0.00     0.094 A 
ATOM      9  C   UNL     1      27.433  24.079  47.205  1.00  0.00     0.336 A 
ATOM     10  O   UNL     1      26.844  24.158  46.095  1.00  0.00    -0.246 OA
ATOM     11  O   UNL     1      26.717  23.984  48.323  1.00  0.00    -0.423 OA
ENDROOT
BRANCH   1  12
ATOM     12  O   UNL     1      26.299  23.608  53.118  1.00  0.00    -0.497 OA
ATOM     13  C   UNL     1      26.520  22.645  54.143  1.00  0.00     0.278 C 
ENDBRANCH   1  12
TORSDOF 1
ENDMDL
MODEL 5
REMARK VINA RESULT:    -5.050      1.879      2.957
REMARK INTER + INTRA:          -5.383
REMARK INTER:                  -5.347
REMARK INTRA:                  -0.036
REMARK UNBOUND:                -0.038
REMARK SMILES COc1ccc2ccc(=O)oc2c1
REMARK SMILES IDX 3 1 13 2 12 3 6 4 5 5 4 6 7 7 8 8 9 9 10 10 11 11 2 12 1 13
REMARK H PARENT
REMARK Flexibility Score: inf
ROOT
ATOM      1  C   UNL     1      28.218  23.617  48.369  1.00  0.00     0.122 A 
ATOM      2  C   UNL     1      27.204  23.468  49.337  1.00  0.00     0.094 A 
ATOM      3  C   UNL     1      27.479  22.835  50.554  1.00  0.00     0.142 A 
ATOM      4  C   UNL     1      28.776  22.343  50.814  1.00  0.00     0.018 A 
ATOM      5  C   UNL     1      29.784  22.490  49.853  1.00  0.00     0.016 A 
ATOM      6  C   UNL     1      29.502  23.125  48.638  1.00  0.00     0.047 A 
ATOM      7  C   UNL     1      29.019  21.714  52.039  1.00  0.00     0.019 A 
ATOM      8  C   UNL     1      27.982  21.592  52.962  1.00  0.00     0.094 A 
ATOM      9  C   UNL     1      26.721  22.103  52.637  1.00  0.00     0.336 A 
ATOM     10  O   UNL     1      25.771  22.004  53.457  1.00  0.00    -0.246 OA
ATOM     11  O   UNL     1      26.516  22.697  51.463  1.00  0.00    -0.423 OA
ENDROOT
BRANCH   1  12
ATOM     12  O   UNL     1      27.993  24.244  47.135  1.00  0.00    -0.497 OA
ATOM     13  C   UNL     1      26.891  23.962  46.279  1.00  0.00     0.278 C 
ENDBRANCH   1  12
TORSDOF 1
ENDMDL
MODEL 6
REMARK VINA RESULT:    -5.012      2.061      4.379
REMARK INTER + INTRA:          -5.342
REMARK INTER:                  -5.305
REMARK INTRA:                  -0.037
REMARK UNBOUND:                -0.038
REMARK SMILES COc1ccc2ccc(=O)oc2c1
REMARK SMILES IDX 3 1 13 2 12 3 6 4 5 5 4 6 7 7 8 8 9 9 10 10 11 11 2 12 1 13
REMARK H PARENT
REMARK Flexibility Score: inf
ROOT
ATOM      1  C   UNL     1      28.576  21.786  51.168  1.00  0.00     0.122 A 
ATOM      2  C   UNL     1      29.472  22.521  50.366  1.00  0.00     0.094 A 
ATOM      3  C   UNL     1      29.032  23.106  49.173  1.00  0.00     0.142 A 
ATOM      4  C   UNL     1      27.687  22.959  48.772  1.00  0.00     0.018 A 
ATOM      5  C   UNL     1      26.797  22.228  49.568  1.00  0.00     0.016 A 
ATOM      6  C   UNL     1      27.244  21.645  50.760  1.00  0.00     0.047 A 
ATOM      7  C   UNL     1      27.279  23.554  47.574  1.00  0.00     0.019 A 
ATOM      8  C   UNL     1      28.203  24.272  46.818  1.00  0.00     0.094 A 
ATOM      9  C   UNL     1      29.520  24.376  47.277  1.00  0.00     0.336 A 
ATOM     10  O   UNL     1      30.371  25.021  46.608  1.00  0.00    -0.246 OA
ATOM     11  O   UNL     1      29.883  23.799  48.420  1.00  0.00    -0.423 OA
ENDROOT
BRANCH   1  12
ATOM     12  O   UNL     1      28.969  21.180  52.372  1.00  0.00    -0.497 OA
ATOM     13  C   UNL     1      29.987  21.683  53.230  1.00  0.00     0.278 C 
ENDBRANCH   1  12
TORSDOF 1
ENDMDL
MODEL 7
REMARK VINA RESULT:    -4.965      1.800      2.184
REMARK INTER + INTRA:          -5.293
REMARK INTER:                  -5.260
REMARK INTRA:                  -0.034
REMARK UNBOUND:                -0.038
REMARK SMILES COc1ccc2ccc(=O)oc2c1
REMARK SMILES IDX 3 1 13 2 12 3 6 4 5 5 4 6 7 7 8 8 9 9 10 10 11 11 2 12 1 13
REMARK H PARENT
REMARK Flexibility Score: inf
ROOT
ATOM      1  C   UNL     1      28.421  24.125  48.493  1.00  0.00     0.122 A 
ATOM      2  C   UNL     1      28.372  24.320  49.888  1.00  0.00     0.094 A 
ATOM      3  C   UNL     1      27.569  23.498  50.686  1.00  0.00     0.142 A 
ATOM      4  C   UNL     1      26.806  22.469  50.093  1.00  0.00     0.018 A 
ATOM      5  C   UNL     1      26.855  22.275  48.707  1.00  0.00     0.016 A 
ATOM      6  C   UNL     1      27.659  23.101  47.914  1.00  0.00     0.047 A 
ATOM      7  C   UNL     1      26.013  21.665  50.918  1.00  0.00     0.019 A 
ATOM      8  C   UNL     1      25.999  21.899  52.291  1.00  0.00     0.094 A 
ATOM      9  C   UNL     1      26.781  22.937  52.810  1.00  0.00     0.336 A 
ATOM     10  O   UNL     1      26.783  23.164  54.049  1.00  0.00    -0.246 OA
ATOM     11  O   UNL     1      27.526  23.688  52.003  1.00  0.00    -0.423 OA
ENDROOT
BRANCH   1  12
ATOM     12  O   UNL     1      29.210  24.923  47.650  1.00  0.00    -0.497 OA
ATOM     13  C   UNL     1      30.437  24.504  47.063  1.00  0.00     0.278 C 
ENDBRANCH   1  12
TORSDOF 1
ENDMDL
MODEL 8
REMARK VINA RESULT:    -4.963      2.359      3.046
REMARK INTER + INTRA:          -5.291
REMARK INTER:                  -5.251
REMARK INTRA:                  -0.040
REMARK UNBOUND:                -0.038
REMARK SMILES COc1ccc2ccc(=O)oc2c1
REMARK SMILES IDX 3 1 13 2 12 3 6 4 5 5 4 6 7 7 8 8 9 9 10 10 11 11 2 12 1 13
REMARK H PARENT
REMARK Flexibility Score: inf
ROOT
ATOM      1  C   UNL     1      27.903  23.597  48.394  1.00  0.00     0.122 A 
ATOM      2  C   UNL     1      28.691  24.111  49.444  1.00  0.00     0.094 A 
ATOM      3  C   UNL     1      28.805  23.409  50.648  1.00  0.00     0.142 A 
ATOM      4  C   UNL     1      28.130  22.180  50.813  1.00  0.00     0.018 A 
ATOM      5  C   UNL     1      27.347  21.669  49.771  1.00  0.00     0.016 A 
ATOM      6  C   UNL     1      27.236  22.377  48.569  1.00  0.00     0.047 A 
ATOM      7  C   UNL     1      28.264  21.503  52.029  1.00  0.00     0.019 A 
ATOM      8  C   UNL     1      29.055  22.054  53.035  1.00  0.00     0.094 A 
ATOM      9  C   UNL     1      29.695  23.275  52.802  1.00  0.00     0.336 A 
ATOM     10  O   UNL     1      30.415  23.790  53.698  1.00  0.00    -0.246 OA
ATOM     11  O   UNL     1      29.551  23.901  51.635  1.00  0.00    -0.423 OA
ENDROOT
BRANCH   1  12
ATOM     12  O   UNL     1      27.756  24.264  47.168  1.00  0.00    -0.497 OA
ATOM     13  C   UNL     1      26.810  23.907  46.167  1.00  0.00     0.278 C 
ENDBRANCH   1  12
TORSDOF 1
ENDMDL
MODEL 9
REMARK VINA RESULT:    -4.913     12.044     13.604
REMARK INTER + INTRA:          -5.238
REMARK INTER:                  -5.198
REMARK INTRA:                  -0.040
REMARK UNBOUND:                -0.038
REMARK SMILES COc1ccc2ccc(=O)oc2c1
REMARK SMILES IDX 3 1 13 2 12 3 6 4 5 5 4 6 7 7 8 8 9 9 10 10 11 11 2 12 1 13
REMARK H PARENT
REMARK Flexibility Score: inf
ROOT
ATOM      1  C   UNL     1      17.614  26.460  45.018  1.00  0.00     0.122 A 
ATOM      2  C   UNL     1      18.916  26.817  44.616  1.00  0.00     0.094 A 
ATOM      3  C   UNL     1      19.266  26.794  43.261  1.00  0.00     0.142 A 
ATOM      4  C   UNL     1      18.311  26.412  42.294  1.00  0.00     0.018 A 
ATOM      5  C   UNL     1      17.017  26.057  42.694  1.00  0.00     0.016 A 
ATOM      6  C   UNL     1      16.674  26.082  44.050  1.00  0.00     0.047 A 
ATOM      7  C   UNL     1      18.692  26.398  40.949  1.00  0.00     0.019 A 
ATOM      8  C   UNL     1      19.993  26.760  40.603  1.00  0.00     0.094 A 
ATOM      9  C   UNL     1      20.886  27.127  41.614  1.00  0.00     0.336 A 
ATOM     10  O   UNL     1      22.066  27.458  41.322  1.00  0.00    -0.246 OA
ATOM     11  O   UNL     1      20.499  27.131  42.888  1.00  0.00    -0.423 OA
ENDROOT
BRANCH   1  12
ATOM     12  O   UNL     1      17.215  26.467  46.364  1.00  0.00    -0.497 OA
ATOM     13  C   UNL     1      15.915  26.106  46.819  1.00  0.00     0.278 C 
ENDBRANCH   1  12
TORSDOF 1
ENDMDL
