MODEL 1
REMARK VINA RESULT:    -6.953      0.000      0.000
REMARK INTER + INTRA:          -9.653
REMARK INTER:                  -8.782
REMARK INTRA:                  -0.870
REMARK UNBOUND:                -0.870
REMARK SMILES O=C(C=Cc1ccc(O)cc1)c1ccc(O)cc1O
REMARK SMILES IDX 4 1 3 2 5 3 6 4 7 5 8 6 11 7 10 8 9 9 2 11 1 12 12 13 18 14
REMARK SMILES IDX 13 15 17 16 14 17 15 18 19 19 16 21
REMARK H PARENT 9 10 19 20 16 22
REMARK Flexibility Score: inf
ROOT
ATOM      1  C   UNL     1     -16.671  -5.580  -4.517  1.00  0.00     0.012 C 
ATOM      2  C   UNL     1     -15.970  -6.210  -5.474  1.00  0.00     0.053 C 
ENDROOT
BRANCH   1   3
ATOM      3  C   UNL     1     -16.186  -5.290  -3.151  1.00  0.00    -0.025 A 
ATOM      4  C   UNL     1     -15.917  -3.963  -2.784  1.00  0.00     0.012 A 
ATOM      5  C   UNL     1     -15.413  -3.671  -1.513  1.00  0.00     0.047 A 
ATOM      6  C   UNL     1     -15.150  -4.704  -0.604  1.00  0.00     0.115 A 
ATOM      7  C   UNL     1     -15.891  -6.326  -2.247  1.00  0.00     0.012 A 
ATOM      8  C   UNL     1     -15.387  -6.031  -0.976  1.00  0.00     0.047 A 
BRANCH   6   9
ATOM      9  O   UNL     1     -14.648  -4.425   0.665  1.00  0.00    -0.508 OA
ATOM     10  H   UNL     1     -15.263  -4.221   1.444  1.00  0.00     0.293 HD
ENDBRANCH   6   9
ENDBRANCH   1   3
BRANCH   2  11
ATOM     11  C   UNL     1     -14.666  -6.888  -5.275  1.00  0.00     0.189 C 
ATOM     12  O   UNL     1     -14.631  -8.087  -4.885  1.00  0.00    -0.289 OA
BRANCH  11  13
ATOM     13  C   UNL     1     -13.390  -6.192  -5.563  1.00  0.00     0.064 A 
ATOM     14  C   UNL     1     -12.275  -6.913  -6.043  1.00  0.00     0.130 A 
ATOM     15  C   UNL     1     -13.276  -4.800  -5.381  1.00  0.00     0.020 A 
ATOM     16  C   UNL     1     -11.076  -6.242  -6.326  1.00  0.00     0.093 A 
ATOM     17  C   UNL     1     -12.076  -4.143  -5.664  1.00  0.00     0.047 A 
ATOM     18  C   UNL     1     -10.975  -4.860  -6.135  1.00  0.00     0.119 A 
BRANCH  14  19
ATOM     19  O   UNL     1     -12.355  -8.294  -6.226  1.00  0.00    -0.507 OA
ATOM     20  H   UNL     1     -13.122  -8.721  -6.731  1.00  0.00     0.293 HD
ENDBRANCH  14  19
BRANCH  18  21
ATOM     21  O   UNL     1      -9.785  -4.189  -6.412  1.00  0.00    -0.508 OA
ATOM     22  H   UNL     1      -8.890  -4.549  -6.102  1.00  0.00     0.293 HD
ENDBRANCH  18  21
ENDBRANCH  11  13
ENDBRANCH   2  11
TORSDOF 6
ENDMDL
MODEL 2
REMARK VINA RESULT:    -6.515      3.036      5.327
REMARK INTER + INTRA:          -9.099
REMARK INTER:                  -7.927
REMARK INTRA:                  -1.172
REMARK UNBOUND:                -0.870
REMARK SMILES O=C(C=Cc1ccc(O)cc1)c1ccc(O)cc1O
REMARK SMILES IDX 4 1 3 2 5 3 6 4 7 5 8 6 11 7 10 8 9 9 2 11 1 12 12 13 18 14
REMARK SMILES IDX 13 15 17 16 14 17 15 18 19 19 16 21
REMARK H PARENT 9 10 19 20 16 22
REMARK Flexibility Score: inf
ROOT
ATOM      1  C   UNL     1     -15.395  -6.057  -2.018  1.00  0.00     0.012 C 
ATOM      2  C   UNL     1     -16.416  -6.872  -1.707  1.00  0.00     0.053 C 
ENDROOT
BRANCH   1   3
ATOM      3  C   UNL     1     -15.345  -5.157  -3.190  1.00  0.00    -0.025 A 
ATOM      4  C   UNL     1     -16.130  -3.994  -3.197  1.00  0.00     0.012 A 
ATOM      5  C   UNL     1     -16.134  -3.152  -4.314  1.00  0.00     0.047 A 
ATOM      6  C   UNL     1     -15.371  -3.477  -5.444  1.00  0.00     0.115 A 
ATOM      7  C   UNL     1     -14.606  -5.494  -4.337  1.00  0.00     0.012 A 
ATOM      8  C   UNL     1     -14.610  -4.650  -5.453  1.00  0.00     0.047 A 
BRANCH   6   9
ATOM      9  O   UNL     1     -15.367  -2.646  -6.561  1.00  0.00    -0.508 OA
ATOM     10  H   UNL     1     -14.505  -2.263  -6.933  1.00  0.00     0.293 HD
ENDBRANCH   6   9
ENDBRANCH   1   3
BRANCH   2  11
ATOM     11  C   UNL     1     -17.585  -7.151  -2.575  1.00  0.00     0.189 C 
ATOM     12  O   UNL     1     -18.753  -6.933  -2.152  1.00  0.00    -0.289 OA
BRANCH  11  13
ATOM     13  C   UNL     1     -17.409  -7.653  -3.959  1.00  0.00     0.064 A 
ATOM     14  C   UNL     1     -18.173  -7.115  -5.017  1.00  0.00     0.130 A 
ATOM     15  C   UNL     1     -16.463  -8.657  -4.242  1.00  0.00     0.020 A 
ATOM     16  C   UNL     1     -17.988  -7.586  -6.325  1.00  0.00     0.093 A 
ATOM     17  C   UNL     1     -16.289  -9.121  -5.548  1.00  0.00     0.047 A 
ATOM     18  C   UNL     1     -17.049  -8.589  -6.591  1.00  0.00     0.119 A 
BRANCH  14  19
ATOM     19  O   UNL     1     -19.124  -6.124  -4.767  1.00  0.00    -0.507 OA
ATOM     20  H   UNL     1     -20.044  -6.349  -4.409  1.00  0.00     0.293 HD
ENDBRANCH  14  19
BRANCH  18  21
ATOM     21  O   UNL     1     -16.863  -9.063  -7.888  1.00  0.00    -0.508 OA
ATOM     22  H   UNL     1     -17.649  -9.308  -8.480  1.00  0.00     0.293 HD
ENDBRANCH  18  21
ENDBRANCH  11  13
ENDBRANCH   2  11
TORSDOF 6
ENDMDL
MODEL 3
REMARK VINA RESULT:    -6.460      2.582      4.972
REMARK INTER + INTRA:          -9.031
REMARK INTER:                  -7.721
REMARK INTRA:                  -1.310
REMARK UNBOUND:                -0.870
REMARK SMILES O=C(C=Cc1ccc(O)cc1)c1ccc(O)cc1O
REMARK SMILES IDX 4 1 3 2 5 3 6 4 7 5 8 6 11 7 10 8 9 9 2 11 1 12 12 13 18 14
REMARK SMILES IDX 13 15 17 16 14 17 15 18 19 19 16 21
REMARK H PARENT 9 10 19 20 16 22
REMARK Flexibility Score: inf
ROOT
ATOM      1  C   UNL     1     -18.360  -7.204  -2.246  1.00  0.00     0.012 C 
ATOM      2  C   UNL     1     -17.355  -6.837  -1.434  1.00  0.00     0.053 C 
ENDROOT
BRANCH   1   3
ATOM      3  C   UNL     1     -18.221  -7.555  -3.675  1.00  0.00    -0.025 A 
ATOM      4  C   UNL     1     -17.660  -8.791  -4.027  1.00  0.00     0.012 A 
ATOM      5  C   UNL     1     -17.476  -9.125  -5.373  1.00  0.00     0.047 A 
ATOM      6  C   UNL     1     -17.830  -8.216  -6.379  1.00  0.00     0.115 A 
ATOM      7  C   UNL     1     -18.546  -6.635  -4.686  1.00  0.00     0.012 A 
ATOM      8  C   UNL     1     -18.362  -6.970  -6.031  1.00  0.00     0.047 A 
BRANCH   6   9
ATOM      9  O   UNL     1     -17.652  -8.537  -7.722  1.00  0.00    -0.508 OA
ATOM     10  H   UNL     1     -17.651  -9.499  -8.041  1.00  0.00     0.293 HD
ENDBRANCH   6   9
ENDBRANCH   1   3
BRANCH   2  11
ATOM     11  C   UNL     1     -15.969  -6.538  -1.868  1.00  0.00     0.189 C 
ATOM     12  O   UNL     1     -14.993  -7.070  -1.272  1.00  0.00    -0.289 OA
BRANCH  11  13
ATOM     13  C   UNL     1     -15.703  -5.646  -3.021  1.00  0.00     0.064 A 
ATOM     14  C   UNL     1     -14.994  -6.123  -4.145  1.00  0.00     0.130 A 
ATOM     15  C   UNL     1     -16.172  -4.318  -3.024  1.00  0.00     0.020 A 
ATOM     16  C   UNL     1     -14.761  -5.276  -5.238  1.00  0.00     0.093 A 
ATOM     17  C   UNL     1     -15.931  -3.482  -4.117  1.00  0.00     0.047 A 
ATOM     18  C   UNL     1     -15.226  -3.956  -5.224  1.00  0.00     0.119 A 
BRANCH  14  19
ATOM     19  O   UNL     1     -14.510  -7.432  -4.169  1.00  0.00    -0.507 OA
ATOM     20  H   UNL     1     -14.125  -7.872  -3.341  1.00  0.00     0.293 HD
ENDBRANCH  14  19
BRANCH  18  21
ATOM     21  O   UNL     1     -14.995  -3.110  -6.306  1.00  0.00    -0.508 OA
ATOM     22  H   UNL     1     -15.700  -2.457  -6.629  1.00  0.00     0.293 HD
ENDBRANCH  18  21
ENDBRANCH  11  13
ENDBRANCH   2  11
TORSDOF 6
ENDMDL
MODEL 4
REMARK VINA RESULT:    -6.213      1.706      2.141
REMARK INTER + INTRA:          -8.718
REMARK INTER:                  -7.893
REMARK INTRA:                  -0.826
REMARK UNBOUND:                -0.870
REMARK SMILES O=C(C=Cc1ccc(O)cc1)c1ccc(O)cc1O
REMARK SMILES IDX 4 1 3 2 5 3 6 4 7 5 8 6 11 7 10 8 9 9 2 11 1 12 12 13 18 14
REMARK SMILES IDX 13 15 17 16 14 17 15 18 19 19 16 21
REMARK H PARENT 9 10 19 20 16 22
REMARK Flexibility Score: inf
ROOT
ATOM      1  C   UNL     1     -16.176  -4.105  -3.613  1.00  0.00     0.012 C 
ATOM      2  C   UNL     1     -15.471  -4.059  -4.755  1.00  0.00     0.053 C 
ENDROOT
BRANCH   1   3
ATOM      3  C   UNL     1     -16.342  -5.298  -2.757  1.00  0.00    -0.025 A 
ATOM      4  C   UNL     1     -15.310  -5.663  -1.879  1.00  0.00     0.012 A 
ATOM      5  C   UNL     1     -15.426  -6.815  -1.094  1.00  0.00     0.047 A 
ATOM      6  C   UNL     1     -16.564  -7.625  -1.195  1.00  0.00     0.115 A 
ATOM      7  C   UNL     1     -17.468  -6.131  -2.877  1.00  0.00     0.012 A 
ATOM      8  C   UNL     1     -17.582  -7.281  -2.090  1.00  0.00     0.047 A 
BRANCH   6   9
ATOM      9  O   UNL     1     -16.691  -8.774  -0.418  1.00  0.00    -0.508 OA
ATOM     10  H   UNL     1     -17.469  -9.412  -0.539  1.00  0.00     0.293 HD
ENDBRANCH   6   9
ENDBRANCH   1   3
BRANCH   2  11
ATOM     11  C   UNL     1     -14.893  -5.233  -5.453  1.00  0.00     0.189 C 
ATOM     12  O   UNL     1     -15.652  -6.118  -5.935  1.00  0.00    -0.289 OA
BRANCH  11  13
ATOM     13  C   UNL     1     -13.428  -5.374  -5.630  1.00  0.00     0.064 A 
ATOM     14  C   UNL     1     -12.830  -6.653  -5.641  1.00  0.00     0.130 A 
ATOM     15  C   UNL     1     -12.616  -4.239  -5.812  1.00  0.00     0.020 A 
ATOM     16  C   UNL     1     -11.445  -6.776  -5.824  1.00  0.00     0.093 A 
ATOM     17  C   UNL     1     -11.237  -4.374  -5.992  1.00  0.00     0.047 A 
ATOM     18  C   UNL     1     -10.648  -5.639  -5.997  1.00  0.00     0.119 A 
BRANCH  14  19
ATOM     19  O   UNL     1     -13.608  -7.796  -5.455  1.00  0.00    -0.507 OA
ATOM     20  H   UNL     1     -13.895  -8.377  -6.234  1.00  0.00     0.293 HD
ENDBRANCH  14  19
BRANCH  18  21
ATOM     21  O   UNL     1      -9.271  -5.756  -6.177  1.00  0.00    -0.508 OA
ATOM     22  H   UNL     1      -8.844  -5.639  -7.088  1.00  0.00     0.293 HD
ENDBRANCH  18  21
ENDBRANCH  11  13
ENDBRANCH   2  11
TORSDOF 6
ENDMDL
MODEL 5
REMARK VINA RESULT:    -6.062      3.024      5.545
REMARK INTER + INTRA:          -8.528
REMARK INTER:                  -7.255
REMARK INTRA:                  -1.273
REMARK UNBOUND:                -0.870
REMARK SMILES O=C(C=Cc1ccc(O)cc1)c1ccc(O)cc1O
REMARK SMILES IDX 4 1 3 2 5 3 6 4 7 5 8 6 11 7 10 8 9 9 2 11 1 12 12 13 18 14
REMARK SMILES IDX 13 15 17 16 14 17 15 18 19 19 16 21
REMARK H PARENT 9 10 19 20 16 22
REMARK Flexibility Score: inf
ROOT
ATOM      1  C   UNL     1     -15.924  -9.000  -2.539  1.00  0.00     0.012 C 
ATOM      2  C   UNL     1     -16.737  -8.324  -1.711  1.00  0.00     0.053 C 
ENDROOT
BRANCH   1   3
ATOM      3  C   UNL     1     -15.669  -8.659  -3.955  1.00  0.00    -0.025 A 
ATOM      4  C   UNL     1     -14.621  -7.783  -4.273  1.00  0.00     0.012 A 
ATOM      5  C   UNL     1     -14.392  -7.410  -5.602  1.00  0.00     0.047 A 
ATOM      6  C   UNL     1     -15.223  -7.891  -6.622  1.00  0.00     0.115 A 
ATOM      7  C   UNL     1     -16.520  -9.114  -4.978  1.00  0.00     0.012 A 
ATOM      8  C   UNL     1     -16.288  -8.741  -6.306  1.00  0.00     0.047 A 
BRANCH   6   9
ATOM      9  O   UNL     1     -15.004  -7.527  -7.948  1.00  0.00    -0.508 OA
ATOM     10  H   UNL     1     -15.181  -6.584  -8.274  1.00  0.00     0.293 HD
ENDBRANCH   6   9
ENDBRANCH   1   3
BRANCH   2  11
ATOM     11  C   UNL     1     -17.662  -7.238  -2.115  1.00  0.00     0.189 C 
ATOM     12  O   UNL     1     -18.885  -7.304  -1.814  1.00  0.00    -0.289 OA
BRANCH  11  13
ATOM     13  C   UNL     1     -17.169  -6.045  -2.844  1.00  0.00     0.064 A 
ATOM     14  C   UNL     1     -17.683  -5.723  -4.119  1.00  0.00     0.130 A 
ATOM     15  C   UNL     1     -16.198  -5.204  -2.268  1.00  0.00     0.020 A 
ATOM     16  C   UNL     1     -17.221  -4.584  -4.794  1.00  0.00     0.093 A 
ATOM     17  C   UNL     1     -15.743  -4.073  -2.951  1.00  0.00     0.047 A 
ATOM     18  C   UNL     1     -16.251  -3.760  -4.213  1.00  0.00     0.119 A 
BRANCH  14  19
ATOM     19  O   UNL     1     -18.641  -6.543  -4.720  1.00  0.00    -0.507 OA
ATOM     20  H   UNL     1     -18.972  -6.372  -5.662  1.00  0.00     0.293 HD
ENDBRANCH  14  19
BRANCH  18  21
ATOM     21  O   UNL     1     -15.786  -2.629  -4.881  1.00  0.00    -0.508 OA
ATOM     22  H   UNL     1     -14.819  -2.335  -4.814  1.00  0.00     0.293 HD
ENDBRANCH  18  21
ENDBRANCH  11  13
ENDBRANCH   2  11
TORSDOF 6
ENDMDL
MODEL 6
REMARK VINA RESULT:    -6.039      1.330      5.158
REMARK INTER + INTRA:          -8.498
REMARK INTER:                  -7.868
REMARK INTRA:                  -0.631
REMARK UNBOUND:                -0.870
REMARK SMILES O=C(C=Cc1ccc(O)cc1)c1ccc(O)cc1O
REMARK SMILES IDX 4 1 3 2 5 3 6 4 7 5 8 6 11 7 10 8 9 9 2 11 1 12 12 13 18 14
REMARK SMILES IDX 13 15 17 16 14 17 15 18 19 19 16 21
REMARK H PARENT 9 10 19 20 16 22
REMARK Flexibility Score: inf
ROOT
ATOM      1  C   UNL     1     -15.586  -6.486  -5.982  1.00  0.00     0.012 C 
ATOM      2  C   UNL     1     -16.362  -7.063  -5.050  1.00  0.00     0.053 C 
ENDROOT
BRANCH   1   3
ATOM      3  C   UNL     1     -14.147  -6.183  -5.830  1.00  0.00    -0.025 A 
ATOM      4  C   UNL     1     -13.731  -4.845  -5.757  1.00  0.00     0.012 A 
ATOM      5  C   UNL     1     -12.371  -4.534  -5.660  1.00  0.00     0.047 A 
ATOM      6  C   UNL     1     -11.412  -5.556  -5.658  1.00  0.00     0.115 A 
ATOM      7  C   UNL     1     -13.180  -7.203  -5.858  1.00  0.00     0.012 A 
ATOM      8  C   UNL     1     -11.821  -6.890  -5.760  1.00  0.00     0.047 A 
BRANCH   6   9
ATOM      9  O   UNL     1     -10.055  -5.258  -5.561  1.00  0.00    -0.508 OA
ATOM     10  H   UNL     1      -9.400  -5.907  -5.142  1.00  0.00     0.293 HD
ENDBRANCH   6   9
ENDBRANCH   1   3
BRANCH   2  11
ATOM     11  C   UNL     1     -15.964  -7.325  -3.646  1.00  0.00     0.189 C 
ATOM     12  O   UNL     1     -15.799  -8.510  -3.247  1.00  0.00    -0.289 OA
BRANCH  11  13
ATOM     13  C   UNL     1     -15.718  -6.211  -2.699  1.00  0.00     0.064 A 
ATOM     14  C   UNL     1     -15.156  -6.464  -1.429  1.00  0.00     0.130 A 
ATOM     15  C   UNL     1     -16.020  -4.884  -3.060  1.00  0.00     0.020 A 
ATOM     16  C   UNL     1     -14.913  -5.401  -0.546  1.00  0.00     0.093 A 
ATOM     17  C   UNL     1     -15.776  -3.834  -2.172  1.00  0.00     0.047 A 
ATOM     18  C   UNL     1     -15.224  -4.088  -0.915  1.00  0.00     0.119 A 
BRANCH  14  19
ATOM     19  O   UNL     1     -14.853  -7.770  -1.039  1.00  0.00    -0.507 OA
ATOM     20  H   UNL     1     -13.978  -8.000  -0.584  1.00  0.00     0.293 HD
ENDBRANCH  14  19
BRANCH  18  21
ATOM     21  O   UNL     1     -14.988  -3.029  -0.041  1.00  0.00    -0.508 OA
ATOM     22  H   UNL     1     -14.088  -2.563  -0.004  1.00  0.00     0.293 HD
ENDBRANCH  18  21
ENDBRANCH  11  13
ENDBRANCH   2  11
TORSDOF 6
ENDMDL
MODEL 7
REMARK VINA RESULT:    -6.033      3.364      6.287
REMARK INTER + INTRA:          -8.491
REMARK INTER:                  -7.736
REMARK INTRA:                  -0.755
REMARK UNBOUND:                -0.870
REMARK SMILES O=C(C=Cc1ccc(O)cc1)c1ccc(O)cc1O
REMARK SMILES IDX 4 1 3 2 5 3 6 4 7 5 8 6 11 7 10 8 9 9 2 11 1 12 12 13 18 14
REMARK SMILES IDX 13 15 17 16 14 17 15 18 19 19 16 21
REMARK H PARENT 9 10 19 20 16 22
REMARK Flexibility Score: inf
ROOT
ATOM      1  C   UNL     1     -17.775  -9.049  -4.716  1.00  0.00     0.012 C 
ATOM      2  C   UNL     1     -18.101  -8.163  -3.761  1.00  0.00     0.053 C 
ENDROOT
BRANCH   1   3
ATOM      3  C   UNL     1     -17.129  -8.721  -6.004  1.00  0.00    -0.025 A 
ATOM      4  C   UNL     1     -15.783  -8.325  -6.016  1.00  0.00     0.012 A 
ATOM      5  C   UNL     1     -15.164  -7.965  -7.217  1.00  0.00     0.047 A 
ATOM      6  C   UNL     1     -15.892  -7.974  -8.415  1.00  0.00     0.115 A 
ATOM      7  C   UNL     1     -17.862  -8.699  -7.203  1.00  0.00     0.012 A 
ATOM      8  C   UNL     1     -17.242  -8.339  -8.403  1.00  0.00     0.047 A 
BRANCH   6   9
ATOM      9  O   UNL     1     -15.286  -7.617  -9.617  1.00  0.00    -0.508 OA
ATOM     10  H   UNL     1     -14.363  -7.199  -9.641  1.00  0.00     0.293 HD
ENDBRANCH   6   9
ENDBRANCH   1   3
BRANCH   2  11
ATOM     11  C   UNL     1     -18.043  -6.688  -3.905  1.00  0.00     0.189 C 
ATOM     12  O   UNL     1     -18.764  -6.108  -4.763  1.00  0.00    -0.289 OA
BRANCH  11  13
ATOM     13  C   UNL     1     -17.173  -5.867  -3.029  1.00  0.00     0.064 A 
ATOM     14  C   UNL     1     -16.600  -4.670  -3.511  1.00  0.00     0.130 A 
ATOM     15  C   UNL     1     -16.924  -6.256  -1.699  1.00  0.00     0.020 A 
ATOM     16  C   UNL     1     -15.790  -3.893  -2.670  1.00  0.00     0.093 A 
ATOM     17  C   UNL     1     -16.114  -5.475  -0.871  1.00  0.00     0.047 A 
ATOM     18  C   UNL     1     -15.545  -4.295  -1.352  1.00  0.00     0.119 A 
BRANCH  14  19
ATOM     19  O   UNL     1     -16.822  -4.263  -4.827  1.00  0.00    -0.507 OA
ATOM     20  H   UNL     1     -17.624  -4.585  -5.356  1.00  0.00     0.293 HD
ENDBRANCH  14  19
BRANCH  18  21
ATOM     21  O   UNL     1     -14.739  -3.528  -0.513  1.00  0.00    -0.508 OA
ATOM     22  H   UNL     1     -14.798  -2.516  -0.501  1.00  0.00     0.293 HD
ENDBRANCH  18  21
ENDBRANCH  11  13
ENDBRANCH   2  11
TORSDOF 6
ENDMDL
MODEL 8
REMARK VINA RESULT:    -5.923      1.534      5.553
REMARK INTER + INTRA:          -8.352
REMARK INTER:                  -8.167
REMARK INTRA:                  -0.185
REMARK UNBOUND:                -0.870
REMARK SMILES O=C(C=Cc1ccc(O)cc1)c1ccc(O)cc1O
REMARK SMILES IDX 4 1 3 2 5 3 6 4 7 5 8 6 11 7 10 8 9 9 2 11 1 12 12 13 18 14
REMARK SMILES IDX 13 15 17 16 14 17 15 18 19 19 16 21
REMARK H PARENT 9 10 19 20 16 22
REMARK Flexibility Score: inf
ROOT
ATOM      1  C   UNL     1     -14.811  -7.894  -5.375  1.00  0.00     0.012 C 
ATOM      2  C   UNL     1     -15.949  -7.657  -4.702  1.00  0.00     0.053 C 
ENDROOT
BRANCH   1   3
ATOM      3  C   UNL     1     -13.725  -6.916  -5.592  1.00  0.00    -0.025 A 
ATOM      4  C   UNL     1     -12.398  -7.365  -5.658  1.00  0.00     0.012 A 
ATOM      5  C   UNL     1     -11.350  -6.452  -5.816  1.00  0.00     0.047 A 
ATOM      6  C   UNL     1     -11.618  -5.078  -5.885  1.00  0.00     0.115 A 
ATOM      7  C   UNL     1     -13.985  -5.535  -5.631  1.00  0.00     0.012 A 
ATOM      8  C   UNL     1     -12.937  -4.623  -5.790  1.00  0.00     0.047 A 
BRANCH   6   9
ATOM      9  O   UNL     1     -10.583  -4.159  -6.043  1.00  0.00    -0.508 OA
ATOM     10  H   UNL     1      -9.697  -4.273  -5.564  1.00  0.00     0.293 HD
ENDBRANCH   6   9
ENDBRANCH   1   3
BRANCH   2  11
ATOM     11  C   UNL     1     -16.399  -6.328  -4.222  1.00  0.00     0.189 C 
ATOM     12  O   UNL     1     -17.224  -5.657  -4.901  1.00  0.00    -0.289 OA
BRANCH  11  13
ATOM     13  C   UNL     1     -15.923  -5.779  -2.930  1.00  0.00     0.064 A 
ATOM     14  C   UNL     1     -15.857  -4.384  -2.727  1.00  0.00     0.130 A 
ATOM     15  C   UNL     1     -15.550  -6.640  -1.879  1.00  0.00     0.020 A 
ATOM     16  C   UNL     1     -15.419  -3.874  -1.496  1.00  0.00     0.093 A 
ATOM     17  C   UNL     1     -15.113  -6.122  -0.658  1.00  0.00     0.047 A 
ATOM     18  C   UNL     1     -15.045  -4.741  -0.462  1.00  0.00     0.119 A 
BRANCH  14  19
ATOM     19  O   UNL     1     -16.212  -3.505  -3.752  1.00  0.00    -0.507 OA
ATOM     20  H   UNL     1     -16.195  -2.501  -3.621  1.00  0.00     0.293 HD
ENDBRANCH  14  19
BRANCH  18  21
ATOM     21  O   UNL     1     -14.607  -4.241   0.762  1.00  0.00    -0.508 OA
ATOM     22  H   UNL     1     -14.144  -3.342   0.831  1.00  0.00     0.293 HD
ENDBRANCH  18  21
ENDBRANCH  11  13
ENDBRANCH   2  11
TORSDOF 6
ENDMDL
MODEL 9
REMARK VINA RESULT:    -5.832      1.919      2.755
REMARK INTER + INTRA:          -8.237
REMARK INTER:                  -7.088
REMARK INTRA:                  -1.149
REMARK UNBOUND:                -0.870
REMARK SMILES O=C(C=Cc1ccc(O)cc1)c1ccc(O)cc1O
REMARK SMILES IDX 4 1 3 2 5 3 6 4 7 5 8 6 11 7 10 8 9 9 2 11 1 12 12 13 18 14
REMARK SMILES IDX 13 15 17 16 14 17 15 18 19 19 16 21
REMARK H PARENT 9 10 19 20 16 22
REMARK Flexibility Score: inf
ROOT
ATOM      1  C   UNL     1     -18.441  -6.563  -3.017  1.00  0.00     0.012 C 
ATOM      2  C   UNL     1     -18.462  -6.458  -4.356  1.00  0.00     0.053 C 
ENDROOT
BRANCH   1   3
ATOM      3  C   UNL     1     -17.268  -6.954  -2.207  1.00  0.00    -0.025 A 
ATOM      4  C   UNL     1     -16.353  -5.971  -1.803  1.00  0.00     0.012 A 
ATOM      5  C   UNL     1     -15.212  -6.325  -1.076  1.00  0.00     0.047 A 
ATOM      6  C   UNL     1     -14.962  -7.669  -0.766  1.00  0.00     0.115 A 
ATOM      7  C   UNL     1     -16.998  -8.304  -1.920  1.00  0.00     0.012 A 
ATOM      8  C   UNL     1     -15.856  -8.656  -1.193  1.00  0.00     0.047 A 
BRANCH   6   9
ATOM      9  O   UNL     1     -13.830  -8.033  -0.043  1.00  0.00    -0.508 OA
ATOM     10  H   UNL     1     -12.965  -7.510  -0.115  1.00  0.00     0.293 HD
ENDBRANCH   6   9
ENDBRANCH   1   3
BRANCH   2  11
ATOM     11  C   UNL     1     -17.375  -6.894  -5.266  1.00  0.00     0.189 C 
ATOM     12  O   UNL     1     -17.527  -7.918  -5.986  1.00  0.00    -0.289 OA
BRANCH  11  13
ATOM     13  C   UNL     1     -16.113  -6.123  -5.376  1.00  0.00     0.064 A 
ATOM     14  C   UNL     1     -14.892  -6.785  -5.629  1.00  0.00     0.130 A 
ATOM     15  C   UNL     1     -16.117  -4.721  -5.251  1.00  0.00     0.020 A 
ATOM     16  C   UNL     1     -13.706  -6.046  -5.746  1.00  0.00     0.093 A 
ATOM     17  C   UNL     1     -14.929  -3.995  -5.366  1.00  0.00     0.047 A 
ATOM     18  C   UNL     1     -13.723  -4.653  -5.613  1.00  0.00     0.119 A 
BRANCH  14  19
ATOM     19  O   UNL     1     -14.856  -8.175  -5.750  1.00  0.00    -0.507 OA
ATOM     20  H   UNL     1     -14.152  -8.732  -5.279  1.00  0.00     0.293 HD
ENDBRANCH  14  19
BRANCH  18  21
ATOM     21  O   UNL     1     -12.547  -3.914  -5.725  1.00  0.00    -0.508 OA
ATOM     22  H   UNL     1     -12.320  -3.404  -6.571  1.00  0.00     0.293 HD
ENDBRANCH  18  21
ENDBRANCH  11  13
ENDBRANCH   2  11
TORSDOF 6
ENDMDL
