MODEL 1
REMARK VINA RESULT:    -3.902      0.000      0.000
REMARK INTER + INTRA:          -8.859
REMARK INTER:                  -7.551
REMARK INTRA:                  -1.308
REMARK UNBOUND:                -1.308
REMARK SMILES CCCCCCCCCCCCCCCCCC(=O)[O-]
REMARK SMILES IDX 10 1 11 2 12 3 13 4 14 5 15 6 16 7 17 8 18 9 19 10 20 11
REMARK SMILES IDX 9 12 8 13 7 14 6 15 5 16 4 17 3 18 2 19 1 20
REMARK H PARENT
REMARK Flexibility Score: inf
ROOT
ATOM      1  C   UNL     1       1.707  22.687  23.250  1.00  0.00     0.000 C 
ENDROOT
BRANCH   1   2
ATOM      2  C   UNL     1       1.458  23.459  24.560  1.00  0.00     0.000 C 
BRANCH   2   3
ATOM      3  C   UNL     1       0.694  22.674  25.642  1.00  0.00     0.000 C 
BRANCH   3   4
ATOM      4  C   UNL     1       1.338  22.788  27.031  1.00  0.00     0.000 C 
BRANCH   4   5
ATOM      5  C   UNL     1       2.708  23.471  26.947  1.00  0.00     0.000 C 
BRANCH   5   6
ATOM      6  C   UNL     1       3.843  22.454  27.124  1.00  0.00     0.000 C 
BRANCH   6   7
ATOM      7  C   UNL     1       5.188  23.047  26.680  1.00  0.00     0.006 C 
BRANCH   7   8
ATOM      8  C   UNL     1       5.023  24.094  25.571  1.00  0.00     0.053 C 
BRANCH   8   9
ATOM      9  C   UNL     1       6.083  23.963  24.520  1.00  0.00     0.041 C 
ATOM     10  O   UNL     1       7.014  23.127  24.660  1.00  0.00    -0.550 OA
ATOM     11  O   UNL     1       6.060  24.788  23.402  1.00  0.00    -0.550 OA
ENDBRANCH   8   9
ENDBRANCH   7   8
ENDBRANCH   6   7
ENDBRANCH   5   6
ENDBRANCH   4   5
ENDBRANCH   3   4
ENDBRANCH   2   3
ENDBRANCH   1   2
BRANCH   1  12
ATOM     12  C   UNL     1       2.526  23.448  22.190  1.00  0.00     0.000 C 
BRANCH  12  13
ATOM     13  C   UNL     1       2.656  24.961  22.473  1.00  0.00    -0.000 C 
BRANCH  13  14
ATOM     14  C   UNL     1       1.555  25.783  21.788  1.00  0.00    -0.000 C 
BRANCH  14  15
ATOM     15  C   UNL     1       1.879  27.281  21.830  1.00  0.00    -0.000 C 
BRANCH  15  16
ATOM     16  C   UNL     1       0.601  28.115  22.003  1.00  0.00    -0.000 C 
BRANCH  16  17
ATOM     17  C   UNL     1      -0.374  27.958  20.825  1.00  0.00    -0.000 C 
BRANCH  17  18
ATOM     18  C   UNL     1      -1.248  29.202  20.609  1.00  0.00    -0.000 C 
BRANCH  18  19
ATOM     19  C   UNL     1      -0.419  30.362  20.045  1.00  0.00    -0.003 C 
ATOM     20  C   UNL     1      -1.312  31.528  19.631  1.00  0.00     0.004 C 
ENDBRANCH  18  19
ENDBRANCH  17  18
ENDBRANCH  16  17
ENDBRANCH  15  16
ENDBRANCH  14  15
ENDBRANCH  13  14
ENDBRANCH  12  13
ENDBRANCH   1  12
TORSDOF 16
ENDMDL
MODEL 2
REMARK VINA RESULT:    -3.742      2.379      3.455
REMARK INTER + INTRA:          -8.550
REMARK INTER:                  -7.325
REMARK INTRA:                  -1.226
REMARK UNBOUND:                -1.308
REMARK SMILES CCCCCCCCCCCCCCCCCC(=O)[O-]
REMARK SMILES IDX 10 1 11 2 12 3 13 4 14 5 15 6 16 7 17 8 18 9 19 10 20 11
REMARK SMILES IDX 9 12 8 13 7 14 6 15 5 16 4 17 3 18 2 19 1 20
REMARK H PARENT
REMARK Flexibility Score: inf
ROOT
ATOM      1  C   UNL     1       3.676  24.358  23.251  1.00  0.00     0.000 C 
ENDROOT
BRANCH   1   2
ATOM      2  C   UNL     1       3.732  23.444  24.489  1.00  0.00     0.000 C 
BRANCH   2   3
ATOM      3  C   UNL     1       3.847  24.181  25.836  1.00  0.00     0.000 C 
BRANCH   3   4
ATOM      4  C   UNL     1       3.165  23.430  26.989  1.00  0.00     0.000 C 
BRANCH   4   5
ATOM      5  C   UNL     1       2.462  22.166  26.481  1.00  0.00     0.000 C 
BRANCH   5   6
ATOM      6  C   UNL     1       1.072  22.017  27.112  1.00  0.00     0.000 C 
BRANCH   6   7
ATOM      7  C   UNL     1       0.039  22.886  26.380  1.00  0.00     0.006 C 
BRANCH   7   8
ATOM      8  C   UNL     1      -0.234  24.206  27.113  1.00  0.00     0.053 C 
BRANCH   8   9
ATOM      9  C   UNL     1       0.098  25.394  26.262  1.00  0.00     0.041 C 
ATOM     10  O   UNL     1       0.684  25.239  25.159  1.00  0.00    -0.550 OA
ATOM     11  O   UNL     1      -0.212  26.675  26.705  1.00  0.00    -0.550 OA
ENDBRANCH   8   9
ENDBRANCH   7   8
ENDBRANCH   6   7
ENDBRANCH   5   6
ENDBRANCH   4   5
ENDBRANCH   3   4
ENDBRANCH   2   3
ENDBRANCH   1   2
BRANCH   1  12
ATOM     12  C   UNL     1       2.722  23.888  22.136  1.00  0.00     0.000 C 
BRANCH  12  13
ATOM     13  C   UNL     1       1.739  24.979  21.657  1.00  0.00    -0.000 C 
BRANCH  13  14
ATOM     14  C   UNL     1       2.155  26.385  22.113  1.00  0.00    -0.000 C 
BRANCH  14  15
ATOM     15  C   UNL     1       0.955  27.162  22.668  1.00  0.00    -0.000 C 
BRANCH  15  16
ATOM     16  C   UNL     1       0.754  28.480  21.906  1.00  0.00    -0.000 C 
BRANCH  16  17
ATOM     17  C   UNL     1      -0.109  28.311  20.646  1.00  0.00    -0.000 C 
BRANCH  17  18
ATOM     18  C   UNL     1      -1.193  29.392  20.520  1.00  0.00    -0.000 C 
BRANCH  18  19
ATOM     19  C   UNL     1      -0.583  30.731  20.091  1.00  0.00    -0.003 C 
ATOM     20  C   UNL     1      -1.611  31.598  19.368  1.00  0.00     0.004 C 
ENDBRANCH  18  19
ENDBRANCH  17  18
ENDBRANCH  16  17
ENDBRANCH  15  16
ENDBRANCH  14  15
ENDBRANCH  13  14
ENDBRANCH  12  13
ENDBRANCH   1  12
TORSDOF 16
ENDMDL
MODEL 3
REMARK VINA RESULT:    -3.548      3.233      7.174
REMARK INTER + INTRA:          -8.174
REMARK INTER:                  -6.477
REMARK INTRA:                  -1.697
REMARK UNBOUND:                -1.308
REMARK SMILES CCCCCCCCCCCCCCCCCC(=O)[O-]
REMARK SMILES IDX 10 1 11 2 12 3 13 4 14 5 15 6 16 7 17 8 18 9 19 10 20 11
REMARK SMILES IDX 9 12 8 13 7 14 6 15 5 16 4 17 3 18 2 19 1 20
REMARK H PARENT
REMARK Flexibility Score: inf
ROOT
ATOM      1  C   UNL     1       5.235  24.113  23.978  1.00  0.00     0.000 C 
ENDROOT
BRANCH   1   2
ATOM      2  C   UNL     1       3.712  24.239  23.791  1.00  0.00     0.000 C 
BRANCH   2   3
ATOM      3  C   UNL     1       3.173  23.685  22.459  1.00  0.00     0.000 C 
BRANCH   3   4
ATOM      4  C   UNL     1       1.944  24.448  21.947  1.00  0.00     0.000 C 
BRANCH   4   5
ATOM      5  C   UNL     1       1.743  25.753  22.726  1.00  0.00     0.000 C 
BRANCH   5   6
ATOM      6  C   UNL     1       1.905  26.973  21.811  1.00  0.00     0.000 C 
BRANCH   6   7
ATOM      7  C   UNL     1       0.790  28.000  22.059  1.00  0.00     0.006 C 
BRANCH   7   8
ATOM      8  C   UNL     1      -0.299  27.947  20.980  1.00  0.00     0.053 C 
BRANCH   8   9
ATOM      9  C   UNL     1      -0.661  29.314  20.486  1.00  0.00     0.041 C 
ATOM     10  O   UNL     1      -1.869  29.653  20.385  1.00  0.00    -0.550 OA
ATOM     11  O   UNL     1       0.338  30.203  20.106  1.00  0.00    -0.550 OA
ENDBRANCH   8   9
ENDBRANCH   7   8
ENDBRANCH   6   7
ENDBRANCH   5   6
ENDBRANCH   4   5
ENDBRANCH   3   4
ENDBRANCH   2   3
ENDBRANCH   1   2
BRANCH   1  12
ATOM     12  C   UNL     1       5.715  24.124  25.443  1.00  0.00     0.000 C 
BRANCH  12  13
ATOM     13  C   UNL     1       4.576  23.959  26.471  1.00  0.00    -0.000 C 
BRANCH  13  14
ATOM     14  C   UNL     1       4.399  22.502  26.923  1.00  0.00    -0.000 C 
BRANCH  14  15
ATOM     15  C   UNL     1       3.029  21.957  26.502  1.00  0.00    -0.000 C 
BRANCH  15  16
ATOM     16  C   UNL     1       1.914  22.960  26.829  1.00  0.00    -0.000 C 
BRANCH  16  17
ATOM     17  C   UNL     1       0.768  22.928  25.805  1.00  0.00    -0.000 C 
BRANCH  17  18
ATOM     18  C   UNL     1      -0.494  23.647  26.305  1.00  0.00    -0.000 C 
BRANCH  18  19
ATOM     19  C   UNL     1      -0.140  25.001  26.932  1.00  0.00    -0.003 C 
ATOM     20  C   UNL     1       0.192  26.035  25.859  1.00  0.00     0.004 C 
ENDBRANCH  18  19
ENDBRANCH  17  18
ENDBRANCH  16  17
ENDBRANCH  15  16
ENDBRANCH  14  15
ENDBRANCH  13  14
ENDBRANCH  12  13
ENDBRANCH   1  12
TORSDOF 16
ENDMDL
MODEL 4
REMARK VINA RESULT:    -3.454      3.186      7.923
REMARK INTER + INTRA:          -7.993
REMARK INTER:                  -6.590
REMARK INTRA:                  -1.403
REMARK UNBOUND:                -1.308
REMARK SMILES CCCCCCCCCCCCCCCCCC(=O)[O-]
REMARK SMILES IDX 10 1 11 2 12 3 13 4 14 5 15 6 16 7 17 8 18 9 19 10 20 11
REMARK SMILES IDX 9 12 8 13 7 14 6 15 5 16 4 17 3 18 2 19 1 20
REMARK H PARENT
REMARK Flexibility Score: inf
ROOT
ATOM      1  C   UNL     1       1.880  22.537  23.498  1.00  0.00     0.000 C 
ENDROOT
BRANCH   1   2
ATOM      2  C   UNL     1       1.750  23.342  22.192  1.00  0.00     0.000 C 
BRANCH   2   3
ATOM      3  C   UNL     1       2.380  24.746  22.228  1.00  0.00     0.000 C 
BRANCH   3   4
ATOM      4  C   UNL     1       1.565  25.788  21.449  1.00  0.00     0.000 C 
BRANCH   4   5
ATOM      5  C   UNL     1       1.882  27.208  21.933  1.00  0.00     0.000 C 
BRANCH   5   6
ATOM      6  C   UNL     1       0.603  28.043  22.067  1.00  0.00     0.000 C 
BRANCH   6   7
ATOM      7  C   UNL     1      -0.158  28.103  20.735  1.00  0.00     0.006 C 
BRANCH   7   8
ATOM      8  C   UNL     1      -1.168  29.258  20.694  1.00  0.00     0.053 C 
BRANCH   8   9
ATOM      9  C   UNL     1      -0.587  30.483  20.057  1.00  0.00     0.041 C 
ATOM     10  O   UNL     1       0.662  30.621  19.970  1.00  0.00    -0.550 OA
ATOM     11  O   UNL     1      -1.425  31.489  19.591  1.00  0.00    -0.550 OA
ENDBRANCH   8   9
ENDBRANCH   7   8
ENDBRANCH   6   7
ENDBRANCH   5   6
ENDBRANCH   4   5
ENDBRANCH   3   4
ENDBRANCH   2   3
ENDBRANCH   1   2
BRANCH   1  12
ATOM     12  C   UNL     1       0.854  22.895  24.590  1.00  0.00     0.000 C 
BRANCH  12  13
ATOM     13  C   UNL     1       1.153  24.227  25.312  1.00  0.00    -0.000 C 
BRANCH  13  14
ATOM     14  C   UNL     1       1.768  24.015  26.704  1.00  0.00    -0.000 C 
BRANCH  14  15
ATOM     15  C   UNL     1       2.120  22.540  26.932  1.00  0.00    -0.000 C 
BRANCH  15  16
ATOM     16  C   UNL     1       3.638  22.352  27.072  1.00  0.00    -0.000 C 
BRANCH  16  17
ATOM     17  C   UNL     1       4.399  23.688  27.116  1.00  0.00    -0.000 C 
BRANCH  17  18
ATOM     18  C   UNL     1       5.592  23.721  26.150  1.00  0.00    -0.000 C 
BRANCH  18  19
ATOM     19  C   UNL     1       5.117  23.754  24.693  1.00  0.00    -0.003 C 
ATOM     20  C   UNL     1       5.943  24.736  23.866  1.00  0.00     0.004 C 
ENDBRANCH  18  19
ENDBRANCH  17  18
ENDBRANCH  16  17
ENDBRANCH  15  16
ENDBRANCH  14  15
ENDBRANCH  13  14
ENDBRANCH  12  13
ENDBRANCH   1  12
TORSDOF 16
ENDMDL
MODEL 5
REMARK VINA RESULT:    -3.447      1.219      1.582
REMARK INTER + INTRA:          -7.979
REMARK INTER:                  -7.027
REMARK INTRA:                  -0.952
REMARK UNBOUND:                -1.308
REMARK SMILES CCCCCCCCCCCCCCCCCC(=O)[O-]
REMARK SMILES IDX 10 1 11 2 12 3 13 4 14 5 15 6 16 7 17 8 18 9 19 10 20 11
REMARK SMILES IDX 9 12 8 13 7 14 6 15 5 16 4 17 3 18 2 19 1 20
REMARK H PARENT
REMARK Flexibility Score: inf
ROOT
ATOM      1  C   UNL     1       1.742  22.387  23.765  1.00  0.00     0.000 C 
ENDROOT
BRANCH   1   2
ATOM      2  C   UNL     1       0.793  23.070  24.769  1.00  0.00     0.000 C 
BRANCH   2   3
ATOM      3  C   UNL     1       1.429  24.202  25.597  1.00  0.00     0.000 C 
BRANCH   3   4
ATOM      4  C   UNL     1       2.409  23.687  26.661  1.00  0.00     0.000 C 
BRANCH   4   5
ATOM      5  C   UNL     1       3.858  23.791  26.169  1.00  0.00     0.000 C 
BRANCH   5   6
ATOM      6  C   UNL     1       4.738  22.715  26.816  1.00  0.00     0.000 C 
BRANCH   6   7
ATOM      7  C   UNL     1       6.223  23.100  26.741  1.00  0.00     0.006 C 
BRANCH   7   8
ATOM      8  C   UNL     1       6.576  23.799  25.422  1.00  0.00     0.053 C 
BRANCH   8   9
ATOM      9  C   UNL     1       6.865  25.255  25.624  1.00  0.00     0.041 C 
ATOM     10  O   UNL     1       7.054  26.008  24.632  1.00  0.00    -0.550 OA
ATOM     11  O   UNL     1       6.958  25.774  26.910  1.00  0.00    -0.550 OA
ENDBRANCH   8   9
ENDBRANCH   7   8
ENDBRANCH   6   7
ENDBRANCH   5   6
ENDBRANCH   4   5
ENDBRANCH   3   4
ENDBRANCH   2   3
ENDBRANCH   1   2
BRANCH   1  12
ATOM     12  C   UNL     1       1.624  22.888  22.313  1.00  0.00     0.000 C 
BRANCH  12  13
ATOM     13  C   UNL     1       2.735  23.879  21.904  1.00  0.00    -0.000 C 
BRANCH  13  14
ATOM     14  C   UNL     1       2.511  25.283  22.485  1.00  0.00    -0.000 C 
BRANCH  14  15
ATOM     15  C   UNL     1       1.400  26.022  21.729  1.00  0.00    -0.000 C 
BRANCH  15  16
ATOM     16  C   UNL     1       1.661  27.535  21.709  1.00  0.00    -0.000 C 
BRANCH  16  17
ATOM     17  C   UNL     1       0.396  28.359  21.999  1.00  0.00    -0.000 C 
BRANCH  17  18
ATOM     18  C   UNL     1      -0.393  28.701  20.727  1.00  0.00    -0.000 C 
BRANCH  18  19
ATOM     19  C   UNL     1       0.090  30.024  20.122  1.00  0.00    -0.003 C 
ATOM     20  C   UNL     1      -1.078  30.972  19.866  1.00  0.00     0.004 C 
ENDBRANCH  18  19
ENDBRANCH  17  18
ENDBRANCH  16  17
ENDBRANCH  15  16
ENDBRANCH  14  15
ENDBRANCH  13  14
ENDBRANCH  12  13
ENDBRANCH   1  12
TORSDOF 16
ENDMDL
MODEL 6
REMARK VINA RESULT:    -3.195      2.971      4.424
REMARK INTER + INTRA:          -7.492
REMARK INTER:                  -6.308
REMARK INTRA:                  -1.184
REMARK UNBOUND:                -1.308
REMARK SMILES CCCCCCCCCCCCCCCCCC(=O)[O-]
REMARK SMILES IDX 10 1 11 2 12 3 13 4 14 5 15 6 16 7 17 8 18 9 19 10 20 11
REMARK SMILES IDX 9 12 8 13 7 14 6 15 5 16 4 17 3 18 2 19 1 20
REMARK H PARENT
REMARK Flexibility Score: inf
ROOT
ATOM      1  C   UNL     1      -0.367  23.013  26.293  1.00  0.00     0.000 C 
ENDROOT
BRANCH   1   2
ATOM      2  C   UNL     1       0.850  22.566  27.125  1.00  0.00     0.000 C 
BRANCH   2   3
ATOM      3  C   UNL     1       1.955  21.850  26.327  1.00  0.00     0.000 C 
BRANCH   3   4
ATOM      4  C   UNL     1       3.363  22.129  26.871  1.00  0.00     0.000 C 
BRANCH   4   5
ATOM      5  C   UNL     1       3.643  23.635  26.921  1.00  0.00     0.000 C 
BRANCH   5   6
ATOM      6  C   UNL     1       4.814  24.009  26.004  1.00  0.00     0.000 C 
BRANCH   6   7
ATOM      7  C   UNL     1       5.990  23.039  26.188  1.00  0.00     0.006 C 
BRANCH   7   8
ATOM      8  C   UNL     1       7.125  23.304  25.189  1.00  0.00     0.053 C 
BRANCH   8   9
ATOM      9  C   UNL     1       6.721  24.291  24.137  1.00  0.00     0.041 C 
ATOM     10  O   UNL     1       6.097  23.906  23.113  1.00  0.00    -0.550 OA
ATOM     11  O   UNL     1       7.063  25.631  24.272  1.00  0.00    -0.550 OA
ENDBRANCH   8   9
ENDBRANCH   7   8
ENDBRANCH   6   7
ENDBRANCH   5   6
ENDBRANCH   4   5
ENDBRANCH   3   4
ENDBRANCH   2   3
ENDBRANCH   1   2
BRANCH   1  12
ATOM     12  C   UNL     1      -1.032  24.321  26.763  1.00  0.00     0.000 C 
BRANCH  12  13
ATOM     13  C   UNL     1      -0.038  25.482  26.978  1.00  0.00    -0.000 C 
BRANCH  13  14
ATOM     14  C   UNL     1       0.415  26.121  25.657  1.00  0.00    -0.000 C 
BRANCH  14  15
ATOM     15  C   UNL     1       0.796  25.049  24.629  1.00  0.00    -0.000 C 
BRANCH  15  16
ATOM     16  C   UNL     1       2.102  25.417  23.910  1.00  0.00    -0.000 C 
BRANCH  16  17
ATOM     17  C   UNL     1       2.042  25.149  22.397  1.00  0.00    -0.000 C 
BRANCH  17  18
ATOM     18  C   UNL     1       2.754  23.849  21.997  1.00  0.00    -0.000 C 
BRANCH  18  19
ATOM     19  C   UNL     1       1.743  22.785  21.554  1.00  0.00    -0.003 C 
ATOM     20  C   UNL     1       1.438  21.808  22.687  1.00  0.00     0.004 C 
ENDBRANCH  18  19
ENDBRANCH  17  18
ENDBRANCH  16  17
ENDBRANCH  15  16
ENDBRANCH  14  15
ENDBRANCH  13  14
ENDBRANCH  12  13
ENDBRANCH   1  12
TORSDOF 16
ENDMDL
MODEL 7
REMARK VINA RESULT:    -3.073      5.176      7.605
REMARK INTER + INTRA:          -7.255
REMARK INTER:                  -6.103
REMARK INTRA:                  -1.152
REMARK UNBOUND:                -1.308
REMARK SMILES CCCCCCCCCCCCCCCCCC(=O)[O-]
REMARK SMILES IDX 10 1 11 2 12 3 13 4 14 5 15 6 16 7 17 8 18 9 19 10 20 11
REMARK SMILES IDX 9 12 8 13 7 14 6 15 5 16 4 17 3 18 2 19 1 20
REMARK H PARENT
REMARK Flexibility Score: inf
ROOT
ATOM      1  C   UNL     1       5.623  20.739  27.118  1.00  0.00     0.000 C 
ENDROOT
BRANCH   1   2
ATOM      2  C   UNL     1       5.596  19.200  27.042  1.00  0.00     0.000 C 
BRANCH   2   3
ATOM      3  C   UNL     1       6.830  18.562  26.378  1.00  0.00     0.000 C 
BRANCH   3   4
ATOM      4  C   UNL     1       6.517  17.931  25.014  1.00  0.00     0.000 C 
BRANCH   4   5
ATOM      5  C   UNL     1       6.358  16.411  25.135  1.00  0.00     0.000 C 
BRANCH   5   6
ATOM      6  C   UNL     1       6.420  15.738  23.759  1.00  0.00     0.000 C 
BRANCH   6   7
ATOM      7  C   UNL     1       5.056  15.150  23.371  1.00  0.00     0.006 C 
BRANCH   7   8
ATOM      8  C   UNL     1       4.080  15.114  24.555  1.00  0.00     0.053 C 
BRANCH   8   9
ATOM      9  C   UNL     1       2.722  15.618  24.173  1.00  0.00     0.041 C 
ATOM     10  O   UNL     1       1.721  15.345  24.885  1.00  0.00    -0.550 OA
ATOM     11  O   UNL     1       2.558  16.362  23.010  1.00  0.00    -0.550 OA
ENDBRANCH   8   9
ENDBRANCH   7   8
ENDBRANCH   6   7
ENDBRANCH   5   6
ENDBRANCH   4   5
ENDBRANCH   3   4
ENDBRANCH   2   3
ENDBRANCH   1   2
BRANCH   1  12
ATOM     12  C   UNL     1       6.966  21.388  26.734  1.00  0.00     0.000 C 
BRANCH  12  13
ATOM     13  C   UNL     1       6.825  22.589  25.774  1.00  0.00    -0.000 C 
BRANCH  13  14
ATOM     14  C   UNL     1       5.818  23.631  26.283  1.00  0.00    -0.000 C 
BRANCH  14  15
ATOM     15  C   UNL     1       4.784  23.972  25.203  1.00  0.00    -0.000 C 
BRANCH  15  16
ATOM     16  C   UNL     1       3.362  23.641  25.679  1.00  0.00    -0.000 C 
BRANCH  16  17
ATOM     17  C   UNL     1       2.321  23.741  24.552  1.00  0.00    -0.000 C 
BRANCH  17  18
ATOM     18  C   UNL     1       2.857  24.474  23.314  1.00  0.00    -0.000 C 
BRANCH  18  19
ATOM     19  C   UNL     1       2.554  23.683  22.036  1.00  0.00    -0.003 C 
ATOM     20  C   UNL     1       1.607  22.520  22.319  1.00  0.00     0.004 C 
ENDBRANCH  18  19
ENDBRANCH  17  18
ENDBRANCH  16  17
ENDBRANCH  15  16
ENDBRANCH  14  15
ENDBRANCH  13  14
ENDBRANCH  12  13
ENDBRANCH   1  12
TORSDOF 16
ENDMDL
MODEL 8
REMARK VINA RESULT:    -3.073      4.982      9.430
REMARK INTER + INTRA:          -7.254
REMARK INTER:                  -6.070
REMARK INTRA:                  -1.184
REMARK UNBOUND:                -1.308
REMARK SMILES CCCCCCCCCCCCCCCCCC(=O)[O-]
REMARK SMILES IDX 10 1 11 2 12 3 13 4 14 5 15 6 16 7 17 8 18 9 19 10 20 11
REMARK SMILES IDX 9 12 8 13 7 14 6 15 5 16 4 17 3 18 2 19 1 20
REMARK H PARENT
REMARK Flexibility Score: inf
ROOT
ATOM      1  C   UNL     1       7.100  20.316  26.395  1.00  0.00     0.000 C 
ENDROOT
BRANCH   1   2
ATOM      2  C   UNL     1       6.725  21.810  26.384  1.00  0.00     0.000 C 
BRANCH   2   3
ATOM      3  C   UNL     1       5.393  22.150  27.078  1.00  0.00     0.000 C 
BRANCH   3   4
ATOM      4  C   UNL     1       4.857  23.537  26.697  1.00  0.00     0.000 C 
BRANCH   4   5
ATOM      5  C   UNL     1       3.325  23.565  26.741  1.00  0.00     0.000 C 
BRANCH   5   6
ATOM      6  C   UNL     1       2.726  22.551  25.759  1.00  0.00     0.000 C 
BRANCH   6   7
ATOM      7  C   UNL     1       1.377  23.042  25.214  1.00  0.00     0.006 C 
BRANCH   7   8
ATOM      8  C   UNL     1       1.543  24.122  24.137  1.00  0.00     0.053 C 
BRANCH   8   9
ATOM      9  C   UNL     1       1.841  23.528  22.794  1.00  0.00     0.041 C 
ATOM     10  O   UNL     1       2.415  24.217  21.910  1.00  0.00    -0.550 OA
ATOM     11  O   UNL     1       1.454  22.224  22.509  1.00  0.00    -0.550 OA
ENDBRANCH   8   9
ENDBRANCH   7   8
ENDBRANCH   6   7
ENDBRANCH   5   6
ENDBRANCH   4   5
ENDBRANCH   3   4
ENDBRANCH   2   3
ENDBRANCH   1   2
BRANCH   1  12
ATOM     12  C   UNL     1       5.991  19.369  26.891  1.00  0.00     0.000 C 
BRANCH  12  13
ATOM     13  C   UNL     1       5.772  18.139  25.984  1.00  0.00    -0.000 C 
BRANCH  13  14
ATOM     14  C   UNL     1       7.007  17.808  25.134  1.00  0.00    -0.000 C 
BRANCH  14  15
ATOM     15  C   UNL     1       7.124  16.298  24.895  1.00  0.00    -0.000 C 
BRANCH  15  16
ATOM     16  C   UNL     1       6.843  15.951  23.426  1.00  0.00    -0.000 C 
BRANCH  16  17
ATOM     17  C   UNL     1       5.835  14.800  23.272  1.00  0.00    -0.000 C 
BRANCH  17  18
ATOM     18  C   UNL     1       4.551  15.024  24.083  1.00  0.00    -0.000 C 
BRANCH  18  19
ATOM     19  C   UNL     1       3.321  15.037  23.167  1.00  0.00    -0.003 C 
ATOM     20  C   UNL     1       2.759  16.449  23.020  1.00  0.00     0.004 C 
ENDBRANCH  18  19
ENDBRANCH  17  18
ENDBRANCH  16  17
ENDBRANCH  15  16
ENDBRANCH  14  15
ENDBRANCH  13  14
ENDBRANCH  12  13
ENDBRANCH   1  12
TORSDOF 16
ENDMDL
MODEL 9
REMARK VINA RESULT:    -2.792      4.828      9.421
REMARK INTER + INTRA:          -6.711
REMARK INTER:                  -5.834
REMARK INTRA:                  -0.878
REMARK UNBOUND:                -1.308
REMARK SMILES CCCCCCCCCCCCCCCCCC(=O)[O-]
REMARK SMILES IDX 10 1 11 2 12 3 13 4 14 5 15 6 16 7 17 8 18 9 19 10 20 11
REMARK SMILES IDX 9 12 8 13 7 14 6 15 5 16 4 17 3 18 2 19 1 20
REMARK H PARENT
REMARK Flexibility Score: inf
ROOT
ATOM      1  C   UNL     1       6.222  20.295  26.602  1.00  0.00     0.000 C 
ENDROOT
BRANCH   1   2
ATOM      2  C   UNL     1       6.781  21.729  26.524  1.00  0.00     0.000 C 
BRANCH   2   3
ATOM      3  C   UNL     1       5.821  22.828  27.017  1.00  0.00     0.000 C 
BRANCH   3   4
ATOM      4  C   UNL     1       4.891  23.348  25.912  1.00  0.00     0.000 C 
BRANCH   4   5
ATOM      5  C   UNL     1       3.440  23.419  26.403  1.00  0.00     0.000 C 
BRANCH   5   6
ATOM      6  C   UNL     1       2.523  24.020  25.330  1.00  0.00     0.000 C 
BRANCH   6   7
ATOM      7  C   UNL     1       1.723  22.924  24.612  1.00  0.00     0.006 C 
BRANCH   7   8
ATOM      8  C   UNL     1       1.911  22.971  23.089  1.00  0.00     0.053 C 
BRANCH   8   9
ATOM      9  C   UNL     1       2.778  24.118  22.671  1.00  0.00     0.041 C 
ATOM     10  O   UNL     1       4.029  23.984  22.627  1.00  0.00    -0.550 OA
ATOM     11  O   UNL     1       2.206  25.346  22.361  1.00  0.00    -0.550 OA
ENDBRANCH   8   9
ENDBRANCH   7   8
ENDBRANCH   6   7
ENDBRANCH   5   6
ENDBRANCH   4   5
ENDBRANCH   3   4
ENDBRANCH   2   3
ENDBRANCH   1   2
BRANCH   1  12
ATOM     12  C   UNL     1       7.099  19.217  25.938  1.00  0.00     0.000 C 
BRANCH  12  13
ATOM     13  C   UNL     1       6.544  17.784  26.089  1.00  0.00    -0.000 C 
BRANCH  13  14
ATOM     14  C   UNL     1       5.181  17.754  26.797  1.00  0.00    -0.000 C 
BRANCH  14  15
ATOM     15  C   UNL     1       4.170  16.910  26.011  1.00  0.00    -0.000 C 
BRANCH  15  16
ATOM     16  C   UNL     1       4.394  17.053  24.499  1.00  0.00    -0.000 C 
BRANCH  16  17
ATOM     17  C   UNL     1       3.457  16.155  23.674  1.00  0.00    -0.000 C 
BRANCH  17  18
ATOM     18  C   UNL     1       4.189  14.967  23.033  1.00  0.00    -0.000 C 
BRANCH  18  19
ATOM     19  C   UNL     1       5.681  14.989  23.383  1.00  0.00    -0.003 C 
ATOM     20  C   UNL     1       6.434  13.875  22.661  1.00  0.00     0.004 C 
ENDBRANCH  18  19
ENDBRANCH  17  18
ENDBRANCH  16  17
ENDBRANCH  15  16
ENDBRANCH  14  15
ENDBRANCH  13  14
ENDBRANCH  12  13
ENDBRANCH   1  12
TORSDOF 16
ENDMDL
