MODEL 1
REMARK VINA RESULT:    -5.530      0.000      0.000
REMARK INTER + INTRA:         -10.113
REMARK INTER:                  -8.440
REMARK INTRA:                  -1.673
REMARK UNBOUND:                -1.673
REMARK SMILES CC(=O)CCC=C(C)CCC=C(C)CCC=C(C)C
REMARK SMILES IDX 10 1 11 2 12 3 13 4 14 5 15 6 16 7 18 8 17 9 19 10 9 11 7 12
REMARK SMILES IDX 6 13 8 14 5 15 4 16 2 17 3 18 1 19
REMARK H PARENT
REMARK Flexibility Score: inf
ROOT
ATOM      1  C   UNL     1     -15.447  10.997 -26.592  1.00  0.00     0.032 C 
ENDROOT
BRANCH   1   2
ATOM      2  C   UNL     1     -14.635  12.133 -27.160  1.00  0.00    -0.028 C 
ATOM      3  C   UNL     1     -13.283  12.162 -27.202  1.00  0.00    -0.077 C 
ATOM      4  C   UNL     1     -12.443  11.050 -26.617  1.00  0.00     0.039 C 
BRANCH   3   5
ATOM      5  C   UNL     1     -12.592  13.353 -27.827  1.00  0.00     0.034 C 
BRANCH   5   6
ATOM      6  C   UNL     1     -13.246  13.722 -29.163  1.00  0.00     0.032 C 
BRANCH   6   7
ATOM      7  C   UNL     1     -12.287  14.491 -30.036  1.00  0.00    -0.028 C 
ATOM      8  C   UNL     1     -11.394  12.431 -31.147  1.00  0.00     0.039 C 
ATOM      9  C   UNL     1     -11.465  13.927 -30.949  1.00  0.00    -0.080 C 
ATOM     10  C   UNL     1     -10.586  14.829 -31.778  1.00  0.00     0.039 C 
ENDBRANCH   6   7
ENDBRANCH   5   6
ENDBRANCH   3   5
ENDBRANCH   1   2
BRANCH   1  11
ATOM     11  C   UNL     1     -15.826   9.996 -27.690  1.00  0.00     0.034 C 
BRANCH  11  12
ATOM     12  C   UNL     1     -16.094  10.709 -28.998  1.00  0.00    -0.077 C 
ATOM     13  C   UNL     1     -17.199  11.481 -29.107  1.00  0.00    -0.028 C 
ATOM     14  C   UNL     1     -15.136  10.517 -30.151  1.00  0.00     0.039 C 
BRANCH  13  15
ATOM     15  C   UNL     1     -17.560  12.283 -30.332  1.00  0.00     0.035 C 
BRANCH  15  16
ATOM     16  C   UNL     1     -16.622  13.485 -30.487  1.00  0.00     0.079 C 
BRANCH  16  17
ATOM     17  C   UNL     1     -16.328  13.744 -31.940  1.00  0.00     0.130 C 
ATOM     18  O   UNL     1     -17.147  14.340 -32.624  1.00  0.00    -0.300 OA
ATOM     19  C   UNL     1     -15.042  13.293 -32.568  1.00  0.00     0.087 C 
ENDBRANCH  16  17
ENDBRANCH  15  16
ENDBRANCH  13  15
ENDBRANCH  11  12
ENDBRANCH   1  11
TORSDOF 9
ENDMDL
MODEL 2
REMARK VINA RESULT:    -5.389      2.134      5.292
REMARK INTER + INTRA:          -9.896
REMARK INTER:                  -7.671
REMARK INTRA:                  -2.225
REMARK UNBOUND:                -1.673
REMARK SMILES CC(=O)CCC=C(C)CCC=C(C)CCC=C(C)C
REMARK SMILES IDX 10 1 11 2 12 3 13 4 14 5 15 6 16 7 18 8 17 9 19 10 9 11 7 12
REMARK SMILES IDX 6 13 8 14 5 15 4 16 2 17 3 18 1 19
REMARK H PARENT
REMARK Flexibility Score: inf
ROOT
ATOM      1  C   UNL     1     -16.933  13.612 -31.550  1.00  0.00     0.032 C 
ENDROOT
BRANCH   1   2
ATOM      2  C   UNL     1     -17.026  12.388 -30.674  1.00  0.00    -0.028 C 
ATOM      3  C   UNL     1     -17.345  12.410 -29.360  1.00  0.00    -0.077 C 
ATOM      4  C   UNL     1     -17.590  13.705 -28.620  1.00  0.00     0.039 C 
BRANCH   3   5
ATOM      5  C   UNL     1     -17.433  11.103 -28.603  1.00  0.00     0.034 C 
BRANCH   5   6
ATOM      6  C   UNL     1     -16.039  10.506 -28.385  1.00  0.00     0.032 C 
BRANCH   6   7
ATOM      7  C   UNL     1     -15.064  11.568 -27.942  1.00  0.00    -0.028 C 
ATOM      8  C   UNL     1     -13.443  11.078 -29.789  1.00  0.00     0.039 C 
ATOM      9  C   UNL     1     -13.906  11.853 -28.577  1.00  0.00    -0.080 C 
ATOM     10  C   UNL     1     -13.049  12.971 -28.039  1.00  0.00     0.039 C 
ENDBRANCH   6   7
ENDBRANCH   5   6
ENDBRANCH   3   5
ENDBRANCH   1   2
BRANCH   1  11
ATOM     11  C   UNL     1     -15.634  13.602 -32.365  1.00  0.00     0.034 C 
BRANCH  11  12
ATOM     12  C   UNL     1     -14.521  14.297 -31.610  1.00  0.00    -0.077 C 
ATOM     13  C   UNL     1     -13.239  13.964 -31.884  1.00  0.00    -0.028 C 
ATOM     14  C   UNL     1     -14.874  15.321 -30.557  1.00  0.00     0.039 C 
BRANCH  13  15
ATOM     15  C   UNL     1     -12.036  14.611 -31.244  1.00  0.00     0.035 C 
BRANCH  15  16
ATOM     16  C   UNL     1     -10.755  13.858 -31.616  1.00  0.00     0.079 C 
BRANCH  16  17
ATOM     17  C   UNL     1     -10.239  14.316 -32.954  1.00  0.00     0.130 C 
ATOM     18  O   UNL     1     -10.094  13.503 -33.854  1.00  0.00    -0.300 OA
ATOM     19  C   UNL     1      -9.907  15.757 -33.210  1.00  0.00     0.087 C 
ENDBRANCH  16  17
ENDBRANCH  15  16
ENDBRANCH  13  15
ENDBRANCH  11  12
ENDBRANCH   1  11
TORSDOF 9
ENDMDL
MODEL 3
REMARK VINA RESULT:    -5.335      1.679      4.752
REMARK INTER + INTRA:          -9.815
REMARK INTER:                  -7.398
REMARK INTRA:                  -2.417
REMARK UNBOUND:                -1.673
REMARK SMILES CC(=O)CCC=C(C)CCC=C(C)CCC=C(C)C
REMARK SMILES IDX 10 1 11 2 12 3 13 4 14 5 15 6 16 7 18 8 17 9 19 10 9 11 7 12
REMARK SMILES IDX 6 13 8 14 5 15 4 16 2 17 3 18 1 19
REMARK H PARENT
REMARK Flexibility Score: inf
ROOT
ATOM      1  C   UNL     1     -17.049  12.873 -30.606  1.00  0.00     0.032 C 
ENDROOT
BRANCH   1   2
ATOM      2  C   UNL     1     -16.960  12.103 -29.312  1.00  0.00    -0.028 C 
ATOM      3  C   UNL     1     -16.069  11.113 -29.071  1.00  0.00    -0.077 C 
ATOM      4  C   UNL     1     -15.095  10.642 -30.126  1.00  0.00     0.039 C 
BRANCH   3   5
ATOM      5  C   UNL     1     -16.068  10.441 -27.717  1.00  0.00     0.034 C 
BRANCH   5   6
ATOM      6  C   UNL     1     -15.351  11.310 -26.678  1.00  0.00     0.032 C 
BRANCH   6   7
ATOM      7  C   UNL     1     -13.891  10.942 -26.587  1.00  0.00    -0.028 C 
ATOM      8  C   UNL     1     -13.134  12.972 -27.845  1.00  0.00     0.039 C 
ATOM      9  C   UNL     1     -12.882  11.691 -27.085  1.00  0.00    -0.080 C 
ATOM     10  C   UNL     1     -11.467  11.213 -26.884  1.00  0.00     0.039 C 
ENDBRANCH   6   7
ENDBRANCH   5   6
ENDBRANCH   3   5
ENDBRANCH   1   2
BRANCH   1  11
ATOM     11  C   UNL     1     -16.238  14.171 -30.524  1.00  0.00     0.034 C 
BRANCH  11  12
ATOM     12  C   UNL     1     -15.019  14.100 -31.419  1.00  0.00    -0.077 C 
ATOM     13  C   UNL     1     -13.916  14.806 -31.080  1.00  0.00    -0.028 C 
ATOM     14  C   UNL     1     -15.078  13.266 -32.678  1.00  0.00     0.039 C 
BRANCH  13  15
ATOM     15  C   UNL     1     -12.621  14.787 -31.853  1.00  0.00     0.035 C 
BRANCH  15  16
ATOM     16  C   UNL     1     -11.541  14.025 -31.079  1.00  0.00     0.079 C 
BRANCH  16  17
ATOM     17  C   UNL     1     -11.406  12.619 -31.602  1.00  0.00     0.130 C 
ATOM     18  O   UNL     1     -11.363  12.427 -32.807  1.00  0.00    -0.300 OA
ATOM     19  C   UNL     1     -11.314  11.446 -30.670  1.00  0.00     0.087 C 
ENDBRANCH  16  17
ENDBRANCH  15  16
ENDBRANCH  13  15
ENDBRANCH  11  12
ENDBRANCH   1  11
TORSDOF 9
ENDMDL
MODEL 4
REMARK VINA RESULT:    -5.302      2.444      4.626
REMARK INTER + INTRA:          -9.764
REMARK INTER:                  -7.727
REMARK INTRA:                  -2.037
REMARK UNBOUND:                -1.673
REMARK SMILES CC(=O)CCC=C(C)CCC=C(C)CCC=C(C)C
REMARK SMILES IDX 10 1 11 2 12 3 13 4 14 5 15 6 16 7 18 8 17 9 19 10 9 11 7 12
REMARK SMILES IDX 6 13 8 14 5 15 4 16 2 17 3 18 1 19
REMARK H PARENT
REMARK Flexibility Score: inf
ROOT
ATOM      1  C   UNL     1     -17.251  12.663 -30.195  1.00  0.00     0.032 C 
ENDROOT
BRANCH   1   2
ATOM      2  C   UNL     1     -16.253  13.790 -30.087  1.00  0.00    -0.028 C 
ATOM      3  C   UNL     1     -15.366  14.121 -31.053  1.00  0.00    -0.077 C 
ATOM      4  C   UNL     1     -15.257  13.336 -32.340  1.00  0.00     0.039 C 
BRANCH   3   5
ATOM      5  C   UNL     1     -14.439  15.295 -30.829  1.00  0.00     0.034 C 
BRANCH   5   6
ATOM      6  C   UNL     1     -13.203  14.867 -30.030  1.00  0.00     0.032 C 
BRANCH   6   7
ATOM      7  C   UNL     1     -12.055  14.545 -30.953  1.00  0.00    -0.028 C 
ATOM      8  C   UNL     1     -12.075  12.104 -30.389  1.00  0.00     0.039 C 
ATOM      9  C   UNL     1     -11.553  13.305 -31.143  1.00  0.00    -0.080 C 
ATOM     10  C   UNL     1     -10.425  13.130 -32.129  1.00  0.00     0.039 C 
ENDBRANCH   6   7
ENDBRANCH   5   6
ENDBRANCH   3   5
ENDBRANCH   1   2
BRANCH   1  11
ATOM     11  C   UNL     1     -17.255  11.816 -28.917  1.00  0.00     0.034 C 
BRANCH  11  12
ATOM     12  C   UNL     1     -15.863  11.313 -28.601  1.00  0.00    -0.077 C 
ATOM     13  C   UNL     1     -15.240  11.767 -27.489  1.00  0.00    -0.028 C 
ATOM     14  C   UNL     1     -15.198  10.341 -29.548  1.00  0.00     0.039 C 
BRANCH  13  15
ATOM     15  C   UNL     1     -13.876  11.313 -27.031  1.00  0.00     0.035 C 
BRANCH  15  16
ATOM     16  C   UNL     1     -12.952  12.515 -26.810  1.00  0.00     0.079 C 
BRANCH  16  17
ATOM     17  C   UNL     1     -11.745  12.115 -26.004  1.00  0.00     0.130 C 
ATOM     18  O   UNL     1     -11.300  12.883 -25.165  1.00  0.00    -0.300 OA
ATOM     19  C   UNL     1     -11.081  10.784 -26.202  1.00  0.00     0.087 C 
ENDBRANCH  16  17
ENDBRANCH  15  16
ENDBRANCH  13  15
ENDBRANCH  11  12
ENDBRANCH   1  11
TORSDOF 9
ENDMDL
MODEL 5
REMARK VINA RESULT:    -5.269     10.517     13.853
REMARK INTER + INTRA:          -9.714
REMARK INTER:                  -8.705
REMARK INTRA:                  -1.009
REMARK UNBOUND:                -1.673
REMARK SMILES CC(=O)CCC=C(C)CCC=C(C)CCC=C(C)C
REMARK SMILES IDX 10 1 11 2 12 3 13 4 14 5 15 6 16 7 18 8 17 9 19 10 9 11 7 12
REMARK SMILES IDX 6 13 8 14 5 15 4 16 2 17 3 18 1 19
REMARK H PARENT
REMARK Flexibility Score: inf
ROOT
ATOM      1  C   UNL     1     -26.221  17.370 -30.940  1.00  0.00     0.032 C 
ENDROOT
BRANCH   1   2
ATOM      2  C   UNL     1     -26.305  15.936 -30.478  1.00  0.00    -0.028 C 
ATOM      3  C   UNL     1     -25.266  15.070 -30.477  1.00  0.00    -0.077 C 
ATOM      4  C   UNL     1     -23.903  15.458 -31.005  1.00  0.00     0.039 C 
BRANCH   3   5
ATOM      5  C   UNL     1     -25.480  13.666 -29.959  1.00  0.00     0.034 C 
BRANCH   5   6
ATOM      6  C   UNL     1     -26.581  12.955 -30.753  1.00  0.00     0.032 C 
BRANCH   6   7
ATOM      7  C   UNL     1     -27.566  12.289 -29.825  1.00  0.00    -0.028 C 
ATOM      8  C   UNL     1     -29.473  13.748 -30.542  1.00  0.00     0.039 C 
ATOM      9  C   UNL     1     -28.874  12.619 -29.737  1.00  0.00    -0.080 C 
ATOM     10  C   UNL     1     -29.749  11.837 -28.789  1.00  0.00     0.039 C 
ENDBRANCH   6   7
ENDBRANCH   5   6
ENDBRANCH   3   5
ENDBRANCH   1   2
BRANCH   1  11
ATOM     11  C   UNL     1     -27.493  17.775 -31.693  1.00  0.00     0.034 C 
BRANCH  11  12
ATOM     12  C   UNL     1     -27.203  18.886 -32.678  1.00  0.00    -0.077 C 
ATOM     13  C   UNL     1     -25.915  19.220 -32.927  1.00  0.00    -0.028 C 
ATOM     14  C   UNL     1     -28.356  19.608 -33.335  1.00  0.00     0.039 C 
BRANCH  13  15
ATOM     15  C   UNL     1     -25.485  20.272 -33.919  1.00  0.00     0.035 C 
BRANCH  15  16
ATOM     16  C   UNL     1     -24.140  19.900 -34.552  1.00  0.00     0.079 C 
BRANCH  16  17
ATOM     17  C   UNL     1     -23.000  20.357 -33.681  1.00  0.00     0.130 C 
ATOM     18  O   UNL     1     -21.864  19.979 -33.929  1.00  0.00    -0.300 OA
ATOM     19  C   UNL     1     -23.227  21.278 -32.518  1.00  0.00     0.087 C 
ENDBRANCH  16  17
ENDBRANCH  15  16
ENDBRANCH  13  15
ENDBRANCH  11  12
ENDBRANCH   1  11
TORSDOF 9
ENDMDL
MODEL 6
REMARK VINA RESULT:    -5.216      2.177      5.314
REMARK INTER + INTRA:          -9.633
REMARK INTER:                  -7.581
REMARK INTRA:                  -2.052
REMARK UNBOUND:                -1.673
REMARK SMILES CC(=O)CCC=C(C)CCC=C(C)CCC=C(C)C
REMARK SMILES IDX 10 1 11 2 12 3 13 4 14 5 15 6 16 7 18 8 17 9 19 10 9 11 7 12
REMARK SMILES IDX 6 13 8 14 5 15 4 16 2 17 3 18 1 19
REMARK H PARENT
REMARK Flexibility Score: inf
ROOT
ATOM      1  C   UNL     1     -15.644  14.157 -31.036  1.00  0.00     0.032 C 
ENDROOT
BRANCH   1   2
ATOM      2  C   UNL     1     -16.105  13.336 -29.857  1.00  0.00    -0.028 C 
ATOM      3  C   UNL     1     -15.700  12.071 -29.601  1.00  0.00    -0.077 C 
ATOM      4  C   UNL     1     -14.767  11.329 -30.530  1.00  0.00     0.039 C 
BRANCH   3   5
ATOM      5  C   UNL     1     -16.218  11.370 -28.365  1.00  0.00     0.034 C 
BRANCH   5   6
ATOM      6  C   UNL     1     -15.109  10.546 -27.702  1.00  0.00     0.032 C 
BRANCH   6   7
ATOM      7  C   UNL     1     -14.216  11.426 -26.864  1.00  0.00    -0.028 C 
ATOM      8  C   UNL     1     -12.121  10.662 -28.007  1.00  0.00     0.039 C 
ATOM      9  C   UNL     1     -12.874  11.507 -27.006  1.00  0.00    -0.080 C 
ATOM     10  C   UNL     1     -12.116  12.462 -26.120  1.00  0.00     0.039 C 
ENDBRANCH   6   7
ENDBRANCH   5   6
ENDBRANCH   3   5
ENDBRANCH   1   2
BRANCH   1  11
ATOM     11  C   UNL     1     -14.686  15.266 -30.585  1.00  0.00     0.034 C 
BRANCH  11  12
ATOM     12  C   UNL     1     -13.250  14.793 -30.648  1.00  0.00    -0.077 C 
ATOM     13  C   UNL     1     -12.617  14.780 -31.844  1.00  0.00    -0.028 C 
ATOM     14  C   UNL     1     -12.573  14.324 -29.381  1.00  0.00     0.039 C 
BRANCH  13  15
ATOM     15  C   UNL     1     -11.176  14.380 -32.040  1.00  0.00     0.035 C 
BRANCH  15  16
ATOM     16  C   UNL     1     -10.980  13.715 -33.407  1.00  0.00     0.079 C 
BRANCH  16  17
ATOM     17  C   UNL     1     -10.611  12.265 -33.243  1.00  0.00     0.130 C 
ATOM     18  O   UNL     1     -10.562  11.542 -34.227  1.00  0.00    -0.300 OA
ATOM     19  C   UNL     1     -10.291  11.689 -31.896  1.00  0.00     0.087 C 
ENDBRANCH  16  17
ENDBRANCH  15  16
ENDBRANCH  13  15
ENDBRANCH  11  12
ENDBRANCH   1  11
TORSDOF 9
ENDMDL
MODEL 7
REMARK VINA RESULT:    -5.145      1.999      5.386
REMARK INTER + INTRA:          -9.525
REMARK INTER:                  -7.861
REMARK INTRA:                  -1.664
REMARK UNBOUND:                -1.673
REMARK SMILES CC(=O)CCC=C(C)CCC=C(C)CCC=C(C)C
REMARK SMILES IDX 10 1 11 2 12 3 13 4 14 5 15 6 16 7 18 8 17 9 19 10 9 11 7 12
REMARK SMILES IDX 6 13 8 14 5 15 4 16 2 17 3 18 1 19
REMARK H PARENT
REMARK Flexibility Score: inf
ROOT
ATOM      1  C   UNL     1     -13.077  12.809 -27.757  1.00  0.00     0.032 C 
ENDROOT
BRANCH   1   2
ATOM      2  C   UNL     1     -14.277  12.053 -27.243  1.00  0.00    -0.028 C 
ATOM      3  C   UNL     1     -14.521  10.746 -27.490  1.00  0.00    -0.077 C 
ATOM      4  C   UNL     1     -13.614   9.918 -28.372  1.00  0.00     0.039 C 
BRANCH   3   5
ATOM      5  C   UNL     1     -15.750  10.101 -26.888  1.00  0.00     0.034 C 
BRANCH   5   6
ATOM      6  C   UNL     1     -16.939  11.067 -26.914  1.00  0.00     0.032 C 
BRANCH   6   7
ATOM      7  C   UNL     1     -17.615  11.048 -28.262  1.00  0.00    -0.028 C 
ATOM      8  C   UNL     1     -17.422  13.527 -28.572  1.00  0.00     0.039 C 
ATOM      9  C   UNL     1     -17.817  12.142 -29.029  1.00  0.00    -0.080 C 
ATOM     10  C   UNL     1     -18.474  11.964 -30.375  1.00  0.00     0.039 C 
ENDBRANCH   6   7
ENDBRANCH   5   6
ENDBRANCH   3   5
ENDBRANCH   1   2
BRANCH   1  11
ATOM     11  C   UNL     1     -13.394  13.491 -29.093  1.00  0.00     0.034 C 
BRANCH  11  12
ATOM     12  C   UNL     1     -12.182  13.485 -29.999  1.00  0.00    -0.077 C 
ATOM     13  C   UNL     1     -11.854  14.620 -30.660  1.00  0.00    -0.028 C 
ATOM     14  C   UNL     1     -11.389  12.209 -30.162  1.00  0.00     0.039 C 
BRANCH  13  15
ATOM     15  C   UNL     1     -10.648  14.767 -31.553  1.00  0.00     0.035 C 
BRANCH  15  16
ATOM     16  C   UNL     1     -11.064  14.779 -33.027  1.00  0.00     0.079 C 
BRANCH  16  17
ATOM     17  C   UNL     1     -11.263  13.376 -33.534  1.00  0.00     0.130 C 
ATOM     18  O   UNL     1     -12.395  12.962 -33.733  1.00  0.00    -0.300 OA
ATOM     19  C   UNL     1     -10.096  12.473 -33.809  1.00  0.00     0.087 C 
ENDBRANCH  16  17
ENDBRANCH  15  16
ENDBRANCH  13  15
ENDBRANCH  11  12
ENDBRANCH   1  11
TORSDOF 9
ENDMDL
MODEL 8
REMARK VINA RESULT:    -5.066      1.856      4.762
REMARK INTER + INTRA:          -9.405
REMARK INTER:                  -7.402
REMARK INTRA:                  -2.003
REMARK UNBOUND:                -1.673
REMARK SMILES CC(=O)CCC=C(C)CCC=C(C)CCC=C(C)C
REMARK SMILES IDX 10 1 11 2 12 3 13 4 14 5 15 6 16 7 18 8 17 9 19 10 9 11 7 12
REMARK SMILES IDX 6 13 8 14 5 15 4 16 2 17 3 18 1 19
REMARK H PARENT
REMARK Flexibility Score: inf
ROOT
ATOM      1  C   UNL     1     -13.691  15.125 -31.614  1.00  0.00     0.032 C 
ENDROOT
BRANCH   1   2
ATOM      2  C   UNL     1     -13.029  13.812 -31.278  1.00  0.00    -0.028 C 
ATOM      3  C   UNL     1     -11.694  13.639 -31.147  1.00  0.00    -0.077 C 
ATOM      4  C   UNL     1     -10.716  14.767 -31.386  1.00  0.00     0.039 C 
BRANCH   3   5
ATOM      5  C   UNL     1     -11.162  12.272 -30.776  1.00  0.00     0.034 C 
BRANCH   5   6
ATOM      6  C   UNL     1     -12.248  11.433 -30.094  1.00  0.00     0.032 C 
BRANCH   6   7
ATOM      7  C   UNL     1     -11.828  11.048 -28.697  1.00  0.00    -0.028 C 
ATOM      8  C   UNL     1     -12.887  13.063 -27.650  1.00  0.00     0.039 C 
ATOM      9  C   UNL     1     -12.128  11.758 -27.587  1.00  0.00    -0.080 C 
ATOM     10  C   UNL     1     -11.673  11.227 -26.251  1.00  0.00     0.039 C 
ENDBRANCH   6   7
ENDBRANCH   5   6
ENDBRANCH   3   5
ENDBRANCH   1   2
BRANCH   1  11
ATOM     11  C   UNL     1     -14.862  15.403 -30.665  1.00  0.00     0.034 C 
BRANCH  11  12
ATOM     12  C   UNL     1     -15.835  14.244 -30.659  1.00  0.00    -0.077 C 
ATOM     13  C   UNL     1     -16.025  13.556 -29.510  1.00  0.00    -0.028 C 
ATOM     14  C   UNL     1     -16.547  13.873 -31.939  1.00  0.00     0.039 C 
BRANCH  13  15
ATOM     15  C   UNL     1     -16.998  12.415 -29.351  1.00  0.00     0.035 C 
BRANCH  15  16
ATOM     16  C   UNL     1     -16.990  11.892 -27.911  1.00  0.00     0.079 C 
BRANCH  16  17
ATOM     17  C   UNL     1     -15.931  10.837 -27.736  1.00  0.00     0.130 C 
ATOM     18  O   UNL     1     -15.484  10.263 -28.718  1.00  0.00    -0.300 OA
ATOM     19  C   UNL     1     -15.403  10.479 -26.377  1.00  0.00     0.087 C 
ENDBRANCH  16  17
ENDBRANCH  15  16
ENDBRANCH  13  15
ENDBRANCH  11  12
ENDBRANCH   1  11
TORSDOF 9
ENDMDL
MODEL 9
REMARK VINA RESULT:    -5.017      1.890      4.378
REMARK INTER + INTRA:          -9.330
REMARK INTER:                  -7.208
REMARK INTRA:                  -2.122
REMARK UNBOUND:                -1.673
REMARK SMILES CC(=O)CCC=C(C)CCC=C(C)CCC=C(C)C
REMARK SMILES IDX 10 1 11 2 12 3 13 4 14 5 15 6 16 7 18 8 17 9 19 10 9 11 7 12
REMARK SMILES IDX 6 13 8 14 5 15 4 16 2 17 3 18 1 19
REMARK H PARENT
REMARK Flexibility Score: inf
ROOT
ATOM      1  C   UNL     1     -14.857   9.875 -29.022  1.00  0.00     0.032 C 
ENDROOT
BRANCH   1   2
ATOM      2  C   UNL     1     -15.815  10.979 -29.396  1.00  0.00    -0.028 C 
ATOM      3  C   UNL     1     -16.908  11.320 -28.675  1.00  0.00    -0.077 C 
ATOM      4  C   UNL     1     -17.306  10.569 -27.425  1.00  0.00     0.039 C 
BRANCH   3   5
ATOM      5  C   UNL     1     -17.770  12.469 -29.148  1.00  0.00     0.034 C 
BRANCH   5   6
ATOM      6  C   UNL     1     -17.299  12.976 -30.515  1.00  0.00     0.032 C 
BRANCH   6   7
ATOM      7  C   UNL     1     -16.268  14.065 -30.357  1.00  0.00    -0.028 C 
ATOM      8  C   UNL     1     -14.975  13.357 -32.383  1.00  0.00     0.039 C 
ATOM      9  C   UNL     1     -15.232  14.264 -31.202  1.00  0.00    -0.080 C 
ATOM     10  C   UNL     1     -14.302  15.420 -30.937  1.00  0.00     0.039 C 
ENDBRANCH   6   7
ENDBRANCH   5   6
ENDBRANCH   3   5
ENDBRANCH   1   2
BRANCH   1  11
ATOM     11  C   UNL     1     -13.753  10.402 -28.098  1.00  0.00     0.034 C 
BRANCH  11  12
ATOM     12  C   UNL     1     -13.127  11.656 -28.669  1.00  0.00    -0.077 C 
ATOM     13  C   UNL     1     -12.479  11.582 -29.854  1.00  0.00    -0.028 C 
ATOM     14  C   UNL     1     -13.219  12.946 -27.888  1.00  0.00     0.039 C 
BRANCH  13  15
ATOM     15  C   UNL     1     -11.855  12.760 -30.559  1.00  0.00     0.035 C 
BRANCH  15  16
ATOM     16  C   UNL     1     -11.043  12.296 -31.772  1.00  0.00     0.079 C 
BRANCH  16  17
ATOM     17  C   UNL     1     -11.241  13.234 -32.933  1.00  0.00     0.130 C 
ATOM     18  O   UNL     1     -11.545  12.782 -34.027  1.00  0.00    -0.300 OA
ATOM     19  C   UNL     1     -11.083  14.717 -32.774  1.00  0.00     0.087 C 
ENDBRANCH  16  17
ENDBRANCH  15  16
ENDBRANCH  13  15
ENDBRANCH  11  12
ENDBRANCH   1  11
TORSDOF 9
ENDMDL
