MODEL 1
REMARK VINA RESULT:    -3.911      0.000      0.000
REMARK INTER + INTRA:          -4.618
REMARK INTER:                  -4.597
REMARK INTRA:                  -0.021
REMARK UNBOUND:                -0.021
REMARK SMILES CCCCC(=O)[O-]
REMARK SMILES IDX 4 1 5 2 6 3 7 4 3 5 2 6 1 7
REMARK H PARENT
REMARK Flexibility Score: inf
ROOT
ATOM      1  C   UNL     1      -4.094  -5.790  -5.872  1.00  0.00     0.053 C 
ENDROOT
BRANCH   1   2
ATOM      2  C   UNL     1      -5.376  -6.558  -5.954  1.00  0.00     0.041 C 
ATOM      3  O   UNL     1      -5.358  -7.814  -6.052  1.00  0.00    -0.550 OA
ATOM      4  O   UNL     1      -6.592  -5.891  -5.870  1.00  0.00    -0.550 OA
ENDBRANCH   1   2
BRANCH   1   5
ATOM      5  C   UNL     1      -4.358  -4.288  -6.040  1.00  0.00     0.006 C 
BRANCH   5   6
ATOM      6  C   UNL     1      -3.158  -3.428  -5.618  1.00  0.00    -0.003 C 
ATOM      7  C   UNL     1      -3.302  -1.965  -6.035  1.00  0.00     0.004 C 
ENDBRANCH   5   6
ENDBRANCH   1   5
TORSDOF 3
ENDMDL
MODEL 2
REMARK VINA RESULT:    -3.369      6.363      7.134
REMARK INTER + INTRA:          -3.982
REMARK INTER:                  -3.882
REMARK INTRA:                  -0.100
REMARK UNBOUND:                -0.021
REMARK SMILES CCCCC(=O)[O-]
REMARK SMILES IDX 4 1 5 2 6 3 7 4 3 5 2 6 1 7
REMARK H PARENT
REMARK Flexibility Score: inf
ROOT
ATOM      1  C   UNL     1     -10.643  -3.132  -1.826  1.00  0.00     0.053 C 
ENDROOT
BRANCH   1   2
ATOM      2  C   UNL     1      -9.153  -3.120  -1.688  1.00  0.00     0.041 C 
ATOM      3  O   UNL     1      -8.525  -4.195  -1.500  1.00  0.00    -0.550 OA
ATOM      4  O   UNL     1      -8.453  -1.927  -1.819  1.00  0.00    -0.550 OA
ENDBRANCH   1   2
BRANCH   1   5
ATOM      5  C   UNL     1     -11.067  -4.054  -2.976  1.00  0.00     0.006 C 
BRANCH   5   6
ATOM      6  C   UNL     1     -11.088  -3.334  -4.333  1.00  0.00    -0.003 C 
ATOM      7  C   UNL     1      -9.900  -3.706  -5.219  1.00  0.00     0.004 C 
ENDBRANCH   5   6
ENDBRANCH   1   5
TORSDOF 3
ENDMDL
MODEL 3
REMARK VINA RESULT:    -3.369      6.410      7.272
REMARK INTER + INTRA:          -3.981
REMARK INTER:                  -3.882
REMARK INTRA:                  -0.099
REMARK UNBOUND:                -0.021
REMARK SMILES CCCCC(=O)[O-]
REMARK SMILES IDX 4 1 5 2 6 3 7 4 3 5 2 6 1 7
REMARK H PARENT
REMARK Flexibility Score: inf
ROOT
ATOM      1  C   UNL     1     -10.734  -3.114  -1.854  1.00  0.00     0.053 C 
ENDROOT
BRANCH   1   2
ATOM      2  C   UNL     1      -9.247  -3.053  -1.696  1.00  0.00     0.041 C 
ATOM      3  O   UNL     1      -8.661  -1.940  -1.639  1.00  0.00    -0.550 OA
ATOM      4  O   UNL     1      -8.514  -4.225  -1.561  1.00  0.00    -0.550 OA
ENDBRANCH   1   2
BRANCH   1   5
ATOM      5  C   UNL     1     -11.111  -4.048  -3.011  1.00  0.00     0.006 C 
BRANCH   5   6
ATOM      6  C   UNL     1     -11.121  -3.331  -4.369  1.00  0.00    -0.003 C 
ATOM      7  C   UNL     1      -9.934  -3.716  -5.251  1.00  0.00     0.004 C 
ENDBRANCH   5   6
ENDBRANCH   1   5
TORSDOF 3
ENDMDL
MODEL 4
REMARK VINA RESULT:    -3.351      5.923      6.414
REMARK INTER + INTRA:          -3.960
REMARK INTER:                  -3.849
REMARK INTRA:                  -0.112
REMARK UNBOUND:                -0.021
REMARK SMILES CCCCC(=O)[O-]
REMARK SMILES IDX 4 1 5 2 6 3 7 4 3 5 2 6 1 7
REMARK H PARENT
REMARK Flexibility Score: inf
ROOT
ATOM      1  C   UNL     1     -11.007  -4.049  -2.953  1.00  0.00     0.053 C 
ENDROOT
BRANCH   1   2
ATOM      2  C   UNL     1     -10.045  -4.119  -4.096  1.00  0.00     0.041 C 
ATOM      3  O   UNL     1      -9.523  -5.219  -4.419  1.00  0.00    -0.550 OA
ATOM      4  O   UNL     1      -9.763  -2.979  -4.838  1.00  0.00    -0.550 OA
ENDBRANCH   1   2
BRANCH   1   5
ATOM      5  C   UNL     1     -10.486  -3.093  -1.872  1.00  0.00     0.006 C 
BRANCH   5   6
ATOM      6  C   UNL     1      -9.035  -3.396  -1.468  1.00  0.00    -0.003 C 
ATOM      7  C   UNL     1      -8.119  -2.179  -1.598  1.00  0.00     0.004 C 
ENDBRANCH   5   6
ENDBRANCH   1   5
TORSDOF 3
ENDMDL
MODEL 5
REMARK VINA RESULT:    -3.284      5.953      6.877
REMARK INTER + INTRA:          -3.881
REMARK INTER:                  -3.827
REMARK INTRA:                  -0.054
REMARK UNBOUND:                -0.021
REMARK SMILES CCCCC(=O)[O-]
REMARK SMILES IDX 4 1 5 2 6 3 7 4 3 5 2 6 1 7
REMARK H PARENT
REMARK Flexibility Score: inf
ROOT
ATOM      1  C   UNL     1      -9.476  -3.787  -3.521  1.00  0.00     0.053 C 
ENDROOT
BRANCH   1   2
ATOM      2  C   UNL     1      -8.898  -3.432  -2.187  1.00  0.00     0.041 C 
ATOM      3  O   UNL     1      -8.400  -4.326  -1.453  1.00  0.00    -0.550 OA
ATOM      4  O   UNL     1      -8.865  -2.105  -1.775  1.00  0.00    -0.550 OA
ENDBRANCH   1   2
BRANCH   1   5
ATOM      5  C   UNL     1     -10.852  -4.444  -3.351  1.00  0.00     0.006 C 
BRANCH   5   6
ATOM      6  C   UNL     1     -11.064  -5.624  -4.312  1.00  0.00    -0.003 C 
ATOM      7  C   UNL     1      -9.886  -5.832  -5.262  1.00  0.00     0.004 C 
ENDBRANCH   5   6
ENDBRANCH   1   5
TORSDOF 3
ENDMDL
MODEL 6
REMARK VINA RESULT:    -3.224      5.693      6.441
REMARK INTER + INTRA:          -3.811
REMARK INTER:                  -3.791
REMARK INTRA:                  -0.019
REMARK UNBOUND:                -0.021
REMARK SMILES CCCCC(=O)[O-]
REMARK SMILES IDX 4 1 5 2 6 3 7 4 3 5 2 6 1 7
REMARK H PARENT
REMARK Flexibility Score: inf
ROOT
ATOM      1  C   UNL     1      -9.041  -3.684  -3.861  1.00  0.00     0.053 C 
ENDROOT
BRANCH   1   2
ATOM      2  C   UNL     1      -9.206  -4.595  -5.037  1.00  0.00     0.041 C 
ATOM      3  O   UNL     1      -9.322  -4.118  -6.197  1.00  0.00    -0.550 OA
ATOM      4  O   UNL     1      -9.180  -5.972  -4.857  1.00  0.00    -0.550 OA
ENDBRANCH   1   2
BRANCH   1   5
ATOM      5  C   UNL     1     -10.250  -3.796  -2.923  1.00  0.00     0.006 C 
BRANCH   5   6
ATOM      6  C   UNL     1      -9.913  -3.399  -1.478  1.00  0.00    -0.003 C 
ATOM      7  C   UNL     1     -11.124  -3.465  -0.548  1.00  0.00     0.004 C 
ENDBRANCH   5   6
ENDBRANCH   1   5
TORSDOF 3
ENDMDL
MODEL 7
REMARK VINA RESULT:    -3.171      2.339      3.744
REMARK INTER + INTRA:          -3.749
REMARK INTER:                  -3.704
REMARK INTRA:                  -0.045
REMARK UNBOUND:                -0.021
REMARK SMILES CCCCC(=O)[O-]
REMARK SMILES IDX 4 1 5 2 6 3 7 4 3 5 2 6 1 7
REMARK H PARENT
REMARK Flexibility Score: inf
ROOT
ATOM      1  C   UNL     1      -5.541  -5.479  -6.458  1.00  0.00     0.053 C 
ENDROOT
BRANCH   1   2
ATOM      2  C   UNL     1      -4.900  -6.777  -6.082  1.00  0.00     0.041 C 
ATOM      3  O   UNL     1      -3.683  -6.813  -5.757  1.00  0.00    -0.550 OA
ATOM      4  O   UNL     1      -5.658  -7.940  -6.040  1.00  0.00    -0.550 OA
ENDBRANCH   1   2
BRANCH   1   5
ATOM      5  C   UNL     1      -7.043  -5.673  -6.698  1.00  0.00     0.006 C 
BRANCH   5   6
ATOM      6  C   UNL     1      -7.890  -5.293  -5.474  1.00  0.00    -0.003 C 
ATOM      7  C   UNL     1      -9.352  -5.717  -5.610  1.00  0.00     0.004 C 
ENDBRANCH   5   6
ENDBRANCH   1   5
TORSDOF 3
ENDMDL
MODEL 8
REMARK VINA RESULT:    -3.068     17.669     18.804
REMARK INTER + INTRA:          -3.627
REMARK INTER:                  -3.586
REMARK INTRA:                  -0.041
REMARK UNBOUND:                -0.021
REMARK SMILES CCCCC(=O)[O-]
REMARK SMILES IDX 4 1 5 2 6 3 7 4 3 5 2 6 1 7
REMARK H PARENT
REMARK Flexibility Score: inf
ROOT
ATOM      1  C   UNL     1       5.247   9.844   0.351  1.00  0.00     0.053 C 
ENDROOT
BRANCH   1   2
ATOM      2  C   UNL     1       3.869   9.342   0.049  1.00  0.00     0.041 C 
ATOM      3  O   UNL     1       3.575   8.963  -1.116  1.00  0.00    -0.550 OA
ATOM      4  O   UNL     1       2.926   9.246   1.064  1.00  0.00    -0.550 OA
ENDBRANCH   1   2
BRANCH   1   5
ATOM      5  C   UNL     1       5.517   9.787   1.860  1.00  0.00     0.006 C 
BRANCH   5   6
ATOM      6  C   UNL     1       6.558   8.720   2.232  1.00  0.00    -0.003 C 
ATOM      7  C   UNL     1       6.957   8.771   3.706  1.00  0.00     0.004 C 
ENDBRANCH   5   6
ENDBRANCH   1   5
TORSDOF 3
ENDMDL
