MODEL 1
REMARK VINA RESULT:    -2.930      0.000      0.000
REMARK INTER + INTRA:          -4.064
REMARK INTER:                  -3.787
REMARK INTRA:                  -0.277
REMARK UNBOUND:                -0.277
REMARK SMILES CCCCCCC(=O)[O-]
REMARK SMILES IDX 5 1 6 2 7 3 8 4 9 5 4 6 3 7 2 8 1 9
REMARK H PARENT
REMARK Flexibility Score: inf
ROOT
ATOM      1  C   UNL     1       9.389  14.476  -0.041  1.00  0.00     0.006 C 
ENDROOT
BRANCH   1   2
ATOM      2  C   UNL     1       9.449  14.707   1.475  1.00  0.00     0.053 C 
BRANCH   2   3
ATOM      3  C   UNL     1       9.669  16.151   1.807  1.00  0.00     0.041 C 
ATOM      4  O   UNL     1      10.840  16.605   1.920  1.00  0.00    -0.550 OA
ATOM      5  O   UNL     1       8.583  17.002   1.962  1.00  0.00    -0.550 OA
ENDBRANCH   2   3
ENDBRANCH   1   2
BRANCH   1   6
ATOM      6  C   UNL     1      10.353  13.370  -0.498  1.00  0.00     0.000 C 
BRANCH   6   7
ATOM      7  C   UNL     1      11.809  13.845  -0.421  1.00  0.00    -0.000 C 
BRANCH   7   8
ATOM      8  C   UNL     1      12.662  12.876   0.404  1.00  0.00    -0.003 C 
ATOM      9  C   UNL     1      12.558  13.181   1.895  1.00  0.00     0.004 C 
ENDBRANCH   7   8
ENDBRANCH   6   7
ENDBRANCH   1   6
TORSDOF 5
ENDMDL
MODEL 2
REMARK VINA RESULT:    -2.304      1.358      2.439
REMARK INTER + INTRA:          -3.255
REMARK INTER:                  -3.274
REMARK INTRA:                   0.020
REMARK UNBOUND:                -0.277
REMARK SMILES CCCCCCC(=O)[O-]
REMARK SMILES IDX 5 1 6 2 7 3 8 4 9 5 4 6 3 7 2 8 1 9
REMARK H PARENT
REMARK Flexibility Score: inf
ROOT
ATOM      1  C   UNL     1      11.373  15.807   1.240  1.00  0.00     0.006 C 
ENDROOT
BRANCH   1   2
ATOM      2  C   UNL     1      10.475  16.684   2.123  1.00  0.00     0.053 C 
BRANCH   2   3
ATOM      3  C   UNL     1       9.038  16.268   2.038  1.00  0.00     0.041 C 
ATOM      4  O   UNL     1       8.129  17.139   1.968  1.00  0.00    -0.550 OA
ATOM      5  O   UNL     1       8.705  14.921   2.006  1.00  0.00    -0.550 OA
ENDBRANCH   2   3
ENDBRANCH   1   2
BRANCH   1   6
ATOM      6  C   UNL     1      11.896  14.573   1.991  1.00  0.00     0.000 C 
BRANCH   6   7
ATOM      7  C   UNL     1      11.662  13.294   1.177  1.00  0.00    -0.000 C 
BRANCH   7   8
ATOM      8  C   UNL     1      11.625  13.596  -0.325  1.00  0.00    -0.003 C 
ATOM      9  C   UNL     1      10.196  13.553  -0.861  1.00  0.00     0.004 C 
ENDBRANCH   7   8
ENDBRANCH   6   7
ENDBRANCH   1   6
TORSDOF 5
ENDMDL
MODEL 3
REMARK VINA RESULT:    -1.688      1.043      2.465
REMARK INTER + INTRA:          -2.459
REMARK INTER:                  -2.527
REMARK INTRA:                   0.068
REMARK UNBOUND:                -0.277
REMARK SMILES CCCCCCC(=O)[O-]
REMARK SMILES IDX 5 1 6 2 7 3 8 4 9 5 4 6 3 7 2 8 1 9
REMARK H PARENT
REMARK Flexibility Score: inf
ROOT
ATOM      1  C   UNL     1      12.055  14.113   1.671  1.00  0.00     0.006 C 
ENDROOT
BRANCH   1   2
ATOM      2  C   UNL     1      10.743  14.768   2.122  1.00  0.00     0.053 C 
BRANCH   2   3
ATOM      3  C   UNL     1      10.679  16.212   1.730  1.00  0.00     0.041 C 
ATOM      4  O   UNL     1       9.570  16.749   1.462  1.00  0.00    -0.550 OA
ATOM      5  O   UNL     1      11.840  16.974   1.690  1.00  0.00    -0.550 OA
ENDBRANCH   2   3
ENDBRANCH   1   2
BRANCH   1   6
ATOM      6  C   UNL     1      11.827  13.037   0.598  1.00  0.00     0.000 C 
BRANCH   6   7
ATOM      7  C   UNL     1      11.952  13.630  -0.810  1.00  0.00    -0.000 C 
BRANCH   7   8
ATOM      8  C   UNL     1      10.626  13.526  -1.572  1.00  0.00    -0.003 C 
ATOM      9  C   UNL     1       9.443  13.855  -0.666  1.00  0.00     0.004 C 
ENDBRANCH   7   8
ENDBRANCH   6   7
ENDBRANCH   1   6
TORSDOF 5
ENDMDL
MODEL 4
REMARK VINA RESULT:    -0.440      2.452      4.647
REMARK INTER + INTRA:          -0.845
REMARK INTER:                  -0.620
REMARK INTRA:                  -0.225
REMARK UNBOUND:                -0.277
REMARK SMILES CCCCCCC(=O)[O-]
REMARK SMILES IDX 5 1 6 2 7 3 8 4 9 5 4 6 3 7 2 8 1 9
REMARK H PARENT
REMARK Flexibility Score: inf
ROOT
ATOM      1  C   UNL     1      11.146  15.938   1.352  1.00  0.00     0.006 C 
ENDROOT
BRANCH   1   2
ATOM      2  C   UNL     1      10.872  14.928   0.230  1.00  0.00     0.053 C 
BRANCH   2   3
ATOM      3  C   UNL     1      11.744  13.715   0.351  1.00  0.00     0.041 C 
ATOM      4  O   UNL     1      11.963  12.989  -0.656  1.00  0.00    -0.550 OA
ATOM      5  O   UNL     1      12.340  13.406   1.566  1.00  0.00    -0.550 OA
ENDBRANCH   2   3
ENDBRANCH   1   2
BRANCH   1   6
ATOM      6  C   UNL     1       9.870  16.307   2.124  1.00  0.00     0.000 C 
BRANCH   6   7
ATOM      7  C   UNL     1       8.634  15.667   1.481  1.00  0.00    -0.000 C 
BRANCH   7   8
ATOM      8  C   UNL     1       7.344  16.231   2.086  1.00  0.00    -0.003 C 
ATOM      9  C   UNL     1       7.373  17.756   2.123  1.00  0.00     0.004 C 
ENDBRANCH   7   8
ENDBRANCH   6   7
ENDBRANCH   1   6
TORSDOF 5
ENDMDL
MODEL 5
REMARK VINA RESULT:    -0.142     15.121     16.360
REMARK INTER + INTRA:          -0.460
REMARK INTER:                  -0.275
REMARK INTRA:                  -0.186
REMARK UNBOUND:                -0.277
REMARK SMILES CCCCCCC(=O)[O-]
REMARK SMILES IDX 5 1 6 2 7 3 8 4 9 5 4 6 3 7 2 8 1 9
REMARK H PARENT
REMARK Flexibility Score: inf
ROOT
ATOM      1  C   UNL     1      18.114  17.369 -11.514  1.00  0.00     0.006 C 
ENDROOT
BRANCH   1   2
ATOM      2  C   UNL     1      18.269  16.868 -12.956  1.00  0.00     0.053 C 
BRANCH   2   3
ATOM      3  C   UNL     1      17.660  15.512 -13.140  1.00  0.00     0.041 C 
ATOM      4  O   UNL     1      18.381  14.533 -13.473  1.00  0.00    -0.550 OA
ATOM      5  O   UNL     1      16.303  15.322 -12.914  1.00  0.00    -0.550 OA
ENDBRANCH   2   3
ENDBRANCH   1   2
BRANCH   1   6
ATOM      6  C   UNL     1      18.708  18.773 -11.321  1.00  0.00     0.000 C 
BRANCH   6   7
ATOM      7  C   UNL     1      18.320  19.698 -12.480  1.00  0.00    -0.000 C 
BRANCH   7   8
ATOM      8  C   UNL     1      19.096  21.018 -12.415  1.00  0.00    -0.003 C 
ATOM      9  C   UNL     1      20.593  20.770 -12.252  1.00  0.00     0.004 C 
ENDBRANCH   7   8
ENDBRANCH   6   7
ENDBRANCH   1   6
TORSDOF 5
ENDMDL
MODEL 6
REMARK VINA RESULT:     0.018     15.649     16.165
REMARK INTER + INTRA:          -0.254
REMARK INTER:                  -0.099
REMARK INTRA:                  -0.155
REMARK UNBOUND:                -0.277
REMARK SMILES CCCCCCC(=O)[O-]
REMARK SMILES IDX 5 1 6 2 7 3 8 4 9 5 4 6 3 7 2 8 1 9
REMARK H PARENT
REMARK Flexibility Score: inf
ROOT
ATOM      1  C   UNL     1      18.757  17.640 -11.613  1.00  0.00     0.006 C 
ENDROOT
BRANCH   1   2
ATOM      2  C   UNL     1      18.275  19.059 -11.283  1.00  0.00     0.053 C 
BRANCH   2   3
ATOM      3  C   UNL     1      18.777  20.061 -12.277  1.00  0.00     0.041 C 
ATOM      4  O   UNL     1      17.989  20.571 -13.117  1.00  0.00    -0.550 OA
ATOM      5  O   UNL     1      20.109  20.456 -12.255  1.00  0.00    -0.550 OA
ENDBRANCH   2   3
ENDBRANCH   1   2
BRANCH   1   6
ATOM      6  C   UNL     1      18.241  17.155 -12.976  1.00  0.00     0.000 C 
BRANCH   6   7
ATOM      7  C   UNL     1      17.569  15.782 -12.852  1.00  0.00    -0.000 C 
BRANCH   7   8
ATOM      8  C   UNL     1      18.241  14.755 -13.770  1.00  0.00    -0.003 C 
ATOM      9  C   UNL     1      19.130  13.802 -12.975  1.00  0.00     0.004 C 
ENDBRANCH   7   8
ENDBRANCH   6   7
ENDBRANCH   1   6
TORSDOF 5
ENDMDL
