MODEL 1
REMARK VINA RESULT:    -7.719      0.000      0.000
REMARK INTER + INTRA:          -8.954
REMARK INTER:                  -9.298
REMARK INTRA:                   0.344
REMARK UNBOUND:                 0.344
REMARK SMILES O=c1c(O)c(-c2ccc(O)c(O)c2)oc2cc(O)cc(O)c12
REMARK SMILES IDX 5 1 3 2 2 3 1 4 22 5 20 6 19 7 17 8 16 9 15 10 14 11 6 12
REMARK SMILES IDX 7 13 8 14 9 15 13 16 11 17 10 18 12 20 4 22 21 24 18 26
REMARK H PARENT 10 19 12 21 4 23 21 25 18 27
REMARK Flexibility Score: inf
ROOT
ATOM      1  C   UNL     1      50.453 -39.528  -3.454  1.00  0.00     0.180 A 
ATOM      2  C   UNL     1      50.450 -38.400  -4.292  1.00  0.00     0.208 A 
ATOM      3  C   UNL     1      49.224 -37.915  -4.775  1.00  0.00     0.238 A 
ATOM      4  O   UNL     1      49.234 -36.951  -5.584  1.00  0.00    -0.285 OA
ATOM      5  C   UNL     1      48.014 -38.528  -4.370  1.00  0.00     0.111 A 
ATOM      6  C   UNL     1      46.711 -38.093  -4.763  1.00  0.00     0.134 A 
ATOM      7  C   UNL     1      45.590 -38.842  -4.384  1.00  0.00     0.093 A 
ATOM      8  C   UNL     1      45.718 -39.974  -3.577  1.00  0.00     0.123 A 
ATOM      9  C   UNL     1      46.979 -40.375  -3.144  1.00  0.00     0.094 A 
ATOM     10  C   UNL     1      48.121 -39.672  -3.535  1.00  0.00     0.146 A 
ATOM     11  O   UNL     1      49.305 -40.102  -3.117  1.00  0.00    -0.452 OA
ENDROOT
BRANCH   1  12
ATOM     12  C   UNL     1      51.706 -40.107  -2.916  1.00  0.00     0.025 A 
ATOM     13  C   UNL     1      51.748 -41.467  -2.579  1.00  0.00     0.016 A 
ATOM     14  C   UNL     1      52.924 -42.037  -2.089  1.00  0.00     0.051 A 
ATOM     15  C   UNL     1      54.084 -41.269  -1.941  1.00  0.00     0.157 A 
ATOM     16  C   UNL     1      52.874 -39.336  -2.791  1.00  0.00     0.062 A 
ATOM     17  C   UNL     1      54.060 -39.901  -2.303  1.00  0.00     0.158 A 
BRANCH  15  18
ATOM     18  O   UNL     1      55.225 -41.897  -1.439  1.00  0.00    -0.504 OA
ATOM     19  H   UNL     1      55.261 -42.870  -1.169  1.00  0.00     0.293 HD
ENDBRANCH  15  18
BRANCH  17  20
ATOM     20  O   UNL     1      55.183 -39.076  -2.204  1.00  0.00    -0.504 OA
ATOM     21  H   UNL     1      55.828 -38.907  -2.962  1.00  0.00     0.293 HD
ENDBRANCH  17  20
ENDBRANCH   1  12
BRANCH   2  22
ATOM     22  O   UNL     1      51.650 -37.763  -4.619  1.00  0.00    -0.502 OA
ATOM     23  H   UNL     1      52.422 -38.250  -5.057  1.00  0.00     0.293 HD
ENDBRANCH   2  22
BRANCH   6  24
ATOM     24  O   UNL     1      46.462 -36.927  -5.494  1.00  0.00    -0.507 OA
ATOM     25  H   UNL     1      46.166 -36.902  -6.457  1.00  0.00     0.293 HD
ENDBRANCH   6  24
BRANCH   8  26
ATOM     26  O   UNL     1      44.596 -40.704  -3.192  1.00  0.00    -0.508 OA
ATOM     27  H   UNL     1      44.621 -41.333  -2.397  1.00  0.00     0.293 HD
ENDBRANCH   8  26
TORSDOF 6
ENDMDL
MODEL 2
REMARK VINA RESULT:    -7.483      1.659      2.526
REMARK INTER + INTRA:          -8.670
REMARK INTER:                  -8.521
REMARK INTRA:                  -0.150
REMARK UNBOUND:                 0.344
REMARK SMILES O=c1c(O)c(-c2ccc(O)c(O)c2)oc2cc(O)cc(O)c12
REMARK SMILES IDX 5 1 3 2 2 3 1 4 22 5 20 6 19 7 17 8 16 9 15 10 14 11 6 12
REMARK SMILES IDX 7 13 8 14 9 15 13 16 11 17 10 18 12 20 4 22 21 24 18 26
REMARK H PARENT 10 19 12 21 4 23 21 25 18 27
REMARK Flexibility Score: inf
ROOT
ATOM      1  C   UNL     1      49.262 -39.906  -3.083  1.00  0.00     0.180 A 
ATOM      2  C   UNL     1      48.709 -39.592  -4.336  1.00  0.00     0.208 A 
ATOM      3  C   UNL     1      47.312 -39.536  -4.468  1.00  0.00     0.238 A 
ATOM      4  O   UNL     1      46.824 -39.328  -5.610  1.00  0.00    -0.285 OA
ATOM      5  C   UNL     1      46.487 -39.738  -3.336  1.00  0.00     0.111 A 
ATOM      6  C   UNL     1      45.062 -39.660  -3.345  1.00  0.00     0.134 A 
ATOM      7  C   UNL     1      44.345 -39.982  -2.185  1.00  0.00     0.093 A 
ATOM      8  C   UNL     1      45.004 -40.319  -1.001  1.00  0.00     0.123 A 
ATOM      9  C   UNL     1      46.396 -40.344  -0.968  1.00  0.00     0.094 A 
ATOM     10  C   UNL     1      47.138 -40.065  -2.117  1.00  0.00     0.146 A 
ATOM     11  O   UNL     1      48.463 -40.123  -2.046  1.00  0.00    -0.452 OA
ENDROOT
BRANCH   1  12
ATOM     12  C   UNL     1      50.724 -39.999  -2.867  1.00  0.00     0.025 A 
ATOM     13  C   UNL     1      51.516 -38.850  -3.003  1.00  0.00     0.016 A 
ATOM     14  C   UNL     1      52.894 -38.911  -2.786  1.00  0.00     0.051 A 
ATOM     15  C   UNL     1      53.506 -40.112  -2.412  1.00  0.00     0.157 A 
ATOM     16  C   UNL     1      51.331 -41.203  -2.470  1.00  0.00     0.062 A 
ATOM     17  C   UNL     1      52.712 -41.273  -2.245  1.00  0.00     0.158 A 
BRANCH  15  18
ATOM     18  O   UNL     1      54.887 -40.108  -2.216  1.00  0.00    -0.504 OA
ATOM     19  H   UNL     1      55.516 -40.793  -2.611  1.00  0.00     0.293 HD
ENDBRANCH  15  18
BRANCH  17  20
ATOM     20  O   UNL     1      53.248 -42.501  -1.854  1.00  0.00    -0.504 OA
ATOM     21  H   UNL     1      53.515 -43.232  -2.498  1.00  0.00     0.293 HD
ENDBRANCH  17  20
ENDBRANCH   1  12
BRANCH   2  22
ATOM     22  O   UNL     1      49.542 -39.322  -5.425  1.00  0.00    -0.502 OA
ATOM     23  H   UNL     1      49.256 -39.487  -6.382  1.00  0.00     0.293 HD
ENDBRANCH   2  22
BRANCH   6  24
ATOM     24  O   UNL     1      44.307 -39.248  -4.448  1.00  0.00    -0.507 OA
ATOM     25  H   UNL     1      43.414 -39.632  -4.712  1.00  0.00     0.293 HD
ENDBRANCH   6  24
BRANCH   8  26
ATOM     26  O   UNL     1      44.284 -40.622   0.152  1.00  0.00    -0.508 OA
ATOM     27  H   UNL     1      44.734 -41.023   0.967  1.00  0.00     0.293 HD
ENDBRANCH   8  26
TORSDOF 6
ENDMDL
MODEL 3
REMARK VINA RESULT:    -7.370      1.425      3.213
REMARK INTER + INTRA:          -8.534
REMARK INTER:                  -8.962
REMARK INTRA:                   0.428
REMARK UNBOUND:                 0.344
REMARK SMILES O=c1c(O)c(-c2ccc(O)c(O)c2)oc2cc(O)cc(O)c12
REMARK SMILES IDX 5 1 3 2 2 3 1 4 22 5 20 6 19 7 17 8 16 9 15 10 14 11 6 12
REMARK SMILES IDX 7 13 8 14 9 15 13 16 11 17 10 18 12 20 4 22 21 24 18 26
REMARK H PARENT 10 19 12 21 4 23 21 25 18 27
REMARK Flexibility Score: inf
ROOT
ATOM      1  C   UNL     1      49.805 -39.400  -3.540  1.00  0.00     0.180 A 
ATOM      2  C   UNL     1      48.719 -40.253  -3.282  1.00  0.00     0.208 A 
ATOM      3  C   UNL     1      47.438 -39.876  -3.718  1.00  0.00     0.238 A 
ATOM      4  O   UNL     1      46.460 -40.608  -3.418  1.00  0.00    -0.285 OA
ATOM      5  C   UNL     1      47.269 -38.680  -4.457  1.00  0.00     0.111 A 
ATOM      6  C   UNL     1      46.024 -38.222  -4.986  1.00  0.00     0.134 A 
ATOM      7  C   UNL     1      45.959 -36.969  -5.610  1.00  0.00     0.093 A 
ATOM      8  C   UNL     1      47.103 -36.186  -5.778  1.00  0.00     0.123 A 
ATOM      9  C   UNL     1      48.331 -36.649  -5.313  1.00  0.00     0.094 A 
ATOM     10  C   UNL     1      48.423 -37.877  -4.653  1.00  0.00     0.146 A 
ATOM     11  O   UNL     1      49.611 -38.269  -4.206  1.00  0.00    -0.452 OA
ENDROOT
BRANCH   1  12
ATOM     12  C   UNL     1      51.182 -39.722  -3.100  1.00  0.00     0.025 A 
ATOM     13  C   UNL     1      52.151 -38.709  -3.071  1.00  0.00     0.016 A 
ATOM     14  C   UNL     1      53.449 -38.985  -2.640  1.00  0.00     0.051 A 
ATOM     15  C   UNL     1      53.803 -40.271  -2.215  1.00  0.00     0.157 A 
ATOM     16  C   UNL     1      51.526 -41.009  -2.652  1.00  0.00     0.062 A 
ATOM     17  C   UNL     1      52.826 -41.295  -2.215  1.00  0.00     0.158 A 
BRANCH  15  18
ATOM     18  O   UNL     1      55.120 -40.483  -1.803  1.00  0.00    -0.504 OA
ATOM     19  H   UNL     1      55.904 -39.925  -2.107  1.00  0.00     0.293 HD
ENDBRANCH  15  18
BRANCH  17  20
ATOM     20  O   UNL     1      53.098 -42.595  -1.785  1.00  0.00    -0.504 OA
ATOM     21  H   UNL     1      53.495 -43.313  -2.374  1.00  0.00     0.293 HD
ENDBRANCH  17  20
ENDBRANCH   1  12
BRANCH   2  22
ATOM     22  O   UNL     1      48.919 -41.467  -2.618  1.00  0.00    -0.502 OA
ATOM     23  H   UNL     1      49.616 -42.139  -2.912  1.00  0.00     0.293 HD
ENDBRANCH   2  22
BRANCH   6  24
ATOM     24  O   UNL     1      44.838 -38.963  -4.953  1.00  0.00    -0.507 OA
ATOM     25  H   UNL     1      44.730 -39.896  -5.318  1.00  0.00     0.293 HD
ENDBRANCH   6  24
BRANCH   8  26
ATOM     26  O   UNL     1      47.031 -34.949  -6.414  1.00  0.00    -0.508 OA
ATOM     27  H   UNL     1      46.590 -34.845  -7.321  1.00  0.00     0.293 HD
ENDBRANCH   8  26
TORSDOF 6
ENDMDL
MODEL 4
REMARK VINA RESULT:    -7.199      2.568      3.008
REMARK INTER + INTRA:          -8.328
REMARK INTER:                  -8.145
REMARK INTRA:                  -0.182
REMARK UNBOUND:                 0.344
REMARK SMILES O=c1c(O)c(-c2ccc(O)c(O)c2)oc2cc(O)cc(O)c12
REMARK SMILES IDX 5 1 3 2 2 3 1 4 22 5 20 6 19 7 17 8 16 9 15 10 14 11 6 12
REMARK SMILES IDX 7 13 8 14 9 15 13 16 11 17 10 18 12 20 4 22 21 24 18 26
REMARK H PARENT 10 19 12 21 4 23 21 25 18 27
REMARK Flexibility Score: inf
ROOT
ATOM      1  C   UNL     1      50.915 -38.115  -4.110  1.00  0.00     0.180 A 
ATOM      2  C   UNL     1      51.373 -37.637  -5.349  1.00  0.00     0.208 A 
ATOM      3  C   UNL     1      50.667 -36.601  -5.982  1.00  0.00     0.238 A 
ATOM      4  O   UNL     1      51.039 -36.229  -7.125  1.00  0.00    -0.285 OA
ATOM      5  C   UNL     1      49.546 -36.018  -5.342  1.00  0.00     0.111 A 
ATOM      6  C   UNL     1      48.783 -34.933  -5.870  1.00  0.00     0.134 A 
ATOM      7  C   UNL     1      47.630 -34.508  -5.197  1.00  0.00     0.093 A 
ATOM      8  C   UNL     1      47.248 -35.086  -3.985  1.00  0.00     0.123 A 
ATOM      9  C   UNL     1      48.017 -36.108  -3.435  1.00  0.00     0.094 A 
ATOM     10  C   UNL     1      49.151 -36.581  -4.100  1.00  0.00     0.146 A 
ATOM     11  O   UNL     1      49.842 -37.572  -3.549  1.00  0.00    -0.452 OA
ENDROOT
BRANCH   1  12
ATOM     12  C   UNL     1      51.597 -39.214  -3.389  1.00  0.00     0.025 A 
ATOM     13  C   UNL     1      50.960 -40.457  -3.264  1.00  0.00     0.016 A 
ATOM     14  C   UNL     1      51.593 -41.512  -2.604  1.00  0.00     0.051 A 
ATOM     15  C   UNL     1      52.877 -41.356  -2.073  1.00  0.00     0.157 A 
ATOM     16  C   UNL     1      52.897 -39.059  -2.876  1.00  0.00     0.062 A 
ATOM     17  C   UNL     1      53.541 -40.114  -2.217  1.00  0.00     0.158 A 
BRANCH  15  18
ATOM     18  O   UNL     1      53.452 -42.447  -1.420  1.00  0.00    -0.504 OA
ATOM     19  H   UNL     1      52.924 -43.144  -0.913  1.00  0.00     0.293 HD
ENDBRANCH  15  18
BRANCH  17  20
ATOM     20  O   UNL     1      54.831 -39.889  -1.732  1.00  0.00    -0.504 OA
ATOM     21  H   UNL     1      55.274 -40.453  -1.021  1.00  0.00     0.293 HD
ENDBRANCH  17  20
ENDBRANCH   1  12
BRANCH   2  22
ATOM     22  O   UNL     1      52.526 -38.174  -5.929  1.00  0.00    -0.502 OA
ATOM     23  H   UNL     1      53.418 -37.695  -5.911  1.00  0.00     0.293 HD
ENDBRANCH   2  22
BRANCH   6  24
ATOM     24  O   UNL     1      49.124 -34.224  -7.027  1.00  0.00    -0.507 OA
ATOM     25  H   UNL     1      50.064 -33.990  -7.304  1.00  0.00     0.293 HD
ENDBRANCH   6  24
BRANCH   8  26
ATOM     26  O   UNL     1      46.109 -34.646  -3.314  1.00  0.00    -0.508 OA
ATOM     27  H   UNL     1      45.638 -35.230  -2.633  1.00  0.00     0.293 HD
ENDBRANCH   8  26
TORSDOF 6
ENDMDL
MODEL 5
REMARK VINA RESULT:    -6.988      2.608      6.890
REMARK INTER + INTRA:          -8.074
REMARK INTER:                  -7.825
REMARK INTRA:                  -0.249
REMARK UNBOUND:                 0.344
REMARK SMILES O=c1c(O)c(-c2ccc(O)c(O)c2)oc2cc(O)cc(O)c12
REMARK SMILES IDX 5 1 3 2 2 3 1 4 22 5 20 6 19 7 17 8 16 9 15 10 14 11 6 12
REMARK SMILES IDX 7 13 8 14 9 15 13 16 11 17 10 18 12 20 4 22 21 24 18 26
REMARK H PARENT 10 19 12 21 4 23 21 25 18 27
REMARK Flexibility Score: inf
ROOT
ATOM      1  C   UNL     1      49.496 -37.235  -4.665  1.00  0.00     0.180 A 
ATOM      2  C   UNL     1      48.495 -38.220  -4.687  1.00  0.00     0.208 A 
ATOM      3  C   UNL     1      48.791 -39.502  -4.195  1.00  0.00     0.238 A 
ATOM      4  O   UNL     1      47.913 -40.399  -4.287  1.00  0.00    -0.285 OA
ATOM      5  C   UNL     1      50.064 -39.766  -3.635  1.00  0.00     0.111 A 
ATOM      6  C   UNL     1      50.458 -41.015  -3.066  1.00  0.00     0.134 A 
ATOM      7  C   UNL     1      51.780 -41.192  -2.638  1.00  0.00     0.093 A 
ATOM      8  C   UNL     1      52.704 -40.147  -2.700  1.00  0.00     0.123 A 
ATOM      9  C   UNL     1      52.314 -38.909  -3.202  1.00  0.00     0.094 A 
ATOM     10  C   UNL     1      51.014 -38.711  -3.673  1.00  0.00     0.146 A 
ATOM     11  O   UNL     1      50.692 -37.521  -4.165  1.00  0.00    -0.452 OA
ENDROOT
BRANCH   1  12
ATOM     12  C   UNL     1      49.266 -35.865  -5.180  1.00  0.00     0.025 A 
ATOM     13  C   UNL     1      49.797 -35.497  -6.423  1.00  0.00     0.016 A 
ATOM     14  C   UNL     1      49.576 -34.218  -6.936  1.00  0.00     0.051 A 
ATOM     15  C   UNL     1      48.807 -33.287  -6.228  1.00  0.00     0.157 A 
ATOM     16  C   UNL     1      48.474 -34.942  -4.475  1.00  0.00     0.062 A 
ATOM     17  C   UNL     1      48.243 -33.657  -4.983  1.00  0.00     0.158 A 
BRANCH  15  18
ATOM     18  O   UNL     1      48.629 -32.023  -6.792  1.00  0.00    -0.504 OA
ATOM     19  H   UNL     1      48.886 -31.785  -7.739  1.00  0.00     0.293 HD
ENDBRANCH  15  18
BRANCH  17  20
ATOM     20  O   UNL     1      47.449 -32.791  -4.230  1.00  0.00    -0.504 OA
ATOM     21  H   UNL     1      47.785 -32.259  -3.439  1.00  0.00     0.293 HD
ENDBRANCH  17  20
ENDBRANCH   1  12
BRANCH   2  22
ATOM     22  O   UNL     1      47.220 -37.918  -5.175  1.00  0.00    -0.502 OA
ATOM     23  H   UNL     1      46.514 -37.467  -4.607  1.00  0.00     0.293 HD
ENDBRANCH   2  22
BRANCH   6  24
ATOM     24  O   UNL     1      49.592 -42.097  -2.875  1.00  0.00    -0.507 OA
ATOM     25  H   UNL     1      49.182 -42.646  -3.613  1.00  0.00     0.293 HD
ENDBRANCH   6  24
BRANCH   8  26
ATOM     26  O   UNL     1      54.012 -40.327  -2.256  1.00  0.00    -0.508 OA
ATOM     27  H   UNL     1      54.407 -41.252  -2.133  1.00  0.00     0.293 HD
ENDBRANCH   8  26
TORSDOF 6
ENDMDL
MODEL 6
REMARK VINA RESULT:    -6.951      1.602      7.257
REMARK INTER + INTRA:          -8.029
REMARK INTER:                  -8.398
REMARK INTRA:                   0.368
REMARK UNBOUND:                 0.344
REMARK SMILES O=c1c(O)c(-c2ccc(O)c(O)c2)oc2cc(O)cc(O)c12
REMARK SMILES IDX 5 1 3 2 2 3 1 4 22 5 20 6 19 7 17 8 16 9 15 10 14 11 6 12
REMARK SMILES IDX 7 13 8 14 9 15 13 16 11 17 10 18 12 20 4 22 21 24 18 26
REMARK H PARENT 10 19 12 21 4 23 21 25 18 27
REMARK Flexibility Score: inf
ROOT
ATOM      1  C   UNL     1      49.828 -39.074  -3.938  1.00  0.00     0.180 A 
ATOM      2  C   UNL     1      49.586 -40.446  -3.753  1.00  0.00     0.208 A 
ATOM      3  C   UNL     1      50.613 -41.256  -3.243  1.00  0.00     0.238 A 
ATOM      4  O   UNL     1      50.413 -42.495  -3.150  1.00  0.00    -0.285 OA
ATOM      5  C   UNL     1      51.850 -40.676  -2.870  1.00  0.00     0.111 A 
ATOM      6  C   UNL     1      52.945 -41.394  -2.301  1.00  0.00     0.134 A 
ATOM      7  C   UNL     1      54.158 -40.733  -2.070  1.00  0.00     0.093 A 
ATOM      8  C   UNL     1      54.296 -39.368  -2.329  1.00  0.00     0.123 A 
ATOM      9  C   UNL     1      53.216 -38.648  -2.833  1.00  0.00     0.094 A 
ATOM     10  C   UNL     1      52.005 -39.285  -3.110  1.00  0.00     0.146 A 
ATOM     11  O   UNL     1      51.009 -38.564  -3.610  1.00  0.00    -0.452 OA
ENDROOT
BRANCH   1  12
ATOM     12  C   UNL     1      48.801 -38.159  -4.485  1.00  0.00     0.025 A 
ATOM     13  C   UNL     1      49.200 -36.968  -5.108  1.00  0.00     0.016 A 
ATOM     14  C   UNL     1      48.249 -36.100  -5.648  1.00  0.00     0.051 A 
ATOM     15  C   UNL     1      46.886 -36.409  -5.592  1.00  0.00     0.157 A 
ATOM     16  C   UNL     1      47.434 -38.485  -4.446  1.00  0.00     0.062 A 
ATOM     17  C   UNL     1      46.473 -37.622  -4.989  1.00  0.00     0.158 A 
BRANCH  15  18
ATOM     18  O   UNL     1      45.985 -35.496  -6.144  1.00  0.00    -0.504 OA
ATOM     19  H   UNL     1      44.992 -35.661  -6.224  1.00  0.00     0.293 HD
ENDBRANCH  15  18
BRANCH  17  20
ATOM     20  O   UNL     1      45.133 -38.008  -4.914  1.00  0.00    -0.504 OA
ATOM     21  H   UNL     1      44.366 -37.364  -4.781  1.00  0.00     0.293 HD
ENDBRANCH  17  20
ENDBRANCH   1  12
BRANCH   2  22
ATOM     22  O   UNL     1      48.333 -40.987  -4.056  1.00  0.00    -0.502 OA
ATOM     23  H   UNL     1      47.566 -40.985  -3.395  1.00  0.00     0.293 HD
ENDBRANCH   2  22
BRANCH   6  24
ATOM     24  O   UNL     1      52.887 -42.739  -1.921  1.00  0.00    -0.507 OA
ATOM     25  H   UNL     1      52.384 -43.458  -2.416  1.00  0.00     0.293 HD
ENDBRANCH   6  24
BRANCH   8  26
ATOM     26  O   UNL     1      55.502 -38.715  -2.081  1.00  0.00    -0.508 OA
ATOM     27  H   UNL     1      55.978 -38.189  -2.805  1.00  0.00     0.293 HD
ENDBRANCH   8  26
TORSDOF 6
ENDMDL
MODEL 7
REMARK VINA RESULT:    -6.760      3.258      6.204
REMARK INTER + INTRA:          -7.799
REMARK INTER:                  -7.657
REMARK INTRA:                  -0.142
REMARK UNBOUND:                 0.344
REMARK SMILES O=c1c(O)c(-c2ccc(O)c(O)c2)oc2cc(O)cc(O)c12
REMARK SMILES IDX 5 1 3 2 2 3 1 4 22 5 20 6 19 7 17 8 16 9 15 10 14 11 6 12
REMARK SMILES IDX 7 13 8 14 9 15 13 16 11 17 10 18 12 20 4 22 21 24 18 26
REMARK H PARENT 10 19 12 21 4 23 21 25 18 27
REMARK Flexibility Score: inf
ROOT
ATOM      1  C   UNL     1      48.010 -38.186  -3.926  1.00  0.00     0.180 A 
ATOM      2  C   UNL     1      49.205 -38.801  -4.334  1.00  0.00     0.208 A 
ATOM      3  C   UNL     1      50.078 -38.098  -5.180  1.00  0.00     0.238 A 
ATOM      4  O   UNL     1      51.110 -38.682  -5.601  1.00  0.00    -0.285 OA
ATOM      5  C   UNL     1      49.773 -36.768  -5.561  1.00  0.00     0.111 A 
ATOM      6  C   UNL     1      50.607 -35.946  -6.378  1.00  0.00     0.134 A 
ATOM      7  C   UNL     1      50.152 -34.683  -6.777  1.00  0.00     0.093 A 
ATOM      8  C   UNL     1      48.922 -34.187  -6.338  1.00  0.00     0.123 A 
ATOM      9  C   UNL     1      48.127 -34.960  -5.496  1.00  0.00     0.094 A 
ATOM     10  C   UNL     1      48.535 -36.239  -5.111  1.00  0.00     0.146 A 
ATOM     11  O   UNL     1      47.734 -36.950  -4.325  1.00  0.00    -0.452 OA
ENDROOT
BRANCH   1  12
ATOM     12  C   UNL     1      47.032 -38.868  -3.047  1.00  0.00     0.025 A 
ATOM     13  C   UNL     1      45.761 -39.186  -3.545  1.00  0.00     0.016 A 
ATOM     14  C   UNL     1      44.831 -39.846  -2.740  1.00  0.00     0.051 A 
ATOM     15  C   UNL     1      45.155 -40.217  -1.431  1.00  0.00     0.157 A 
ATOM     16  C   UNL     1      47.370 -39.258  -1.739  1.00  0.00     0.062 A 
ATOM     17  C   UNL     1      46.445 -39.924  -0.926  1.00  0.00     0.158 A 
BRANCH  15  18
ATOM     18  O   UNL     1      44.178 -40.868  -0.676  1.00  0.00    -0.504 OA
ATOM     19  H   UNL     1      44.314 -41.180   0.275  1.00  0.00     0.293 HD
ENDBRANCH  15  18
BRANCH  17  20
ATOM     20  O   UNL     1      46.847 -40.281   0.363  1.00  0.00    -0.504 OA
ATOM     21  H   UNL     1      46.508 -41.095   0.856  1.00  0.00     0.293 HD
ENDBRANCH  17  20
ENDBRANCH   1  12
BRANCH   2  22
ATOM     22  O   UNL     1      49.525 -40.086  -3.886  1.00  0.00    -0.502 OA
ATOM     23  H   UNL     1      49.594 -40.317  -2.903  1.00  0.00     0.293 HD
ENDBRANCH   2  22
BRANCH   6  24
ATOM     24  O   UNL     1      51.891 -36.306  -6.800  1.00  0.00    -0.507 OA
ATOM     25  H   UNL     1      52.138 -37.196  -7.202  1.00  0.00     0.293 HD
ENDBRANCH   6  24
BRANCH   8  26
ATOM     26  O   UNL     1      48.485 -32.923  -6.725  1.00  0.00    -0.508 OA
ATOM     27  H   UNL     1      48.352 -32.685  -7.702  1.00  0.00     0.293 HD
ENDBRANCH   8  26
TORSDOF 6
ENDMDL
MODEL 8
REMARK VINA RESULT:    -6.687     12.877     14.185
REMARK INTER + INTRA:          -7.712
REMARK INTER:                  -7.419
REMARK INTRA:                  -0.293
REMARK UNBOUND:                 0.344
REMARK SMILES O=c1c(O)c(-c2ccc(O)c(O)c2)oc2cc(O)cc(O)c12
REMARK SMILES IDX 5 1 3 2 2 3 1 4 22 5 20 6 19 7 17 8 16 9 15 10 14 11 6 12
REMARK SMILES IDX 7 13 8 14 9 15 13 16 11 17 10 18 12 20 4 22 21 24 18 26
REMARK H PARENT 10 19 12 21 4 23 21 25 18 27
REMARK Flexibility Score: inf
ROOT
ATOM      1  C   UNL     1      48.162 -37.461   8.863  1.00  0.00     0.180 A 
ATOM      2  C   UNL     1      49.279 -36.938   9.535  1.00  0.00     0.208 A 
ATOM      3  C   UNL     1      49.705 -37.549  10.725  1.00  0.00     0.238 A 
ATOM      4  O   UNL     1      50.660 -37.030  11.360  1.00  0.00    -0.285 OA
ATOM      5  C   UNL     1      49.045 -38.708  11.199  1.00  0.00     0.111 A 
ATOM      6  C   UNL     1      49.419 -39.436  12.369  1.00  0.00     0.134 A 
ATOM      7  C   UNL     1      48.626 -40.507  12.799  1.00  0.00     0.093 A 
ATOM      8  C   UNL     1      47.510 -40.917  12.067  1.00  0.00     0.123 A 
ATOM      9  C   UNL     1      47.169 -40.248  10.895  1.00  0.00     0.094 A 
ATOM     10  C   UNL     1      47.916 -39.152  10.460  1.00  0.00     0.146 A 
ATOM     11  O   UNL     1      47.542 -38.530   9.348  1.00  0.00    -0.452 OA
ENDROOT
BRANCH   1  12
ATOM     12  C   UNL     1      47.643 -36.863   7.611  1.00  0.00     0.025 A 
ATOM     13  C   UNL     1      46.551 -35.987   7.666  1.00  0.00     0.016 A 
ATOM     14  C   UNL     1      46.059 -35.397   6.500  1.00  0.00     0.051 A 
ATOM     15  C   UNL     1      46.655 -35.656   5.261  1.00  0.00     0.157 A 
ATOM     16  C   UNL     1      48.260 -37.110   6.372  1.00  0.00     0.062 A 
ATOM     17  C   UNL     1      47.775 -36.519   5.198  1.00  0.00     0.158 A 
BRANCH  15  18
ATOM     18  O   UNL     1      46.111 -35.041   4.133  1.00  0.00    -0.504 OA
ATOM     19  H   UNL     1      45.248 -35.328   3.693  1.00  0.00     0.293 HD
ENDBRANCH  15  18
BRANCH  17  20
ATOM     20  O   UNL     1      48.435 -36.809   4.002  1.00  0.00    -0.504 OA
ATOM     21  H   UNL     1      48.049 -36.629   3.085  1.00  0.00     0.293 HD
ENDBRANCH  17  20
ENDBRANCH   1  12
BRANCH   2  22
ATOM     22  O   UNL     1      49.964 -35.838   9.011  1.00  0.00    -0.502 OA
ATOM     23  H   UNL     1      49.543 -34.920   8.938  1.00  0.00     0.293 HD
ENDBRANCH   2  22
BRANCH   6  24
ATOM     24  O   UNL     1      50.565 -39.168  13.125  1.00  0.00    -0.507 OA
ATOM     25  H   UNL     1      51.163 -38.366  13.002  1.00  0.00     0.293 HD
ENDBRANCH   6  24
BRANCH   8  26
ATOM     26  O   UNL     1      46.736 -41.995  12.493  1.00  0.00    -0.508 OA
ATOM     27  H   UNL     1      46.229 -42.575  11.834  1.00  0.00     0.293 HD
ENDBRANCH   8  26
TORSDOF 6
ENDMDL
MODEL 9
REMARK VINA RESULT:    -6.673      2.712      6.513
REMARK INTER + INTRA:          -7.695
REMARK INTER:                  -7.370
REMARK INTRA:                  -0.325
REMARK UNBOUND:                 0.344
REMARK SMILES O=c1c(O)c(-c2ccc(O)c(O)c2)oc2cc(O)cc(O)c12
REMARK SMILES IDX 5 1 3 2 2 3 1 4 22 5 20 6 19 7 17 8 16 9 15 10 14 11 6 12
REMARK SMILES IDX 7 13 8 14 9 15 13 16 11 17 10 18 12 20 4 22 21 24 18 26
REMARK H PARENT 10 19 12 21 4 23 21 25 18 27
REMARK Flexibility Score: inf
ROOT
ATOM      1  C   UNL     1      48.283 -38.710  -2.970  1.00  0.00     0.180 A 
ATOM      2  C   UNL     1      49.321 -39.644  -3.135  1.00  0.00     0.208 A 
ATOM      3  C   UNL     1      50.344 -39.368  -4.055  1.00  0.00     0.238 A 
ATOM      4  O   UNL     1      51.229 -40.242  -4.251  1.00  0.00    -0.285 OA
ATOM      5  C   UNL     1      50.350 -38.139  -4.758  1.00  0.00     0.111 A 
ATOM      6  C   UNL     1      51.361 -37.736  -5.682  1.00  0.00     0.134 A 
ATOM      7  C   UNL     1      51.206 -36.542  -6.397  1.00  0.00     0.093 A 
ATOM      8  C   UNL     1      50.108 -35.707  -6.178  1.00  0.00     0.123 A 
ATOM      9  C   UNL     1      49.144 -36.066  -5.239  1.00  0.00     0.094 A 
ATOM     10  C   UNL     1      49.250 -37.268  -4.537  1.00  0.00     0.146 A 
ATOM     11  O   UNL     1      48.297 -37.581  -3.667  1.00  0.00    -0.452 OA
ENDROOT
BRANCH   1  12
ATOM     12  C   UNL     1      47.161 -38.936  -2.031  1.00  0.00     0.025 A 
ATOM     13  C   UNL     1      47.195 -38.343  -0.761  1.00  0.00     0.016 A 
ATOM     14  C   UNL     1      46.139 -38.526   0.134  1.00  0.00     0.051 A 
ATOM     15  C   UNL     1      45.023 -39.289  -0.226  1.00  0.00     0.157 A 
ATOM     16  C   UNL     1      46.032 -39.684  -2.404  1.00  0.00     0.062 A 
ATOM     17  C   UNL     1      44.965 -39.870  -1.515  1.00  0.00     0.158 A 
BRANCH  15  18
ATOM     18  O   UNL     1      44.004 -39.439   0.716  1.00  0.00    -0.504 OA
ATOM     19  H   UNL     1      43.703 -40.330   1.085  1.00  0.00     0.293 HD
ENDBRANCH  15  18
BRANCH  17  20
ATOM     20  O   UNL     1      43.876 -40.626  -1.952  1.00  0.00    -0.504 OA
ATOM     21  H   UNL     1      42.928 -40.492  -1.628  1.00  0.00     0.293 HD
ENDBRANCH  17  20
ENDBRANCH   1  12
BRANCH   2  22
ATOM     22  O   UNL     1      49.338 -40.818  -2.376  1.00  0.00    -0.502 OA
ATOM     23  H   UNL     1      50.134 -41.443  -2.360  1.00  0.00     0.293 HD
ENDBRANCH   2  22
BRANCH   6  24
ATOM     24  O   UNL     1      52.542 -38.450  -5.912  1.00  0.00    -0.507 OA
ATOM     25  H   UNL     1      52.833 -39.266  -5.397  1.00  0.00     0.293 HD
ENDBRANCH   6  24
BRANCH   8  26
ATOM     26  O   UNL     1      49.970 -34.513  -6.882  1.00  0.00    -0.508 OA
ATOM     27  H   UNL     1      50.230 -34.442  -7.860  1.00  0.00     0.293 HD
ENDBRANCH   8  26
TORSDOF 6
ENDMDL
