MODEL 1
REMARK VINA RESULT:    -4.128      0.000      0.000
REMARK INTER + INTRA:          -5.189
REMARK INTER:                  -5.093
REMARK INTRA:                  -0.095
REMARK UNBOUND:                -0.095
REMARK SMILES CCCCCC(=O)[O-]
REMARK SMILES IDX 4 1 5 2 6 3 7 4 8 5 3 6 2 7 1 8
REMARK H PARENT
REMARK Flexibility Score: inf
ROOT
ATOM      1  C   UNL     1     218.484  -6.899  24.745  1.00  0.00     0.006 C 
ENDROOT
BRANCH   1   2
ATOM      2  C   UNL     1     217.521  -7.313  23.620  1.00  0.00     0.053 C 
BRANCH   2   3
ATOM      3  C   UNL     1     218.115  -8.358  22.727  1.00  0.00     0.041 C 
ATOM      4  O   UNL     1     219.227  -8.161  22.173  1.00  0.00    -0.550 OA
ATOM      5  O   UNL     1     217.423  -9.538  22.481  1.00  0.00    -0.550 OA
ENDBRANCH   2   3
ENDBRANCH   1   2
BRANCH   1   6
ATOM      6  C   UNL     1     218.033  -7.325  26.153  1.00  0.00     0.000 C 
BRANCH   6   7
ATOM      7  C   UNL     1     217.857  -8.844  26.288  1.00  0.00    -0.003 C 
ATOM      8  C   UNL     1     217.066  -9.197  27.545  1.00  0.00     0.004 C 
ENDBRANCH   6   7
ENDBRANCH   1   6
TORSDOF 4
ENDMDL
MODEL 2
REMARK VINA RESULT:    -4.093      2.026      2.663
REMARK INTER + INTRA:          -5.146
REMARK INTER:                  -5.057
REMARK INTRA:                  -0.089
REMARK UNBOUND:                -0.095
REMARK SMILES CCCCCC(=O)[O-]
REMARK SMILES IDX 4 1 5 2 6 3 7 4 8 5 3 6 2 7 1 8
REMARK H PARENT
REMARK Flexibility Score: inf
ROOT
ATOM      1  C   UNL     1     217.604  -7.947  26.871  1.00  0.00     0.006 C 
ENDROOT
BRANCH   1   2
ATOM      2  C   UNL     1     217.989  -8.358  25.440  1.00  0.00     0.053 C 
BRANCH   2   3
ATOM      3  C   UNL     1     218.076  -7.180  24.520  1.00  0.00     0.041 C 
ATOM      4  O   UNL     1     218.944  -6.289  24.711  1.00  0.00    -0.550 OA
ATOM      5  O   UNL     1     217.173  -7.047  23.472  1.00  0.00    -0.550 OA
ENDBRANCH   2   3
ENDBRANCH   1   2
BRANCH   1   6
ATOM      6  C   UNL     1     217.513  -9.119  27.864  1.00  0.00     0.000 C 
BRANCH   6   7
ATOM      7  C   UNL     1     218.208  -8.821  29.201  1.00  0.00    -0.003 C 
ATOM      8  C   UNL     1     218.557  -7.341  29.322  1.00  0.00     0.004 C 
ENDBRANCH   6   7
ENDBRANCH   1   6
TORSDOF 4
ENDMDL
MODEL 3
REMARK VINA RESULT:    -4.052      2.032      2.902
REMARK INTER + INTRA:          -5.094
REMARK INTER:                  -4.850
REMARK INTRA:                  -0.244
REMARK UNBOUND:                -0.095
REMARK SMILES CCCCCC(=O)[O-]
REMARK SMILES IDX 4 1 5 2 6 3 7 4 8 5 3 6 2 7 1 8
REMARK H PARENT
REMARK Flexibility Score: inf
ROOT
ATOM      1  C   UNL     1     220.554  -7.284  24.552  1.00  0.00     0.006 C 
ENDROOT
BRANCH   1   2
ATOM      2  C   UNL     1     220.970  -7.449  23.081  1.00  0.00     0.053 C 
BRANCH   2   3
ATOM      3  C   UNL     1     220.557  -8.777  22.526  1.00  0.00     0.041 C 
ATOM      4  O   UNL     1     220.281  -9.729  23.301  1.00  0.00    -0.550 OA
ATOM      5  O   UNL     1     220.511  -8.974  21.152  1.00  0.00    -0.550 OA
ENDBRANCH   2   3
ENDBRANCH   1   2
BRANCH   1   6
ATOM      6  C   UNL     1     219.294  -6.425  24.761  1.00  0.00     0.000 C 
BRANCH   6   7
ATOM      7  C   UNL     1     218.017  -7.267  24.899  1.00  0.00    -0.003 C 
ATOM      8  C   UNL     1     217.229  -7.288  23.592  1.00  0.00     0.004 C 
ENDBRANCH   6   7
ENDBRANCH   1   6
TORSDOF 4
ENDMDL
MODEL 4
REMARK VINA RESULT:    -4.051      1.929      2.555
REMARK INTER + INTRA:          -5.094
REMARK INTER:                  -4.948
REMARK INTRA:                  -0.146
REMARK UNBOUND:                -0.095
REMARK SMILES CCCCCC(=O)[O-]
REMARK SMILES IDX 4 1 5 2 6 3 7 4 8 5 3 6 2 7 1 8
REMARK H PARENT
REMARK Flexibility Score: inf
ROOT
ATOM      1  C   UNL     1     217.830  -7.669  26.458  1.00  0.00     0.006 C 
ENDROOT
BRANCH   1   2
ATOM      2  C   UNL     1     217.771  -8.020  24.962  1.00  0.00     0.053 C 
BRANCH   2   3
ATOM      3  C   UNL     1     218.460  -9.316  24.662  1.00  0.00     0.041 C 
ATOM      4  O   UNL     1     217.807 -10.289  24.203  1.00  0.00    -0.550 OA
ATOM      5  O   UNL     1     219.817  -9.460  24.922  1.00  0.00    -0.550 OA
ENDBRANCH   2   3
ENDBRANCH   1   2
BRANCH   1   6
ATOM      6  C   UNL     1     217.426  -8.821  27.395  1.00  0.00     0.000 C 
BRANCH   6   7
ATOM      7  C   UNL     1     217.989  -8.659  28.814  1.00  0.00    -0.003 C 
ATOM      8  C   UNL     1     218.553  -7.257  29.026  1.00  0.00     0.004 C 
ENDBRANCH   6   7
ENDBRANCH   1   6
TORSDOF 4
ENDMDL
MODEL 5
REMARK VINA RESULT:    -4.036      2.397      3.578
REMARK INTER + INTRA:          -5.075
REMARK INTER:                  -4.852
REMARK INTRA:                  -0.223
REMARK UNBOUND:                -0.095
REMARK SMILES CCCCCC(=O)[O-]
REMARK SMILES IDX 4 1 5 2 6 3 7 4 8 5 3 6 2 7 1 8
REMARK H PARENT
REMARK Flexibility Score: inf
ROOT
ATOM      1  C   UNL     1     218.205  -8.225  22.890  1.00  0.00     0.006 C 
ENDROOT
BRANCH   1   2
ATOM      2  C   UNL     1     217.458  -7.227  23.790  1.00  0.00     0.053 C 
BRANCH   2   3
ATOM      3  C   UNL     1     218.009  -7.205  25.183  1.00  0.00     0.041 C 
ATOM      4  O   UNL     1     217.412  -7.812  26.109  1.00  0.00    -0.550 OA
ATOM      5  O   UNL     1     219.164  -6.486  25.463  1.00  0.00    -0.550 OA
ENDBRANCH   2   3
ENDBRANCH   1   2
BRANCH   1   6
ATOM      6  C   UNL     1     217.458  -9.550  22.657  1.00  0.00     0.000 C 
BRANCH   6   7
ATOM      7  C   UNL     1     218.010 -10.702  23.508  1.00  0.00    -0.003 C 
ATOM      8  C   UNL     1     219.473 -10.466  23.872  1.00  0.00     0.004 C 
ENDBRANCH   6   7
ENDBRANCH   1   6
TORSDOF 4
ENDMDL
MODEL 6
REMARK VINA RESULT:    -4.009      2.625      3.980
REMARK INTER + INTRA:          -5.042
REMARK INTER:                  -4.840
REMARK INTRA:                  -0.202
REMARK UNBOUND:                -0.095
REMARK SMILES CCCCCC(=O)[O-]
REMARK SMILES IDX 4 1 5 2 6 3 7 4 8 5 3 6 2 7 1 8
REMARK H PARENT
REMARK Flexibility Score: inf
ROOT
ATOM      1  C   UNL     1     220.528  -6.515  24.128  1.00  0.00     0.006 C 
ENDROOT
BRANCH   1   2
ATOM      2  C   UNL     1     219.455  -6.363  25.219  1.00  0.00     0.053 C 
BRANCH   2   3
ATOM      3  C   UNL     1     218.195  -7.096  24.874  1.00  0.00     0.041 C 
ATOM      4  O   UNL     1     217.759  -7.086  23.693  1.00  0.00    -0.550 OA
ATOM      5  O   UNL     1     217.484  -7.762  25.864  1.00  0.00    -0.550 OA
ENDBRANCH   2   3
ENDBRANCH   1   2
BRANCH   1   6
ATOM      6  C   UNL     1     221.265  -7.866  24.149  1.00  0.00     0.000 C 
BRANCH   6   7
ATOM      7  C   UNL     1     221.698  -8.330  22.751  1.00  0.00    -0.003 C 
ATOM      8  C   UNL     1     220.528  -8.294  21.772  1.00  0.00     0.004 C 
ENDBRANCH   6   7
ENDBRANCH   1   6
TORSDOF 4
ENDMDL
MODEL 7
REMARK VINA RESULT:    -4.004      1.221      1.472
REMARK INTER + INTRA:          -5.036
REMARK INTER:                  -4.797
REMARK INTRA:                  -0.239
REMARK UNBOUND:                -0.095
REMARK SMILES CCCCCC(=O)[O-]
REMARK SMILES IDX 4 1 5 2 6 3 7 4 8 5 3 6 2 7 1 8
REMARK H PARENT
REMARK Flexibility Score: inf
ROOT
ATOM      1  C   UNL     1     217.633  -7.369  24.300  1.00  0.00     0.006 C 
ENDROOT
BRANCH   1   2
ATOM      2  C   UNL     1     218.202  -8.131  23.091  1.00  0.00     0.053 C 
BRANCH   2   3
ATOM      3  C   UNL     1     218.717  -9.485  23.472  1.00  0.00     0.041 C 
ATOM      4  O   UNL     1     219.936  -9.763  23.329  1.00  0.00    -0.550 OA
ATOM      5  O   UNL     1     217.842 -10.452  23.953  1.00  0.00    -0.550 OA
ENDBRANCH   2   3
ENDBRANCH   1   2
BRANCH   1   6
ATOM      6  C   UNL     1     218.681  -6.995  25.362  1.00  0.00     0.000 C 
BRANCH   6   7
ATOM      7  C   UNL     1     218.196  -7.257  26.795  1.00  0.00    -0.003 C 
ATOM      8  C   UNL     1     217.418  -8.567  26.882  1.00  0.00     0.004 C 
ENDBRANCH   6   7
ENDBRANCH   1   6
TORSDOF 4
ENDMDL
MODEL 8
REMARK VINA RESULT:    -3.946      3.243      4.180
REMARK INTER + INTRA:          -4.964
REMARK INTER:                  -4.768
REMARK INTRA:                  -0.197
REMARK UNBOUND:                -0.095
REMARK SMILES CCCCCC(=O)[O-]
REMARK SMILES IDX 4 1 5 2 6 3 7 4 8 5 3 6 2 7 1 8
REMARK H PARENT
REMARK Flexibility Score: inf
ROOT
ATOM      1  C   UNL     1     219.810  -8.363  21.245  1.00  0.00     0.006 C 
ENDROOT
BRANCH   1   2
ATOM      2  C   UNL     1     218.871  -9.578  21.173  1.00  0.00     0.053 C 
BRANCH   2   3
ATOM      3  C   UNL     1     217.994  -9.684  22.382  1.00  0.00     0.041 C 
ATOM      4  O   UNL     1     217.740  -8.663  23.072  1.00  0.00    -0.550 OA
ATOM      5  O   UNL     1     217.485 -10.918  22.767  1.00  0.00    -0.550 OA
ENDBRANCH   2   3
ENDBRANCH   1   2
BRANCH   1   6
ATOM      6  C   UNL     1     221.307  -8.718  21.237  1.00  0.00     0.000 C 
BRANCH   6   7
ATOM      7  C   UNL     1     221.964  -8.562  22.616  1.00  0.00    -0.003 C 
ATOM      8  C   UNL     1     221.199  -7.563  23.479  1.00  0.00     0.004 C 
ENDBRANCH   6   7
ENDBRANCH   1   6
TORSDOF 4
ENDMDL
MODEL 9
REMARK VINA RESULT:    -3.944      1.613      1.958
REMARK INTER + INTRA:          -4.961
REMARK INTER:                  -4.830
REMARK INTRA:                  -0.132
REMARK UNBOUND:                -0.095
REMARK SMILES CCCCCC(=O)[O-]
REMARK SMILES IDX 4 1 5 2 6 3 7 4 8 5 3 6 2 7 1 8
REMARK H PARENT
REMARK Flexibility Score: inf
ROOT
ATOM      1  C   UNL     1     219.045  -6.497  24.642  1.00  0.00     0.006 C 
ENDROOT
BRANCH   1   2
ATOM      2  C   UNL     1     220.514  -6.798  24.304  1.00  0.00     0.053 C 
BRANCH   2   3
ATOM      3  C   UNL     1     220.644  -7.858  23.254  1.00  0.00     0.041 C 
ATOM      4  O   UNL     1     221.651  -7.883  22.500  1.00  0.00    -0.550 OA
ATOM      5  O   UNL     1     219.634  -8.797  23.085  1.00  0.00    -0.550 OA
ENDBRANCH   2   3
ENDBRANCH   1   2
BRANCH   1   6
ATOM      6  C   UNL     1     218.606  -6.974  26.038  1.00  0.00     0.000 C 
BRANCH   6   7
ATOM      7  C   UNL     1     217.493  -8.032  25.982  1.00  0.00    -0.003 C 
ATOM      8  C   UNL     1     217.440  -8.843  27.274  1.00  0.00     0.004 C 
ENDBRANCH   6   7
ENDBRANCH   1   6
TORSDOF 4
ENDMDL
