MODEL 1
REMARK VINA RESULT:    -3.128      0.000      0.000
REMARK INTER + INTRA:          -3.797
REMARK INTER:                  -3.676
REMARK INTRA:                  -0.121
REMARK UNBOUND:                -0.121
REMARK SMILES O=C([O-])CCC(=O)[O-]
REMARK SMILES IDX 4 1 2 2 1 3 3 4 5 5 6 6 7 7 8 8
REMARK H PARENT
REMARK Flexibility Score: inf
ROOT
ATOM      1  C   UNL     1      24.915   9.338  26.949  1.00  0.00     0.059 C 
ENDROOT
BRANCH   1   2
ATOM      2  C   UNL     1      23.549   9.075  27.507  1.00  0.00     0.042 C 
ATOM      3  O   UNL     1      22.719  10.015  27.623  1.00  0.00    -0.550 OA
ATOM      4  O   UNL     1      23.208   7.799  27.937  1.00  0.00    -0.550 OA
ENDBRANCH   1   2
BRANCH   1   5
ATOM      5  C   UNL     1      25.485   8.100  26.248  1.00  0.00     0.059 C 
BRANCH   5   6
ATOM      6  C   UNL     1      26.695   7.575  26.958  1.00  0.00     0.042 C 
ATOM      7  O   UNL     1      27.702   7.198  26.302  1.00  0.00    -0.550 OA
ATOM      8  O   UNL     1      26.694   7.463  28.343  1.00  0.00    -0.550 OA
ENDBRANCH   5   6
ENDBRANCH   1   5
TORSDOF 3
ENDMDL
MODEL 2
REMARK VINA RESULT:    -3.072      0.312      3.917
REMARK INTER + INTRA:          -3.732
REMARK INTER:                  -3.621
REMARK INTRA:                  -0.111
REMARK UNBOUND:                -0.121
REMARK SMILES O=C([O-])CCC(=O)[O-]
REMARK SMILES IDX 4 1 2 2 1 3 3 4 5 5 6 6 7 7 8 8
REMARK H PARENT
REMARK Flexibility Score: inf
ROOT
ATOM      1  C   UNL     1      25.713   8.634  26.291  1.00  0.00     0.059 C 
ENDROOT
BRANCH   1   2
ATOM      2  C   UNL     1      26.684   7.719  26.973  1.00  0.00     0.042 C 
ATOM      3  O   UNL     1      26.617   7.535  28.216  1.00  0.00    -0.550 OA
ATOM      4  O   UNL     1      27.689   7.101  26.239  1.00  0.00    -0.550 OA
ENDBRANCH   1   2
BRANCH   1   5
ATOM      5  C   UNL     1      25.017   9.564  27.292  1.00  0.00     0.059 C 
BRANCH   5   6
ATOM      6  C   UNL     1      23.580   9.190  27.483  1.00  0.00     0.042 C 
ATOM      7  O   UNL     1      22.708  10.083  27.648  1.00  0.00    -0.550 OA
ATOM      8  O   UNL     1      23.209   7.851  27.520  1.00  0.00    -0.550 OA
ENDBRANCH   5   6
ENDBRANCH   1   5
TORSDOF 3
ENDMDL
MODEL 3
REMARK VINA RESULT:    -3.041      1.038      1.958
REMARK INTER + INTRA:          -3.696
REMARK INTER:                  -3.599
REMARK INTRA:                  -0.097
REMARK UNBOUND:                -0.121
REMARK SMILES O=C([O-])CCC(=O)[O-]
REMARK SMILES IDX 4 1 2 2 1 3 3 4 5 5 6 6 7 7 8 8
REMARK H PARENT
REMARK Flexibility Score: inf
ROOT
ATOM      1  C   UNL     1      24.208   7.376  26.421  1.00  0.00     0.059 C 
ENDROOT
BRANCH   1   2
ATOM      2  C   UNL     1      23.566   8.096  27.567  1.00  0.00     0.042 C 
ATOM      3  O   UNL     1      23.397   7.511  28.669  1.00  0.00    -0.550 OA
ATOM      4  O   UNL     1      23.119   9.401  27.405  1.00  0.00    -0.550 OA
ENDBRANCH   1   2
BRANCH   1   5
ATOM      5  C   UNL     1      25.239   6.350  26.905  1.00  0.00     0.059 C 
BRANCH   5   6
ATOM      6  C   UNL     1      26.559   6.993  27.198  1.00  0.00     0.042 C 
ATOM      7  O   UNL     1      26.823   7.402  28.359  1.00  0.00    -0.550 OA
ATOM      8  O   UNL     1      27.485   7.176  26.177  1.00  0.00    -0.550 OA
ENDBRANCH   5   6
ENDBRANCH   1   5
TORSDOF 3
ENDMDL
MODEL 4
REMARK VINA RESULT:    -3.034      1.115      3.820
REMARK INTER + INTRA:          -3.688
REMARK INTER:                  -3.562
REMARK INTRA:                  -0.125
REMARK UNBOUND:                -0.121
REMARK SMILES O=C([O-])CCC(=O)[O-]
REMARK SMILES IDX 4 1 2 2 1 3 3 4 5 5 6 6 7 7 8 8
REMARK H PARENT
REMARK Flexibility Score: inf
ROOT
ATOM      1  C   UNL     1      25.360   6.377  26.899  1.00  0.00     0.059 C 
ENDROOT
BRANCH   1   2
ATOM      2  C   UNL     1      26.649   7.022  27.311  1.00  0.00     0.042 C 
ATOM      3  O   UNL     1      26.824   7.385  28.503  1.00  0.00    -0.550 OA
ATOM      4  O   UNL     1      27.640   7.258  26.366  1.00  0.00    -0.550 OA
ENDBRANCH   1   2
BRANCH   1   5
ATOM      5  C   UNL     1      24.451   7.360  26.152  1.00  0.00     0.059 C 
BRANCH   5   6
ATOM      6  C   UNL     1      23.981   8.464  27.048  1.00  0.00     0.042 C 
ATOM      7  O   UNL     1      23.128   8.233  27.946  1.00  0.00    -0.550 OA
ATOM      8  O   UNL     1      24.454   9.757  26.865  1.00  0.00    -0.550 OA
ENDBRANCH   5   6
ENDBRANCH   1   5
TORSDOF 3
ENDMDL
MODEL 5
REMARK VINA RESULT:    -3.020      1.853      3.833
REMARK INTER + INTRA:          -3.671
REMARK INTER:                  -3.594
REMARK INTRA:                  -0.077
REMARK UNBOUND:                -0.121
REMARK SMILES O=C([O-])CCC(=O)[O-]
REMARK SMILES IDX 4 1 2 2 1 3 3 4 5 5 6 6 7 7 8 8
REMARK H PARENT
REMARK Flexibility Score: inf
ROOT
ATOM      1  C   UNL     1      25.487   7.357  27.046  1.00  0.00     0.059 C 
ENDROOT
BRANCH   1   2
ATOM      2  C   UNL     1      26.590   7.495  26.042  1.00  0.00     0.042 C 
ATOM      3  O   UNL     1      26.324   7.717  24.832  1.00  0.00    -0.550 OA
ATOM      4  O   UNL     1      27.913   7.340  26.438  1.00  0.00    -0.550 OA
ENDBRANCH   1   2
BRANCH   1   5
ATOM      5  C   UNL     1      25.909   7.877  28.424  1.00  0.00     0.059 C 
BRANCH   5   6
ATOM      6  C   UNL     1      25.270   9.195  28.734  1.00  0.00     0.042 C 
ATOM      7  O   UNL     1      25.065   9.536  29.929  1.00  0.00    -0.550 OA
ATOM      8  O   UNL     1      24.865  10.032  27.701  1.00  0.00    -0.550 OA
ENDBRANCH   5   6
ENDBRANCH   1   5
TORSDOF 3
ENDMDL
MODEL 6
REMARK VINA RESULT:    -2.953      1.892      2.252
REMARK INTER + INTRA:          -3.592
REMARK INTER:                  -3.486
REMARK INTRA:                  -0.105
REMARK UNBOUND:                -0.121
REMARK SMILES O=C([O-])CCC(=O)[O-]
REMARK SMILES IDX 4 1 2 2 1 3 3 4 5 5 6 6 7 7 8 8
REMARK H PARENT
REMARK Flexibility Score: inf
ROOT
ATOM      1  C   UNL     1      25.669   7.990  28.520  1.00  0.00     0.059 C 
ENDROOT
BRANCH   1   2
ATOM      2  C   UNL     1      25.052   9.303  28.894  1.00  0.00     0.042 C 
ATOM      3  O   UNL     1      25.028   9.672  30.098  1.00  0.00    -0.550 OA
ATOM      4  O   UNL     1      24.468  10.100  27.918  1.00  0.00    -0.550 OA
ENDBRANCH   1   2
BRANCH   1   5
ATOM      5  C   UNL     1      25.424   7.652  27.045  1.00  0.00     0.059 C 
BRANCH   5   6
ATOM      6  C   UNL     1      26.616   7.980  26.200  1.00  0.00     0.042 C 
ATOM      7  O   UNL     1      27.643   7.252  26.240  1.00  0.00    -0.550 OA
ATOM      8  O   UNL     1      26.609   9.114  25.396  1.00  0.00    -0.550 OA
ENDBRANCH   5   6
ENDBRANCH   1   5
TORSDOF 3
ENDMDL
MODEL 7
REMARK VINA RESULT:    -2.883      1.531      1.823
REMARK INTER + INTRA:          -3.510
REMARK INTER:                  -3.325
REMARK INTRA:                  -0.185
REMARK UNBOUND:                -0.121
REMARK SMILES O=C([O-])CCC(=O)[O-]
REMARK SMILES IDX 4 1 2 2 1 3 3 4 5 5 6 6 7 7 8 8
REMARK H PARENT
REMARK Flexibility Score: inf
ROOT
ATOM      1  C   UNL     1      24.441   9.559  27.135  1.00  0.00     0.059 C 
ENDROOT
BRANCH   1   2
ATOM      2  C   UNL     1      24.584   8.985  28.512  1.00  0.00     0.042 C 
ATOM      3  O   UNL     1      25.355   9.526  29.348  1.00  0.00    -0.550 OA
ATOM      4  O   UNL     1      23.895   7.830  28.858  1.00  0.00    -0.550 OA
ENDBRANCH   1   2
BRANCH   1   5
ATOM      5  C   UNL     1      25.758   9.487  26.355  1.00  0.00     0.059 C 
BRANCH   5   6
ATOM      6  C   UNL     1      26.161   8.070  26.085  1.00  0.00     0.042 C 
ATOM      7  O   UNL     1      25.421   7.320  25.395  1.00  0.00    -0.550 OA
ATOM      8  O   UNL     1      27.337   7.565  26.628  1.00  0.00    -0.550 OA
ENDBRANCH   5   6
ENDBRANCH   1   5
TORSDOF 3
ENDMDL
MODEL 8
REMARK VINA RESULT:    -2.807      2.042      3.142
REMARK INTER + INTRA:          -3.421
REMARK INTER:                  -3.243
REMARK INTRA:                  -0.178
REMARK UNBOUND:                -0.121
REMARK SMILES O=C([O-])CCC(=O)[O-]
REMARK SMILES IDX 4 1 2 2 1 3 3 4 5 5 6 6 7 7 8 8
REMARK H PARENT
REMARK Flexibility Score: inf
ROOT
ATOM      1  C   UNL     1      23.717   7.135  27.593  1.00  0.00     0.059 C 
ENDROOT
BRANCH   1   2
ATOM      2  C   UNL     1      24.743   6.683  26.599  1.00  0.00     0.042 C 
ATOM      3  O   UNL     1      24.478   6.684  25.368  1.00  0.00    -0.550 OA
ATOM      4  O   UNL     1      25.978   6.222  27.037  1.00  0.00    -0.550 OA
ENDBRANCH   1   2
BRANCH   1   5
ATOM      5  C   UNL     1      23.501   8.651  27.529  1.00  0.00     0.059 C 
BRANCH   5   6
ATOM      6  C   UNL     1      24.761   9.401  27.834  1.00  0.00     0.042 C 
ATOM      7  O   UNL     1      25.297  10.125  26.954  1.00  0.00    -0.550 OA
ATOM      8  O   UNL     1      25.365   9.268  29.078  1.00  0.00    -0.550 OA
ENDBRANCH   5   6
ENDBRANCH   1   5
TORSDOF 3
ENDMDL
MODEL 9
REMARK VINA RESULT:    -2.710      2.148      2.527
REMARK INTER + INTRA:          -3.306
REMARK INTER:                  -3.168
REMARK INTRA:                  -0.139
REMARK UNBOUND:                -0.121
REMARK SMILES O=C([O-])CCC(=O)[O-]
REMARK SMILES IDX 4 1 2 2 1 3 3 4 5 5 6 6 7 7 8 8
REMARK H PARENT
REMARK Flexibility Score: inf
ROOT
ATOM      1  C   UNL     1      23.496   8.698  27.406  1.00  0.00     0.059 C 
ENDROOT
BRANCH   1   2
ATOM      2  C   UNL     1      24.700   9.554  27.659  1.00  0.00     0.042 C 
ATOM      3  O   UNL     1      25.285  10.125  26.702  1.00  0.00    -0.550 OA
ATOM      4  O   UNL     1      25.199   9.687  28.948  1.00  0.00    -0.550 OA
ENDBRANCH   1   2
BRANCH   1   5
ATOM      5  C   UNL     1      23.754   7.236  27.786  1.00  0.00     0.059 C 
BRANCH   5   6
ATOM      6  C   UNL     1      24.545   6.524  26.731  1.00  0.00     0.042 C 
ATOM      7  O   UNL     1      24.108   6.450  25.553  1.00  0.00    -0.550 OA
ATOM      8  O   UNL     1      25.747   5.908  27.060  1.00  0.00    -0.550 OA
ENDBRANCH   5   6
ENDBRANCH   1   5
TORSDOF 3
ENDMDL
