MODEL 1
REMARK VINA RESULT:    -4.707      0.000      0.000
REMARK INTER + INTRA:          -5.492
REMARK INTER:                  -5.395
REMARK INTRA:                  -0.097
REMARK UNBOUND:                -0.097
REMARK SMILES COc1cc(C(C)=O)ccc1O
REMARK SMILES IDX 5 1 4 2 3 3 11 4 10 5 9 6 6 7 7 8 8 9 2 10 1 11 12 12
REMARK H PARENT 12 13
REMARK Flexibility Score: inf
ROOT
ATOM      1  C   UNL     1     178.952 181.230 176.940  1.00  0.00     0.021 A 
ATOM      2  C   UNL     1     180.019 180.373 176.603  1.00  0.00     0.062 A 
ATOM      3  C   UNL     1     180.902 179.893 177.592  1.00  0.00     0.161 A 
ATOM      4  C   UNL     1     180.710 180.279 178.930  1.00  0.00     0.157 A 
ATOM      5  C   UNL     1     179.655 181.127 179.267  1.00  0.00     0.051 A 
ATOM      6  C   UNL     1     178.783 181.599 178.285  1.00  0.00     0.016 A 
ENDROOT
BRANCH   1   7
ATOM      7  C   UNL     1     178.013 181.742 175.905  1.00  0.00     0.159 C 
ATOM      8  C   UNL     1     178.481 182.159 174.543  1.00  0.00     0.093 C 
ATOM      9  O   UNL     1     176.782 181.834 176.167  1.00  0.00    -0.295 OA
ENDBRANCH   1   7
BRANCH   3  10
ATOM     10  O   UNL     1     181.973 179.039 177.282  1.00  0.00    -0.493 OA
ATOM     11  C   UNL     1     182.870 179.226 176.192  1.00  0.00     0.278 C 
ENDBRANCH   3  10
BRANCH   4  12
ATOM     12  O   UNL     1     181.561 179.828 179.940  1.00  0.00    -0.504 OA
ATOM     13  H   UNL     1     182.420 180.309 180.176  1.00  0.00     0.293 HD
ENDBRANCH   4  12
TORSDOF 3
ENDMDL
MODEL 2
REMARK VINA RESULT:    -4.695      1.861      4.618
REMARK INTER + INTRA:          -5.479
REMARK INTER:                  -5.351
REMARK INTRA:                  -0.128
REMARK UNBOUND:                -0.097
REMARK SMILES COc1cc(C(C)=O)ccc1O
REMARK SMILES IDX 5 1 4 2 3 3 11 4 10 5 9 6 6 7 7 8 8 9 2 10 1 11 12 12
REMARK H PARENT 12 13
REMARK Flexibility Score: inf
ROOT
ATOM      1  C   UNL     1     179.951 180.020 177.212  1.00  0.00     0.021 A 
ATOM      2  C   UNL     1     179.505 179.328 176.068  1.00  0.00     0.062 A 
ATOM      3  C   UNL     1     178.412 179.804 175.314  1.00  0.00     0.161 A 
ATOM      4  C   UNL     1     177.764 180.985 175.715  1.00  0.00     0.157 A 
ATOM      5  C   UNL     1     178.202 181.673 176.847  1.00  0.00     0.051 A 
ATOM      6  C   UNL     1     179.284 181.198 177.590  1.00  0.00     0.016 A 
ENDROOT
BRANCH   1   7
ATOM      7  C   UNL     1     181.103 179.528 178.016  1.00  0.00     0.159 C 
ATOM      8  C   UNL     1     181.078 179.513 179.515  1.00  0.00     0.093 C 
ATOM      9  O   UNL     1     182.139 179.107 177.432  1.00  0.00    -0.295 OA
ENDBRANCH   1   7
BRANCH   3  10
ATOM     10  O   UNL     1     177.949 179.132 174.171  1.00  0.00    -0.493 OA
ATOM     11  C   UNL     1     177.020 178.053 174.186  1.00  0.00     0.278 C 
ENDBRANCH   3  10
BRANCH   4  12
ATOM     12  O   UNL     1     176.678 181.490 174.998  1.00  0.00    -0.504 OA
ATOM     13  H   UNL     1     176.011 182.130 175.410  1.00  0.00     0.293 HD
ENDBRANCH   4  12
TORSDOF 3
ENDMDL
MODEL 3
REMARK VINA RESULT:    -4.685      2.187      3.703
REMARK INTER + INTRA:          -5.467
REMARK INTER:                  -5.340
REMARK INTRA:                  -0.127
REMARK UNBOUND:                -0.097
REMARK SMILES COc1cc(C(C)=O)ccc1O
REMARK SMILES IDX 5 1 4 2 3 3 11 4 10 5 9 6 6 7 7 8 8 9 2 10 1 11 12 12
REMARK H PARENT 12 13
REMARK Flexibility Score: inf
ROOT
ATOM      1  C   UNL     1     180.775 180.649 177.219  1.00  0.00     0.021 A 
ATOM      2  C   UNL     1     181.215 181.350 176.078  1.00  0.00     0.062 A 
ATOM      3  C   UNL     1     182.313 180.889 175.324  1.00  0.00     0.161 A 
ATOM      4  C   UNL     1     182.974 179.713 175.720  1.00  0.00     0.157 A 
ATOM      5  C   UNL     1     182.541 179.016 176.849  1.00  0.00     0.051 A 
ATOM      6  C   UNL     1     181.453 179.476 177.592  1.00  0.00     0.016 A 
ENDROOT
BRANCH   1   7
ATOM      7  C   UNL     1     179.617 181.125 178.023  1.00  0.00     0.159 C 
ATOM      8  C   UNL     1     179.652 181.163 179.522  1.00  0.00     0.093 C 
ATOM      9  O   UNL     1     178.568 181.514 177.440  1.00  0.00    -0.295 OA
ENDBRANCH   1   7
BRANCH   3  10
ATOM     10  O   UNL     1     182.771 181.570 174.184  1.00  0.00    -0.493 OA
ATOM     11  C   UNL     1     183.693 182.655 174.204  1.00  0.00     0.278 C 
ENDBRANCH   3  10
BRANCH   4  12
ATOM     12  O   UNL     1     184.065 179.222 175.003  1.00  0.00    -0.504 OA
ATOM     13  H   UNL     1     184.283 178.234 174.962  1.00  0.00     0.293 HD
ENDBRANCH   4  12
TORSDOF 3
ENDMDL
MODEL 4
REMARK VINA RESULT:    -4.672      1.501      4.121
REMARK INTER + INTRA:          -5.452
REMARK INTER:                  -5.357
REMARK INTRA:                  -0.095
REMARK UNBOUND:                -0.097
REMARK SMILES COc1cc(C(C)=O)ccc1O
REMARK SMILES IDX 5 1 4 2 3 3 11 4 10 5 9 6 6 7 7 8 8 9 2 10 1 11 12 12
REMARK H PARENT 12 13
REMARK Flexibility Score: inf
ROOT
ATOM      1  C   UNL     1     181.709 179.486 176.908  1.00  0.00     0.021 A 
ATOM      2  C   UNL     1     180.623 180.320 176.574  1.00  0.00     0.062 A 
ATOM      3  C   UNL     1     179.746 180.801 177.569  1.00  0.00     0.161 A 
ATOM      4  C   UNL     1     179.964 180.439 178.909  1.00  0.00     0.157 A 
ATOM      5  C   UNL     1     181.039 179.613 179.244  1.00  0.00     0.051 A 
ATOM      6  C   UNL     1     181.904 179.140 178.255  1.00  0.00     0.016 A 
ENDROOT
BRANCH   1   7
ATOM      7  C   UNL     1     182.641 178.973 175.867  1.00  0.00     0.159 C 
ATOM      8  C   UNL     1     182.168 178.592 174.495  1.00  0.00     0.093 C 
ATOM      9  O   UNL     1     183.868 178.851 176.131  1.00  0.00    -0.295 OA
ENDBRANCH   1   7
BRANCH   3  10
ATOM     10  O   UNL     1     178.657 181.632 177.262  1.00  0.00    -0.493 OA
ATOM     11  C   UNL     1     177.798 181.462 176.139  1.00  0.00     0.278 C 
ENDBRANCH   3  10
BRANCH   4  12
ATOM     12  O   UNL     1     179.121 180.891 179.925  1.00  0.00    -0.504 OA
ATOM     13  H   UNL     1     179.458 181.083 180.861  1.00  0.00     0.293 HD
ENDBRANCH   4  12
TORSDOF 3
ENDMDL
MODEL 5
REMARK VINA RESULT:    -4.636      1.527      5.070
REMARK INTER + INTRA:          -5.411
REMARK INTER:                  -5.326
REMARK INTRA:                  -0.084
REMARK UNBOUND:                -0.097
REMARK SMILES COc1cc(C(C)=O)ccc1O
REMARK SMILES IDX 5 1 4 2 3 3 11 4 10 5 9 6 6 7 7 8 8 9 2 10 1 11 12 12
REMARK H PARENT 12 13
REMARK Flexibility Score: inf
ROOT
ATOM      1  C   UNL     1     179.878 181.334 176.788  1.00  0.00     0.021 A 
ATOM      2  C   UNL     1     178.496 181.078 176.683  1.00  0.00     0.062 A 
ATOM      3  C   UNL     1     177.739 181.614 175.621  1.00  0.00     0.161 A 
ATOM      4  C   UNL     1     178.378 182.415 174.658  1.00  0.00     0.157 A 
ATOM      5  C   UNL     1     179.746 182.671 174.759  1.00  0.00     0.051 A 
ATOM      6  C   UNL     1     180.491 182.138 175.812  1.00  0.00     0.016 A 
ENDROOT
BRANCH   1   7
ATOM      7  C   UNL     1     180.688 180.774 177.904  1.00  0.00     0.159 C 
ATOM      8  C   UNL     1     180.542 181.261 179.315  1.00  0.00     0.093 C 
ATOM      9  O   UNL     1     181.525 179.859 177.672  1.00  0.00    -0.295 OA
ENDBRANCH   1   7
BRANCH   3  10
ATOM     10  O   UNL     1     176.361 181.374 175.494  1.00  0.00    -0.493 OA
ATOM     11  C   UNL     1     175.789 180.331 174.712  1.00  0.00     0.278 C 
ENDBRANCH   3  10
BRANCH   4  12
ATOM     12  O   UNL     1     177.666 182.966 173.592  1.00  0.00    -0.504 OA
ATOM     13  H   UNL     1     178.075 183.651 172.967  1.00  0.00     0.293 HD
ENDBRANCH   4  12
TORSDOF 3
ENDMDL
MODEL 6
REMARK VINA RESULT:    -4.629      2.496      4.224
REMARK INTER + INTRA:          -5.403
REMARK INTER:                  -5.314
REMARK INTRA:                  -0.089
REMARK UNBOUND:                -0.097
REMARK SMILES COc1cc(C(C)=O)ccc1O
REMARK SMILES IDX 5 1 4 2 3 3 11 4 10 5 9 6 6 7 7 8 8 9 2 10 1 11 12 12
REMARK H PARENT 12 13
REMARK Flexibility Score: inf
ROOT
ATOM      1  C   UNL     1     180.889 179.385 176.808  1.00  0.00     0.021 A 
ATOM      2  C   UNL     1     182.271 179.633 176.683  1.00  0.00     0.062 A 
ATOM      3  C   UNL     1     183.008 179.093 175.609  1.00  0.00     0.161 A 
ATOM      4  C   UNL     1     182.351 178.297 174.655  1.00  0.00     0.157 A 
ATOM      5  C   UNL     1     180.982 178.049 174.777  1.00  0.00     0.051 A 
ATOM      6  C   UNL     1     180.256 178.587 175.840  1.00  0.00     0.016 A 
ENDROOT
BRANCH   1   7
ATOM      7  C   UNL     1     180.100 179.950 177.937  1.00  0.00     0.159 C 
ATOM      8  C   UNL     1     180.301 179.499 179.353  1.00  0.00     0.093 C 
ATOM      9  O   UNL     1     179.231 180.837 177.710  1.00  0.00    -0.295 OA
ENDBRANCH   1   7
BRANCH   3  10
ATOM     10  O   UNL     1     184.386 179.324 175.462  1.00  0.00    -0.493 OA
ATOM     11  C   UNL     1     184.952 180.379 174.692  1.00  0.00     0.278 C 
ENDBRANCH   3  10
BRANCH   4  12
ATOM     12  O   UNL     1     183.042 177.742 173.578  1.00  0.00    -0.504 OA
ATOM     13  H   UNL     1     182.653 177.713 172.644  1.00  0.00     0.293 HD
ENDBRANCH   4  12
TORSDOF 3
ENDMDL
MODEL 7
REMARK VINA RESULT:    -4.438      2.011      4.360
REMARK INTER + INTRA:          -5.184
REMARK INTER:                  -5.070
REMARK INTRA:                  -0.113
REMARK UNBOUND:                -0.097
REMARK SMILES COc1cc(C(C)=O)ccc1O
REMARK SMILES IDX 5 1 4 2 3 3 11 4 10 5 9 6 6 7 7 8 8 9 2 10 1 11 12 12
REMARK H PARENT 12 13
REMARK Flexibility Score: inf
ROOT
ATOM      1  C   UNL     1     182.405 180.192 175.633  1.00  0.00     0.021 A 
ATOM      2  C   UNL     1     181.917 179.486 176.752  1.00  0.00     0.062 A 
ATOM      3  C   UNL     1     180.842 179.991 177.512  1.00  0.00     0.161 A 
ATOM      4  C   UNL     1     180.254 181.214 177.145  1.00  0.00     0.157 A 
ATOM      5  C   UNL     1     180.735 181.915 176.038  1.00  0.00     0.051 A 
ATOM      6  C   UNL     1     181.799 181.411 175.288  1.00  0.00     0.016 A 
ENDROOT
BRANCH   1   7
ATOM      7  C   UNL     1     183.538 179.669 174.822  1.00  0.00     0.159 C 
ATOM      8  C   UNL     1     184.790 180.465 174.600  1.00  0.00     0.093 C 
ATOM      9  O   UNL     1     183.458 178.524 174.300  1.00  0.00    -0.295 OA
ENDBRANCH   1   7
BRANCH   3  10
ATOM     10  O   UNL     1     180.337 179.308 178.631  1.00  0.00    -0.493 OA
ATOM     11  C   UNL     1     180.805 179.481 179.965  1.00  0.00     0.278 C 
ENDBRANCH   3  10
BRANCH   4  12
ATOM     12  O   UNL     1     179.189 181.749 177.870  1.00  0.00    -0.504 OA
ATOM     13  H   UNL     1     179.176 181.758 178.883  1.00  0.00     0.293 HD
ENDBRANCH   4  12
TORSDOF 3
ENDMDL
MODEL 8
REMARK VINA RESULT:    -4.424      1.590      4.629
REMARK INTER + INTRA:          -5.167
REMARK INTER:                  -5.060
REMARK INTRA:                  -0.107
REMARK UNBOUND:                -0.097
REMARK SMILES COc1cc(C(C)=O)ccc1O
REMARK SMILES IDX 5 1 4 2 3 3 11 4 10 5 9 6 6 7 7 8 8 9 2 10 1 11 12 12
REMARK H PARENT 12 13
REMARK Flexibility Score: inf
ROOT
ATOM      1  C   UNL     1     180.093 180.081 177.860  1.00  0.00     0.021 A 
ATOM      2  C   UNL     1     179.176 180.934 177.214  1.00  0.00     0.062 A 
ATOM      3  C   UNL     1     178.620 180.585 175.965  1.00  0.00     0.161 A 
ATOM      4  C   UNL     1     178.990 179.370 175.364  1.00  0.00     0.157 A 
ATOM      5  C   UNL     1     179.899 178.524 176.001  1.00  0.00     0.051 A 
ATOM      6  C   UNL     1     180.446 178.873 177.237  1.00  0.00     0.016 A 
ENDROOT
BRANCH   1   7
ATOM      7  C   UNL     1     180.687 180.438 179.178  1.00  0.00     0.159 C 
ATOM      8  C   UNL     1     180.641 181.837 179.718  1.00  0.00     0.093 C 
ATOM      9  O   UNL     1     181.248 179.548 179.873  1.00  0.00    -0.295 OA
ENDBRANCH   1   7
BRANCH   3  10
ATOM     10  O   UNL     1     177.704 181.417 175.301  1.00  0.00    -0.493 OA
ATOM     11  C   UNL     1     178.062 182.466 174.407  1.00  0.00     0.278 C 
ENDBRANCH   3  10
BRANCH   4  12
ATOM     12  O   UNL     1     178.465 178.987 174.129  1.00  0.00    -0.504 OA
ATOM     13  H   UNL     1     177.470 178.867 173.980  1.00  0.00     0.293 HD
ENDBRANCH   4  12
TORSDOF 3
ENDMDL
MODEL 9
REMARK VINA RESULT:    -4.405      1.568      2.838
REMARK INTER + INTRA:          -5.146
REMARK INTER:                  -5.018
REMARK INTRA:                  -0.128
REMARK UNBOUND:                -0.097
REMARK SMILES COc1cc(C(C)=O)ccc1O
REMARK SMILES IDX 5 1 4 2 3 3 11 4 10 5 9 6 6 7 7 8 8 9 2 10 1 11 12 12
REMARK H PARENT 12 13
REMARK Flexibility Score: inf
ROOT
ATOM      1  C   UNL     1     178.390 180.531 175.660  1.00  0.00     0.021 A 
ATOM      2  C   UNL     1     178.940 181.231 176.752  1.00  0.00     0.062 A 
ATOM      3  C   UNL     1     180.037 180.707 177.469  1.00  0.00     0.161 A 
ATOM      4  C   UNL     1     180.582 179.470 177.083  1.00  0.00     0.157 A 
ATOM      5  C   UNL     1     180.039 178.774 176.002  1.00  0.00     0.051 A 
ATOM      6  C   UNL     1     178.954 179.297 175.296  1.00  0.00     0.016 A 
ENDROOT
BRANCH   1   7
ATOM      7  C   UNL     1     177.233 181.073 174.896  1.00  0.00     0.159 C 
ATOM      8  C   UNL     1     176.006 180.256 174.624  1.00  0.00     0.093 C 
ATOM      9  O   UNL     1     177.272 182.255 174.457  1.00  0.00    -0.295 OA
ENDBRANCH   1   7
BRANCH   3  10
ATOM     10  O   UNL     1     180.603 181.384 178.561  1.00  0.00    -0.493 OA
ATOM     11  C   UNL     1     180.039 181.430 179.867  1.00  0.00     0.278 C 
ENDBRANCH   3  10
BRANCH   4  12
ATOM     12  O   UNL     1     181.665 178.915 177.765  1.00  0.00    -0.504 OA
ATOM     13  H   UNL     1     181.547 178.335 178.586  1.00  0.00     0.293 HD
ENDBRANCH   4  12
TORSDOF 3
ENDMDL
