MODEL 1
REMARK VINA RESULT:    -5.626      0.000      0.000
REMARK INTER + INTRA:          -5.790
REMARK INTER:                  -5.790
REMARK INTRA:                   0.000
REMARK UNBOUND:                 0.000
REMARK SMILES O=c1ccc2ccc(O)cc2o1
REMARK SMILES IDX 6 1 7 2 8 3 10 4 11 5 5 6 4 7 3 8 2 9 1 10 12 11 9 12
REMARK H PARENT 9 13
REMARK Flexibility Score: inf
ROOT
ATOM      1  C   UNL     1     -21.732  -3.024  22.524  1.00  0.00     0.016 A 
ATOM      2  C   UNL     1     -22.066  -1.806  23.124  1.00  0.00     0.047 A 
ATOM      3  C   UNL     1     -22.013  -0.614  22.386  1.00  0.00     0.119 A 
ATOM      4  C   UNL     1     -21.625  -0.644  21.041  1.00  0.00     0.094 A 
ATOM      5  C   UNL     1     -21.289  -1.857  20.432  1.00  0.00     0.142 A 
ATOM      6  C   UNL     1     -21.342  -3.055  21.177  1.00  0.00     0.018 A 
ATOM      7  C   UNL     1     -21.001  -4.253  20.541  1.00  0.00     0.019 A 
ATOM      8  C   UNL     1     -20.621  -4.230  19.200  1.00  0.00     0.094 A 
ATOM      9  C   UNL     1     -20.590  -3.006  18.524  1.00  0.00     0.336 A 
ATOM     10  O   UNL     1     -20.250  -2.965  17.313  1.00  0.00    -0.246 OA
ATOM     11  O   UNL     1     -20.920  -1.880  19.153  1.00  0.00    -0.423 OA
ENDROOT
BRANCH   3  12
ATOM     12  O   UNL     1     -22.344   0.602  22.978  1.00  0.00    -0.508 OA
ATOM     13  H   UNL     1     -21.783   1.434  22.829  1.00  0.00     0.293 HD
ENDBRANCH   3  12
TORSDOF 1
ENDMDL
MODEL 2
REMARK VINA RESULT:    -5.461      1.201      4.257
REMARK INTER + INTRA:          -5.621
REMARK INTER:                  -5.621
REMARK INTRA:                   0.000
REMARK UNBOUND:                 0.000
REMARK SMILES O=c1ccc2ccc(O)cc2o1
REMARK SMILES IDX 6 1 7 2 8 3 10 4 11 5 5 6 4 7 3 8 2 9 1 10 12 11 9 12
REMARK H PARENT 9 13
REMARK Flexibility Score: inf
ROOT
ATOM      1  C   UNL     1     -21.387  -3.375  21.877  1.00  0.00     0.016 A 
ATOM      2  C   UNL     1     -20.996  -3.947  20.662  1.00  0.00     0.047 A 
ATOM      3  C   UNL     1     -20.953  -3.170  19.496  1.00  0.00     0.119 A 
ATOM      4  C   UNL     1     -21.302  -1.816  19.546  1.00  0.00     0.094 A 
ATOM      5  C   UNL     1     -21.695  -1.235  20.756  1.00  0.00     0.142 A 
ATOM      6  C   UNL     1     -21.738  -2.019  21.930  1.00  0.00     0.018 A 
ATOM      7  C   UNL     1     -22.134  -1.411  23.125  1.00  0.00     0.019 A 
ATOM      8  C   UNL     1     -22.473  -0.058  23.124  1.00  0.00     0.094 A 
ATOM      9  C   UNL     1     -22.408   0.657  21.924  1.00  0.00     0.336 A 
ATOM     10  O   UNL     1     -22.710   1.878  21.902  1.00  0.00    -0.246 OA
ATOM     11  O   UNL     1     -22.027   0.053  20.800  1.00  0.00    -0.423 OA
ENDROOT
BRANCH   3  12
ATOM     12  O   UNL     1     -20.564  -3.734  18.282  1.00  0.00    -0.508 OA
ATOM     13  H   UNL     1     -19.599  -3.985  18.100  1.00  0.00     0.293 HD
ENDBRANCH   3  12
TORSDOF 1
ENDMDL
MODEL 3
REMARK VINA RESULT:    -5.393      0.961      4.219
REMARK INTER + INTRA:          -5.550
REMARK INTER:                  -5.550
REMARK INTRA:                   0.000
REMARK UNBOUND:                 0.000
REMARK SMILES O=c1ccc2ccc(O)cc2o1
REMARK SMILES IDX 6 1 7 2 8 3 10 4 11 5 5 6 4 7 3 8 2 9 1 10 12 11 9 12
REMARK H PARENT 9 13
REMARK Flexibility Score: inf
ROOT
ATOM      1  C   UNL     1     -20.626  -4.368  20.163  1.00  0.00     0.016 A 
ATOM      2  C   UNL     1     -20.387  -4.145  18.803  1.00  0.00     0.047 A 
ATOM      3  C   UNL     1     -20.630  -2.884  18.240  1.00  0.00     0.119 A 
ATOM      4  C   UNL     1     -21.113  -1.842  19.041  1.00  0.00     0.094 A 
ATOM      5  C   UNL     1     -21.355  -2.056  20.402  1.00  0.00     0.142 A 
ATOM      6  C   UNL     1     -21.111  -3.326  20.967  1.00  0.00     0.018 A 
ATOM      7  C   UNL     1     -21.362  -3.510  22.331  1.00  0.00     0.019 A 
ATOM      8  C   UNL     1     -21.843  -2.442  23.087  1.00  0.00     0.094 A 
ATOM      9  C   UNL     1     -22.062  -1.211  22.459  1.00  0.00     0.336 A 
ATOM     10  O   UNL     1     -22.496  -0.235  23.125  1.00  0.00    -0.246 OA
ATOM     11  O   UNL     1     -21.814  -1.063  21.160  1.00  0.00    -0.423 OA
ENDROOT
BRANCH   3  12
ATOM     12  O   UNL     1     -20.394  -2.655  16.886  1.00  0.00    -0.508 OA
ATOM     13  H   UNL     1     -21.156  -2.558  16.224  1.00  0.00     0.293 HD
ENDBRANCH   3  12
TORSDOF 1
ENDMDL
MODEL 4
REMARK VINA RESULT:    -5.187      1.923      2.853
REMARK INTER + INTRA:          -5.339
REMARK INTER:                  -5.339
REMARK INTRA:                   0.000
REMARK UNBOUND:                 0.000
REMARK SMILES O=c1ccc2ccc(O)cc2o1
REMARK SMILES IDX 6 1 7 2 8 3 10 4 11 5 5 6 4 7 3 8 2 9 1 10 12 11 9 12
REMARK H PARENT 9 13
REMARK Flexibility Score: inf
ROOT
ATOM      1  C   UNL     1     -21.741  -1.697  20.043  1.00  0.00     0.016 A 
ATOM      2  C   UNL     1     -21.943  -2.119  21.361  1.00  0.00     0.047 A 
ATOM      3  C   UNL     1     -21.379  -3.321  21.814  1.00  0.00     0.119 A 
ATOM      4  C   UNL     1     -20.608  -4.101  20.943  1.00  0.00     0.094 A 
ATOM      5  C   UNL     1     -20.400  -3.687  19.624  1.00  0.00     0.142 A 
ATOM      6  C   UNL     1     -20.971  -2.477  19.170  1.00  0.00     0.018 A 
ATOM      7  C   UNL     1     -20.745  -2.089  17.846  1.00  0.00     0.019 A 
ATOM      8  C   UNL     1     -19.971  -2.901  17.017  1.00  0.00     0.094 A 
ATOM      9  C   UNL     1     -19.438  -4.086  17.535  1.00  0.00     0.336 A 
ATOM     10  O   UNL     1     -18.737  -4.831  16.803  1.00  0.00    -0.246 OA
ATOM     11  O   UNL     1     -19.667  -4.432  18.800  1.00  0.00    -0.423 OA
ENDROOT
BRANCH   3  12
ATOM     12  O   UNL     1     -21.576  -3.747  23.125  1.00  0.00    -0.508 OA
ATOM     13  H   UNL     1     -21.099  -4.562  23.495  1.00  0.00     0.293 HD
ENDBRANCH   3  12
TORSDOF 1
ENDMDL
MODEL 5
REMARK VINA RESULT:    -5.122     17.542     18.763
REMARK INTER + INTRA:          -5.272
REMARK INTER:                  -5.272
REMARK INTRA:                   0.000
REMARK UNBOUND:                 0.000
REMARK SMILES O=c1ccc2ccc(O)cc2o1
REMARK SMILES IDX 6 1 7 2 8 3 10 4 11 5 5 6 4 7 3 8 2 9 1 10 12 11 9 12
REMARK H PARENT 9 13
REMARK Flexibility Score: inf
ROOT
ATOM      1  C   UNL     1      -7.539  -5.272   6.282  1.00  0.00     0.016 A 
ATOM      2  C   UNL     1      -8.529  -4.539   5.620  1.00  0.00     0.047 A 
ATOM      3  C   UNL     1      -9.835  -4.493   6.129  1.00  0.00     0.119 A 
ATOM      4  C   UNL     1     -10.151  -5.184   7.305  1.00  0.00     0.094 A 
ATOM      5  C   UNL     1      -9.168  -5.921   7.973  1.00  0.00     0.142 A 
ATOM      6  C   UNL     1      -7.853  -5.966   7.459  1.00  0.00     0.018 A 
ATOM      7  C   UNL     1      -6.892  -6.710   8.150  1.00  0.00     0.019 A 
ATOM      8  C   UNL     1      -7.255  -7.382   9.316  1.00  0.00     0.094 A 
ATOM      9  C   UNL     1      -8.577  -7.293   9.767  1.00  0.00     0.336 A 
ATOM     10  O   UNL     1      -8.924  -7.892  10.818  1.00  0.00    -0.246 OA
ATOM     11  O   UNL     1      -9.472  -6.577   9.091  1.00  0.00    -0.423 OA
ENDROOT
BRANCH   3  12
ATOM     12  O   UNL     1     -10.826  -3.764   5.475  1.00  0.00    -0.508 OA
ATOM     13  H   UNL     1     -11.445  -3.139   5.979  1.00  0.00     0.293 HD
ENDBRANCH   3  12
TORSDOF 1
ENDMDL
MODEL 6
REMARK VINA RESULT:    -5.100      1.915      4.948
REMARK INTER + INTRA:          -5.250
REMARK INTER:                  -5.250
REMARK INTRA:                   0.000
REMARK UNBOUND:                 0.000
REMARK SMILES O=c1ccc2ccc(O)cc2o1
REMARK SMILES IDX 6 1 7 2 8 3 10 4 11 5 5 6 4 7 3 8 2 9 1 10 12 11 9 12
REMARK H PARENT 9 13
REMARK Flexibility Score: inf
ROOT
ATOM      1  C   UNL     1     -20.759  -2.106  17.919  1.00  0.00     0.016 A 
ATOM      2  C   UNL     1     -19.994  -2.961  17.120  1.00  0.00     0.047 A 
ATOM      3  C   UNL     1     -19.436  -4.127  17.663  1.00  0.00     0.119 A 
ATOM      4  C   UNL     1     -19.646  -4.438  19.012  1.00  0.00     0.094 A 
ATOM      5  C   UNL     1     -20.410  -3.589  19.819  1.00  0.00     0.142 A 
ATOM      6  C   UNL     1     -20.970  -2.415  19.270  1.00  0.00     0.018 A 
ATOM      7  C   UNL     1     -21.729  -1.586  20.101  1.00  0.00     0.019 A 
ATOM      8  C   UNL     1     -21.910  -1.938  21.438  1.00  0.00     0.094 A 
ATOM      9  C   UNL     1     -21.324  -3.117  21.914  1.00  0.00     0.336 A 
ATOM     10  O   UNL     1     -21.476  -3.452  23.117  1.00  0.00    -0.246 OA
ATOM     11  O   UNL     1     -20.607  -3.889  21.101  1.00  0.00    -0.423 OA
ENDROOT
BRANCH   3  12
ATOM     12  O   UNL     1     -18.672  -4.983  16.873  1.00  0.00    -0.508 OA
ATOM     13  H   UNL     1     -17.953  -5.575  17.274  1.00  0.00     0.293 HD
ENDBRANCH   3  12
TORSDOF 1
ENDMDL
MODEL 7
REMARK VINA RESULT:    -5.094     16.947     19.008
REMARK INTER + INTRA:          -5.243
REMARK INTER:                  -5.243
REMARK INTRA:                   0.000
REMARK UNBOUND:                 0.000
REMARK SMILES O=c1ccc2ccc(O)cc2o1
REMARK SMILES IDX 6 1 7 2 8 3 10 4 11 5 5 6 4 7 3 8 2 9 1 10 12 11 9 12
REMARK H PARENT 9 13
REMARK Flexibility Score: inf
ROOT
ATOM      1  C   UNL     1      -7.224  -3.496   7.735  1.00  0.00     0.016 A 
ATOM      2  C   UNL     1      -6.976  -2.979   6.459  1.00  0.00     0.047 A 
ATOM      3  C   UNL     1      -7.744  -3.398   5.364  1.00  0.00     0.119 A 
ATOM      4  C   UNL     1      -8.765  -4.338   5.547  1.00  0.00     0.094 A 
ATOM      5  C   UNL     1      -9.021  -4.861   6.818  1.00  0.00     0.142 A 
ATOM      6  C   UNL     1      -8.245  -4.438   7.920  1.00  0.00     0.018 A 
ATOM      7  C   UNL     1      -8.524  -4.978   9.179  1.00  0.00     0.019 A 
ATOM      8  C   UNL     1      -9.551  -5.912   9.311  1.00  0.00     0.094 A 
ATOM      9  C   UNL     1     -10.278  -6.285   8.175  1.00  0.00     0.336 A 
ATOM     10  O   UNL     1     -11.209  -7.126   8.273  1.00  0.00    -0.246 OA
ATOM     11  O   UNL     1      -9.992  -5.755   6.988  1.00  0.00    -0.423 OA
ENDROOT
BRANCH   3  12
ATOM     12  O   UNL     1      -7.502  -2.887   4.090  1.00  0.00    -0.508 OA
ATOM     13  H   UNL     1      -7.974  -3.257   3.273  1.00  0.00     0.293 HD
ENDBRANCH   3  12
TORSDOF 1
ENDMDL
MODEL 8
REMARK VINA RESULT:    -5.009     16.785     19.219
REMARK INTER + INTRA:          -5.156
REMARK INTER:                  -5.156
REMARK INTRA:                   0.000
REMARK UNBOUND:                 0.000
REMARK SMILES O=c1ccc2ccc(O)cc2o1
REMARK SMILES IDX 6 1 7 2 8 3 10 4 11 5 5 6 4 7 3 8 2 9 1 10 12 11 9 12
REMARK H PARENT 9 13
REMARK Flexibility Score: inf
ROOT
ATOM      1  C   UNL     1     -13.134   5.061   3.452  1.00  0.00     0.016 A 
ATOM      2  C   UNL     1     -12.010   4.462   2.875  1.00  0.00     0.047 A 
ATOM      3  C   UNL     1     -11.264   3.517   3.595  1.00  0.00     0.119 A 
ATOM      4  C   UNL     1     -11.647   3.170   4.896  1.00  0.00     0.094 A 
ATOM      5  C   UNL     1     -12.770   3.764   5.481  1.00  0.00     0.142 A 
ATOM      6  C   UNL     1     -13.519   4.716   4.755  1.00  0.00     0.018 A 
ATOM      7  C   UNL     1     -14.637   5.292   5.366  1.00  0.00     0.019 A 
ATOM      8  C   UNL     1     -14.977   4.914   6.664  1.00  0.00     0.094 A 
ATOM      9  C   UNL     1     -14.189   3.965   7.323  1.00  0.00     0.336 A 
ATOM     10  O   UNL     1     -14.480   3.610   8.495  1.00  0.00    -0.246 OA
ATOM     11  O   UNL     1     -13.130   3.431   6.718  1.00  0.00    -0.423 OA
ENDROOT
BRANCH   3  12
ATOM     12  O   UNL     1     -10.143   2.917   3.026  1.00  0.00    -0.508 OA
ATOM     13  H   UNL     1      -9.283   2.798   3.549  1.00  0.00     0.293 HD
ENDBRANCH   3  12
TORSDOF 1
ENDMDL
MODEL 9
REMARK VINA RESULT:    -4.924      2.249      4.298
REMARK INTER + INTRA:          -5.068
REMARK INTER:                  -5.068
REMARK INTRA:                   0.000
REMARK UNBOUND:                 0.000
REMARK SMILES O=c1ccc2ccc(O)cc2o1
REMARK SMILES IDX 6 1 7 2 8 3 10 4 11 5 5 6 4 7 3 8 2 9 1 10 12 11 9 12
REMARK H PARENT 9 13
REMARK Flexibility Score: inf
ROOT
ATOM      1  C   UNL     1     -20.492  -2.600  17.246  1.00  0.00     0.016 A 
ATOM      2  C   UNL     1     -21.336  -1.882  16.393  1.00  0.00     0.047 A 
ATOM      3  C   UNL     1     -22.439  -1.187  16.910  1.00  0.00     0.119 A 
ATOM      4  C   UNL     1     -22.697  -1.211  18.286  1.00  0.00     0.094 A 
ATOM      5  C   UNL     1     -21.858  -1.927  19.146  1.00  0.00     0.142 A 
ATOM      6  C   UNL     1     -20.748  -2.626  18.624  1.00  0.00     0.018 A 
ATOM      7  C   UNL     1     -19.927  -3.332  19.509  1.00  0.00     0.019 A 
ATOM      8  C   UNL     1     -20.226  -3.326  20.871  1.00  0.00     0.094 A 
ATOM      9  C   UNL     1     -21.342  -2.611  21.317  1.00  0.00     0.336 A 
ATOM     10  O   UNL     1     -21.627  -2.594  22.543  1.00  0.00    -0.246 OA
ATOM     11  O   UNL     1     -22.106  -1.947  20.454  1.00  0.00    -0.423 OA
ENDROOT
BRANCH   3  12
ATOM     12  O   UNL     1     -23.285  -0.470  16.066  1.00  0.00    -0.508 OA
ATOM     13  H   UNL     1     -24.044  -0.921  15.569  1.00  0.00     0.293 HD
ENDBRANCH   3  12
TORSDOF 1
ENDMDL
