MODEL 1
REMARK VINA RESULT:    -3.899      0.000      0.000
REMARK INTER + INTRA:          -4.708
REMARK INTER:                  -4.696
REMARK INTRA:                  -0.012
REMARK UNBOUND:                -0.012
REMARK SMILES OCC(O)CO
REMARK SMILES IDX 3 1 5 2 6 3 2 5 1 6 4 8
REMARK H PARENT 6 4 1 7 4 9
REMARK Flexibility Score: inf
ROOT
ATOM      1  C   UNL     1      59.937  29.039  11.350  1.00  0.00     0.165 C 
ENDROOT
BRANCH   1   2
ATOM      2  C   UNL     1      61.279  28.667  10.696  1.00  0.00     0.190 C 
BRANCH   2   3
ATOM      3  O   UNL     1      61.100  27.666   9.732  1.00  0.00    -0.394 OA
ATOM      4  H   UNL     1      60.319  27.132  10.032  1.00  0.00     0.210 HD
ENDBRANCH   2   3
ENDBRANCH   1   2
BRANCH   1   5
ATOM      5  C   UNL     1      59.727  28.341  12.704  1.00  0.00     0.190 C 
BRANCH   5   6
ATOM      6  O   UNL     1      58.514  27.640  12.701  1.00  0.00    -0.394 OA
ATOM      7  H   UNL     1      58.588  26.957  13.418  1.00  0.00     0.210 HD
ENDBRANCH   5   6
ENDBRANCH   1   5
BRANCH   1   8
ATOM      8  O   UNL     1      59.821  30.434  11.486  1.00  0.00    -0.388 OA
ATOM      9  H   UNL     1      59.534  30.801  10.610  1.00  0.00     0.211 HD
ENDBRANCH   1   8
TORSDOF 5
ENDMDL
MODEL 2
REMARK VINA RESULT:    -3.868     14.450     15.767
REMARK INTER + INTRA:          -4.672
REMARK INTER:                  -4.666
REMARK INTRA:                  -0.006
REMARK UNBOUND:                -0.012
REMARK SMILES OCC(O)CO
REMARK SMILES IDX 3 1 5 2 6 3 2 5 1 6 4 8
REMARK H PARENT 6 4 1 7 4 9
REMARK Flexibility Score: inf
ROOT
ATOM      1  C   UNL     1      61.144  27.169  27.003  1.00  0.00     0.165 C 
ENDROOT
BRANCH   1   2
ATOM      2  C   UNL     1      61.476  28.586  27.502  1.00  0.00     0.190 C 
BRANCH   2   3
ATOM      3  O   UNL     1      60.653  28.937  28.580  1.00  0.00    -0.394 OA
ATOM      4  H   UNL     1      60.557  28.117  29.131  1.00  0.00     0.210 HD
ENDBRANCH   2   3
ENDBRANCH   1   2
BRANCH   1   5
ATOM      5  C   UNL     1      60.432  27.175  25.640  1.00  0.00     0.190 C 
BRANCH   5   6
ATOM      6  O   UNL     1      59.287  26.369  25.693  1.00  0.00    -0.394 OA
ATOM      7  H   UNL     1      59.241  26.015  26.619  1.00  0.00     0.210 HD
ENDBRANCH   5   6
ENDBRANCH   1   5
BRANCH   1   8
ATOM      8  O   UNL     1      62.305  26.376  26.954  1.00  0.00    -0.388 OA
ATOM      9  H   UNL     1      62.021  25.427  26.889  1.00  0.00     0.211 HD
ENDBRANCH   1   8
TORSDOF 5
ENDMDL
MODEL 3
REMARK VINA RESULT:    -3.793      0.982      2.932
REMARK INTER + INTRA:          -4.582
REMARK INTER:                  -4.577
REMARK INTRA:                  -0.005
REMARK UNBOUND:                -0.012
REMARK SMILES OCC(O)CO
REMARK SMILES IDX 3 1 5 2 6 3 2 5 1 6 4 8
REMARK H PARENT 6 4 1 7 4 9
REMARK Flexibility Score: inf
ROOT
ATOM      1  C   UNL     1      59.876  28.958  11.591  1.00  0.00     0.165 C 
ENDROOT
BRANCH   1   2
ATOM      2  C   UNL     1      59.418  28.152  12.818  1.00  0.00     0.190 C 
BRANCH   2   3
ATOM      3  O   UNL     1      58.207  27.497  12.557  1.00  0.00    -0.394 OA
ATOM      4  H   UNL     1      57.821  27.941  11.758  1.00  0.00     0.210 HD
ENDBRANCH   2   3
ENDBRANCH   1   2
BRANCH   1   5
ATOM      5  C   UNL     1      60.679  30.212  11.974  1.00  0.00     0.190 C 
BRANCH   5   6
ATOM      6  O   UNL     1      59.819  31.309  12.118  1.00  0.00    -0.394 OA
ATOM      7  H   UNL     1      60.402  32.097  12.279  1.00  0.00     0.210 HD
ENDBRANCH   5   6
ENDBRANCH   1   5
BRANCH   1   8
ATOM      8  O   UNL     1      60.613  28.146  10.710  1.00  0.00    -0.388 OA
ATOM      9  H   UNL     1      61.577  28.334  10.858  1.00  0.00     0.211 HD
ENDBRANCH   1   8
TORSDOF 5
ENDMDL
MODEL 4
REMARK VINA RESULT:    -3.750      1.226      2.649
REMARK INTER + INTRA:          -4.529
REMARK INTER:                  -4.309
REMARK INTRA:                  -0.221
REMARK UNBOUND:                -0.012
REMARK SMILES OCC(O)CO
REMARK SMILES IDX 3 1 5 2 6 3 2 5 1 6 4 8
REMARK H PARENT 6 4 1 7 4 9
REMARK Flexibility Score: inf
ROOT
ATOM      1  C   UNL     1      60.316  29.376  12.580  1.00  0.00     0.165 C 
ENDROOT
BRANCH   1   2
ATOM      2  C   UNL     1      59.986  27.940  13.024  1.00  0.00     0.190 C 
BRANCH   2   3
ATOM      3  O   UNL     1      58.601  27.731  13.039  1.00  0.00    -0.394 OA
ATOM      4  H   UNL     1      58.197  28.585  13.345  1.00  0.00     0.210 HD
ENDBRANCH   2   3
ENDBRANCH   1   2
BRANCH   1   5
ATOM      5  C   UNL     1      60.106  29.590  11.073  1.00  0.00     0.190 C 
BRANCH   5   6
ATOM      6  O   UNL     1      59.937  28.357  10.430  1.00  0.00    -0.394 OA
ATOM      7  H   UNL     1      60.611  28.332   9.700  1.00  0.00     0.210 HD
ENDBRANCH   5   6
ENDBRANCH   1   5
BRANCH   1   8
ATOM      8  O   UNL     1      59.570  30.308  13.324  1.00  0.00    -0.388 OA
ATOM      9  H   UNL     1      60.022  30.428  14.200  1.00  0.00     0.211 HD
ENDBRANCH   1   8
TORSDOF 5
ENDMDL
MODEL 5
REMARK VINA RESULT:    -3.701      1.891      3.179
REMARK INTER + INTRA:          -4.471
REMARK INTER:                  -4.468
REMARK INTRA:                  -0.002
REMARK UNBOUND:                -0.012
REMARK SMILES OCC(O)CO
REMARK SMILES IDX 3 1 5 2 6 3 2 5 1 6 4 8
REMARK H PARENT 6 4 1 7 4 9
REMARK Flexibility Score: inf
ROOT
ATOM      1  C   UNL     1      60.788  29.705   9.923  1.00  0.00     0.165 C 
ENDROOT
BRANCH   1   2
ATOM      2  C   UNL     1      60.330  29.733  11.392  1.00  0.00     0.190 C 
BRANCH   2   3
ATOM      3  O   UNL     1      59.877  31.011  11.745  1.00  0.00    -0.394 OA
ATOM      4  H   UNL     1      60.583  31.403  12.322  1.00  0.00     0.210 HD
ENDBRANCH   2   3
ENDBRANCH   1   2
BRANCH   1   5
ATOM      5  C   UNL     1      60.328  28.437   9.185  1.00  0.00     0.190 C 
BRANCH   5   6
ATOM      6  O   UNL     1      61.329  27.459   9.240  1.00  0.00    -0.394 OA
ATOM      7  H   UNL     1      62.121  27.849   8.785  1.00  0.00     0.210 HD
ENDBRANCH   5   6
ENDBRANCH   1   5
BRANCH   1   8
ATOM      8  O   UNL     1      60.353  30.859   9.246  1.00  0.00    -0.388 OA
ATOM      9  H   UNL     1      60.629  30.775   8.296  1.00  0.00     0.211 HD
ENDBRANCH   1   8
TORSDOF 5
ENDMDL
MODEL 6
REMARK VINA RESULT:    -3.700      1.886      2.121
REMARK INTER + INTRA:          -4.470
REMARK INTER:                  -4.467
REMARK INTRA:                  -0.002
REMARK UNBOUND:                -0.012
REMARK SMILES OCC(O)CO
REMARK SMILES IDX 3 1 5 2 6 3 2 5 1 6 4 8
REMARK H PARENT 6 4 1 7 4 9
REMARK Flexibility Score: inf
ROOT
ATOM      1  C   UNL     1      60.344  29.598  10.053  1.00  0.00     0.165 C 
ENDROOT
BRANCH   1   2
ATOM      2  C   UNL     1      61.566  28.768   9.623  1.00  0.00     0.190 C 
BRANCH   2   3
ATOM      3  O   UNL     1      61.189  27.456   9.308  1.00  0.00    -0.394 OA
ATOM      4  H   UNL     1      61.586  27.262   8.419  1.00  0.00     0.210 HD
ENDBRANCH   2   3
ENDBRANCH   1   2
BRANCH   1   5
ATOM      5  C   UNL     1      60.288  29.824  11.572  1.00  0.00     0.190 C 
BRANCH   5   6
ATOM      6  O   UNL     1      59.852  31.127  11.849  1.00  0.00    -0.394 OA
ATOM      7  H   UNL     1      59.541  31.502  10.984  1.00  0.00     0.210 HD
ENDBRANCH   5   6
ENDBRANCH   1   5
BRANCH   1   8
ATOM      8  O   UNL     1      60.311  30.825   9.365  1.00  0.00    -0.388 OA
ATOM      9  H   UNL     1      59.656  30.740   8.625  1.00  0.00     0.211 HD
ENDBRANCH   1   8
TORSDOF 5
ENDMDL
MODEL 7
REMARK VINA RESULT:    -3.699     14.069     15.033
REMARK INTER + INTRA:          -4.468
REMARK INTER:                  -4.256
REMARK INTRA:                  -0.212
REMARK UNBOUND:                -0.012
REMARK SMILES OCC(O)CO
REMARK SMILES IDX 3 1 5 2 6 3 2 5 1 6 4 8
REMARK H PARENT 6 4 1 7 4 9
REMARK Flexibility Score: inf
ROOT
ATOM      1  C   UNL     1      61.452  27.301  25.781  1.00  0.00     0.165 C 
ENDROOT
BRANCH   1   2
ATOM      2  C   UNL     1      60.003  27.358  25.268  1.00  0.00     0.190 C 
BRANCH   2   3
ATOM      3  O   UNL     1      59.249  26.301  25.796  1.00  0.00    -0.394 OA
ATOM      4  H   UNL     1      59.318  25.560  25.140  1.00  0.00     0.210 HD
ENDBRANCH   2   3
ENDBRANCH   1   2
BRANCH   1   5
ATOM      5  C   UNL     1      61.533  27.095  27.303  1.00  0.00     0.190 C 
BRANCH   5   6
ATOM      6  O   UNL     1      60.639  27.956  27.953  1.00  0.00    -0.394 OA
ATOM      7  H   UNL     1      61.103  28.831  28.026  1.00  0.00     0.210 HD
ENDBRANCH   5   6
ENDBRANCH   1   5
BRANCH   1   8
ATOM      8  O   UNL     1      62.179  26.304  25.106  1.00  0.00    -0.388 OA
ATOM      9  H   UNL     1      61.562  25.859  24.467  1.00  0.00     0.211 HD
ENDBRANCH   1   8
TORSDOF 5
ENDMDL
MODEL 8
REMARK VINA RESULT:    -3.656     14.424     15.350
REMARK INTER + INTRA:          -4.416
REMARK INTER:                  -4.398
REMARK INTRA:                  -0.018
REMARK UNBOUND:                -0.012
REMARK SMILES OCC(O)CO
REMARK SMILES IDX 3 1 5 2 6 3 2 5 1 6 4 8
REMARK H PARENT 6 4 1 7 4 9
REMARK Flexibility Score: inf
ROOT
ATOM      1  C   UNL     1      61.133  27.192  26.958  1.00  0.00     0.165 C 
ENDROOT
BRANCH   1   2
ATOM      2  C   UNL     1      60.408  27.156  25.602  1.00  0.00     0.190 C 
BRANCH   2   3
ATOM      3  O   UNL     1      59.262  26.352  25.674  1.00  0.00    -0.394 OA
ATOM      4  H   UNL     1      59.164  26.099  26.629  1.00  0.00     0.210 HD
ENDBRANCH   2   3
ENDBRANCH   1   2
BRANCH   1   5
ATOM      5  C   UNL     1      62.663  27.131  26.812  1.00  0.00     0.190 C 
BRANCH   5   6
ATOM      6  O   UNL     1      63.035  25.962  26.135  1.00  0.00    -0.394 OA
ATOM      7  H   UNL     1      64.025  25.916  26.188  1.00  0.00     0.210 HD
ENDBRANCH   5   6
ENDBRANCH   1   5
BRANCH   1   8
ATOM      8  O   UNL     1      60.750  28.327  27.695  1.00  0.00    -0.388 OA
ATOM      9  H   UNL     1      61.095  28.219  28.620  1.00  0.00     0.211 HD
ENDBRANCH   1   8
TORSDOF 5
ENDMDL
MODEL 9
REMARK VINA RESULT:    -3.615      2.755      4.123
REMARK INTER + INTRA:          -4.367
REMARK INTER:                  -4.365
REMARK INTRA:                  -0.003
REMARK UNBOUND:                -0.012
REMARK SMILES OCC(O)CO
REMARK SMILES IDX 3 1 5 2 6 3 2 5 1 6 4 8
REMARK H PARENT 6 4 1 7 4 9
REMARK Flexibility Score: inf
ROOT
ATOM      1  C   UNL     1      61.689  28.868   9.158  1.00  0.00     0.165 C 
ENDROOT
BRANCH   1   2
ATOM      2  C   UNL     1      60.532  29.734   9.686  1.00  0.00     0.190 C 
BRANCH   2   3
ATOM      3  O   UNL     1      60.346  30.862   8.875  1.00  0.00    -0.394 OA
ATOM      4  H   UNL     1      60.540  30.567   7.947  1.00  0.00     0.210 HD
ENDBRANCH   2   3
ENDBRANCH   1   2
BRANCH   1   5
ATOM      5  C   UNL     1      63.021  29.168   9.864  1.00  0.00     0.190 C 
BRANCH   5   6
ATOM      6  O   UNL     1      64.079  28.567   9.170  1.00  0.00    -0.394 OA
ATOM      7  H   UNL     1      64.426  29.256   8.545  1.00  0.00     0.210 HD
ENDBRANCH   5   6
ENDBRANCH   1   5
BRANCH   1   8
ATOM      8  O   UNL     1      61.370  27.502   9.255  1.00  0.00    -0.388 OA
ATOM      9  H   UNL     1      61.352  27.128   8.336  1.00  0.00     0.211 HD
ENDBRANCH   1   8
TORSDOF 5
ENDMDL
