MODEL 1
REMARK VINA RESULT:     4.009      0.000      0.000
REMARK INTER + INTRA:           4.725
REMARK INTER:                   4.829
REMARK INTRA:                  -0.104
REMARK UNBOUND:                -0.104
REMARK SMILES O=c1c(O)c(-c2ccc(O)c(O)c2)oc2cc(O)cc(O)c12
REMARK SMILES IDX 5 1 3 2 2 3 1 4 22 5 20 6 19 7 17 8 16 9 15 10 14 11 6 12
REMARK SMILES IDX 7 13 8 14 9 15 13 16 11 17 10 18 12 20 4 22 21 24 18 26
REMARK H PARENT 10 19 12 21 4 23 21 25 18 27
REMARK Flexibility Score: inf
ROOT
ATOM      1  C   UNL     1     160.517 146.142 172.240  1.00  0.00     0.180 A 
ATOM      2  C   UNL     1     160.383 145.320 171.104  1.00  0.00     0.208 A 
ATOM      3  C   UNL     1     160.033 145.908 169.878  1.00  0.00     0.238 A 
ATOM      4  O   UNL     1     159.899 145.179 168.857  1.00  0.00    -0.285 OA
ATOM      5  C   UNL     1     159.842 147.303 169.803  1.00  0.00     0.111 A 
ATOM      6  C   UNL     1     159.492 147.973 168.606  1.00  0.00     0.134 A 
ATOM      7  C   UNL     1     159.329 149.367 168.611  1.00  0.00     0.093 A 
ATOM      8  C   UNL     1     159.510 150.100 169.786  1.00  0.00     0.123 A 
ATOM      9  C   UNL     1     159.856 149.444 170.971  1.00  0.00     0.094 A 
ATOM     10  C   UNL     1     160.021 148.056 170.987  1.00  0.00     0.146 A 
ATOM     11  O   UNL     1     160.344 147.456 172.127  1.00  0.00    -0.452 OA
ENDROOT
BRANCH   1  12
ATOM     12  C   UNL     1     160.865 145.595 173.570  1.00  0.00     0.025 A 
ATOM     13  C   UNL     1     160.032 144.629 174.158  1.00  0.00     0.016 A 
ATOM     14  C   UNL     1     160.353 144.082 175.403  1.00  0.00     0.051 A 
ATOM     15  C   UNL     1     161.518 144.481 176.071  1.00  0.00     0.157 A 
ATOM     16  C   UNL     1     162.045 145.976 174.234  1.00  0.00     0.062 A 
ATOM     17  C   UNL     1     162.368 145.426 175.483  1.00  0.00     0.158 A 
BRANCH  15  18
ATOM     18  O   UNL     1     161.840 143.939 177.313  1.00  0.00    -0.504 OA
ATOM     19  H   UNL     1     162.798 143.732 177.569  1.00  0.00     0.293 HD
ENDBRANCH  15  18
BRANCH  17  20
ATOM     20  O   UNL     1     163.534 145.811 176.142  1.00  0.00    -0.504 OA
ATOM     21  H   UNL     1     163.645 146.742 176.523  1.00  0.00     0.293 HD
ENDBRANCH  17  20
ENDBRANCH   1  12
BRANCH   2  22
ATOM     22  O   UNL     1     160.625 143.947 171.194  1.00  0.00    -0.502 OA
ATOM     23  H   UNL     1     161.534 143.543 171.003  1.00  0.00     0.293 HD
ENDBRANCH   2  22
BRANCH   6  24
ATOM     24  O   UNL     1     159.305 147.268 167.416  1.00  0.00    -0.507 OA
ATOM     25  H   UNL     1     159.592 146.301 167.318  1.00  0.00     0.293 HD
ENDBRANCH   6  24
BRANCH   8  26
ATOM     26  O   UNL     1     159.343 151.484 169.763  1.00  0.00    -0.508 OA
ATOM     27  H   UNL     1     158.774 151.960 170.453  1.00  0.00     0.293 HD
ENDBRANCH   8  26
TORSDOF 6
ENDMDL
MODEL 2
REMARK VINA RESULT:     4.649      2.576      2.981
REMARK INTER + INTRA:           5.497
REMARK INTER:                   5.135
REMARK INTRA:                   0.362
REMARK UNBOUND:                -0.104
REMARK SMILES O=c1c(O)c(-c2ccc(O)c(O)c2)oc2cc(O)cc(O)c12
REMARK SMILES IDX 5 1 3 2 2 3 1 4 22 5 20 6 19 7 17 8 16 9 15 10 14 11 6 12
REMARK SMILES IDX 7 13 8 14 9 15 13 16 11 17 10 18 12 20 4 22 21 24 18 26
REMARK H PARENT 10 19 12 21 4 23 21 25 18 27
REMARK Flexibility Score: inf
ROOT
ATOM      1  C   UNL     1     160.921 145.358 172.255  1.00  0.00     0.180 A 
ATOM      2  C   UNL     1     161.744 145.539 171.126  1.00  0.00     0.208 A 
ATOM      3  C   UNL     1     161.161 145.512 169.850  1.00  0.00     0.238 A 
ATOM      4  O   UNL     1     161.891 145.662 168.832  1.00  0.00    -0.285 OA
ATOM      5  C   UNL     1     159.769 145.326 169.722  1.00  0.00     0.111 A 
ATOM      6  C   UNL     1     159.104 145.291 168.474  1.00  0.00     0.134 A 
ATOM      7  C   UNL     1     157.713 145.110 168.431  1.00  0.00     0.093 A 
ATOM      8  C   UNL     1     156.978 144.965 169.610  1.00  0.00     0.123 A 
ATOM      9  C   UNL     1     157.629 145.000 170.846  1.00  0.00     0.094 A 
ATOM     10  C   UNL     1     159.015 145.177 170.910  1.00  0.00     0.146 A 
ATOM     11  O   UNL     1     159.610 145.200 172.097  1.00  0.00    -0.452 OA
ENDROOT
BRANCH   1  12
ATOM     12  C   UNL     1     161.464 145.355 173.631  1.00  0.00     0.025 A 
ATOM     13  C   UNL     1     160.768 144.678 174.646  1.00  0.00     0.016 A 
ATOM     14  C   UNL     1     161.273 144.644 175.949  1.00  0.00     0.051 A 
ATOM     15  C   UNL     1     162.489 145.272 176.252  1.00  0.00     0.157 A 
ATOM     16  C   UNL     1     162.694 145.966 173.936  1.00  0.00     0.062 A 
ATOM     17  C   UNL     1     163.202 145.930 175.242  1.00  0.00     0.158 A 
BRANCH  15  18
ATOM     18  O   UNL     1     162.994 145.241 177.550  1.00  0.00    -0.504 OA
ATOM     19  H   UNL     1     163.518 146.018 177.933  1.00  0.00     0.293 HD
ENDBRANCH  15  18
BRANCH  17  20
ATOM     20  O   UNL     1     164.418 146.542 175.543  1.00  0.00    -0.504 OA
ATOM     21  H   UNL     1     164.913 147.102 174.861  1.00  0.00     0.293 HD
ENDBRANCH  17  20
ENDBRANCH   1  12
BRANCH   2  22
ATOM     22  O   UNL     1     163.113 145.771 171.281  1.00  0.00    -0.502 OA
ATOM     23  H   UNL     1     163.794 145.484 170.588  1.00  0.00     0.293 HD
ENDBRANCH   2  22
BRANCH   6  24
ATOM     24  O   UNL     1     159.810 145.432 167.279  1.00  0.00    -0.507 OA
ATOM     25  H   UNL     1     159.366 145.297 166.377  1.00  0.00     0.293 HD
ENDBRANCH   6  24
BRANCH   8  26
ATOM     26  O   UNL     1     155.596 144.789 169.540  1.00  0.00    -0.508 OA
ATOM     27  H   UNL     1     155.140 144.528 168.674  1.00  0.00     0.293 HD
ENDBRANCH   8  26
TORSDOF 6
ENDMDL
MODEL 3
REMARK VINA RESULT:     5.521      1.383      3.067
REMARK INTER + INTRA:           6.547
REMARK INTER:                   6.717
REMARK INTRA:                  -0.170
REMARK UNBOUND:                -0.104
REMARK SMILES O=c1c(O)c(-c2ccc(O)c(O)c2)oc2cc(O)cc(O)c12
REMARK SMILES IDX 5 1 3 2 2 3 1 4 22 5 20 6 19 7 17 8 16 9 15 10 14 11 6 12
REMARK SMILES IDX 7 13 8 14 9 15 13 16 11 17 10 18 12 20 4 22 21 24 18 26
REMARK H PARENT 10 19 12 21 4 23 21 25 18 27
REMARK Flexibility Score: inf
ROOT
ATOM      1  C   UNL     1     160.401 146.301 171.694  1.00  0.00     0.180 A 
ATOM      2  C   UNL     1     160.198 147.681 171.491  1.00  0.00     0.208 A 
ATOM      3  C   UNL     1     159.881 148.137 170.203  1.00  0.00     0.238 A 
ATOM      4  O   UNL     1     159.709 149.371 170.008  1.00  0.00    -0.285 OA
ATOM      5  C   UNL     1     159.752 147.212 169.147  1.00  0.00     0.111 A 
ATOM      6  C   UNL     1     159.431 147.590 167.821  1.00  0.00     0.134 A 
ATOM      7  C   UNL     1     159.311 146.606 166.827  1.00  0.00     0.093 A 
ATOM      8  C   UNL     1     159.506 145.258 167.133  1.00  0.00     0.123 A 
ATOM      9  C   UNL     1     159.823 144.878 168.440  1.00  0.00     0.094 A 
ATOM     10  C   UNL     1     159.948 145.843 169.445  1.00  0.00     0.146 A 
ATOM     11  O   UNL     1     160.256 145.456 170.678  1.00  0.00    -0.452 OA
ENDROOT
BRANCH   1  12
ATOM     12  C   UNL     1     160.756 145.746 173.019  1.00  0.00     0.025 A 
ATOM     13  C   UNL     1     159.909 144.801 173.621  1.00  0.00     0.016 A 
ATOM     14  C   UNL     1     160.236 144.246 174.861  1.00  0.00     0.051 A 
ATOM     15  C   UNL     1     161.421 144.617 175.511  1.00  0.00     0.157 A 
ATOM     16  C   UNL     1     161.956 146.098 173.665  1.00  0.00     0.062 A 
ATOM     17  C   UNL     1     162.284 145.541 174.909  1.00  0.00     0.158 A 
BRANCH  15  18
ATOM     18  O   UNL     1     161.749 144.067 176.748  1.00  0.00    -0.504 OA
ATOM     19  H   UNL     1     162.296 144.581 177.428  1.00  0.00     0.293 HD
ENDBRANCH  15  18
BRANCH  17  20
ATOM     20  O   UNL     1     163.469 145.897 175.550  1.00  0.00    -0.504 OA
ATOM     21  H   UNL     1     163.485 146.589 176.289  1.00  0.00     0.293 HD
ENDBRANCH  17  20
ENDBRANCH   1  12
BRANCH   2  22
ATOM     22  O   UNL     1     160.283 148.571 172.564  1.00  0.00    -0.502 OA
ATOM     23  H   UNL     1     161.125 148.674 173.119  1.00  0.00     0.293 HD
ENDBRANCH   2  22
BRANCH   6  24
ATOM     24  O   UNL     1     159.230 148.929 167.484  1.00  0.00    -0.507 OA
ATOM     25  H   UNL     1     159.716 149.362 166.707  1.00  0.00     0.293 HD
ENDBRANCH   6  24
BRANCH   8  26
ATOM     26  O   UNL     1     159.379 144.301 166.127  1.00  0.00    -0.508 OA
ATOM     27  H   UNL     1     158.898 144.506 165.259  1.00  0.00     0.293 HD
ENDBRANCH   8  26
TORSDOF 6
ENDMDL
MODEL 4
REMARK VINA RESULT:     5.887      0.754      1.469
REMARK INTER + INTRA:           6.988
REMARK INTER:                   7.281
REMARK INTRA:                  -0.293
REMARK UNBOUND:                -0.104
REMARK SMILES O=c1c(O)c(-c2ccc(O)c(O)c2)oc2cc(O)cc(O)c12
REMARK SMILES IDX 5 1 3 2 2 3 1 4 22 5 20 6 19 7 17 8 16 9 15 10 14 11 6 12
REMARK SMILES IDX 7 13 8 14 9 15 13 16 11 17 10 18 12 20 4 22 21 24 18 26
REMARK H PARENT 10 19 12 21 4 23 21 25 18 27
REMARK Flexibility Score: inf
ROOT
ATOM      1  C   UNL     1     160.624 146.383 171.832  1.00  0.00     0.180 A 
ATOM      2  C   UNL     1     160.455 145.592 170.679  1.00  0.00     0.208 A 
ATOM      3  C   UNL     1     160.049 146.209 169.486  1.00  0.00     0.238 A 
ATOM      4  O   UNL     1     159.884 145.508 168.451  1.00  0.00    -0.285 OA
ATOM      5  C   UNL     1     159.838 147.602 169.459  1.00  0.00     0.111 A 
ATOM      6  C   UNL     1     159.433 148.301 168.296  1.00  0.00     0.134 A 
ATOM      7  C   UNL     1     159.252 149.692 168.348  1.00  0.00     0.093 A 
ATOM      8  C   UNL     1     159.470 150.394 169.535  1.00  0.00     0.123 A 
ATOM      9  C   UNL     1     159.871 149.710 170.687  1.00  0.00     0.094 A 
ATOM     10  C   UNL     1     160.054 148.324 170.656  1.00  0.00     0.146 A 
ATOM     11  O   UNL     1     160.430 147.697 171.765  1.00  0.00    -0.452 OA
ENDROOT
BRANCH   1  12
ATOM     12  C   UNL     1     161.031 145.803 173.132  1.00  0.00     0.025 A 
ATOM     13  C   UNL     1     162.344 145.997 173.592  1.00  0.00     0.016 A 
ATOM     14  C   UNL     1     162.745 145.477 174.826  1.00  0.00     0.051 A 
ATOM     15  C   UNL     1     161.836 144.769 175.623  1.00  0.00     0.157 A 
ATOM     16  C   UNL     1     160.116 145.110 173.945  1.00  0.00     0.062 A 
ATOM     17  C   UNL     1     160.518 144.590 175.184  1.00  0.00     0.158 A 
BRANCH  15  18
ATOM     18  O   UNL     1     162.233 144.248 176.853  1.00  0.00    -0.504 OA
ATOM     19  H   UNL     1     162.991 144.660 177.384  1.00  0.00     0.293 HD
ENDBRANCH  15  18
BRANCH  17  20
ATOM     20  O   UNL     1     159.612 143.898 175.985  1.00  0.00    -0.504 OA
ATOM     21  H   UNL     1     159.883 143.514 176.882  1.00  0.00     0.293 HD
ENDBRANCH  17  20
ENDBRANCH   1  12
BRANCH   2  22
ATOM     22  O   UNL     1     160.719 144.220 170.721  1.00  0.00    -0.502 OA
ATOM     23  H   UNL     1     161.293 143.757 170.026  1.00  0.00     0.293 HD
ENDBRANCH   2  22
BRANCH   6  24
ATOM     24  O   UNL     1     159.207 147.628 167.095  1.00  0.00    -0.507 OA
ATOM     25  H   UNL     1     159.199 146.616 167.044  1.00  0.00     0.293 HD
ENDBRANCH   6  24
BRANCH   8  26
ATOM     26  O   UNL     1     159.285 151.776 169.559  1.00  0.00    -0.508 OA
ATOM     27  H   UNL     1     159.838 152.393 168.976  1.00  0.00     0.293 HD
ENDBRANCH   8  26
TORSDOF 6
ENDMDL
