MODEL 1
REMARK VINA RESULT:    -4.034      0.000      0.000
REMARK INTER + INTRA:          -4.287
REMARK INTER:                  -4.270
REMARK INTRA:                  -0.017
REMARK UNBOUND:                -0.017
REMARK SMILES O=C([O-])c1cccnc1
REMARK SMILES IDX 4 1 5 2 9 3 6 4 8 5 7 6 2 7 1 8 3 9
REMARK H PARENT
REMARK Flexibility Score: inf
ROOT
ATOM      1  C   UNL     1       2.207  -7.478  -8.544  1.00  0.00     0.016 A 
ATOM      2  C   UNL     1       2.667  -7.549  -7.220  1.00  0.00     0.013 A 
ATOM      3  C   UNL     1       3.060  -7.915  -9.573  1.00  0.00     0.120 A 
ATOM      4  C   UNL     1       3.943  -8.046  -6.947  1.00  0.00     0.021 A 
ATOM      5  N   UNL     1       4.299  -8.394  -9.280  1.00  0.00    -0.264 NA
ATOM      6  C   UNL     1       4.753  -8.468  -8.002  1.00  0.00     0.111 A 
ENDROOT
BRANCH   1   7
ATOM      7  C   UNL     1       0.857  -6.955  -8.846  1.00  0.00     0.073 C 
ATOM      8  O   UNL     1      -0.023  -7.703  -9.350  1.00  0.00    -0.545 OA
ATOM      9  O   UNL     1       0.540  -5.628  -8.578  1.00  0.00    -0.545 OA
ENDBRANCH   1   7
TORSDOF 1
ENDMDL
MODEL 2
REMARK VINA RESULT:    -3.938     11.440     11.800
REMARK INTER + INTRA:          -4.185
REMARK INTER:                  -4.162
REMARK INTRA:                  -0.024
REMARK UNBOUND:                -0.017
REMARK SMILES O=C([O-])c1cccnc1
REMARK SMILES IDX 4 1 5 2 9 3 6 4 8 5 7 6 2 7 1 8 3 9
REMARK H PARENT
REMARK Flexibility Score: inf
ROOT
ATOM      1  C   UNL     1      -2.234  -5.398   2.106  1.00  0.00     0.016 A 
ATOM      2  C   UNL     1      -1.178  -4.564   2.508  1.00  0.00     0.013 A 
ATOM      3  C   UNL     1      -1.986  -6.777   1.983  1.00  0.00     0.120 A 
ATOM      4  C   UNL     1       0.080  -5.106   2.777  1.00  0.00     0.021 A 
ATOM      5  N   UNL     1      -0.751  -7.279   2.250  1.00  0.00    -0.264 NA
ATOM      6  C   UNL     1       0.276  -6.480   2.641  1.00  0.00     0.111 A 
ENDROOT
BRANCH   1   7
ATOM      7  C   UNL     1      -3.571  -4.837   1.819  1.00  0.00     0.073 C 
ATOM      8  O   UNL     1      -3.861  -3.661   2.166  1.00  0.00    -0.545 OA
ATOM      9  O   UNL     1      -4.529  -5.600   1.161  1.00  0.00    -0.545 OA
ENDBRANCH   1   7
TORSDOF 1
ENDMDL
MODEL 3
REMARK VINA RESULT:    -3.847     11.924     12.460
REMARK INTER + INTRA:          -4.089
REMARK INTER:                  -4.069
REMARK INTRA:                  -0.020
REMARK UNBOUND:                -0.017
REMARK SMILES O=C([O-])c1cccnc1
REMARK SMILES IDX 4 1 5 2 9 3 6 4 8 5 7 6 2 7 1 8 3 9
REMARK H PARENT
REMARK Flexibility Score: inf
ROOT
ATOM      1  C   UNL     1      -3.117  -5.595   2.353  1.00  0.00     0.016 A 
ATOM      2  C   UNL     1      -4.227  -6.449   2.250  1.00  0.00     0.013 A 
ATOM      3  C   UNL     1      -1.831  -6.154   2.238  1.00  0.00     0.120 A 
ATOM      4  C   UNL     1      -4.042  -7.816   2.039  1.00  0.00     0.021 A 
ATOM      5  N   UNL     1      -1.679  -7.490   2.033  1.00  0.00    -0.264 NA
ATOM      6  C   UNL     1      -2.747  -8.324   1.932  1.00  0.00     0.111 A 
ENDROOT
BRANCH   1   7
ATOM      7  C   UNL     1      -3.299  -4.145   2.576  1.00  0.00     0.073 C 
ATOM      8  O   UNL     1      -4.136  -3.492   1.897  1.00  0.00    -0.545 OA
ATOM      9  O   UNL     1      -2.548  -3.481   3.539  1.00  0.00    -0.545 OA
ENDBRANCH   1   7
TORSDOF 1
ENDMDL
MODEL 4
REMARK VINA RESULT:    -3.793      3.053      4.038
REMARK INTER + INTRA:          -4.031
REMARK INTER:                  -4.014
REMARK INTRA:                  -0.017
REMARK UNBOUND:                -0.017
REMARK SMILES O=C([O-])c1cccnc1
REMARK SMILES IDX 4 1 5 2 9 3 6 4 8 5 7 6 2 7 1 8 3 9
REMARK H PARENT
REMARK Flexibility Score: inf
ROOT
ATOM      1  C   UNL     1       3.534  -7.613  -7.895  1.00  0.00     0.016 A 
ATOM      2  C   UNL     1       3.848  -7.074  -9.153  1.00  0.00     0.013 A 
ATOM      3  C   UNL     1       2.218  -7.477  -7.418  1.00  0.00     0.120 A 
ATOM      4  C   UNL     1       2.866  -6.422  -9.900  1.00  0.00     0.021 A 
ATOM      5  N   UNL     1       1.280  -6.836  -8.166  1.00  0.00    -0.264 NA
ATOM      6  C   UNL     1       1.574  -6.311  -9.385  1.00  0.00     0.111 A 
ENDROOT
BRANCH   1   7
ATOM      7  C   UNL     1       4.566  -8.307  -7.094  1.00  0.00     0.073 C 
ATOM      8  O   UNL     1       4.918  -7.855  -5.972  1.00  0.00    -0.545 OA
ATOM      9  O   UNL     1       5.162  -9.470  -7.569  1.00  0.00    -0.545 OA
ENDBRANCH   1   7
TORSDOF 1
ENDMDL
MODEL 5
REMARK VINA RESULT:    -3.734     12.565     13.402
REMARK INTER + INTRA:          -3.969
REMARK INTER:                  -3.946
REMARK INTRA:                  -0.023
REMARK UNBOUND:                -0.017
REMARK SMILES O=C([O-])c1cccnc1
REMARK SMILES IDX 4 1 5 2 9 3 6 4 8 5 7 6 2 7 1 8 3 9
REMARK H PARENT
REMARK Flexibility Score: inf
ROOT
ATOM      1  C   UNL     1      -0.431   3.422  -1.485  1.00  0.00     0.016 A 
ATOM      2  C   UNL     1      -0.983   4.013  -2.633  1.00  0.00     0.013 A 
ATOM      3  C   UNL     1       0.412   2.308  -1.647  1.00  0.00     0.120 A 
ATOM      4  C   UNL     1      -0.691   3.498  -3.896  1.00  0.00     0.021 A 
ATOM      5  N   UNL     1       0.680   1.824  -2.889  1.00  0.00    -0.264 NA
ATOM      6  C   UNL     1       0.152   2.390  -4.006  1.00  0.00     0.111 A 
ENDROOT
BRANCH   1   7
ATOM      7  C   UNL     1      -0.732   3.960  -0.141  1.00  0.00     0.073 C 
ATOM      8  O   UNL     1      -1.231   5.109  -0.007  1.00  0.00    -0.545 OA
ATOM      9  O   UNL     1      -0.468   3.204   0.996  1.00  0.00    -0.545 OA
ENDBRANCH   1   7
TORSDOF 1
ENDMDL
MODEL 6
REMARK VINA RESULT:    -3.729     13.294     14.014
REMARK INTER + INTRA:          -3.964
REMARK INTER:                  -3.941
REMARK INTRA:                  -0.022
REMARK UNBOUND:                -0.017
REMARK SMILES O=C([O-])c1cccnc1
REMARK SMILES IDX 4 1 5 2 9 3 6 4 8 5 7 6 2 7 1 8 3 9
REMARK H PARENT
REMARK Flexibility Score: inf
ROOT
ATOM      1  C   UNL     1      -4.061  -5.367   3.193  1.00  0.00     0.016 A 
ATOM      2  C   UNL     1      -4.422  -6.143   4.306  1.00  0.00     0.013 A 
ATOM      3  C   UNL     1      -3.504  -4.096   3.417  1.00  0.00     0.120 A 
ATOM      4  C   UNL     1      -4.225  -5.651   5.597  1.00  0.00     0.021 A 
ATOM      5  N   UNL     1      -3.323  -3.639   4.685  1.00  0.00    -0.264 NA
ATOM      6  C   UNL     1      -3.668  -4.383   5.769  1.00  0.00     0.111 A 
ENDROOT
BRANCH   1   7
ATOM      7  C   UNL     1      -4.264  -5.878   1.820  1.00  0.00     0.073 C 
ATOM      8  O   UNL     1      -4.253  -7.116   1.588  1.00  0.00    -0.545 OA
ATOM      9  O   UNL     1      -4.469  -4.997   0.764  1.00  0.00    -0.545 OA
ENDBRANCH   1   7
TORSDOF 1
ENDMDL
MODEL 7
REMARK VINA RESULT:    -3.674     13.416     14.161
REMARK INTER + INTRA:          -3.906
REMARK INTER:                  -3.883
REMARK INTRA:                  -0.022
REMARK UNBOUND:                -0.017
REMARK SMILES O=C([O-])c1cccnc1
REMARK SMILES IDX 4 1 5 2 9 3 6 4 8 5 7 6 2 7 1 8 3 9
REMARK H PARENT
REMARK Flexibility Score: inf
ROOT
ATOM      1  C   UNL     1      -1.405   4.038  -1.345  1.00  0.00     0.016 A 
ATOM      2  C   UNL     1      -0.595   3.384  -2.287  1.00  0.00     0.013 A 
ATOM      3  C   UNL     1      -0.972   4.082  -0.008  1.00  0.00     0.120 A 
ATOM      4  C   UNL     1       0.608   2.798  -1.891  1.00  0.00     0.021 A 
ATOM      5  N   UNL     1       0.205   3.503   0.353  1.00  0.00    -0.264 NA
ATOM      6  C   UNL     1       0.995   2.869  -0.552  1.00  0.00     0.111 A 
ENDROOT
BRANCH   1   7
ATOM      7  C   UNL     1      -2.682   4.663  -1.752  1.00  0.00     0.073 C 
ATOM      8  O   UNL     1      -3.212   5.558  -1.043  1.00  0.00    -0.545 OA
ATOM      9  O   UNL     1      -3.315   4.270  -2.926  1.00  0.00    -0.545 OA
ENDBRANCH   1   7
TORSDOF 1
ENDMDL
MODEL 8
REMARK VINA RESULT:    -3.669      2.061      2.870
REMARK INTER + INTRA:          -3.901
REMARK INTER:                  -3.883
REMARK INTRA:                  -0.019
REMARK UNBOUND:                -0.017
REMARK SMILES O=C([O-])c1cccnc1
REMARK SMILES IDX 4 1 5 2 9 3 6 4 8 5 7 6 2 7 1 8 3 9
REMARK H PARENT
REMARK Flexibility Score: inf
ROOT
ATOM      1  C   UNL     1       4.344  -7.858  -7.759  1.00  0.00     0.016 A 
ATOM      2  C   UNL     1       5.245  -8.352  -8.716  1.00  0.00     0.013 A 
ATOM      3  C   UNL     1       4.646  -8.046  -6.398  1.00  0.00     0.120 A 
ATOM      4  C   UNL     1       6.408  -9.009  -8.311  1.00  0.00     0.021 A 
ATOM      5  N   UNL     1       5.786  -8.691  -6.030  1.00  0.00    -0.264 NA
ATOM      6  C   UNL     1       6.664  -9.171  -6.949  1.00  0.00     0.111 A 
ENDROOT
BRANCH   1   7
ATOM      7  C   UNL     1       3.110  -7.159  -8.175  1.00  0.00     0.073 C 
ATOM      8  O   UNL     1       1.989  -7.511  -7.720  1.00  0.00    -0.545 OA
ATOM      9  O   UNL     1       3.169  -6.102  -9.077  1.00  0.00    -0.545 OA
ENDBRANCH   1   7
TORSDOF 1
ENDMDL
MODEL 9
REMARK VINA RESULT:    -3.661     14.457     15.494
REMARK INTER + INTRA:          -3.892
REMARK INTER:                  -3.869
REMARK INTRA:                  -0.023
REMARK UNBOUND:                -0.017
REMARK SMILES O=C([O-])c1cccnc1
REMARK SMILES IDX 4 1 5 2 9 3 6 4 8 5 7 6 2 7 1 8 3 9
REMARK H PARENT
REMARK Flexibility Score: inf
ROOT
ATOM      1  C   UNL     1      -2.632   4.815  -1.921  1.00  0.00     0.016 A 
ATOM      2  C   UNL     1      -2.976   4.127  -3.096  1.00  0.00     0.013 A 
ATOM      3  C   UNL     1      -3.388   5.945  -1.564  1.00  0.00     0.120 A 
ATOM      4  C   UNL     1      -4.045   4.566  -3.879  1.00  0.00     0.021 A 
ATOM      5  N   UNL     1      -4.425   6.353  -2.344  1.00  0.00    -0.264 NA
ATOM      6  C   UNL     1      -4.765   5.693  -3.482  1.00  0.00     0.111 A 
ENDROOT
BRANCH   1   7
ATOM      7  C   UNL     1      -1.502   4.359  -1.084  1.00  0.00     0.073 C 
ATOM      8  O   UNL     1      -1.304   4.861   0.055  1.00  0.00    -0.545 OA
ATOM      9  O   UNL     1      -0.641   3.368  -1.542  1.00  0.00    -0.545 OA
ENDBRANCH   1   7
TORSDOF 1
ENDMDL
