MODEL 1
REMARK VINA RESULT:    -4.392      0.000      0.000
REMARK INTER + INTRA:         -10.277
REMARK INTER:                  -7.987
REMARK INTRA:                  -2.290
REMARK UNBOUND:                -2.290
REMARK SMILES CCCCCCCCCCCCCC[C@H](C)C(=O)[O-]
REMARK SMILES IDX 9 1 10 2 11 3 12 4 13 5 14 6 15 7 16 8 17 9 18 10 19 11 8 12
REMARK SMILES IDX 7 13 6 14 5 15 4 16 3 17 2 18 1 19
REMARK H PARENT
REMARK Flexibility Score: inf
ROOT
ATOM      1  C   UNL     1      -0.541  43.366  21.953  1.00  0.00     0.000 C 
ENDROOT
BRANCH   1   2
ATOM      2  C   UNL     1      -1.680  44.367  21.679  1.00  0.00     0.000 C 
BRANCH   2   3
ATOM      3  C   UNL     1      -2.180  44.355  20.218  1.00  0.00     0.000 C 
BRANCH   3   4
ATOM      4  C   UNL     1      -3.505  45.119  20.046  1.00  0.00     0.000 C 
BRANCH   4   5
ATOM      5  C   UNL     1      -4.624  44.244  19.459  1.00  0.00     0.001 C 
BRANCH   5   6
ATOM      6  C   UNL     1      -5.407  43.487  20.552  1.00  0.00     0.009 C 
BRANCH   6   7
ATOM      7  C   UNL     1      -5.517  41.965  20.316  1.00  0.00     0.032 C 
ATOM      8  C   UNL     1      -5.820  41.180  21.603  1.00  0.00     0.014 C 
BRANCH   7   9
ATOM      9  C   UNL     1      -4.308  41.424  19.598  1.00  0.00     0.044 C 
ATOM     10  O   UNL     1      -4.335  41.204  18.358  1.00  0.00    -0.550 OA
ATOM     11  O   UNL     1      -3.164  41.107  20.321  1.00  0.00    -0.550 OA
ENDBRANCH   7   9
ENDBRANCH   6   7
ENDBRANCH   5   6
ENDBRANCH   4   5
ENDBRANCH   3   4
ENDBRANCH   2   3
ENDBRANCH   1   2
BRANCH   1  12
ATOM     12  C   UNL     1      -0.401  42.925  23.423  1.00  0.00     0.000 C 
BRANCH  12  13
ATOM     13  C   UNL     1      -0.988  43.907  24.460  1.00  0.00    -0.000 C 
BRANCH  13  14
ATOM     14  C   UNL     1      -2.214  43.385  25.233  1.00  0.00    -0.000 C 
BRANCH  14  15
ATOM     15  C   UNL     1      -3.249  42.629  24.377  1.00  0.00    -0.000 C 
BRANCH  15  16
ATOM     16  C   UNL     1      -4.632  43.316  24.326  1.00  0.00    -0.000 C 
BRANCH  16  17
ATOM     17  C   UNL     1      -4.551  44.818  24.652  1.00  0.00    -0.000 C 
BRANCH  17  18
ATOM     18  C   UNL     1      -4.726  45.703  23.410  1.00  0.00    -0.003 C 
ATOM     19  C   UNL     1      -3.840  46.950  23.442  1.00  0.00     0.004 C 
ENDBRANCH  17  18
ENDBRANCH  16  17
ENDBRANCH  15  16
ENDBRANCH  14  15
ENDBRANCH  13  14
ENDBRANCH  12  13
ENDBRANCH   1  12
TORSDOF 14
ENDMDL
MODEL 2
REMARK VINA RESULT:    -4.385      1.464      2.143
REMARK INTER + INTRA:         -10.264
REMARK INTER:                  -7.677
REMARK INTRA:                  -2.587
REMARK UNBOUND:                -2.290
REMARK SMILES CCCCCCCCCCCCCC[C@H](C)C(=O)[O-]
REMARK SMILES IDX 9 1 10 2 11 3 12 4 13 5 14 6 15 7 16 8 17 9 18 10 19 11 8 12
REMARK SMILES IDX 7 13 6 14 5 15 4 16 3 17 2 18 1 19
REMARK H PARENT
REMARK Flexibility Score: inf
ROOT
ATOM      1  C   UNL     1      -1.305  43.842  20.144  1.00  0.00     0.000 C 
ENDROOT
BRANCH   1   2
ATOM      2  C   UNL     1      -2.191  44.261  18.954  1.00  0.00     0.000 C 
BRANCH   2   3
ATOM      3  C   UNL     1      -3.431  45.085  19.362  1.00  0.00     0.000 C 
BRANCH   3   4
ATOM      4  C   UNL     1      -4.749  44.344  19.076  1.00  0.00     0.000 C 
BRANCH   4   5
ATOM      5  C   UNL     1      -5.285  43.589  20.303  1.00  0.00     0.001 C 
BRANCH   5   6
ATOM      6  C   UNL     1      -5.190  42.059  20.135  1.00  0.00     0.009 C 
BRANCH   6   7
ATOM      7  C   UNL     1      -4.584  41.322  21.350  1.00  0.00     0.032 C 
ATOM      8  C   UNL     1      -3.164  40.796  21.084  1.00  0.00     0.014 C 
BRANCH   7   9
ATOM      9  C   UNL     1      -5.501  40.240  21.857  1.00  0.00     0.044 C 
ATOM     10  O   UNL     1      -5.197  39.023  21.736  1.00  0.00    -0.550 OA
ATOM     11  O   UNL     1      -6.728  40.584  22.413  1.00  0.00    -0.550 OA
ENDBRANCH   7   9
ENDBRANCH   6   7
ENDBRANCH   5   6
ENDBRANCH   4   5
ENDBRANCH   3   4
ENDBRANCH   2   3
ENDBRANCH   1   2
BRANCH   1  12
ATOM     12  C   UNL     1      -1.823  44.281  21.527  1.00  0.00     0.000 C 
BRANCH  12  13
ATOM     13  C   UNL     1      -0.891  43.949  22.711  1.00  0.00    -0.000 C 
BRANCH  13  14
ATOM     14  C   UNL     1      -1.582  43.874  24.086  1.00  0.00    -0.000 C 
BRANCH  14  15
ATOM     15  C   UNL     1      -2.708  42.828  24.191  1.00  0.00    -0.000 C 
BRANCH  15  16
ATOM     16  C   UNL     1      -4.119  43.445  24.309  1.00  0.00    -0.000 C 
BRANCH  16  17
ATOM     17  C   UNL     1      -4.076  44.974  24.477  1.00  0.00    -0.000 C 
BRANCH  17  18
ATOM     18  C   UNL     1      -4.678  45.718  23.276  1.00  0.00    -0.003 C 
ATOM     19  C   UNL     1      -4.211  47.172  23.185  1.00  0.00     0.004 C 
ENDBRANCH  17  18
ENDBRANCH  16  17
ENDBRANCH  15  16
ENDBRANCH  14  15
ENDBRANCH  13  14
ENDBRANCH  12  13
ENDBRANCH   1  12
TORSDOF 14
ENDMDL
MODEL 3
REMARK VINA RESULT:    -4.253      2.471      4.220
REMARK INTER + INTRA:         -10.024
REMARK INTER:                  -7.695
REMARK INTRA:                  -2.329
REMARK UNBOUND:                -2.290
REMARK SMILES CCCCCCCCCCCCCC[C@H](C)C(=O)[O-]
REMARK SMILES IDX 9 1 10 2 11 3 12 4 13 5 14 6 15 7 16 8 17 9 18 10 19 11 8 12
REMARK SMILES IDX 7 13 6 14 5 15 4 16 3 17 2 18 1 19
REMARK H PARENT
REMARK Flexibility Score: inf
ROOT
ATOM      1  C   UNL     1      -5.379  42.053  20.459  1.00  0.00     0.000 C 
ENDROOT
BRANCH   1   2
ATOM      2  C   UNL     1      -5.482  43.583  20.308  1.00  0.00     0.000 C 
BRANCH   2   3
ATOM      3  C   UNL     1      -4.401  44.191  19.388  1.00  0.00     0.000 C 
BRANCH   3   4
ATOM      4  C   UNL     1      -3.309  44.933  20.179  1.00  0.00     0.000 C 
BRANCH   4   5
ATOM      5  C   UNL     1      -1.983  44.157  20.233  1.00  0.00     0.001 C 
BRANCH   5   6
ATOM      6  C   UNL     1      -1.345  44.188  21.637  1.00  0.00     0.009 C 
BRANCH   6   7
ATOM      7  C   UNL     1      -0.324  43.059  21.898  1.00  0.00     0.032 C 
ATOM      8  C   UNL     1      -0.990  41.730  22.290  1.00  0.00     0.014 C 
BRANCH   7   9
ATOM      9  C   UNL     1       0.727  43.479  22.892  1.00  0.00     0.044 C 
ATOM     10  O   UNL     1       0.467  43.538  24.124  1.00  0.00    -0.550 OA
ATOM     11  O   UNL     1       1.983  43.865  22.441  1.00  0.00    -0.550 OA
ENDBRANCH   7   9
ENDBRANCH   6   7
ENDBRANCH   5   6
ENDBRANCH   4   5
ENDBRANCH   3   4
ENDBRANCH   2   3
ENDBRANCH   1   2
BRANCH   1  12
ATOM     12  C   UNL     1      -4.370  41.571  21.520  1.00  0.00     0.000 C 
BRANCH  12  13
ATOM     13  C   UNL     1      -4.994  41.119  22.858  1.00  0.00    -0.000 C 
BRANCH  13  14
ATOM     14  C   UNL     1      -4.977  42.177  23.978  1.00  0.00    -0.000 C 
BRANCH  14  15
ATOM     15  C   UNL     1      -3.971  43.326  23.771  1.00  0.00    -0.000 C 
BRANCH  15  16
ATOM     16  C   UNL     1      -4.460  44.684  24.323  1.00  0.00    -0.000 C 
BRANCH  16  17
ATOM     17  C   UNL     1      -5.085  45.568  23.230  1.00  0.00    -0.000 C 
BRANCH  17  18
ATOM     18  C   UNL     1      -4.332  46.892  23.037  1.00  0.00    -0.003 C 
ATOM     19  C   UNL     1      -3.292  47.146  24.130  1.00  0.00     0.004 C 
ENDBRANCH  17  18
ENDBRANCH  16  17
ENDBRANCH  15  16
ENDBRANCH  14  15
ENDBRANCH  13  14
ENDBRANCH  12  13
ENDBRANCH   1  12
TORSDOF 14
ENDMDL
MODEL 4
REMARK VINA RESULT:    -4.228      2.531      5.027
REMARK INTER + INTRA:          -9.978
REMARK INTER:                  -7.911
REMARK INTRA:                  -2.067
REMARK UNBOUND:                -2.290
REMARK SMILES CCCCCCCCCCCCCC[C@H](C)C(=O)[O-]
REMARK SMILES IDX 9 1 10 2 11 3 12 4 13 5 14 6 15 7 16 8 17 9 18 10 19 11 8 12
REMARK SMILES IDX 7 13 6 14 5 15 4 16 3 17 2 18 1 19
REMARK H PARENT
REMARK Flexibility Score: inf
ROOT
ATOM      1  C   UNL     1      -3.013  43.641  17.069  1.00  0.00     0.000 C 
ENDROOT
BRANCH   1   2
ATOM      2  C   UNL     1      -4.068  42.854  17.872  1.00  0.00     0.000 C 
BRANCH   2   3
ATOM      3  C   UNL     1      -4.420  43.495  19.232  1.00  0.00     0.000 C 
BRANCH   3   4
ATOM      4  C   UNL     1      -3.993  44.972  19.311  1.00  0.00     0.000 C 
BRANCH   4   5
ATOM      5  C   UNL     1      -3.635  45.411  20.740  1.00  0.00     0.001 C 
BRANCH   5   6
ATOM      6  C   UNL     1      -4.405  44.608  21.808  1.00  0.00     0.009 C 
BRANCH   6   7
ATOM      7  C   UNL     1      -4.786  45.422  23.064  1.00  0.00     0.032 C 
ATOM      8  C   UNL     1      -4.069  46.780  23.137  1.00  0.00     0.014 C 
BRANCH   7   9
ATOM      9  C   UNL     1      -4.600  44.618  24.325  1.00  0.00     0.044 C 
ATOM     10  O   UNL     1      -4.883  43.390  24.358  1.00  0.00    -0.550 OA
ATOM     11  O   UNL     1      -4.167  45.249  25.484  1.00  0.00    -0.550 OA
ENDBRANCH   7   9
ENDBRANCH   6   7
ENDBRANCH   5   6
ENDBRANCH   4   5
ENDBRANCH   3   4
ENDBRANCH   2   3
ENDBRANCH   1   2
BRANCH   1  12
ATOM     12  C   UNL     1      -1.592  43.045  17.103  1.00  0.00     0.000 C 
BRANCH  12  13
ATOM     13  C   UNL     1      -0.557  43.866  17.902  1.00  0.00    -0.000 C 
BRANCH  13  14
ATOM     14  C   UNL     1       0.028  43.155  19.137  1.00  0.00    -0.000 C 
BRANCH  14  15
ATOM     15  C   UNL     1      -0.953  42.983  20.313  1.00  0.00    -0.000 C 
BRANCH  15  16
ATOM     16  C   UNL     1      -0.660  43.919  21.506  1.00  0.00    -0.000 C 
BRANCH  16  17
ATOM     17  C   UNL     1      -0.539  43.153  22.835  1.00  0.00    -0.000 C 
BRANCH  17  18
ATOM     18  C   UNL     1      -0.967  43.996  24.045  1.00  0.00    -0.003 C 
ATOM     19  C   UNL     1      -1.252  43.149  25.286  1.00  0.00     0.004 C 
ENDBRANCH  17  18
ENDBRANCH  16  17
ENDBRANCH  15  16
ENDBRANCH  14  15
ENDBRANCH  13  14
ENDBRANCH  12  13
ENDBRANCH   1  12
TORSDOF 14
ENDMDL
MODEL 5
REMARK VINA RESULT:    -4.219      2.495      4.761
REMARK INTER + INTRA:          -9.963
REMARK INTER:                  -7.118
REMARK INTRA:                  -2.845
REMARK UNBOUND:                -2.290
REMARK SMILES CCCCCCCCCCCCCC[C@H](C)C(=O)[O-]
REMARK SMILES IDX 9 1 10 2 11 3 12 4 13 5 14 6 15 7 16 8 17 9 18 10 19 11 8 12
REMARK SMILES IDX 7 13 6 14 5 15 4 16 3 17 2 18 1 19
REMARK H PARENT
REMARK Flexibility Score: inf
ROOT
ATOM      1  C   UNL     1      -5.136  44.200  20.665  1.00  0.00     0.000 C 
ENDROOT
BRANCH   1   2
ATOM      2  C   UNL     1      -3.943  44.854  19.941  1.00  0.00     0.000 C 
BRANCH   2   3
ATOM      3  C   UNL     1      -2.586  44.616  20.640  1.00  0.00     0.000 C 
BRANCH   3   4
ATOM      4  C   UNL     1      -1.674  43.668  19.841  1.00  0.00     0.000 C 
BRANCH   4   5
ATOM      5  C   UNL     1      -0.489  43.145  20.670  1.00  0.00     0.001 C 
BRANCH   5   6
ATOM      6  C   UNL     1      -0.378  43.849  22.038  1.00  0.00     0.009 C 
BRANCH   6   7
ATOM      7  C   UNL     1       0.345  43.020  23.123  1.00  0.00     0.032 C 
ATOM      8  C   UNL     1      -0.118  43.366  24.547  1.00  0.00     0.014 C 
BRANCH   7   9
ATOM      9  C   UNL     1       1.842  43.104  22.980  1.00  0.00     0.044 C 
ATOM     10  O   UNL     1       2.482  44.091  23.431  1.00  0.00    -0.550 OA
ATOM     11  O   UNL     1       2.523  42.110  22.287  1.00  0.00    -0.550 OA
ENDBRANCH   7   9
ENDBRANCH   6   7
ENDBRANCH   5   6
ENDBRANCH   4   5
ENDBRANCH   3   4
ENDBRANCH   2   3
ENDBRANCH   1   2
BRANCH   1  12
ATOM     12  C   UNL     1      -5.332  42.700  20.373  1.00  0.00     0.000 C 
BRANCH  12  13
ATOM     13  C   UNL     1      -5.267  41.778  21.609  1.00  0.00    -0.000 C 
BRANCH  13  14
ATOM     14  C   UNL     1      -3.855  41.297  21.993  1.00  0.00    -0.000 C 
BRANCH  14  15
ATOM     15  C   UNL     1      -3.271  41.945  23.263  1.00  0.00    -0.000 C 
BRANCH  15  16
ATOM     16  C   UNL     1      -4.228  42.950  23.943  1.00  0.00    -0.000 C 
BRANCH  16  17
ATOM     17  C   UNL     1      -3.571  44.324  24.166  1.00  0.00    -0.000 C 
BRANCH  17  18
ATOM     18  C   UNL     1      -4.561  45.486  24.006  1.00  0.00    -0.003 C 
ATOM     19  C   UNL     1      -3.946  46.696  23.300  1.00  0.00     0.004 C 
ENDBRANCH  17  18
ENDBRANCH  16  17
ENDBRANCH  15  16
ENDBRANCH  14  15
ENDBRANCH  13  14
ENDBRANCH  12  13
ENDBRANCH   1  12
TORSDOF 14
ENDMDL
MODEL 6
REMARK VINA RESULT:    -4.161      2.272      5.157
REMARK INTER + INTRA:          -9.856
REMARK INTER:                  -7.394
REMARK INTRA:                  -2.462
REMARK UNBOUND:                -2.290
REMARK SMILES CCCCCCCCCCCCCC[C@H](C)C(=O)[O-]
REMARK SMILES IDX 9 1 10 2 11 3 12 4 13 5 14 6 15 7 16 8 17 9 18 10 19 11 8 12
REMARK SMILES IDX 7 13 6 14 5 15 4 16 3 17 2 18 1 19
REMARK H PARENT
REMARK Flexibility Score: inf
ROOT
ATOM      1  C   UNL     1      -0.193  43.055  20.474  1.00  0.00     0.000 C 
ENDROOT
BRANCH   1   2
ATOM      2  C   UNL     1       0.793  43.157  21.654  1.00  0.00     0.000 C 
BRANCH   2   3
ATOM      3  C   UNL     1       0.237  42.592  22.979  1.00  0.00     0.000 C 
BRANCH   3   4
ATOM      4  C   UNL     1       0.072  43.679  24.057  1.00  0.00     0.000 C 
BRANCH   4   5
ATOM      5  C   UNL     1      -1.396  43.910  24.449  1.00  0.00     0.001 C 
BRANCH   5   6
ATOM      6  C   UNL     1      -2.002  45.143  23.747  1.00  0.00     0.009 C 
BRANCH   6   7
ATOM      7  C   UNL     1      -3.515  45.032  23.462  1.00  0.00     0.032 C 
ATOM      8  C   UNL     1      -4.119  46.339  22.922  1.00  0.00     0.014 C 
BRANCH   7   9
ATOM      9  C   UNL     1      -4.270  44.515  24.659  1.00  0.00     0.044 C 
ATOM     10  O   UNL     1      -4.338  45.186  25.722  1.00  0.00    -0.550 OA
ATOM     11  O   UNL     1      -4.849  43.252  24.612  1.00  0.00    -0.550 OA
ENDBRANCH   7   9
ENDBRANCH   6   7
ENDBRANCH   5   6
ENDBRANCH   4   5
ENDBRANCH   3   4
ENDBRANCH   2   3
ENDBRANCH   1   2
BRANCH   1  12
ATOM     12  C   UNL     1      -1.367  44.053  20.519  1.00  0.00     0.000 C 
BRANCH  12  13
ATOM     13  C   UNL     1      -2.445  43.845  19.434  1.00  0.00    -0.000 C 
BRANCH  13  14
ATOM     14  C   UNL     1      -3.660  44.786  19.531  1.00  0.00    -0.000 C 
BRANCH  14  15
ATOM     15  C   UNL     1      -5.002  44.088  19.825  1.00  0.00    -0.000 C 
BRANCH  15  16
ATOM     16  C   UNL     1      -4.901  42.548  19.875  1.00  0.00    -0.000 C 
BRANCH  16  17
ATOM     17  C   UNL     1      -5.204  41.987  21.276  1.00  0.00    -0.000 C 
BRANCH  17  18
ATOM     18  C   UNL     1      -4.291  40.812  21.653  1.00  0.00    -0.003 C 
ATOM     19  C   UNL     1      -3.034  41.255  22.403  1.00  0.00     0.004 C 
ENDBRANCH  17  18
ENDBRANCH  16  17
ENDBRANCH  15  16
ENDBRANCH  14  15
ENDBRANCH  13  14
ENDBRANCH  12  13
ENDBRANCH   1  12
TORSDOF 14
ENDMDL
MODEL 7
REMARK VINA RESULT:    -4.099      2.217      5.260
REMARK INTER + INTRA:          -9.743
REMARK INTER:                  -6.913
REMARK INTRA:                  -2.830
REMARK UNBOUND:                -2.290
REMARK SMILES CCCCCCCCCCCCCC[C@H](C)C(=O)[O-]
REMARK SMILES IDX 9 1 10 2 11 3 12 4 13 5 14 6 15 7 16 8 17 9 18 10 19 11 8 12
REMARK SMILES IDX 7 13 6 14 5 15 4 16 3 17 2 18 1 19
REMARK H PARENT
REMARK Flexibility Score: inf
ROOT
ATOM      1  C   UNL     1      -1.738  43.667  18.368  1.00  0.00     0.000 C 
ENDROOT
BRANCH   1   2
ATOM      2  C   UNL     1      -1.344  42.335  19.037  1.00  0.00     0.000 C 
BRANCH   2   3
ATOM      3  C   UNL     1      -0.800  42.499  20.474  1.00  0.00     0.000 C 
BRANCH   3   4
ATOM      4  C   UNL     1      -1.242  43.824  21.120  1.00  0.00     0.000 C 
BRANCH   4   5
ATOM      5  C   UNL     1      -0.824  43.935  22.595  1.00  0.00     0.001 C 
BRANCH   5   6
ATOM      6  C   UNL     1      -1.828  44.760  23.426  1.00  0.00     0.009 C 
BRANCH   6   7
ATOM      7  C   UNL     1      -3.112  43.996  23.815  1.00  0.00     0.032 C 
ATOM      8  C   UNL     1      -4.263  44.929  24.223  1.00  0.00     0.014 C 
BRANCH   7   9
ATOM      9  C   UNL     1      -2.838  42.946  24.861  1.00  0.00     0.044 C 
ATOM     10  O   UNL     1      -3.454  41.847  24.853  1.00  0.00    -0.550 OA
ATOM     11  O   UNL     1      -1.938  43.215  25.885  1.00  0.00    -0.550 OA
ENDBRANCH   7   9
ENDBRANCH   6   7
ENDBRANCH   5   6
ENDBRANCH   4   5
ENDBRANCH   3   4
ENDBRANCH   2   3
ENDBRANCH   1   2
BRANCH   1  12
ATOM     12  C   UNL     1      -2.990  43.598  17.472  1.00  0.00     0.000 C 
BRANCH  12  13
ATOM     13  C   UNL     1      -4.244  44.291  18.045  1.00  0.00    -0.000 C 
BRANCH  13  14
ATOM     14  C   UNL     1      -4.010  45.106  19.331  1.00  0.00    -0.000 C 
BRANCH  14  15
ATOM     15  C   UNL     1      -4.722  44.561  20.584  1.00  0.00    -0.000 C 
BRANCH  15  16
ATOM     16  C   UNL     1      -5.416  43.199  20.360  1.00  0.00    -0.000 C 
BRANCH  16  17
ATOM     17  C   UNL     1      -4.832  42.090  21.252  1.00  0.00    -0.000 C 
BRANCH  17  18
ATOM     18  C   UNL     1      -4.313  40.893  20.443  1.00  0.00    -0.003 C 
ATOM     19  C   UNL     1      -4.946  40.797  19.054  1.00  0.00     0.004 C 
ENDBRANCH  17  18
ENDBRANCH  16  17
ENDBRANCH  15  16
ENDBRANCH  14  15
ENDBRANCH  13  14
ENDBRANCH  12  13
ENDBRANCH   1  12
TORSDOF 14
ENDMDL
MODEL 8
REMARK VINA RESULT:    -4.098      2.750      5.714
REMARK INTER + INTRA:          -9.742
REMARK INTER:                  -7.067
REMARK INTRA:                  -2.676
REMARK UNBOUND:                -2.290
REMARK SMILES CCCCCCCCCCCCCC[C@H](C)C(=O)[O-]
REMARK SMILES IDX 9 1 10 2 11 3 12 4 13 5 14 6 15 7 16 8 17 9 18 10 19 11 8 12
REMARK SMILES IDX 7 13 6 14 5 15 4 16 3 17 2 18 1 19
REMARK H PARENT
REMARK Flexibility Score: inf
ROOT
ATOM      1  C   UNL     1      -3.404  41.237  21.094  1.00  0.00     0.000 C 
ENDROOT
BRANCH   1   2
ATOM      2  C   UNL     1      -1.976  41.533  20.597  1.00  0.00     0.000 C 
BRANCH   2   3
ATOM      3  C   UNL     1      -1.099  42.273  21.631  1.00  0.00     0.000 C 
BRANCH   3   4
ATOM      4  C   UNL     1      -0.912  43.761  21.283  1.00  0.00     0.000 C 
BRANCH   4   5
ATOM      5  C   UNL     1      -1.994  44.658  21.905  1.00  0.00     0.001 C 
BRANCH   5   6
ATOM      6  C   UNL     1      -1.906  44.696  23.445  1.00  0.00     0.009 C 
BRANCH   6   7
ATOM      7  C   UNL     1      -3.274  44.758  24.158  1.00  0.00     0.032 C 
ATOM      8  C   UNL     1      -4.051  43.434  24.081  1.00  0.00     0.014 C 
BRANCH   7   9
ATOM      9  C   UNL     1      -4.099  45.924  23.678  1.00  0.00     0.044 C 
ATOM     10  O   UNL     1      -5.179  45.742  23.055  1.00  0.00    -0.550 OA
ATOM     11  O   UNL     1      -3.634  47.220  23.870  1.00  0.00    -0.550 OA
ENDBRANCH   7   9
ENDBRANCH   6   7
ENDBRANCH   5   6
ENDBRANCH   4   5
ENDBRANCH   3   4
ENDBRANCH   2   3
ENDBRANCH   1   2
BRANCH   1  12
ATOM     12  C   UNL     1      -4.532  41.763  20.185  1.00  0.00     0.000 C 
BRANCH  12  13
ATOM     13  C   UNL     1      -5.034  43.183  20.520  1.00  0.00    -0.000 C 
BRANCH  13  14
ATOM     14  C   UNL     1      -4.922  44.205  19.373  1.00  0.00    -0.000 C 
BRANCH  14  15
ATOM     15  C   UNL     1      -3.535  44.286  18.708  1.00  0.00    -0.000 C 
BRANCH  15  16
ATOM     16  C   UNL     1      -3.500  43.712  17.274  1.00  0.00    -0.000 C 
BRANCH  16  17
ATOM     17  C   UNL     1      -2.120  43.136  16.908  1.00  0.00    -0.000 C 
BRANCH  17  18
ATOM     18  C   UNL     1      -0.962  44.003  17.421  1.00  0.00    -0.003 C 
ATOM     19  C   UNL     1       0.212  43.174  17.945  1.00  0.00     0.004 C 
ENDBRANCH  17  18
ENDBRANCH  16  17
ENDBRANCH  15  16
ENDBRANCH  14  15
ENDBRANCH  13  14
ENDBRANCH  12  13
ENDBRANCH   1  12
TORSDOF 14
ENDMDL
MODEL 9
REMARK VINA RESULT:    -4.097      2.350      5.443
REMARK INTER + INTRA:          -9.740
REMARK INTER:                  -7.069
REMARK INTRA:                  -2.671
REMARK UNBOUND:                -2.290
REMARK SMILES CCCCCCCCCCCCCC[C@H](C)C(=O)[O-]
REMARK SMILES IDX 9 1 10 2 11 3 12 4 13 5 14 6 15 7 16 8 17 9 18 10 19 11 8 12
REMARK SMILES IDX 7 13 6 14 5 15 4 16 3 17 2 18 1 19
REMARK H PARENT
REMARK Flexibility Score: inf
ROOT
ATOM      1  C   UNL     1      -5.347  42.138  20.912  1.00  0.00     0.000 C 
ENDROOT
BRANCH   1   2
ATOM      2  C   UNL     1      -5.481  43.653  20.657  1.00  0.00     0.000 C 
BRANCH   2   3
ATOM      3  C   UNL     1      -4.519  44.188  19.574  1.00  0.00     0.000 C 
BRANCH   3   4
ATOM      4  C   UNL     1      -3.594  45.297  20.107  1.00  0.00     0.000 C 
BRANCH   4   5
ATOM      5  C   UNL     1      -3.456  45.270  21.638  1.00  0.00     0.001 C 
BRANCH   5   6
ATOM      6  C   UNL     1      -2.120  44.648  22.092  1.00  0.00     0.009 C 
BRANCH   6   7
ATOM      7  C   UNL     1      -1.913  44.633  23.622  1.00  0.00     0.032 C 
ATOM      8  C   UNL     1      -0.591  43.967  24.041  1.00  0.00     0.014 C 
BRANCH   7   9
ATOM      9  C   UNL     1      -3.096  44.035  24.338  1.00  0.00     0.044 C 
ATOM     10  O   UNL     1      -3.705  44.679  25.233  1.00  0.00    -0.550 OA
ATOM     11  O   UNL     1      -3.487  42.733  24.049  1.00  0.00    -0.550 OA
ENDBRANCH   7   9
ENDBRANCH   6   7
ENDBRANCH   5   6
ENDBRANCH   4   5
ENDBRANCH   3   4
ENDBRANCH   2   3
ENDBRANCH   1   2
BRANCH   1  12
ATOM     12  C   UNL     1      -4.958  41.303  19.677  1.00  0.00     0.000 C 
BRANCH  12  13
ATOM     13  C   UNL     1      -3.534  40.707  19.711  1.00  0.00    -0.000 C 
BRANCH  13  14
ATOM     14  C   UNL     1      -2.724  41.022  20.983  1.00  0.00    -0.000 C 
BRANCH  14  15
ATOM     15  C   UNL     1      -1.300  41.553  20.730  1.00  0.00    -0.000 C 
BRANCH  15  16
ATOM     16  C   UNL     1      -1.031  41.933  19.257  1.00  0.00    -0.000 C 
BRANCH  16  17
ATOM     17  C   UNL     1      -0.581  43.396  19.102  1.00  0.00    -0.000 C 
BRANCH  17  18
ATOM     18  C   UNL     1      -0.991  44.001  17.752  1.00  0.00    -0.003 C 
ATOM     19  C   UNL     1      -2.118  43.222  17.072  1.00  0.00     0.004 C 
ENDBRANCH  17  18
ENDBRANCH  16  17
ENDBRANCH  15  16
ENDBRANCH  14  15
ENDBRANCH  13  14
ENDBRANCH  12  13
ENDBRANCH   1  12
TORSDOF 14
ENDMDL
