MODEL 1
REMARK VINA RESULT:    -4.001      0.000      0.000
REMARK INTER + INTRA:          -4.606
REMARK INTER:                  -4.352
REMARK INTRA:                  -0.254
REMARK UNBOUND:                -0.254
REMARK SMILES O=C([O-])c1ccccc1O
REMARK SMILES IDX 4 1 9 2 5 3 8 4 6 5 7 6 2 7 1 8 3 9 10 10
REMARK H PARENT 10 11
REMARK Flexibility Score: inf
ROOT
ATOM      1  C   UNL     1      34.275 -42.120  -4.184  1.00  0.00     0.039 A 
ATOM      2  C   UNL     1      32.920 -41.708  -4.172  1.00  0.00     0.124 A 
ATOM      3  C   UNL     1      34.566 -43.498  -4.123  1.00  0.00     0.014 A 
ATOM      4  C   UNL     1      31.898 -42.667  -4.101  1.00  0.00     0.047 A 
ATOM      5  C   UNL     1      33.538 -44.441  -4.052  1.00  0.00     0.001 A 
ATOM      6  C   UNL     1      32.207 -44.026  -4.042  1.00  0.00     0.004 A 
ENDROOT
BRANCH   1   7
ATOM      7  C   UNL     1      35.389 -41.139  -4.256  1.00  0.00     0.075 C 
ATOM      8  O   UNL     1      36.314 -41.288  -5.099  1.00  0.00    -0.545 OA
ATOM      9  O   UNL     1      35.436 -40.042  -3.405  1.00  0.00    -0.545 OA
ENDBRANCH   1   7
BRANCH   2  10
ATOM     10  O   UNL     1      32.584 -40.355  -4.231  1.00  0.00    -0.507 OA
ATOM     11  H   UNL     1      33.273 -39.645  -4.448  1.00  0.00     0.293 HD
ENDBRANCH   2  10
TORSDOF 2
ENDMDL
MODEL 2
REMARK VINA RESULT:    -3.850     16.943     17.408
REMARK INTER + INTRA:          -4.441
REMARK INTER:                  -4.191
REMARK INTRA:                  -0.250
REMARK UNBOUND:                -0.254
REMARK SMILES O=C([O-])c1ccccc1O
REMARK SMILES IDX 4 1 9 2 5 3 8 4 6 5 7 6 2 7 1 8 3 9 10 10
REMARK H PARENT 10 11
REMARK Flexibility Score: inf
ROOT
ATOM      1  C   UNL     1      34.647 -38.690  12.375  1.00  0.00     0.039 A 
ATOM      2  C   UNL     1      35.195 -38.402  13.648  1.00  0.00     0.124 A 
ATOM      3  C   UNL     1      34.592 -40.032  11.948  1.00  0.00     0.014 A 
ATOM      4  C   UNL     1      35.670 -39.445  14.457  1.00  0.00     0.047 A 
ATOM      5  C   UNL     1      35.068 -41.060  12.764  1.00  0.00     0.001 A 
ATOM      6  C   UNL     1      35.606 -40.767  14.017  1.00  0.00     0.004 A 
ENDROOT
BRANCH   1   7
ATOM      7  C   UNL     1      34.133 -37.616  11.485  1.00  0.00     0.075 C 
ATOM      8  O   UNL     1      33.290 -36.785  11.912  1.00  0.00    -0.545 OA
ATOM      9  O   UNL     1      34.570 -37.505  10.170  1.00  0.00    -0.545 OA
ENDBRANCH   1   7
BRANCH   2  10
ATOM     10  O   UNL     1      35.271 -37.089  14.113  1.00  0.00    -0.507 OA
ATOM     11  H   UNL     1      36.160 -36.637  14.291  1.00  0.00     0.293 HD
ENDBRANCH   2  10
TORSDOF 2
ENDMDL
MODEL 3
REMARK VINA RESULT:    -3.731     17.345     17.852
REMARK INTER + INTRA:          -4.312
REMARK INTER:                  -4.085
REMARK INTRA:                  -0.227
REMARK UNBOUND:                -0.254
REMARK SMILES O=C([O-])c1ccccc1O
REMARK SMILES IDX 4 1 9 2 5 3 8 4 6 5 7 6 2 7 1 8 3 9 10 10
REMARK H PARENT 10 11
REMARK Flexibility Score: inf
ROOT
ATOM      1  C   UNL     1      35.051 -39.296  13.150  1.00  0.00     0.039 A 
ATOM      2  C   UNL     1      34.895 -37.923  13.462  1.00  0.00     0.124 A 
ATOM      3  C   UNL     1      34.777 -39.728  11.836  1.00  0.00     0.014 A 
ATOM      4  C   UNL     1      34.475 -37.024  12.470  1.00  0.00     0.047 A 
ATOM      5  C   UNL     1      34.360 -38.821  10.860  1.00  0.00     0.001 A 
ATOM      6  C   UNL     1      34.210 -37.471  11.176  1.00  0.00     0.004 A 
ENDROOT
BRANCH   1   7
ATOM      7  C   UNL     1      35.492 -40.283  14.168  1.00  0.00     0.075 C 
ATOM      8  O   UNL     1      36.635 -40.193  14.689  1.00  0.00    -0.545 OA
ATOM      9  O   UNL     1      34.659 -41.321  14.570  1.00  0.00    -0.545 OA
ENDBRANCH   1   7
BRANCH   2  10
ATOM     10  O   UNL     1      35.154 -37.450  14.748  1.00  0.00    -0.507 OA
ATOM     11  H   UNL     1      34.714 -36.610  15.105  1.00  0.00     0.293 HD
ENDBRANCH   2  10
TORSDOF 2
ENDMDL
MODEL 4
REMARK VINA RESULT:    -3.432      1.794      3.547
REMARK INTER + INTRA:          -3.986
REMARK INTER:                  -3.780
REMARK INTRA:                  -0.206
REMARK UNBOUND:                -0.254
REMARK SMILES O=C([O-])c1ccccc1O
REMARK SMILES IDX 4 1 9 2 5 3 8 4 6 5 7 6 2 7 1 8 3 9 10 10
REMARK H PARENT 10 11
REMARK Flexibility Score: inf
ROOT
ATOM      1  C   UNL     1      33.058 -42.870  -3.872  1.00  0.00     0.039 A 
ATOM      2  C   UNL     1      33.493 -41.551  -4.145  1.00  0.00     0.124 A 
ATOM      3  C   UNL     1      34.018 -43.900  -3.802  1.00  0.00     0.014 A 
ATOM      4  C   UNL     1      34.858 -41.290  -4.338  1.00  0.00     0.047 A 
ATOM      5  C   UNL     1      35.374 -43.626  -3.996  1.00  0.00     0.001 A 
ATOM      6  C   UNL     1      35.793 -42.323  -4.263  1.00  0.00     0.004 A 
ENDROOT
BRANCH   1   7
ATOM      7  C   UNL     1      31.623 -43.192  -3.663  1.00  0.00     0.075 C 
ATOM      8  O   UNL     1      31.022 -42.779  -2.636  1.00  0.00    -0.545 OA
ATOM      9  O   UNL     1      30.914 -43.949  -4.588  1.00  0.00    -0.545 OA
ENDBRANCH   1   7
BRANCH   2  10
ATOM     10  O   UNL     1      32.580 -40.500  -4.225  1.00  0.00    -0.507 OA
ATOM     11  H   UNL     1      31.676 -40.613  -4.668  1.00  0.00     0.293 HD
ENDBRANCH   2  10
TORSDOF 2
ENDMDL
MODEL 5
REMARK VINA RESULT:    -3.402      6.954      8.311
REMARK INTER + INTRA:          -3.954
REMARK INTER:                  -3.703
REMARK INTRA:                  -0.251
REMARK UNBOUND:                -0.254
REMARK SMILES O=C([O-])c1ccccc1O
REMARK SMILES IDX 4 1 9 2 5 3 8 4 6 5 7 6 2 7 1 8 3 9 10 10
REMARK H PARENT 10 11
REMARK Flexibility Score: inf
ROOT
ATOM      1  C   UNL     1      40.591 -37.665  -3.499  1.00  0.00     0.039 A 
ATOM      2  C   UNL     1      39.180 -37.769  -3.553  1.00  0.00     0.124 A 
ATOM      3  C   UNL     1      41.169 -36.708  -2.641  1.00  0.00     0.014 A 
ATOM      4  C   UNL     1      38.386 -36.928  -2.759  1.00  0.00     0.047 A 
ATOM      5  C   UNL     1      40.366 -35.878  -1.856  1.00  0.00     0.001 A 
ATOM      6  C   UNL     1      38.977 -35.987  -1.914  1.00  0.00     0.004 A 
ENDROOT
BRANCH   1   7
ATOM      7  C   UNL     1      41.471 -38.534  -4.324  1.00  0.00     0.075 C 
ATOM      8  O   UNL     1      41.321 -39.785  -4.311  1.00  0.00    -0.545 OA
ATOM      9  O   UNL     1      42.470 -37.992  -5.124  1.00  0.00    -0.545 OA
ENDBRANCH   1   7
BRANCH   2  10
ATOM     10  O   UNL     1      38.564 -38.701  -4.388  1.00  0.00    -0.507 OA
ATOM     11  H   UNL     1      39.074 -39.179  -5.120  1.00  0.00     0.293 HD
ENDBRANCH   2  10
TORSDOF 2
ENDMDL
MODEL 6
REMARK VINA RESULT:    -3.348      2.474      3.548
REMARK INTER + INTRA:          -3.896
REMARK INTER:                  -3.662
REMARK INTRA:                  -0.234
REMARK UNBOUND:                -0.254
REMARK SMILES O=C([O-])c1ccccc1O
REMARK SMILES IDX 4 1 9 2 5 3 8 4 6 5 7 6 2 7 1 8 3 9 10 10
REMARK H PARENT 10 11
REMARK Flexibility Score: inf
ROOT
ATOM      1  C   UNL     1      33.905 -40.846  -2.324  1.00  0.00     0.039 A 
ATOM      2  C   UNL     1      33.665 -40.982  -3.713  1.00  0.00     0.124 A 
ATOM      3  C   UNL     1      35.164 -41.224  -1.814  1.00  0.00     0.014 A 
ATOM      4  C   UNL     1      34.672 -41.483  -4.552  1.00  0.00     0.047 A 
ATOM      5  C   UNL     1      36.157 -41.721  -2.660  1.00  0.00     0.001 A 
ATOM      6  C   UNL     1      35.911 -41.850  -4.027  1.00  0.00     0.004 A 
ENDROOT
BRANCH   1   7
ATOM      7  C   UNL     1      32.868 -40.322  -1.399  1.00  0.00     0.075 C 
ATOM      8  O   UNL     1      31.777 -40.935  -1.253  1.00  0.00    -0.545 OA
ATOM      9  O   UNL     1      33.075 -39.152  -0.677  1.00  0.00    -0.545 OA
ENDBRANCH   1   7
BRANCH   2  10
ATOM     10  O   UNL     1      32.435 -40.622  -4.263  1.00  0.00    -0.507 OA
ATOM     11  H   UNL     1      31.773 -41.316  -4.587  1.00  0.00     0.293 HD
ENDBRANCH   2  10
TORSDOF 2
ENDMDL
MODEL 7
REMARK VINA RESULT:    -3.320      1.872      3.895
REMARK INTER + INTRA:          -3.865
REMARK INTER:                  -3.610
REMARK INTRA:                  -0.255
REMARK UNBOUND:                -0.254
REMARK SMILES O=C([O-])c1ccccc1O
REMARK SMILES IDX 4 1 9 2 5 3 8 4 6 5 7 6 2 7 1 8 3 9 10 10
REMARK H PARENT 10 11
REMARK Flexibility Score: inf
ROOT
ATOM      1  C   UNL     1      34.990 -41.265  -4.186  1.00  0.00     0.039 A 
ATOM      2  C   UNL     1      35.175 -40.231  -3.236  1.00  0.00     0.124 A 
ATOM      3  C   UNL     1      36.037 -41.556  -5.084  1.00  0.00     0.014 A 
ATOM      4  C   UNL     1      36.384 -39.521  -3.203  1.00  0.00     0.047 A 
ATOM      5  C   UNL     1      37.235 -40.840  -5.039  1.00  0.00     0.001 A 
ATOM      6  C   UNL     1      37.409 -39.824  -4.100  1.00  0.00     0.004 A 
ENDROOT
BRANCH   1   7
ATOM      7  C   UNL     1      33.726 -42.043  -4.258  1.00  0.00     0.075 C 
ATOM      8  O   UNL     1      33.756 -43.300  -4.328  1.00  0.00    -0.545 OA
ATOM      9  O   UNL     1      32.490 -41.407  -4.249  1.00  0.00    -0.545 OA
ENDBRANCH   1   7
BRANCH   2  10
ATOM     10  O   UNL     1      34.168 -39.908  -2.327  1.00  0.00    -0.507 OA
ATOM     11  H   UNL     1      33.619 -40.622  -1.865  1.00  0.00     0.293 HD
ENDBRANCH   2  10
TORSDOF 2
ENDMDL
MODEL 8
REMARK VINA RESULT:    -3.314      7.477      9.080
REMARK INTER + INTRA:          -3.858
REMARK INTER:                  -3.631
REMARK INTRA:                  -0.228
REMARK UNBOUND:                -0.254
REMARK SMILES O=C([O-])c1ccccc1O
REMARK SMILES IDX 4 1 9 2 5 3 8 4 6 5 7 6 2 7 1 8 3 9 10 10
REMARK H PARENT 10 11
REMARK Flexibility Score: inf
ROOT
ATOM      1  C   UNL     1      41.290 -36.923  -2.911  1.00  0.00     0.039 A 
ATOM      2  C   UNL     1      40.461 -37.743  -3.716  1.00  0.00     0.124 A 
ATOM      3  C   UNL     1      40.685 -36.008  -2.026  1.00  0.00     0.014 A 
ATOM      4  C   UNL     1      39.065 -37.634  -3.620  1.00  0.00     0.047 A 
ATOM      5  C   UNL     1      39.294 -35.911  -1.942  1.00  0.00     0.001 A 
ATOM      6  C   UNL     1      38.486 -36.722  -2.737  1.00  0.00     0.004 A 
ENDROOT
BRANCH   1   7
ATOM      7  C   UNL     1      42.772 -37.004  -2.981  1.00  0.00     0.075 C 
ATOM      8  O   UNL     1      43.338 -38.105  -3.214  1.00  0.00    -0.545 OA
ATOM      9  O   UNL     1      43.562 -35.876  -2.792  1.00  0.00    -0.545 OA
ENDBRANCH   1   7
BRANCH   2  10
ATOM     10  O   UNL     1      41.014 -38.663  -4.606  1.00  0.00    -0.507 OA
ATOM     11  H   UNL     1      41.444 -39.522  -4.285  1.00  0.00     0.293 HD
ENDBRANCH   2  10
TORSDOF 2
ENDMDL
MODEL 9
REMARK VINA RESULT:    -3.150      6.570      9.053
REMARK INTER + INTRA:          -3.680
REMARK INTER:                  -3.434
REMARK INTRA:                  -0.246
REMARK UNBOUND:                -0.254
REMARK SMILES O=C([O-])c1ccccc1O
REMARK SMILES IDX 4 1 9 2 5 3 8 4 6 5 7 6 2 7 1 8 3 9 10 10
REMARK H PARENT 10 11
REMARK Flexibility Score: inf
ROOT
ATOM      1  C   UNL     1      40.422 -37.771  -3.294  1.00  0.00     0.039 A 
ATOM      2  C   UNL     1      41.553 -37.948  -4.128  1.00  0.00     0.124 A 
ATOM      3  C   UNL     1      40.432 -36.724  -2.350  1.00  0.00     0.014 A 
ATOM      4  C   UNL     1      42.654 -37.087  -4.004  1.00  0.00     0.047 A 
ATOM      5  C   UNL     1      41.535 -35.876  -2.238  1.00  0.00     0.001 A 
ATOM      6  C   UNL     1      42.644 -36.056  -3.063  1.00  0.00     0.004 A 
ENDROOT
BRANCH   1   7
ATOM      7  C   UNL     1      39.235 -38.659  -3.390  1.00  0.00     0.075 C 
ATOM      8  O   UNL     1      39.380 -39.905  -3.508  1.00  0.00    -0.545 OA
ATOM      9  O   UNL     1      37.945 -38.141  -3.351  1.00  0.00    -0.545 OA
ENDBRANCH   1   7
BRANCH   2  10
ATOM     10  O   UNL     1      41.589 -38.970  -5.076  1.00  0.00    -0.507 OA
ATOM     11  H   UNL     1      41.144 -39.864  -4.912  1.00  0.00     0.293 HD
ENDBRANCH   2  10
TORSDOF 2
ENDMDL
