MODEL 1
REMARK VINA RESULT:    -6.650      0.000      0.000
REMARK INTER + INTRA:          -7.300
REMARK INTER:                  -7.039
REMARK INTRA:                  -0.260
REMARK UNBOUND:                -0.260
REMARK SMILES O=c1cc(-c2ccccc2)oc2ccccc12
REMARK SMILES IDX 4 1 3 2 2 3 1 4 17 5 16 6 15 7 14 8 13 9 12 10 11 11 5 12
REMARK SMILES IDX 8 13 7 14 9 15 6 16 10 17
REMARK H PARENT
REMARK Flexibility Score: inf
ROOT
ATOM      1  C   UNL     1      -8.438 -25.454  -2.022  1.00  0.00     0.138 A 
ATOM      2  C   UNL     1      -9.496 -26.353  -2.271  1.00  0.00     0.100 A 
ATOM      3  C   UNL     1      -9.217 -27.616  -2.797  1.00  0.00     0.193 A 
ATOM      4  O   UNL     1     -10.163 -28.420  -3.019  1.00  0.00    -0.289 OA
ATOM      5  C   UNL     1      -7.889 -27.972  -3.070  1.00  0.00     0.065 A 
ATOM      6  C   UNL     1      -7.539 -29.228  -3.600  1.00  0.00     0.016 A 
ATOM      7  C   UNL     1      -6.198 -29.531  -3.853  1.00  0.00     0.001 A 
ATOM      8  C   UNL     1      -5.200 -28.590  -3.582  1.00  0.00     0.004 A 
ATOM      9  C   UNL     1      -5.539 -27.340  -3.055  1.00  0.00     0.048 A 
ATOM     10  C   UNL     1      -6.878 -27.026  -2.797  1.00  0.00     0.138 A 
ATOM     11  O   UNL     1      -7.190 -25.835  -2.297  1.00  0.00    -0.456 OA
ENDROOT
BRANCH   1  12
ATOM     12  C   UNL     1      -8.649 -24.084  -1.460  1.00  0.00     0.017 A 
ATOM     13  C   UNL     1      -9.134 -21.529  -0.363  1.00  0.00     0.000 A 
ATOM     14  C   UNL     1      -7.957 -21.773  -1.071  1.00  0.00     0.001 A 
ATOM     15  C   UNL     1     -10.070 -22.549  -0.198  1.00  0.00     0.001 A 
ATOM     16  C   UNL     1      -7.712 -23.037  -1.616  1.00  0.00     0.012 A 
ATOM     17  C   UNL     1      -9.832 -23.814  -0.740  1.00  0.00     0.012 A 
ENDBRANCH   1  12
TORSDOF 1
ENDMDL
MODEL 2
REMARK VINA RESULT:    -6.596     11.064     12.686
REMARK INTER + INTRA:          -7.242
REMARK INTER:                  -7.021
REMARK INTRA:                  -0.221
REMARK UNBOUND:                -0.260
REMARK SMILES O=c1cc(-c2ccccc2)oc2ccccc12
REMARK SMILES IDX 4 1 3 2 2 3 1 4 17 5 16 6 15 7 14 8 13 9 12 10 11 11 5 12
REMARK SMILES IDX 8 13 7 14 9 15 6 16 10 17
REMARK H PARENT
REMARK Flexibility Score: inf
ROOT
ATOM      1  C   UNL     1       2.254 -18.692  -4.496  1.00  0.00     0.138 A 
ATOM      2  C   UNL     1       3.166 -18.595  -5.567  1.00  0.00     0.100 A 
ATOM      3  C   UNL     1       3.085 -19.503  -6.624  1.00  0.00     0.193 A 
ATOM      4  O   UNL     1       3.900 -19.417  -7.583  1.00  0.00    -0.289 OA
ATOM      5  C   UNL     1       2.097 -20.499  -6.605  1.00  0.00     0.065 A 
ATOM      6  C   UNL     1       1.961 -21.445  -7.638  1.00  0.00     0.016 A 
ATOM      7  C   UNL     1       0.958 -22.416  -7.568  1.00  0.00     0.001 A 
ATOM      8  C   UNL     1       0.088 -22.452  -6.474  1.00  0.00     0.004 A 
ATOM      9  C   UNL     1       0.216 -21.516  -5.444  1.00  0.00     0.048 A 
ATOM     10  C   UNL     1       1.217 -20.539  -5.503  1.00  0.00     0.138 A 
ATOM     11  O   UNL     1       1.331 -19.654  -4.519  1.00  0.00    -0.456 OA
ENDROOT
BRANCH   1  12
ATOM     12  C   UNL     1       2.271 -17.759  -3.325  1.00  0.00     0.017 A 
ATOM     13  C   UNL     1       2.235 -15.946  -1.163  1.00  0.00     0.000 A 
ATOM     14  C   UNL     1       3.082 -17.054  -1.131  1.00  0.00     0.001 A 
ATOM     15  C   UNL     1       1.406 -15.737  -2.263  1.00  0.00     0.001 A 
ATOM     16  C   UNL     1       3.104 -17.956  -2.200  1.00  0.00     0.012 A 
ATOM     17  C   UNL     1       1.422 -16.632  -3.336  1.00  0.00     0.012 A 
ENDBRANCH   1  12
TORSDOF 1
ENDMDL
MODEL 3
REMARK VINA RESULT:    -6.504     11.127     13.806
REMARK INTER + INTRA:          -7.145
REMARK INTER:                  -6.923
REMARK INTRA:                  -0.221
REMARK UNBOUND:                -0.260
REMARK SMILES O=c1cc(-c2ccccc2)oc2ccccc12
REMARK SMILES IDX 4 1 3 2 2 3 1 4 17 5 16 6 15 7 14 8 13 9 12 10 11 11 5 12
REMARK SMILES IDX 8 13 7 14 9 15 6 16 10 17
REMARK H PARENT
REMARK Flexibility Score: inf
ROOT
ATOM      1  C   UNL     1       2.176 -19.501  -4.608  1.00  0.00     0.138 A 
ATOM      2  C   UNL     1       3.374 -19.723  -3.898  1.00  0.00     0.100 A 
ATOM      3  C   UNL     1       3.732 -18.858  -2.863  1.00  0.00     0.193 A 
ATOM      4  O   UNL     1       4.803 -19.056  -2.227  1.00  0.00    -0.289 OA
ATOM      5  C   UNL     1       2.893 -17.780  -2.544  1.00  0.00     0.065 A 
ATOM      6  C   UNL     1       3.195 -16.870  -1.513  1.00  0.00     0.016 A 
ATOM      7  C   UNL     1       2.323 -15.812  -1.237  1.00  0.00     0.001 A 
ATOM      8  C   UNL     1       1.151 -15.653  -1.982  1.00  0.00     0.004 A 
ATOM      9  C   UNL     1       0.844 -16.552  -3.008  1.00  0.00     0.048 A 
ATOM     10  C   UNL     1       1.709 -17.615  -3.293  1.00  0.00     0.138 A 
ATOM     11  O   UNL     1       1.409 -18.463  -4.270  1.00  0.00    -0.456 OA
ENDROOT
BRANCH   1  12
ATOM     12  C   UNL     1       1.719 -20.380  -5.730  1.00  0.00     0.017 A 
ATOM     13  C   UNL     1       0.919 -21.990  -7.905  1.00  0.00     0.000 A 
ATOM     14  C   UNL     1       0.355 -22.189  -6.645  1.00  0.00     0.001 A 
ATOM     15  C   UNL     1       1.879 -20.996  -8.088  1.00  0.00     0.001 A 
ATOM     16  C   UNL     1       0.748 -21.394  -5.563  1.00  0.00     0.012 A 
ATOM     17  C   UNL     1       2.276 -20.197  -7.013  1.00  0.00     0.012 A 
ENDBRANCH   1  12
TORSDOF 1
ENDMDL
MODEL 4
REMARK VINA RESULT:    -6.471     12.167     14.357
REMARK INTER + INTRA:          -7.110
REMARK INTER:                  -6.889
REMARK INTRA:                  -0.221
REMARK UNBOUND:                -0.260
REMARK SMILES O=c1cc(-c2ccccc2)oc2ccccc12
REMARK SMILES IDX 4 1 3 2 2 3 1 4 17 5 16 6 15 7 14 8 13 9 12 10 11 11 5 12
REMARK SMILES IDX 8 13 7 14 9 15 6 16 10 17
REMARK H PARENT
REMARK Flexibility Score: inf
ROOT
ATOM      1  C   UNL     1       4.056 -20.891  -6.539  1.00  0.00     0.138 A 
ATOM      2  C   UNL     1       2.878 -21.243  -7.230  1.00  0.00     0.100 A 
ATOM      3  C   UNL     1       1.648 -21.170  -6.574  1.00  0.00     0.193 A 
ATOM      4  O   UNL     1       0.593 -21.484  -7.191  1.00  0.00    -0.289 OA
ATOM      5  C   UNL     1       1.602 -20.749  -5.237  1.00  0.00     0.065 A 
ATOM      6  C   UNL     1       0.396 -20.654  -4.517  1.00  0.00     0.016 A 
ATOM      7  C   UNL     1       0.409 -20.227  -3.186  1.00  0.00     0.001 A 
ATOM      8  C   UNL     1       1.616 -19.895  -2.564  1.00  0.00     0.004 A 
ATOM      9  C   UNL     1       2.818 -19.986  -3.272  1.00  0.00     0.048 A 
ATOM     10  C   UNL     1       2.818 -20.412  -4.605  1.00  0.00     0.138 A 
ATOM     11  O   UNL     1       3.966 -20.495  -5.269  1.00  0.00    -0.456 OA
ENDROOT
BRANCH   1  12
ATOM     12  C   UNL     1       5.413 -20.940  -7.168  1.00  0.00     0.017 A 
ATOM     13  C   UNL     1       7.979 -21.128  -8.329  1.00  0.00     0.000 A 
ATOM     14  C   UNL     1       7.284 -19.919  -8.363  1.00  0.00     0.001 A 
ATOM     15  C   UNL     1       7.405 -22.243  -7.721  1.00  0.00     0.001 A 
ATOM     16  C   UNL     1       6.011 -19.820  -7.790  1.00  0.00     0.012 A 
ATOM     17  C   UNL     1       6.135 -22.152  -7.145  1.00  0.00     0.012 A 
ENDBRANCH   1  12
TORSDOF 1
ENDMDL
MODEL 5
REMARK VINA RESULT:    -6.293      1.176      5.817
REMARK INTER + INTRA:          -6.921
REMARK INTER:                  -6.668
REMARK INTRA:                  -0.253
REMARK UNBOUND:                -0.260
REMARK SMILES O=c1cc(-c2ccccc2)oc2ccccc12
REMARK SMILES IDX 4 1 3 2 2 3 1 4 17 5 16 6 15 7 14 8 13 9 12 10 11 11 5 12
REMARK SMILES IDX 8 13 7 14 9 15 6 16 10 17
REMARK H PARENT
REMARK Flexibility Score: inf
ROOT
ATOM      1  C   UNL     1      -8.063 -26.246  -2.118  1.00  0.00     0.138 A 
ATOM      2  C   UNL     1      -9.306 -26.440  -1.480  1.00  0.00     0.100 A 
ATOM      3  C   UNL     1      -9.952 -25.353  -0.887  1.00  0.00     0.193 A 
ATOM      4  O   UNL     1     -11.064 -25.526  -0.317  1.00  0.00    -0.289 OA
ATOM      5  C   UNL     1      -9.355 -24.085  -0.935  1.00  0.00     0.065 A 
ATOM      6  C   UNL     1      -9.953 -22.949  -0.357  1.00  0.00     0.016 A 
ATOM      7  C   UNL     1      -9.313 -21.708  -0.435  1.00  0.00     0.001 A 
ATOM      8  C   UNL     1      -8.080 -21.590  -1.084  1.00  0.00     0.004 A 
ATOM      9  C   UNL     1      -7.480 -22.713  -1.660  1.00  0.00     0.048 A 
ATOM     10  C   UNL     1      -8.111 -23.961  -1.589  1.00  0.00     0.138 A 
ATOM     11  O   UNL     1      -7.533 -25.023  -2.140  1.00  0.00    -0.456 OA
ENDROOT
BRANCH   1  12
ATOM     12  C   UNL     1      -7.305 -27.355  -2.778  1.00  0.00     0.017 A 
ATOM     13  C   UNL     1      -5.962 -29.487  -4.049  1.00  0.00     0.000 A 
ATOM     14  C   UNL     1      -5.233 -28.477  -3.423  1.00  0.00     0.001 A 
ATOM     15  C   UNL     1      -7.355 -29.442  -4.047  1.00  0.00     0.001 A 
ATOM     16  C   UNL     1      -5.893 -27.417  -2.792  1.00  0.00     0.012 A 
ATOM     17  C   UNL     1      -8.023 -28.388  -3.418  1.00  0.00     0.012 A 
ENDBRANCH   1  12
TORSDOF 1
ENDMDL
MODEL 6
REMARK VINA RESULT:    -6.273      1.251      6.189
REMARK INTER + INTRA:          -6.900
REMARK INTER:                  -6.643
REMARK INTRA:                  -0.257
REMARK UNBOUND:                -0.260
REMARK SMILES O=c1cc(-c2ccccc2)oc2ccccc12
REMARK SMILES IDX 4 1 3 2 2 3 1 4 17 5 16 6 15 7 14 8 13 9 12 10 11 11 5 12
REMARK SMILES IDX 8 13 7 14 9 15 6 16 10 17
REMARK H PARENT
REMARK Flexibility Score: inf
ROOT
ATOM      1  C   UNL     1      -7.662 -25.820  -2.372  1.00  0.00     0.138 A 
ATOM      2  C   UNL     1      -6.991 -24.596  -2.570  1.00  0.00     0.100 A 
ATOM      3  C   UNL     1      -7.521 -23.424  -2.026  1.00  0.00     0.193 A 
ATOM      4  O   UNL     1      -6.921 -22.329  -2.203  1.00  0.00    -0.289 OA
ATOM      5  C   UNL     1      -8.714 -23.483  -1.291  1.00  0.00     0.065 A 
ATOM      6  C   UNL     1      -9.302 -22.340  -0.718  1.00  0.00     0.016 A 
ATOM      7  C   UNL     1     -10.493 -22.456   0.006  1.00  0.00     0.001 A 
ATOM      8  C   UNL     1     -11.104 -23.704   0.162  1.00  0.00     0.004 A 
ATOM      9  C   UNL     1     -10.526 -24.843  -0.405  1.00  0.00     0.048 A 
ATOM     10  C   UNL     1      -9.334 -24.740  -1.131  1.00  0.00     0.138 A 
ATOM     11  O   UNL     1      -8.793 -25.829  -1.666  1.00  0.00    -0.456 OA
ENDROOT
BRANCH   1  12
ATOM     12  C   UNL     1      -7.161 -27.120  -2.919  1.00  0.00     0.017 A 
ATOM     13  C   UNL     1      -6.312 -29.604  -3.955  1.00  0.00     0.000 A 
ATOM     14  C   UNL     1      -5.375 -28.615  -3.656  1.00  0.00     0.001 A 
ATOM     15  C   UNL     1      -7.668 -29.364  -3.741  1.00  0.00     0.001 A 
ATOM     16  C   UNL     1      -5.790 -27.382  -3.143  1.00  0.00     0.012 A 
ATOM     17  C   UNL     1      -8.091 -28.135  -3.228  1.00  0.00     0.012 A 
ENDBRANCH   1  12
TORSDOF 1
ENDMDL
MODEL 7
REMARK VINA RESULT:    -6.252      1.178      2.609
REMARK INTER + INTRA:          -6.878
REMARK INTER:                  -6.612
REMARK INTRA:                  -0.266
REMARK UNBOUND:                -0.260
REMARK SMILES O=c1cc(-c2ccccc2)oc2ccccc12
REMARK SMILES IDX 4 1 3 2 2 3 1 4 17 5 16 6 15 7 14 8 13 9 12 10 11 11 5 12
REMARK SMILES IDX 8 13 7 14 9 15 6 16 10 17
REMARK H PARENT
REMARK Flexibility Score: inf
ROOT
ATOM      1  C   UNL     1      -7.818 -25.732  -2.111  1.00  0.00     0.138 A 
ATOM      2  C   UNL     1      -6.501 -25.699  -2.612  1.00  0.00     0.100 A 
ATOM      3  C   UNL     1      -5.939 -26.858  -3.151  1.00  0.00     0.193 A 
ATOM      4  O   UNL     1      -4.761 -26.829  -3.600  1.00  0.00    -0.289 OA
ATOM      5  C   UNL     1      -6.695 -28.039  -3.186  1.00  0.00     0.065 A 
ATOM      6  C   UNL     1      -6.190 -29.242  -3.716  1.00  0.00     0.016 A 
ATOM      7  C   UNL     1      -6.987 -30.390  -3.726  1.00  0.00     0.001 A 
ATOM      8  C   UNL     1      -8.287 -30.350  -3.211  1.00  0.00     0.004 A 
ATOM      9  C   UNL     1      -8.796 -29.160  -2.684  1.00  0.00     0.048 A 
ATOM     10  C   UNL     1      -8.007 -28.003  -2.669  1.00  0.00     0.138 A 
ATOM     11  O   UNL     1      -8.501 -26.877  -2.165  1.00  0.00    -0.456 OA
ENDROOT
BRANCH   1  12
ATOM     12  C   UNL     1      -8.494 -24.536  -1.518  1.00  0.00     0.017 A 
ATOM     13  C   UNL     1      -9.692 -22.225  -0.427  1.00  0.00     0.000 A 
ATOM     14  C   UNL     1     -10.353 -23.452  -0.360  1.00  0.00     0.001 A 
ATOM     15  C   UNL     1      -8.440 -22.142  -1.034  1.00  0.00     0.001 A 
ATOM     16  C   UNL     1      -9.764 -24.600  -0.900  1.00  0.00     0.012 A 
ATOM     17  C   UNL     1      -7.844 -23.285  -1.574  1.00  0.00     0.012 A 
ENDBRANCH   1  12
TORSDOF 1
ENDMDL
MODEL 8
REMARK VINA RESULT:    -6.229     11.392     13.955
REMARK INTER + INTRA:          -6.854
REMARK INTER:                  -6.601
REMARK INTRA:                  -0.253
REMARK UNBOUND:                -0.260
REMARK SMILES O=c1cc(-c2ccccc2)oc2ccccc12
REMARK SMILES IDX 4 1 3 2 2 3 1 4 17 5 16 6 15 7 14 8 13 9 12 10 11 11 5 12
REMARK SMILES IDX 8 13 7 14 9 15 6 16 10 17
REMARK H PARENT
REMARK Flexibility Score: inf
ROOT
ATOM      1  C   UNL     1       1.842 -18.850  -5.403  1.00  0.00     0.138 A 
ATOM      2  C   UNL     1       1.920 -17.580  -6.012  1.00  0.00     0.100 A 
ATOM      3  C   UNL     1       2.260 -16.467  -5.241  1.00  0.00     0.193 A 
ATOM      4  O   UNL     1       2.329 -15.331  -5.785  1.00  0.00    -0.289 OA
ATOM      5  C   UNL     1       2.518 -16.628  -3.872  1.00  0.00     0.065 A 
ATOM      6  C   UNL     1       2.865 -15.547  -3.039  1.00  0.00     0.016 A 
ATOM      7  C   UNL     1       3.113 -15.765  -1.680  1.00  0.00     0.001 A 
ATOM      8  C   UNL     1       3.017 -17.053  -1.144  1.00  0.00     0.004 A 
ATOM      9  C   UNL     1       2.673 -18.131  -1.965  1.00  0.00     0.048 A 
ATOM     10  C   UNL     1       2.423 -17.925  -3.327  1.00  0.00     0.138 A 
ATOM     11  O   UNL     1       2.097 -18.957  -4.098  1.00  0.00    -0.456 OA
ENDROOT
BRANCH   1  12
ATOM     12  C   UNL     1       1.486 -20.093  -6.156  1.00  0.00     0.017 A 
ATOM     13  C   UNL     1       0.767 -22.471  -7.496  1.00  0.00     0.000 A 
ATOM     14  C   UNL     1       1.519 -21.498  -8.155  1.00  0.00     0.001 A 
ATOM     15  C   UNL     1       0.371 -22.266  -6.175  1.00  0.00     0.001 A 
ATOM     16  C   UNL     1       1.878 -20.318  -7.496  1.00  0.00     0.012 A 
ATOM     17  C   UNL     1       0.726 -21.090  -5.509  1.00  0.00     0.012 A 
ENDBRANCH   1  12
TORSDOF 1
ENDMDL
MODEL 9
REMARK VINA RESULT:    -6.046     11.590     13.905
REMARK INTER + INTRA:          -6.660
REMARK INTER:                  -6.434
REMARK INTRA:                  -0.226
REMARK UNBOUND:                -0.260
REMARK SMILES O=c1cc(-c2ccccc2)oc2ccccc12
REMARK SMILES IDX 4 1 3 2 2 3 1 4 17 5 16 6 15 7 14 8 13 9 12 10 11 11 5 12
REMARK SMILES IDX 8 13 7 14 9 15 6 16 10 17
REMARK H PARENT
REMARK Flexibility Score: inf
ROOT
ATOM      1  C   UNL     1       2.092 -19.337  -4.818  1.00  0.00     0.138 A 
ATOM      2  C   UNL     1       1.236 -18.320  -4.346  1.00  0.00     0.100 A 
ATOM      3  C   UNL     1       1.699 -17.423  -3.382  1.00  0.00     0.193 A 
ATOM      4  O   UNL     1       0.934 -16.513  -2.960  1.00  0.00    -0.289 OA
ATOM      5  C   UNL     1       3.009 -17.546  -2.897  1.00  0.00     0.065 A 
ATOM      6  C   UNL     1       3.538 -16.675  -1.925  1.00  0.00     0.016 A 
ATOM      7  C   UNL     1       4.851 -16.844  -1.477  1.00  0.00     0.001 A 
ATOM      8  C   UNL     1       5.644 -17.875  -1.990  1.00  0.00     0.004 A 
ATOM      9  C   UNL     1       5.126 -18.744  -2.954  1.00  0.00     0.048 A 
ATOM     10  C   UNL     1       3.813 -18.585  -3.411  1.00  0.00     0.138 A 
ATOM     11  O   UNL     1       3.330 -19.416  -4.328  1.00  0.00    -0.456 OA
ENDROOT
BRANCH   1  12
ATOM     12  C   UNL     1       1.676 -20.338  -5.849  1.00  0.00     0.017 A 
ATOM     13  C   UNL     1       0.947 -22.180  -7.860  1.00  0.00     0.000 A 
ATOM     14  C   UNL     1       0.435 -22.316  -6.569  1.00  0.00     0.001 A 
ATOM     15  C   UNL     1       1.819 -21.133  -8.154  1.00  0.00     0.001 A 
ATOM     16  C   UNL     1       0.793 -21.407  -5.569  1.00  0.00     0.012 A 
ATOM     17  C   UNL     1       2.181 -20.220  -7.161  1.00  0.00     0.012 A 
ENDBRANCH   1  12
TORSDOF 1
ENDMDL
