MODEL 1
REMARK VINA RESULT:    -3.347      0.000      0.000
REMARK INTER + INTRA:          -3.903
REMARK INTER:                  -3.836
REMARK INTRA:                  -0.067
REMARK UNBOUND:                -0.067
REMARK SMILES COc1cc(C=O)ccc1O
REMARK SMILES IDX 3 1 10 2 9 3 8 4 5 5 4 6 2 7 1 8 11 9 6 11 7 12
REMARK H PARENT 11 10
REMARK Flexibility Score: inf
ROOT
ATOM      1  C   UNL     1     143.120 140.502 140.840  1.00  0.00     0.161 A 
ATOM      2  C   UNL     1     143.236 140.289 142.227  1.00  0.00     0.157 A 
ATOM      3  C   UNL     1     142.741 141.239 143.125  1.00  0.00     0.051 A 
ATOM      4  C   UNL     1     142.130 142.403 142.657  1.00  0.00     0.015 A 
ATOM      5  C   UNL     1     142.004 142.633 141.281  1.00  0.00     0.018 A 
ATOM      6  C   UNL     1     142.501 141.680 140.375  1.00  0.00     0.062 A 
ENDROOT
BRANCH   1   7
ATOM      7  O   UNL     1     143.627 139.531 139.962  1.00  0.00    -0.493 OA
ATOM      8  C   UNL     1     144.943 139.540 139.419  1.00  0.00     0.278 C 
ENDBRANCH   1   7
BRANCH   2   9
ATOM      9  O   UNL     1     143.842 139.138 142.731  1.00  0.00    -0.504 OA
ATOM     10  H   UNL     1     144.218 138.417 142.127  1.00  0.00     0.293 HD
ENDBRANCH   2   9
BRANCH   5  11
ATOM     11  C   UNL     1     141.354 143.870 140.807  1.00  0.00     0.260 C 
ATOM     12  O   UNL     1     141.933 144.643 140.000  1.00  0.00    -0.298 OA
ENDBRANCH   5  11
TORSDOF 3
ENDMDL
MODEL 2
REMARK VINA RESULT:    -3.331      4.346      5.896
REMARK INTER + INTRA:          -3.884
REMARK INTER:                  -3.814
REMARK INTRA:                  -0.070
REMARK UNBOUND:                -0.067
REMARK SMILES COc1cc(C=O)ccc1O
REMARK SMILES IDX 3 1 10 2 9 3 8 4 5 5 4 6 2 7 1 8 11 9 6 11 7 12
REMARK H PARENT 11 10
REMARK Flexibility Score: inf
ROOT
ATOM      1  C   UNL     1     138.387 141.195 140.733  1.00  0.00     0.161 A 
ATOM      2  C   UNL     1     138.298 141.396 142.123  1.00  0.00     0.157 A 
ATOM      3  C   UNL     1     138.876 140.477 143.003  1.00  0.00     0.051 A 
ATOM      4  C   UNL     1     139.545 139.354 142.513  1.00  0.00     0.015 A 
ATOM      5  C   UNL     1     139.646 139.136 141.133  1.00  0.00     0.018 A 
ATOM      6  C   UNL     1     139.065 140.059 140.245  1.00  0.00     0.062 A 
ENDROOT
BRANCH   1   7
ATOM      7  O   UNL     1     137.796 142.135 139.874  1.00  0.00    -0.493 OA
ATOM      8  C   UNL     1     136.485 142.022 139.331  1.00  0.00     0.278 C 
ENDBRANCH   1   7
BRANCH   2   9
ATOM      9  O   UNL     1     137.636 142.506 142.649  1.00  0.00    -0.504 OA
ATOM     10  H   UNL     1     138.039 143.435 142.629  1.00  0.00     0.293 HD
ENDBRANCH   2   9
BRANCH   5  11
ATOM     11  C   UNL     1     140.359 137.944 140.635  1.00  0.00     0.260 C 
ATOM     12  O   UNL     1     139.753 136.857 140.440  1.00  0.00    -0.298 OA
ENDBRANCH   5  11
TORSDOF 3
ENDMDL
MODEL 3
REMARK VINA RESULT:    -3.296      3.167      4.149
REMARK INTER + INTRA:          -3.844
REMARK INTER:                  -3.771
REMARK INTRA:                  -0.073
REMARK UNBOUND:                -0.067
REMARK SMILES COc1cc(C=O)ccc1O
REMARK SMILES IDX 3 1 10 2 9 3 8 4 5 5 4 6 2 7 1 8 11 9 6 11 7 12
REMARK H PARENT 11 10
REMARK Flexibility Score: inf
ROOT
ATOM      1  C   UNL     1     141.060 143.118 140.832  1.00  0.00     0.161 A 
ATOM      2  C   UNL     1     141.273 143.138 142.223  1.00  0.00     0.157 A 
ATOM      3  C   UNL     1     140.308 142.613 143.087  1.00  0.00     0.051 A 
ATOM      4  C   UNL     1     139.129 142.066 142.581  1.00  0.00     0.015 A 
ATOM      5  C   UNL     1     138.897 142.036 141.200  1.00  0.00     0.018 A 
ATOM      6  C   UNL     1     139.866 142.563 140.327  1.00  0.00     0.062 A 
ENDROOT
BRANCH   1   7
ATOM      7  O   UNL     1     142.047 143.653 139.989  1.00  0.00    -0.493 OA
ATOM      8  C   UNL     1     142.002 144.955 139.417  1.00  0.00     0.278 C 
ENDBRANCH   1   7
BRANCH   2   9
ATOM      9  O   UNL     1     142.440 143.677 142.766  1.00  0.00    -0.504 OA
ATOM     10  H   UNL     1     143.348 143.251 142.625  1.00  0.00     0.293 HD
ENDBRANCH   2   9
BRANCH   5  11
ATOM     11  C   UNL     1     137.644 141.453 140.684  1.00  0.00     0.260 C 
ATOM     12  O   UNL     1     136.880 142.112 139.932  1.00  0.00    -0.298 OA
ENDBRANCH   5  11
TORSDOF 3
ENDMDL
MODEL 4
REMARK VINA RESULT:    -3.293      3.298      4.200
REMARK INTER + INTRA:          -3.841
REMARK INTER:                  -3.770
REMARK INTRA:                  -0.071
REMARK UNBOUND:                -0.067
REMARK SMILES COc1cc(C=O)ccc1O
REMARK SMILES IDX 3 1 10 2 9 3 8 4 5 5 4 6 2 7 1 8 11 9 6 11 7 12
REMARK H PARENT 11 10
REMARK Flexibility Score: inf
ROOT
ATOM      1  C   UNL     1     140.477 138.208 140.577  1.00  0.00     0.161 A 
ATOM      2  C   UNL     1     140.299 138.251 141.973  1.00  0.00     0.157 A 
ATOM      3  C   UNL     1     141.215 138.939 142.774  1.00  0.00     0.051 A 
ATOM      4  C   UNL     1     142.310 139.587 142.201  1.00  0.00     0.015 A 
ATOM      5  C   UNL     1     142.504 139.556 140.814  1.00  0.00     0.018 A 
ATOM      6  C   UNL     1     141.585 138.865 140.004  1.00  0.00     0.062 A 
ENDROOT
BRANCH   1   7
ATOM      7  O   UNL     1     139.541 137.509 139.797  1.00  0.00    -0.493 OA
ATOM      8  C   UNL     1     139.681 136.153 139.389  1.00  0.00     0.278 C 
ENDBRANCH   1   7
BRANCH   2   9
ATOM      9  O   UNL     1     139.217 137.615 142.582  1.00  0.00    -0.504 OA
ATOM     10  H   UNL     1     138.585 137.014 142.067  1.00  0.00     0.293 HD
ENDBRANCH   2   9
BRANCH   5  11
ATOM     11  C   UNL     1     143.667 140.248 140.227  1.00  0.00     0.260 C 
ATOM     12  O   UNL     1     144.842 139.853 140.450  1.00  0.00    -0.298 OA
ENDBRANCH   5  11
TORSDOF 3
ENDMDL
MODEL 5
REMARK VINA RESULT:    -3.247      5.939      7.261
REMARK INTER + INTRA:          -3.789
REMARK INTER:                  -3.712
REMARK INTRA:                  -0.077
REMARK UNBOUND:                -0.067
REMARK SMILES COc1cc(C=O)ccc1O
REMARK SMILES IDX 3 1 10 2 9 3 8 4 5 5 4 6 2 7 1 8 11 9 6 11 7 12
REMARK H PARENT 11 10
REMARK Flexibility Score: inf
ROOT
ATOM      1  C   UNL     1     149.787 139.457 140.567  1.00  0.00     0.161 A 
ATOM      2  C   UNL     1     149.322 140.785 140.558  1.00  0.00     0.157 A 
ATOM      3  C   UNL     1     148.232 141.141 139.758  1.00  0.00     0.051 A 
ATOM      4  C   UNL     1     147.598 140.187 138.962  1.00  0.00     0.015 A 
ATOM      5  C   UNL     1     148.046 138.859 138.956  1.00  0.00     0.018 A 
ATOM      6  C   UNL     1     149.141 138.497 139.760  1.00  0.00     0.062 A 
ENDROOT
BRANCH   1   7
ATOM      7  O   UNL     1     150.883 139.129 141.380  1.00  0.00    -0.493 OA
ATOM      8  C   UNL     1     150.786 138.488 142.648  1.00  0.00     0.278 C 
ENDBRANCH   1   7
BRANCH   2   9
ATOM      9  O   UNL     1     149.931 141.767 141.341  1.00  0.00    -0.504 OA
ATOM     10  H   UNL     1     150.913 141.997 141.251  1.00  0.00     0.293 HD
ENDBRANCH   2   9
BRANCH   5  11
ATOM     11  C   UNL     1     147.361 137.865 138.108  1.00  0.00     0.260 C 
ATOM     12  O   UNL     1     146.106 137.838 138.019  1.00  0.00    -0.298 OA
ENDBRANCH   5  11
TORSDOF 3
ENDMDL
MODEL 6
REMARK VINA RESULT:    -3.243      7.156      8.815
REMARK INTER + INTRA:          -3.784
REMARK INTER:                  -3.711
REMARK INTRA:                  -0.073
REMARK UNBOUND:                -0.067
REMARK SMILES COc1cc(C=O)ccc1O
REMARK SMILES IDX 3 1 10 2 9 3 8 4 5 5 4 6 2 7 1 8 11 9 6 11 7 12
REMARK H PARENT 11 10
REMARK Flexibility Score: inf
ROOT
ATOM      1  C   UNL     1     142.057 150.022 140.683  1.00  0.00     0.161 A 
ATOM      2  C   UNL     1     140.749 149.522 140.821  1.00  0.00     0.157 A 
ATOM      3  C   UNL     1     140.306 148.481 140.000  1.00  0.00     0.051 A 
ATOM      4  C   UNL     1     141.154 147.929 139.039  1.00  0.00     0.015 A 
ATOM      5  C   UNL     1     142.460 148.412 138.885  1.00  0.00     0.018 A 
ATOM      6  C   UNL     1     142.909 149.459 139.710  1.00  0.00     0.062 A 
ENDROOT
BRANCH   1   7
ATOM      7  O   UNL     1     142.474 151.068 141.521  1.00  0.00    -0.493 OA
ATOM      8  C   UNL     1     143.228 150.895 142.716  1.00  0.00     0.278 C 
ENDBRANCH   1   7
BRANCH   2   9
ATOM      9  O   UNL     1     139.873 150.049 141.771  1.00  0.00    -0.504 OA
ATOM     10  H   UNL     1     139.115 149.505 142.167  1.00  0.00     0.293 HD
ENDBRANCH   2   9
BRANCH   5  11
ATOM     11  C   UNL     1     143.341 147.815 137.864  1.00  0.00     0.260 C 
ATOM     12  O   UNL     1     144.078 146.831 138.134  1.00  0.00    -0.298 OA
ENDBRANCH   5  11
TORSDOF 3
ENDMDL
MODEL 7
REMARK VINA RESULT:    -3.181      8.228      8.996
REMARK INTER + INTRA:          -3.713
REMARK INTER:                  -3.653
REMARK INTRA:                  -0.059
REMARK UNBOUND:                -0.067
REMARK SMILES COc1cc(C=O)ccc1O
REMARK SMILES IDX 3 1 10 2 9 3 8 4 5 5 4 6 2 7 1 8 11 9 6 11 7 12
REMARK H PARENT 11 10
REMARK Flexibility Score: inf
ROOT
ATOM      1  C   UNL     1     140.001 133.085 139.671  1.00  0.00     0.161 A 
ATOM      2  C   UNL     1     138.930 134.000 139.664  1.00  0.00     0.157 A 
ATOM      3  C   UNL     1     138.828 134.951 138.645  1.00  0.00     0.051 A 
ATOM      4  C   UNL     1     139.783 135.003 137.629  1.00  0.00     0.015 A 
ATOM      5  C   UNL     1     140.856 134.102 137.617  1.00  0.00     0.018 A 
ATOM      6  C   UNL     1     140.962 133.144 138.641  1.00  0.00     0.062 A 
ENDROOT
BRANCH   1   7
ATOM      7  O   UNL     1     140.078 132.142 140.708  1.00  0.00    -0.493 OA
ATOM      8  C   UNL     1     141.238 131.900 141.496  1.00  0.00     0.278 C 
ENDBRANCH   1   7
BRANCH   2   9
ATOM      9  O   UNL     1     137.957 133.978 140.664  1.00  0.00    -0.504 OA
ATOM     10  H   UNL     1     138.185 133.801 141.635  1.00  0.00     0.293 HD
ENDBRANCH   2   9
BRANCH   5  11
ATOM     11  C   UNL     1     141.854 134.173 136.533  1.00  0.00     0.260 C 
ATOM     12  O   UNL     1     142.988 134.686 136.725  1.00  0.00    -0.298 OA
ENDBRANCH   5  11
TORSDOF 3
ENDMDL
MODEL 8
REMARK VINA RESULT:    -3.170      8.185      8.938
REMARK INTER + INTRA:          -3.699
REMARK INTER:                  -3.649
REMARK INTRA:                  -0.050
REMARK UNBOUND:                -0.067
REMARK SMILES COc1cc(C=O)ccc1O
REMARK SMILES IDX 3 1 10 2 9 3 8 4 5 5 4 6 2 7 1 8 11 9 6 11 7 12
REMARK H PARENT 11 10
REMARK Flexibility Score: inf
ROOT
ATOM      1  C   UNL     1     142.551 150.122 139.825  1.00  0.00     0.161 A 
ATOM      2  C   UNL     1     141.804 150.169 141.017  1.00  0.00     0.157 A 
ATOM      3  C   UNL     1     140.625 149.427 141.135  1.00  0.00     0.051 A 
ATOM      4  C   UNL     1     140.180 148.635 140.076  1.00  0.00     0.015 A 
ATOM      5  C   UNL     1     140.909 148.574 138.881  1.00  0.00     0.018 A 
ATOM      6  C   UNL     1     142.096 149.320 138.759  1.00  0.00     0.062 A 
ENDROOT
BRANCH   1   7
ATOM      7  O   UNL     1     143.730 150.879 139.736  1.00  0.00    -0.493 OA
ATOM      8  C   UNL     1     144.548 150.967 138.574  1.00  0.00     0.278 C 
ENDBRANCH   1   7
BRANCH   2   9
ATOM      9  O   UNL     1     142.218 150.950 142.097  1.00  0.00    -0.504 OA
ATOM     10  H   UNL     1     141.634 151.678 142.492  1.00  0.00     0.293 HD
ENDBRANCH   2   9
BRANCH   5  11
ATOM     11  C   UNL     1     140.422 147.731 137.774  1.00  0.00     0.260 C 
ATOM     12  O   UNL     1     139.941 148.241 136.728  1.00  0.00    -0.298 OA
ENDBRANCH   5  11
TORSDOF 3
ENDMDL
MODEL 9
REMARK VINA RESULT:    -3.132      6.126      7.118
REMARK INTER + INTRA:          -3.657
REMARK INTER:                  -3.606
REMARK INTRA:                  -0.051
REMARK UNBOUND:                -0.067
REMARK SMILES COc1cc(C=O)ccc1O
REMARK SMILES IDX 3 1 10 2 9 3 8 4 5 5 4 6 2 7 1 8 11 9 6 11 7 12
REMARK H PARENT 11 10
REMARK Flexibility Score: inf
ROOT
ATOM      1  C   UNL     1     150.095 139.053 139.762  1.00  0.00     0.161 A 
ATOM      2  C   UNL     1     150.088 139.838 140.929  1.00  0.00     0.157 A 
ATOM      3  C   UNL     1     149.322 141.007 140.983  1.00  0.00     0.051 A 
ATOM      4  C   UNL     1     148.562 141.404 139.883  1.00  0.00     0.015 A 
ATOM      5  C   UNL     1     148.555 140.637 138.711  1.00  0.00     0.018 A 
ATOM      6  C   UNL     1     149.323 139.460 138.654  1.00  0.00     0.062 A 
ENDROOT
BRANCH   1   7
ATOM      7  O   UNL     1     150.873 137.884 139.737  1.00  0.00    -0.493 OA
ATOM      8  C   UNL     1     150.978 137.007 138.621  1.00  0.00     0.278 C 
ENDBRANCH   1   7
BRANCH   2   9
ATOM      9  O   UNL     1     150.837 139.473 142.049  1.00  0.00    -0.504 OA
ATOM     10  H   UNL     1     151.801 139.756 142.169  1.00  0.00     0.293 HD
ENDBRANCH   2   9
BRANCH   5  11
ATOM     11  C   UNL     1     147.743 141.073 137.560  1.00  0.00     0.260 C 
ATOM     12  O   UNL     1     146.539 140.724 137.441  1.00  0.00    -0.298 OA
ENDBRANCH   5  11
TORSDOF 3
ENDMDL
