MODEL 1
REMARK VINA RESULT:    -3.358      0.000      0.000
REMARK INTER + INTRA:          -6.772
REMARK INTER:                  -5.714
REMARK INTRA:                  -1.057
REMARK UNBOUND:                -1.057
REMARK SMILES CCCCCCCCCCCCCC(=O)[O-]
REMARK SMILES IDX 8 1 9 2 10 3 11 4 12 5 13 6 14 7 15 8 16 9 7 10 6 11 5 12
REMARK SMILES IDX 4 13 3 14 2 15 1 16
REMARK H PARENT
REMARK Flexibility Score: inf
ROOT
ATOM      1  C   UNL     1     -53.347 121.511  -8.819  1.00  0.00     0.000 C 
ENDROOT
BRANCH   1   2
ATOM      2  C   UNL     1     -52.878 120.100  -9.194  1.00  0.00     0.000 C 
BRANCH   2   3
ATOM      3  C   UNL     1     -53.999 119.311  -9.882  1.00  0.00     0.000 C 
BRANCH   3   4
ATOM      4  C   UNL     1     -54.355 119.933 -11.241  1.00  0.00     0.000 C 
BRANCH   4   5
ATOM      5  C   UNL     1     -55.851 119.813 -11.573  1.00  0.00     0.006 C 
BRANCH   5   6
ATOM      6  C   UNL     1     -56.751 120.181 -10.386  1.00  0.00     0.053 C 
BRANCH   6   7
ATOM      7  C   UNL     1     -56.692 121.652 -10.123  1.00  0.00     0.041 C 
ATOM      8  O   UNL     1     -56.858 122.095  -8.955  1.00  0.00    -0.550 OA
ATOM      9  O   UNL     1     -56.404 122.534 -11.158  1.00  0.00    -0.550 OA
ENDBRANCH   6   7
ENDBRANCH   5   6
ENDBRANCH   4   5
ENDBRANCH   3   4
ENDBRANCH   2   3
ENDBRANCH   1   2
BRANCH   1  10
ATOM     10  C   UNL     1     -52.577 122.576  -9.614  1.00  0.00     0.000 C 
BRANCH  10  11
ATOM     11  C   UNL     1     -53.142 122.782 -11.029  1.00  0.00    -0.000 C 
BRANCH  11  12
ATOM     12  C   UNL     1     -52.073 122.613 -12.122  1.00  0.00    -0.000 C 
BRANCH  12  13
ATOM     13  C   UNL     1     -50.882 121.761 -11.654  1.00  0.00    -0.000 C 
BRANCH  13  14
ATOM     14  C   UNL     1     -49.585 122.579 -11.529  1.00  0.00    -0.000 C 
BRANCH  14  15
ATOM     15  C   UNL     1     -48.876 122.356 -10.183  1.00  0.00    -0.003 C 
ATOM     16  C   UNL     1     -48.917 120.896  -9.732  1.00  0.00     0.004 C 
ENDBRANCH  14  15
ENDBRANCH  13  14
ENDBRANCH  12  13
ENDBRANCH  11  12
ENDBRANCH  10  11
ENDBRANCH   1  10
TORSDOF 12
ENDMDL
MODEL 2
REMARK VINA RESULT:    -3.204      1.054      1.661
REMARK INTER + INTRA:          -6.510
REMARK INTER:                  -5.653
REMARK INTRA:                  -0.857
REMARK UNBOUND:                -1.057
REMARK SMILES CCCCCCCCCCCCCC(=O)[O-]
REMARK SMILES IDX 8 1 9 2 10 3 11 4 12 5 13 6 14 7 15 8 16 9 7 10 6 11 5 12
REMARK SMILES IDX 4 13 3 14 2 15 1 16
REMARK H PARENT
REMARK Flexibility Score: inf
ROOT
ATOM      1  C   UNL     1     -53.315 122.956  -9.613  1.00  0.00     0.000 C 
ENDROOT
BRANCH   1   2
ATOM      2  C   UNL     1     -53.946 121.807  -8.819  1.00  0.00     0.000 C 
BRANCH   2   3
ATOM      3  C   UNL     1     -53.088 120.539  -8.906  1.00  0.00     0.000 C 
BRANCH   3   4
ATOM      4  C   UNL     1     -53.784 119.461  -9.752  1.00  0.00     0.000 C 
BRANCH   4   5
ATOM      5  C   UNL     1     -54.826 120.046 -10.718  1.00  0.00     0.006 C 
BRANCH   5   6
ATOM      6  C   UNL     1     -56.245 119.537 -10.435  1.00  0.00     0.053 C 
BRANCH   6   7
ATOM      7  C   UNL     1     -57.231 120.657 -10.537  1.00  0.00     0.041 C 
ATOM      8  O   UNL     1     -58.232 120.555 -11.294  1.00  0.00    -0.550 OA
ATOM      9  O   UNL     1     -57.072 121.797  -9.758  1.00  0.00    -0.550 OA
ENDBRANCH   6   7
ENDBRANCH   5   6
ENDBRANCH   4   5
ENDBRANCH   3   4
ENDBRANCH   2   3
ENDBRANCH   1   2
BRANCH   1  10
ATOM     10  C   UNL     1     -53.968 123.093 -10.997  1.00  0.00     0.000 C 
BRANCH  10  11
ATOM     11  C   UNL     1     -53.088 122.530 -12.125  1.00  0.00    -0.000 C 
BRANCH  11  12
ATOM     12  C   UNL     1     -51.585 122.654 -11.819  1.00  0.00    -0.000 C 
BRANCH  12  13
ATOM     13  C   UNL     1     -50.915 121.287 -11.605  1.00  0.00    -0.000 C 
BRANCH  13  14
ATOM     14  C   UNL     1     -49.491 121.411 -11.034  1.00  0.00    -0.000 C 
BRANCH  14  15
ATOM     15  C   UNL     1     -49.073 122.872 -10.809  1.00  0.00    -0.003 C 
ATOM     16  C   UNL     1     -49.329 123.344  -9.378  1.00  0.00     0.004 C 
ENDBRANCH  14  15
ENDBRANCH  13  14
ENDBRANCH  12  13
ENDBRANCH  11  12
ENDBRANCH  10  11
ENDBRANCH   1  10
TORSDOF 12
ENDMDL
MODEL 3
REMARK VINA RESULT:    -3.069      1.418      2.179
REMARK INTER + INTRA:          -6.279
REMARK INTER:                  -4.922
REMARK INTRA:                  -1.357
REMARK UNBOUND:                -1.057
REMARK SMILES CCCCCCCCCCCCCC(=O)[O-]
REMARK SMILES IDX 8 1 9 2 10 3 11 4 12 5 13 6 14 7 15 8 16 9 7 10 6 11 5 12
REMARK SMILES IDX 4 13 3 14 2 15 1 16
REMARK H PARENT
REMARK Flexibility Score: inf
ROOT
ATOM      1  C   UNL     1     -53.628 119.820  -9.648  1.00  0.00     0.000 C 
ENDROOT
BRANCH   1   2
ATOM      2  C   UNL     1     -52.823 119.884 -10.951  1.00  0.00     0.000 C 
BRANCH   2   3
ATOM      3  C   UNL     1     -53.709 120.318 -12.125  1.00  0.00     0.000 C 
BRANCH   3   4
ATOM      4  C   UNL     1     -53.915 121.841 -12.125  1.00  0.00     0.000 C 
BRANCH   4   5
ATOM      5  C   UNL     1     -55.399 122.238 -12.080  1.00  0.00     0.006 C 
BRANCH   5   6
ATOM      6  C   UNL     1     -56.334 121.023 -12.015  1.00  0.00     0.053 C 
BRANCH   6   7
ATOM      7  C   UNL     1     -56.831 120.821 -10.619  1.00  0.00     0.041 C 
ATOM      8  O   UNL     1     -56.892 121.793  -9.821  1.00  0.00    -0.550 OA
ATOM      9  O   UNL     1     -57.273 119.568 -10.212  1.00  0.00    -0.550 OA
ENDBRANCH   6   7
ENDBRANCH   5   6
ENDBRANCH   4   5
ENDBRANCH   3   4
ENDBRANCH   2   3
ENDBRANCH   1   2
BRANCH   1  10
ATOM     10  C   UNL     1     -53.000 120.715  -8.569  1.00  0.00     0.000 C 
BRANCH  10  11
ATOM     11  C   UNL     1     -53.633 122.115  -8.519  1.00  0.00    -0.000 C 
BRANCH  11  12
ATOM     12  C   UNL     1     -52.671 123.216  -8.997  1.00  0.00    -0.000 C 
BRANCH  12  13
ATOM     13  C   UNL     1     -51.427 122.647  -9.700  1.00  0.00    -0.000 C 
BRANCH  13  14
ATOM     14  C   UNL     1     -50.119 123.253  -9.165  1.00  0.00    -0.000 C 
BRANCH  14  15
ATOM     15  C   UNL     1     -48.892 122.818  -9.982  1.00  0.00    -0.003 C 
ATOM     16  C   UNL     1     -49.235 121.785 -11.054  1.00  0.00     0.004 C 
ENDBRANCH  14  15
ENDBRANCH  13  14
ENDBRANCH  12  13
ENDBRANCH  11  12
ENDBRANCH  10  11
ENDBRANCH   1  10
TORSDOF 12
ENDMDL
MODEL 4
REMARK VINA RESULT:    -3.031      1.712      2.482
REMARK INTER + INTRA:          -6.215
REMARK INTER:                  -4.945
REMARK INTRA:                  -1.271
REMARK UNBOUND:                -1.057
REMARK SMILES CCCCCCCCCCCCCC(=O)[O-]
REMARK SMILES IDX 8 1 9 2 10 3 11 4 12 5 13 6 14 7 15 8 16 9 7 10 6 11 5 12
REMARK SMILES IDX 4 13 3 14 2 15 1 16
REMARK H PARENT
REMARK Flexibility Score: inf
ROOT
ATOM      1  C   UNL     1     -53.626 121.126  -8.832  1.00  0.00     0.000 C 
ENDROOT
BRANCH   1   2
ATOM      2  C   UNL     1     -53.350 122.608  -9.112  1.00  0.00     0.000 C 
BRANCH   2   3
ATOM      3  C   UNL     1     -54.418 123.202 -10.038  1.00  0.00     0.000 C 
BRANCH   3   4
ATOM      4  C   UNL     1     -54.123 122.862 -11.507  1.00  0.00     0.000 C 
BRANCH   4   5
ATOM      5  C   UNL     1     -55.121 121.850 -12.092  1.00  0.00     0.006 C 
BRANCH   5   6
ATOM      6  C   UNL     1     -56.259 121.512 -11.120  1.00  0.00     0.053 C 
BRANCH   6   7
ATOM      7  C   UNL     1     -56.830 120.165 -11.432  1.00  0.00     0.041 C 
ATOM      8  O   UNL     1     -56.248 119.122 -11.033  1.00  0.00    -0.550 OA
ATOM      9  O   UNL     1     -58.031 120.061 -12.123  1.00  0.00    -0.550 OA
ENDBRANCH   6   7
ENDBRANCH   5   6
ENDBRANCH   4   5
ENDBRANCH   3   4
ENDBRANCH   2   3
ENDBRANCH   1   2
BRANCH   1  10
ATOM     10  C   UNL     1     -52.759 120.227  -9.726  1.00  0.00     0.000 C 
BRANCH  10  11
ATOM     11  C   UNL     1     -51.387 120.847 -10.035  1.00  0.00    -0.000 C 
BRANCH  11  12
ATOM     12  C   UNL     1     -51.140 121.015 -11.545  1.00  0.00    -0.000 C 
BRANCH  12  13
ATOM     13  C   UNL     1     -50.464 122.353 -11.886  1.00  0.00    -0.000 C 
BRANCH  13  14
ATOM     14  C   UNL     1     -49.137 122.551 -11.135  1.00  0.00    -0.000 C 
BRANCH  14  15
ATOM     15  C   UNL     1     -48.875 124.023 -10.781  1.00  0.00    -0.003 C 
ATOM     16  C   UNL     1     -49.106 124.321  -9.300  1.00  0.00     0.004 C 
ENDBRANCH  14  15
ENDBRANCH  13  14
ENDBRANCH  12  13
ENDBRANCH  11  12
ENDBRANCH  10  11
ENDBRANCH   1  10
TORSDOF 12
ENDMDL
MODEL 5
REMARK VINA RESULT:    -2.961      1.587      3.530
REMARK INTER + INTRA:          -6.096
REMARK INTER:                  -4.519
REMARK INTRA:                  -1.577
REMARK UNBOUND:                -1.057
REMARK SMILES CCCCCCCCCCCCCC(=O)[O-]
REMARK SMILES IDX 8 1 9 2 10 3 11 4 12 5 13 6 14 7 15 8 16 9 7 10 6 11 5 12
REMARK SMILES IDX 4 13 3 14 2 15 1 16
REMARK H PARENT
REMARK Flexibility Score: inf
ROOT
ATOM      1  C   UNL     1     -50.493 121.402 -11.577  1.00  0.00     0.000 C 
ENDROOT
BRANCH   1   2
ATOM      2  C   UNL     1     -51.455 122.522 -11.990  1.00  0.00     0.000 C 
BRANCH   2   3
ATOM      3  C   UNL     1     -52.889 121.996 -12.125  1.00  0.00     0.000 C 
BRANCH   3   4
ATOM      4  C   UNL     1     -52.953 120.491 -11.822  1.00  0.00     0.000 C 
BRANCH   4   5
ATOM      5  C   UNL     1     -54.369 119.915 -11.978  1.00  0.00     0.006 C 
BRANCH   5   6
ATOM      6  C   UNL     1     -55.463 120.932 -11.628  1.00  0.00     0.053 C 
BRANCH   6   7
ATOM      7  C   UNL     1     -56.715 120.229 -11.210  1.00  0.00     0.041 C 
ATOM      8  O   UNL     1     -57.818 120.837 -11.220  1.00  0.00    -0.550 OA
ATOM      9  O   UNL     1     -56.674 118.886 -10.855  1.00  0.00    -0.550 OA
ENDBRANCH   6   7
ENDBRANCH   5   6
ENDBRANCH   4   5
ENDBRANCH   3   4
ENDBRANCH   2   3
ENDBRANCH   1   2
BRANCH   1  10
ATOM     10  C   UNL     1     -50.061 121.561 -10.112  1.00  0.00     0.000 C 
BRANCH  10  11
ATOM     11  C   UNL     1     -49.540 122.972  -9.798  1.00  0.00    -0.000 C 
BRANCH  11  12
ATOM     12  C   UNL     1     -50.541 123.803  -8.977  1.00  0.00    -0.000 C 
BRANCH  12  13
ATOM     13  C   UNL     1     -51.660 122.943  -8.368  1.00  0.00    -0.000 C 
BRANCH  13  14
ATOM     14  C   UNL     1     -53.063 123.462  -8.724  1.00  0.00    -0.000 C 
BRANCH  14  15
ATOM     15  C   UNL     1     -54.111 122.339  -8.772  1.00  0.00    -0.003 C 
ATOM     16  C   UNL     1     -53.511 120.961  -8.497  1.00  0.00     0.004 C 
ENDBRANCH  14  15
ENDBRANCH  13  14
ENDBRANCH  12  13
ENDBRANCH  11  12
ENDBRANCH  10  11
ENDBRANCH   1  10
TORSDOF 12
ENDMDL
MODEL 6
REMARK VINA RESULT:    -2.914      1.076      1.727
REMARK INTER + INTRA:          -6.016
REMARK INTER:                  -5.292
REMARK INTRA:                  -0.724
REMARK UNBOUND:                -1.057
REMARK SMILES CCCCCCCCCCCCCC(=O)[O-]
REMARK SMILES IDX 8 1 9 2 10 3 11 4 12 5 13 6 14 7 15 8 16 9 7 10 6 11 5 12
REMARK SMILES IDX 4 13 3 14 2 15 1 16
REMARK H PARENT
REMARK Flexibility Score: inf
ROOT
ATOM      1  C   UNL     1     -52.931 121.017  -9.507  1.00  0.00     0.000 C 
ENDROOT
BRANCH   1   2
ATOM      2  C   UNL     1     -53.865 119.895  -9.976  1.00  0.00     0.000 C 
BRANCH   2   3
ATOM      3  C   UNL     1     -54.081 119.957 -11.493  1.00  0.00     0.000 C 
BRANCH   3   4
ATOM      4  C   UNL     1     -55.577 119.886 -11.838  1.00  0.00     0.000 C 
BRANCH   4   5
ATOM      5  C   UNL     1     -56.432 119.377 -10.668  1.00  0.00     0.006 C 
BRANCH   5   6
ATOM      6  C   UNL     1     -57.446 120.421 -10.180  1.00  0.00     0.053 C 
BRANCH   6   7
ATOM      7  C   UNL     1     -56.741 121.657  -9.719  1.00  0.00     0.041 C 
ATOM      8  O   UNL     1     -56.496 121.829  -8.496  1.00  0.00    -0.550 OA
ATOM      9  O   UNL     1     -56.311 122.599 -10.646  1.00  0.00    -0.550 OA
ENDBRANCH   6   7
ENDBRANCH   5   6
ENDBRANCH   4   5
ENDBRANCH   3   4
ENDBRANCH   2   3
ENDBRANCH   1   2
BRANCH   1  10
ATOM     10  C   UNL     1     -52.826 122.124 -10.566  1.00  0.00     0.000 C 
BRANCH  10  11
ATOM     11  C   UNL     1     -51.647 121.911 -11.529  1.00  0.00    -0.000 C 
BRANCH  11  12
ATOM     12  C   UNL     1     -50.467 121.180 -10.866  1.00  0.00    -0.000 C 
BRANCH  12  13
ATOM     13  C   UNL     1     -49.173 122.009 -10.890  1.00  0.00    -0.000 C 
BRANCH  13  14
ATOM     14  C   UNL     1     -48.875 122.678  -9.537  1.00  0.00    -0.000 C 
BRANCH  14  15
ATOM     15  C   UNL     1     -49.528 124.063  -9.408  1.00  0.00    -0.003 C 
ATOM     16  C   UNL     1     -50.715 124.067  -8.445  1.00  0.00     0.004 C 
ENDBRANCH  14  15
ENDBRANCH  13  14
ENDBRANCH  12  13
ENDBRANCH  11  12
ENDBRANCH  10  11
ENDBRANCH   1  10
TORSDOF 12
ENDMDL
MODEL 7
REMARK VINA RESULT:    -2.860      1.506      2.215
REMARK INTER + INTRA:          -5.924
REMARK INTER:                  -4.905
REMARK INTRA:                  -1.020
REMARK UNBOUND:                -1.057
REMARK SMILES CCCCCCCCCCCCCC(=O)[O-]
REMARK SMILES IDX 8 1 9 2 10 3 11 4 12 5 13 6 14 7 15 8 16 9 7 10 6 11 5 12
REMARK SMILES IDX 4 13 3 14 2 15 1 16
REMARK H PARENT
REMARK Flexibility Score: inf
ROOT
ATOM      1  C   UNL     1     -54.062 121.253  -8.169  1.00  0.00     0.000 C 
ENDROOT
BRANCH   1   2
ATOM      2  C   UNL     1     -55.422 121.103  -8.862  1.00  0.00     0.000 C 
BRANCH   2   3
ATOM      3  C   UNL     1     -55.450 119.858  -9.756  1.00  0.00     0.000 C 
BRANCH   3   4
ATOM      4  C   UNL     1     -56.642 119.904 -10.726  1.00  0.00     0.000 C 
BRANCH   4   5
ATOM      5  C   UNL     1     -56.250 120.414 -12.121  1.00  0.00     0.006 C 
BRANCH   5   6
ATOM      6  C   UNL     1     -54.906 121.154 -12.124  1.00  0.00     0.053 C 
BRANCH   6   7
ATOM      7  C   UNL     1     -55.122 122.629 -11.996  1.00  0.00     0.041 C 
ATOM      8  O   UNL     1     -54.152 123.424 -12.114  1.00  0.00    -0.550 OA
ATOM      9  O   UNL     1     -56.402 123.130 -11.796  1.00  0.00    -0.550 OA
ENDBRANCH   6   7
ENDBRANCH   5   6
ENDBRANCH   4   5
ENDBRANCH   3   4
ENDBRANCH   2   3
ENDBRANCH   1   2
BRANCH   1  10
ATOM     10  C   UNL     1     -53.453 122.635  -8.447  1.00  0.00     0.000 C 
BRANCH  10  11
ATOM     11  C   UNL     1     -52.201 122.563  -9.335  1.00  0.00    -0.000 C 
BRANCH  11  12
ATOM     12  C   UNL     1     -52.046 121.198 -10.028  1.00  0.00    -0.000 C 
BRANCH  12  13
ATOM     13  C   UNL     1     -50.858 121.164 -11.003  1.00  0.00    -0.000 C 
BRANCH  13  14
ATOM     14  C   UNL     1     -50.967 122.233 -12.104  1.00  0.00    -0.000 C 
BRANCH  14  15
ATOM     15  C   UNL     1     -49.797 123.230 -12.074  1.00  0.00    -0.003 C 
ATOM     16  C   UNL     1     -49.038 123.208 -10.748  1.00  0.00     0.004 C 
ENDBRANCH  14  15
ENDBRANCH  13  14
ENDBRANCH  12  13
ENDBRANCH  11  12
ENDBRANCH  10  11
ENDBRANCH   1  10
TORSDOF 12
ENDMDL
MODEL 8
REMARK VINA RESULT:    -2.738      1.622      2.845
REMARK INTER + INTRA:          -5.717
REMARK INTER:                  -5.208
REMARK INTRA:                  -0.509
REMARK UNBOUND:                -1.057
REMARK SMILES CCCCCCCCCCCCCC(=O)[O-]
REMARK SMILES IDX 8 1 9 2 10 3 11 4 12 5 13 6 14 7 15 8 16 9 7 10 6 11 5 12
REMARK SMILES IDX 4 13 3 14 2 15 1 16
REMARK H PARENT
REMARK Flexibility Score: inf
ROOT
ATOM      1  C   UNL     1     -54.227 119.920 -11.244  1.00  0.00     0.000 C 
ENDROOT
BRANCH   1   2
ATOM      2  C   UNL     1     -55.304 120.563 -12.125  1.00  0.00     0.000 C 
BRANCH   2   3
ATOM      3  C   UNL     1     -56.658 120.595 -11.404  1.00  0.00     0.000 C 
BRANCH   3   4
ATOM      4  C   UNL     1     -56.504 120.202  -9.927  1.00  0.00     0.000 C 
BRANCH   4   5
ATOM      5  C   UNL     1     -56.335 121.420  -9.005  1.00  0.00     0.006 C 
BRANCH   5   6
ATOM      6  C   UNL     1     -54.884 121.618  -8.548  1.00  0.00     0.053 C 
BRANCH   6   7
ATOM      7  C   UNL     1     -54.311 122.860  -9.154  1.00  0.00     0.041 C 
ATOM      8  O   UNL     1     -54.493 123.112 -10.375  1.00  0.00    -0.550 OA
ATOM      9  O   UNL     1     -53.616 123.765  -8.361  1.00  0.00    -0.550 OA
ENDBRANCH   6   7
ENDBRANCH   5   6
ENDBRANCH   4   5
ENDBRANCH   3   4
ENDBRANCH   2   3
ENDBRANCH   1   2
BRANCH   1  10
ATOM     10  C   UNL     1     -52.879 119.863 -11.979  1.00  0.00     0.000 C 
BRANCH  10  11
ATOM     11  C   UNL     1     -52.072 121.163 -11.835  1.00  0.00    -0.000 C 
BRANCH  11  12
ATOM     12  C   UNL     1     -51.283 121.227 -10.516  1.00  0.00    -0.000 C 
BRANCH  12  13
ATOM     13  C   UNL     1     -49.774 121.419 -10.741  1.00  0.00    -0.000 C 
BRANCH  13  14
ATOM     14  C   UNL     1     -49.463 122.599 -11.676  1.00  0.00    -0.000 C 
BRANCH  14  15
ATOM     15  C   UNL     1     -48.875 123.805 -10.926  1.00  0.00    -0.003 C 
ATOM     16  C   UNL     1     -49.208 123.790  -9.435  1.00  0.00     0.004 C 
ENDBRANCH  14  15
ENDBRANCH  13  14
ENDBRANCH  12  13
ENDBRANCH  11  12
ENDBRANCH  10  11
ENDBRANCH   1  10
TORSDOF 12
ENDMDL
