MODEL 1
REMARK VINA RESULT:    -6.456      0.000      0.000
REMARK INTER + INTRA:          -8.569
REMARK INTER:                  -8.154
REMARK INTRA:                  -0.415
REMARK UNBOUND:                -0.415
REMARK SMILES Oc1ccc(CCc2cc(O)cc(O)c2)cc1
REMARK SMILES IDX 6 1 5 2 4 3 3 4 2 5 16 6 17 7 1 8 7 10 8 11 15 12 9 13 13 14
REMARK SMILES IDX 10 15 12 16 14 17 11 19
REMARK H PARENT 1 9 14 18 11 20
REMARK Flexibility Score: inf
ROOT
ATOM      1  C   UNL     1     -31.670 -21.000 -33.905  1.00  0.00     0.040 C 
ENDROOT
BRANCH   1   2
ATOM      2  C   UNL     1     -30.699 -20.675 -32.803  1.00  0.00    -0.047 A 
ATOM      3  C   UNL     1     -29.333 -20.515 -33.087  1.00  0.00     0.007 A 
ATOM      4  C   UNL     1     -28.426 -20.246 -32.057  1.00  0.00     0.046 A 
ATOM      5  C   UNL     1     -28.874 -20.144 -30.733  1.00  0.00     0.115 A 
ATOM      6  C   UNL     1     -31.141 -20.584 -31.473  1.00  0.00     0.007 A 
ATOM      7  C   UNL     1     -30.231 -20.315 -30.445  1.00  0.00     0.046 A 
BRANCH   5   8
ATOM      8  O   UNL     1     -27.980 -19.875 -29.699  1.00  0.00    -0.508 OA
ATOM      9  H   UNL     1     -27.120 -20.400 -29.594  1.00  0.00     0.293 HD
ENDBRANCH   5   8
ENDBRANCH   1   2
BRANCH   1  10
ATOM     10  C   UNL     1     -31.822 -22.516 -34.061  1.00  0.00     0.040 C 
BRANCH  10  11
ATOM     11  C   UNL     1     -31.963 -22.887 -35.512  1.00  0.00    -0.040 A 
ATOM     12  C   UNL     1     -32.967 -22.299 -36.298  1.00  0.00     0.050 A 
ATOM     13  C   UNL     1     -31.057 -23.781 -36.106  1.00  0.00     0.050 A 
ATOM     14  C   UNL     1     -33.080 -22.621 -37.658  1.00  0.00     0.119 A 
ATOM     15  C   UNL     1     -31.168 -24.103 -37.462  1.00  0.00     0.119 A 
ATOM     16  C   UNL     1     -32.182 -23.523 -38.236  1.00  0.00     0.092 A 
BRANCH  14  17
ATOM     17  O   UNL     1     -34.077 -22.046 -38.443  1.00  0.00    -0.508 OA
ATOM     18  H   UNL     1     -34.567 -21.209 -38.149  1.00  0.00     0.293 HD
ENDBRANCH  14  17
BRANCH  15  19
ATOM     19  O   UNL     1     -30.264 -24.997 -38.032  1.00  0.00    -0.508 OA
ATOM     20  H   UNL     1     -30.347 -25.997 -37.890  1.00  0.00     0.293 HD
ENDBRANCH  15  19
ENDBRANCH  10  11
ENDBRANCH   1  10
TORSDOF 6
ENDMDL
MODEL 2
REMARK VINA RESULT:    -6.392      0.078      2.036
REMARK INTER + INTRA:          -8.488
REMARK INTER:                  -8.074
REMARK INTRA:                  -0.415
REMARK UNBOUND:                -0.415
REMARK SMILES Oc1ccc(CCc2cc(O)cc(O)c2)cc1
REMARK SMILES IDX 6 1 5 2 4 3 3 4 2 5 16 6 17 7 1 8 7 10 8 11 15 12 9 13 13 14
REMARK SMILES IDX 10 15 12 16 14 17 11 19
REMARK H PARENT 1 9 14 18 11 20
REMARK Flexibility Score: inf
ROOT
ATOM      1  C   UNL     1     -31.731 -21.032 -33.859  1.00  0.00     0.040 C 
ENDROOT
BRANCH   1   2
ATOM      2  C   UNL     1     -30.745 -20.702 -32.772  1.00  0.00    -0.047 A 
ATOM      3  C   UNL     1     -29.405 -20.427 -33.091  1.00  0.00     0.007 A 
ATOM      4  C   UNL     1     -28.481 -20.152 -32.078  1.00  0.00     0.046 A 
ATOM      5  C   UNL     1     -28.886 -20.160 -30.736  1.00  0.00     0.115 A 
ATOM      6  C   UNL     1     -31.142 -20.722 -31.425  1.00  0.00     0.007 A 
ATOM      7  C   UNL     1     -30.215 -20.447 -30.414  1.00  0.00     0.046 A 
BRANCH   5   8
ATOM      8  O   UNL     1     -27.975 -19.888 -29.718  1.00  0.00    -0.508 OA
ATOM      9  H   UNL     1     -28.234 -19.332 -28.911  1.00  0.00     0.293 HD
ENDBRANCH   5   8
ENDBRANCH   1   2
BRANCH   1  10
ATOM     10  C   UNL     1     -31.818 -22.547 -34.066  1.00  0.00     0.040 C 
BRANCH  10  11
ATOM     11  C   UNL     1     -31.909 -22.876 -35.532  1.00  0.00    -0.040 A 
ATOM     12  C   UNL     1     -31.003 -23.778 -36.112  1.00  0.00     0.050 A 
ATOM     13  C   UNL     1     -32.935 -22.327 -36.319  1.00  0.00     0.050 A 
ATOM     14  C   UNL     1     -31.107 -24.109 -37.470  1.00  0.00     0.119 A 
ATOM     15  C   UNL     1     -33.040 -22.656 -37.674  1.00  0.00     0.119 A 
ATOM     16  C   UNL     1     -32.123 -23.546 -38.248  1.00  0.00     0.092 A 
BRANCH  14  17
ATOM     17  O   UNL     1     -30.208 -24.999 -38.054  1.00  0.00    -0.508 OA
ATOM     18  H   UNL     1     -30.137 -25.961 -37.745  1.00  0.00     0.293 HD
ENDBRANCH  14  17
BRANCH  15  19
ATOM     19  O   UNL     1     -34.060 -22.096 -38.440  1.00  0.00    -0.508 OA
ATOM     20  H   UNL     1     -34.333 -21.126 -38.331  1.00  0.00     0.293 HD
ENDBRANCH  15  19
ENDBRANCH  10  11
ENDBRANCH   1  10
TORSDOF 6
ENDMDL
MODEL 3
REMARK VINA RESULT:    -5.737      1.308      2.562
REMARK INTER + INTRA:          -7.661
REMARK INTER:                  -7.229
REMARK INTRA:                  -0.432
REMARK UNBOUND:                -0.415
REMARK SMILES Oc1ccc(CCc2cc(O)cc(O)c2)cc1
REMARK SMILES IDX 6 1 5 2 4 3 3 4 2 5 16 6 17 7 1 8 7 10 8 11 15 12 9 13 13 14
REMARK SMILES IDX 10 15 12 16 14 17 11 19
REMARK H PARENT 1 9 14 18 11 20
REMARK Flexibility Score: inf
ROOT
ATOM      1  C   UNL     1     -31.343 -21.406 -34.012  1.00  0.00     0.040 C 
ENDROOT
BRANCH   1   2
ATOM      2  C   UNL     1     -30.884 -21.615 -32.595  1.00  0.00    -0.047 A 
ATOM      3  C   UNL     1     -30.847 -22.907 -32.046  1.00  0.00     0.007 A 
ATOM      4  C   UNL     1     -30.451 -23.099 -30.719  1.00  0.00     0.046 A 
ATOM      5  C   UNL     1     -30.098 -21.999 -29.925  1.00  0.00     0.115 A 
ATOM      6  C   UNL     1     -30.541 -20.516 -31.791  1.00  0.00     0.007 A 
ATOM      7  C   UNL     1     -30.145 -20.710 -30.464  1.00  0.00     0.046 A 
BRANCH   5   8
ATOM      8  O   UNL     1     -29.701 -22.176 -28.601  1.00  0.00    -0.508 OA
ATOM      9  H   UNL     1     -30.082 -21.607 -27.854  1.00  0.00     0.293 HD
ENDBRANCH   5   8
ENDBRANCH   1   2
BRANCH   1  10
ATOM     10  C   UNL     1     -32.350 -22.486 -34.418  1.00  0.00     0.040 C 
BRANCH  10  11
ATOM     11  C   UNL     1     -32.199 -22.829 -35.876  1.00  0.00    -0.040 A 
ATOM     12  C   UNL     1     -31.272 -23.802 -36.281  1.00  0.00     0.050 A 
ATOM     13  C   UNL     1     -33.024 -22.220 -36.835  1.00  0.00     0.050 A 
ATOM     14  C   UNL     1     -31.153 -24.145 -37.635  1.00  0.00     0.119 A 
ATOM     15  C   UNL     1     -32.908 -22.561 -38.186  1.00  0.00     0.119 A 
ATOM     16  C   UNL     1     -31.969 -23.522 -38.585  1.00  0.00     0.092 A 
BRANCH  14  17
ATOM     17  O   UNL     1     -30.231 -25.105 -38.046  1.00  0.00    -0.508 OA
ATOM     18  H   UNL     1     -29.731 -25.680 -37.378  1.00  0.00     0.293 HD
ENDBRANCH  14  17
BRANCH  15  19
ATOM     19  O   UNL     1     -33.730 -21.941 -39.125  1.00  0.00    -0.508 OA
ATOM     20  H   UNL     1     -33.361 -21.279 -39.797  1.00  0.00     0.293 HD
ENDBRANCH  15  19
ENDBRANCH  10  11
ENDBRANCH   1  10
TORSDOF 6
ENDMDL
MODEL 4
REMARK VINA RESULT:    -5.611      1.315      1.522
REMARK INTER + INTRA:          -7.502
REMARK INTER:                  -7.076
REMARK INTRA:                  -0.426
REMARK UNBOUND:                -0.415
REMARK SMILES Oc1ccc(CCc2cc(O)cc(O)c2)cc1
REMARK SMILES IDX 6 1 5 2 4 3 3 4 2 5 16 6 17 7 1 8 7 10 8 11 15 12 9 13 13 14
REMARK SMILES IDX 10 15 12 16 14 17 11 19
REMARK H PARENT 1 9 14 18 11 20
REMARK Flexibility Score: inf
ROOT
ATOM      1  C   UNL     1     -31.140 -21.501 -34.045  1.00  0.00     0.040 C 
ENDROOT
BRANCH   1   2
ATOM      2  C   UNL     1     -30.786 -21.651 -32.590  1.00  0.00    -0.047 A 
ATOM      3  C   UNL     1     -30.395 -20.532 -31.837  1.00  0.00     0.007 A 
ATOM      4  C   UNL     1     -30.035 -20.676 -30.494  1.00  0.00     0.046 A 
ATOM      5  C   UNL     1     -30.052 -21.943 -29.894  1.00  0.00     0.115 A 
ATOM      6  C   UNL     1     -30.789 -22.919 -31.987  1.00  0.00     0.007 A 
ATOM      7  C   UNL     1     -30.428 -23.061 -30.644  1.00  0.00     0.046 A 
BRANCH   5   8
ATOM      8  O   UNL     1     -29.696 -22.100 -28.556  1.00  0.00    -0.508 OA
ATOM      9  H   UNL     1     -28.966 -21.538 -28.134  1.00  0.00     0.293 HD
ENDBRANCH   5   8
ENDBRANCH   1   2
BRANCH   1  10
ATOM     10  C   UNL     1     -32.316 -22.412 -34.411  1.00  0.00     0.040 C 
BRANCH  10  11
ATOM     11  C   UNL     1     -32.231 -22.831 -35.854  1.00  0.00    -0.040 A 
ATOM     12  C   UNL     1     -33.052 -22.222 -36.816  1.00  0.00     0.050 A 
ATOM     13  C   UNL     1     -31.292 -23.793 -36.258  1.00  0.00     0.050 A 
ATOM     14  C   UNL     1     -32.952 -22.590 -38.165  1.00  0.00     0.119 A 
ATOM     15  C   UNL     1     -31.190 -24.161 -37.603  1.00  0.00     0.119 A 
ATOM     16  C   UNL     1     -32.023 -23.559 -38.555  1.00  0.00     0.092 A 
BRANCH  14  17
ATOM     17  O   UNL     1     -33.768 -21.994 -39.125  1.00  0.00    -0.508 OA
ATOM     18  H   UNL     1     -33.394 -21.357 -39.818  1.00  0.00     0.293 HD
ENDBRANCH  14  17
BRANCH  15  19
ATOM     19  O   UNL     1     -30.256 -25.122 -37.984  1.00  0.00    -0.508 OA
ATOM     20  H   UNL     1     -29.740 -25.045 -38.853  1.00  0.00     0.293 HD
ENDBRANCH  15  19
ENDBRANCH  10  11
ENDBRANCH   1  10
TORSDOF 6
ENDMDL
MODEL 5
REMARK VINA RESULT:    -5.129      3.693      7.952
REMARK INTER + INTRA:          -6.894
REMARK INTER:                  -6.345
REMARK INTRA:                  -0.549
REMARK UNBOUND:                -0.415
REMARK SMILES Oc1ccc(CCc2cc(O)cc(O)c2)cc1
REMARK SMILES IDX 6 1 5 2 4 3 3 4 2 5 16 6 17 7 1 8 7 10 8 11 15 12 9 13 13 14
REMARK SMILES IDX 10 15 12 16 14 17 11 19
REMARK H PARENT 1 9 14 18 11 20
REMARK Flexibility Score: inf
ROOT
ATOM      1  C   UNL     1     -31.294 -25.481 -38.070  1.00  0.00     0.040 C 
ENDROOT
BRANCH   1   2
ATOM      2  C   UNL     1     -32.041 -26.752 -38.374  1.00  0.00    -0.047 A 
ATOM      3  C   UNL     1     -33.417 -26.845 -38.111  1.00  0.00     0.007 A 
ATOM      4  C   UNL     1     -34.104 -28.037 -38.363  1.00  0.00     0.046 A 
ATOM      5  C   UNL     1     -33.418 -29.150 -38.870  1.00  0.00     0.115 A 
ATOM      6  C   UNL     1     -31.357 -27.874 -38.869  1.00  0.00     0.007 A 
ATOM      7  C   UNL     1     -32.046 -29.065 -39.120  1.00  0.00     0.046 A 
BRANCH   5   8
ATOM      8  O   UNL     1     -34.091 -30.342 -39.125  1.00  0.00    -0.508 OA
ATOM      9  H   UNL     1     -34.225 -31.040 -38.402  1.00  0.00     0.293 HD
ENDBRANCH   5   8
ENDBRANCH   1   2
BRANCH   1  10
ATOM     10  C   UNL     1     -32.101 -24.260 -38.524  1.00  0.00     0.040 C 
BRANCH  10  11
ATOM     11  C   UNL     1     -32.389 -23.354 -37.358  1.00  0.00    -0.040 A 
ATOM     12  C   UNL     1     -33.101 -22.159 -37.550  1.00  0.00     0.050 A 
ATOM     13  C   UNL     1     -31.998 -23.723 -36.060  1.00  0.00     0.050 A 
ATOM     14  C   UNL     1     -33.397 -21.330 -36.459  1.00  0.00     0.119 A 
ATOM     15  C   UNL     1     -32.293 -22.897 -34.971  1.00  0.00     0.119 A 
ATOM     16  C   UNL     1     -32.991 -21.698 -35.174  1.00  0.00     0.092 A 
BRANCH  14  17
ATOM     17  O   UNL     1     -34.098 -20.139 -36.643  1.00  0.00    -0.508 OA
ATOM     18  H   UNL     1     -34.311 -19.524 -35.867  1.00  0.00     0.293 HD
ENDBRANCH  14  17
BRANCH  15  19
ATOM     19  O   UNL     1     -31.891 -23.276 -33.692  1.00  0.00    -0.508 OA
ATOM     20  H   UNL     1     -30.918 -23.238 -33.409  1.00  0.00     0.293 HD
ENDBRANCH  15  19
ENDBRANCH  10  11
ENDBRANCH   1  10
TORSDOF 6
ENDMDL
MODEL 6
REMARK VINA RESULT:    -5.079      1.857      6.985
REMARK INTER + INTRA:          -6.830
REMARK INTER:                  -6.350
REMARK INTRA:                  -0.480
REMARK UNBOUND:                -0.415
REMARK SMILES Oc1ccc(CCc2cc(O)cc(O)c2)cc1
REMARK SMILES IDX 6 1 5 2 4 3 3 4 2 5 16 6 17 7 1 8 7 10 8 11 15 12 9 13 13 14
REMARK SMILES IDX 10 15 12 16 14 17 11 19
REMARK H PARENT 1 9 14 18 11 20
REMARK Flexibility Score: inf
ROOT
ATOM      1  C   UNL     1     -31.958 -22.337 -35.130  1.00  0.00     0.040 C 
ENDROOT
BRANCH   1   2
ATOM      2  C   UNL     1     -31.919 -23.458 -36.134  1.00  0.00    -0.047 A 
ATOM      3  C   UNL     1     -30.792 -23.639 -36.951  1.00  0.00     0.007 A 
ATOM      4  C   UNL     1     -30.769 -24.660 -37.905  1.00  0.00     0.046 A 
ATOM      5  C   UNL     1     -31.879 -25.503 -38.060  1.00  0.00     0.115 A 
ATOM      6  C   UNL     1     -33.033 -24.297 -36.301  1.00  0.00     0.007 A 
ATOM      7  C   UNL     1     -33.008 -25.317 -37.258  1.00  0.00     0.046 A 
BRANCH   5   8
ATOM      8  O   UNL     1     -31.869 -26.524 -39.008  1.00  0.00    -0.508 OA
ATOM      9  H   UNL     1     -31.017 -26.793 -39.487  1.00  0.00     0.293 HD
ENDBRANCH   5   8
ENDBRANCH   1   2
BRANCH   1  10
ATOM     10  C   UNL     1     -31.772 -22.879 -33.710  1.00  0.00     0.040 C 
BRANCH  10  11
ATOM     11  C   UNL     1     -30.773 -22.046 -32.953  1.00  0.00    -0.040 A 
ATOM     12  C   UNL     1     -30.792 -22.021 -31.549  1.00  0.00     0.050 A 
ATOM     13  C   UNL     1     -29.779 -21.332 -33.642  1.00  0.00     0.050 A 
ATOM     14  C   UNL     1     -29.842 -21.270 -30.842  1.00  0.00     0.119 A 
ATOM     15  C   UNL     1     -28.831 -20.583 -32.939  1.00  0.00     0.119 A 
ATOM     16  C   UNL     1     -28.866 -20.551 -31.538  1.00  0.00     0.092 A 
BRANCH  14  17
ATOM     17  O   UNL     1     -29.859 -21.236 -29.450  1.00  0.00    -0.508 OA
ATOM     18  H   UNL     1     -30.266 -20.458 -28.943  1.00  0.00     0.293 HD
ENDBRANCH  14  17
BRANCH  15  19
ATOM     19  O   UNL     1     -27.856 -19.875 -33.640  1.00  0.00    -0.508 OA
ATOM     20  H   UNL     1     -28.005 -18.916 -33.933  1.00  0.00     0.293 HD
ENDBRANCH  15  19
ENDBRANCH  10  11
ENDBRANCH   1  10
TORSDOF 6
ENDMDL
MODEL 7
REMARK VINA RESULT:    -5.062      3.699      8.087
REMARK INTER + INTRA:          -6.809
REMARK INTER:                  -6.274
REMARK INTRA:                  -0.535
REMARK UNBOUND:                -0.415
REMARK SMILES Oc1ccc(CCc2cc(O)cc(O)c2)cc1
REMARK SMILES IDX 6 1 5 2 4 3 3 4 2 5 16 6 17 7 1 8 7 10 8 11 15 12 9 13 13 14
REMARK SMILES IDX 10 15 12 16 14 17 11 19
REMARK H PARENT 1 9 14 18 11 20
REMARK Flexibility Score: inf
ROOT
ATOM      1  C   UNL     1     -31.106 -25.424 -38.110  1.00  0.00     0.040 C 
ENDROOT
BRANCH   1   2
ATOM      2  C   UNL     1     -31.900 -26.673 -38.386  1.00  0.00    -0.047 A 
ATOM      3  C   UNL     1     -33.277 -26.712 -38.113  1.00  0.00     0.007 A 
ATOM      4  C   UNL     1     -34.008 -27.882 -38.339  1.00  0.00     0.046 A 
ATOM      5  C   UNL     1     -33.366 -29.028 -38.829  1.00  0.00     0.115 A 
ATOM      6  C   UNL     1     -31.260 -27.828 -38.865  1.00  0.00     0.007 A 
ATOM      7  C   UNL     1     -31.993 -28.997 -39.089  1.00  0.00     0.046 A 
BRANCH   5   8
ATOM      8  O   UNL     1     -34.083 -30.200 -39.058  1.00  0.00    -0.508 OA
ATOM      9  H   UNL     1     -34.318 -30.833 -38.302  1.00  0.00     0.293 HD
ENDBRANCH   5   8
ENDBRANCH   1   2
BRANCH   1  10
ATOM     10  C   UNL     1     -31.870 -24.185 -38.584  1.00  0.00     0.040 C 
BRANCH  10  11
ATOM     11  C   UNL     1     -32.291 -23.341 -37.411  1.00  0.00    -0.040 A 
ATOM     12  C   UNL     1     -31.904 -23.697 -36.109  1.00  0.00     0.050 A 
ATOM     13  C   UNL     1     -33.025 -22.162 -37.614  1.00  0.00     0.050 A 
ATOM     14  C   UNL     1     -32.268 -22.895 -35.019  1.00  0.00     0.119 A 
ATOM     15  C   UNL     1     -33.390 -21.360 -36.528  1.00  0.00     0.119 A 
ATOM     16  C   UNL     1     -33.012 -21.730 -35.230  1.00  0.00     0.092 A 
BRANCH  14  17
ATOM     17  O   UNL     1     -31.893 -23.245 -33.724  1.00  0.00    -0.508 OA
ATOM     18  H   UNL     1     -32.219 -24.101 -33.290  1.00  0.00     0.293 HD
ENDBRANCH  14  17
BRANCH  15  19
ATOM     19  O   UNL     1     -34.125 -20.197 -36.748  1.00  0.00    -0.508 OA
ATOM     20  H   UNL     1     -34.567 -19.697 -35.986  1.00  0.00     0.293 HD
ENDBRANCH  15  19
ENDBRANCH  10  11
ENDBRANCH   1  10
TORSDOF 6
ENDMDL
MODEL 8
REMARK VINA RESULT:    -4.920      1.471      7.126
REMARK INTER + INTRA:          -6.630
REMARK INTER:                  -6.167
REMARK INTRA:                  -0.463
REMARK UNBOUND:                -0.415
REMARK SMILES Oc1ccc(CCc2cc(O)cc(O)c2)cc1
REMARK SMILES IDX 6 1 5 2 4 3 3 4 2 5 16 6 17 7 1 8 7 10 8 11 15 12 9 13 13 14
REMARK SMILES IDX 10 15 12 16 14 17 11 19
REMARK H PARENT 1 9 14 18 11 20
REMARK Flexibility Score: inf
ROOT
ATOM      1  C   UNL     1     -31.305 -22.476 -33.592  1.00  0.00     0.040 C 
ENDROOT
BRANCH   1   2
ATOM      2  C   UNL     1     -32.069 -22.452 -34.888  1.00  0.00    -0.047 A 
ATOM      3  C   UNL     1     -31.929 -23.500 -35.812  1.00  0.00     0.007 A 
ATOM      4  C   UNL     1     -32.614 -23.463 -37.030  1.00  0.00     0.046 A 
ATOM      5  C   UNL     1     -33.437 -22.371 -37.341  1.00  0.00     0.115 A 
ATOM      6  C   UNL     1     -32.885 -21.355 -35.209  1.00  0.00     0.007 A 
ATOM      7  C   UNL     1     -33.568 -21.320 -36.429  1.00  0.00     0.046 A 
BRANCH   5   8
ATOM      8  O   UNL     1     -34.125 -22.322 -38.551  1.00  0.00    -0.508 OA
ATOM      9  H   UNL     1     -33.966 -23.010 -39.278  1.00  0.00     0.293 HD
ENDBRANCH   5   8
ENDBRANCH   1   2
BRANCH   1  10
ATOM     10  C   UNL     1     -30.270 -21.348 -33.556  1.00  0.00     0.040 C 
BRANCH  10  11
ATOM     11  C   UNL     1     -30.123 -20.809 -32.158  1.00  0.00    -0.040 A 
ATOM     12  C   UNL     1     -31.258 -20.583 -31.363  1.00  0.00     0.050 A 
ATOM     13  C   UNL     1     -28.846 -20.582 -31.618  1.00  0.00     0.050 A 
ATOM     14  C   UNL     1     -31.120 -20.112 -30.051  1.00  0.00     0.119 A 
ATOM     15  C   UNL     1     -28.707 -20.112 -30.308  1.00  0.00     0.119 A 
ATOM     16  C   UNL     1     -29.846 -19.875 -29.527  1.00  0.00     0.092 A 
BRANCH  14  17
ATOM     17  O   UNL     1     -32.242 -19.880 -29.259  1.00  0.00    -0.508 OA
ATOM     18  H   UNL     1     -32.678 -20.623 -28.726  1.00  0.00     0.293 HD
ENDBRANCH  14  17
BRANCH  15  19
ATOM     19  O   UNL     1     -27.432 -19.885 -29.792  1.00  0.00    -0.508 OA
ATOM     20  H   UNL     1     -26.654 -20.494 -30.016  1.00  0.00     0.293 HD
ENDBRANCH  15  19
ENDBRANCH  10  11
ENDBRANCH   1  10
TORSDOF 6
ENDMDL
MODEL 9
REMARK VINA RESULT:    -4.845      1.411      7.161
REMARK INTER + INTRA:          -6.534
REMARK INTER:                  -6.079
REMARK INTRA:                  -0.455
REMARK UNBOUND:                -0.415
REMARK SMILES Oc1ccc(CCc2cc(O)cc(O)c2)cc1
REMARK SMILES IDX 6 1 5 2 4 3 3 4 2 5 16 6 17 7 1 8 7 10 8 11 15 12 9 13 13 14
REMARK SMILES IDX 10 15 12 16 14 17 11 19
REMARK H PARENT 1 9 14 18 11 20
REMARK Flexibility Score: inf
ROOT
ATOM      1  C   UNL     1     -31.231 -22.448 -33.783  1.00  0.00     0.040 C 
ENDROOT
BRANCH   1   2
ATOM      2  C   UNL     1     -31.974 -22.431 -35.091  1.00  0.00    -0.047 A 
ATOM      3  C   UNL     1     -32.944 -21.447 -35.341  1.00  0.00     0.007 A 
ATOM      4  C   UNL     1     -33.658 -21.450 -36.543  1.00  0.00     0.046 A 
ATOM      5  C   UNL     1     -33.416 -22.444 -37.502  1.00  0.00     0.115 A 
ATOM      6  C   UNL     1     -31.745 -23.431 -36.049  1.00  0.00     0.007 A 
ATOM      7  C   UNL     1     -32.461 -23.432 -37.251  1.00  0.00     0.046 A 
BRANCH   5   8
ATOM      8  O   UNL     1     -34.121 -22.458 -38.703  1.00  0.00    -0.508 OA
ATOM      9  H   UNL     1     -33.749 -22.913 -39.529  1.00  0.00     0.293 HD
ENDBRANCH   5   8
ENDBRANCH   1   2
BRANCH   1  10
ATOM     10  C   UNL     1     -30.241 -21.282 -33.709  1.00  0.00     0.040 C 
BRANCH  10  11
ATOM     11  C   UNL     1     -30.135 -20.766 -32.299  1.00  0.00    -0.040 A 
ATOM     12  C   UNL     1     -31.292 -20.557 -31.533  1.00  0.00     0.050 A 
ATOM     13  C   UNL     1     -28.874 -20.545 -31.720  1.00  0.00     0.050 A 
ATOM     14  C   UNL     1     -31.192 -20.107 -30.209  1.00  0.00     0.119 A 
ATOM     15  C   UNL     1     -28.772 -20.097 -30.399  1.00  0.00     0.119 A 
ATOM     16  C   UNL     1     -29.933 -19.876 -29.646  1.00  0.00     0.092 A 
BRANCH  14  17
ATOM     17  O   UNL     1     -32.337 -19.891 -29.445  1.00  0.00    -0.508 OA
ATOM     18  H   UNL     1     -32.804 -18.992 -29.433  1.00  0.00     0.293 HD
ENDBRANCH  14  17
BRANCH  15  19
ATOM     19  O   UNL     1     -27.514 -19.877 -29.844  1.00  0.00    -0.508 OA
ATOM     20  H   UNL     1     -27.215 -20.355 -29.001  1.00  0.00     0.293 HD
ENDBRANCH  15  19
ENDBRANCH  10  11
ENDBRANCH   1  10
TORSDOF 6
ENDMDL
