MODEL 1
REMARK VINA RESULT:    -6.025      0.000      0.000
REMARK INTER + INTRA:          -6.411
REMARK INTER:                  -6.377
REMARK INTRA:                  -0.033
REMARK UNBOUND:                -0.033
REMARK SMILES COc1ccc2ccc(=O)oc2c1
REMARK SMILES IDX 3 1 13 2 12 3 6 4 5 5 4 6 7 7 8 8 9 9 10 10 11 11 2 12 1 13
REMARK H PARENT
REMARK Flexibility Score: inf
ROOT
ATOM      1  C   UNL     1      73.198  44.170  -1.142  1.00  0.00     0.122 A 
ATOM      2  C   UNL     1      72.889  42.860  -1.562  1.00  0.00     0.094 A 
ATOM      3  C   UNL     1      73.512  42.315  -2.689  1.00  0.00     0.142 A 
ATOM      4  C   UNL     1      74.455  43.080  -3.410  1.00  0.00     0.018 A 
ATOM      5  C   UNL     1      74.763  44.381  -2.993  1.00  0.00     0.016 A 
ATOM      6  C   UNL     1      74.136  44.919  -1.866  1.00  0.00     0.047 A 
ATOM      7  C   UNL     1      75.061  42.506  -4.532  1.00  0.00     0.019 A 
ATOM      8  C   UNL     1      74.719  41.206  -4.905  1.00  0.00     0.094 A 
ATOM      9  C   UNL     1      73.777  40.508  -4.143  1.00  0.00     0.336 A 
ATOM     10  O   UNL     1      73.455  39.333  -4.463  1.00  0.00    -0.246 OA
ATOM     11  O   UNL     1      73.215  41.077  -3.080  1.00  0.00    -0.423 OA
ENDROOT
BRANCH   1  12
ATOM     12  O   UNL     1      72.600  44.761  -0.019  1.00  0.00    -0.497 OA
ATOM     13  C   UNL     1      71.235  45.164   0.046  1.00  0.00     0.278 C 
ENDBRANCH   1  12
TORSDOF 1
ENDMDL
MODEL 2
REMARK VINA RESULT:    -5.771      1.757      5.234
REMARK INTER + INTRA:          -6.141
REMARK INTER:                  -6.105
REMARK INTRA:                  -0.037
REMARK UNBOUND:                -0.033
REMARK SMILES COc1ccc2ccc(=O)oc2c1
REMARK SMILES IDX 3 1 13 2 12 3 6 4 5 5 4 6 7 7 8 8 9 9 10 10 11 11 2 12 1 13
REMARK H PARENT
REMARK Flexibility Score: inf
ROOT
ATOM      1  C   UNL     1      74.372  40.545  -4.574  1.00  0.00     0.122 A 
ATOM      2  C   UNL     1      74.926  41.836  -4.451  1.00  0.00     0.094 A 
ATOM      3  C   UNL     1      74.461  42.712  -3.465  1.00  0.00     0.142 A 
ATOM      4  C   UNL     1      73.431  42.302  -2.590  1.00  0.00     0.018 A 
ATOM      5  C   UNL     1      72.880  41.020  -2.711  1.00  0.00     0.016 A 
ATOM      6  C   UNL     1      73.351  40.151  -3.700  1.00  0.00     0.047 A 
ATOM      7  C   UNL     1      72.988  43.201  -1.615  1.00  0.00     0.019 A 
ATOM      8  C   UNL     1      73.570  44.467  -1.536  1.00  0.00     0.094 A 
ATOM      9  C   UNL     1      74.585  44.803  -2.436  1.00  0.00     0.336 A 
ATOM     10  O   UNL     1      75.123  45.940  -2.381  1.00  0.00    -0.246 OA
ATOM     11  O   UNL     1      74.988  43.929  -3.355  1.00  0.00    -0.423 OA
ENDROOT
BRANCH   1  12
ATOM     12  O   UNL     1      74.804  39.631  -5.547  1.00  0.00    -0.497 OA
ATOM     13  C   UNL     1      73.948  38.727  -6.237  1.00  0.00     0.278 C 
ENDBRANCH   1  12
TORSDOF 1
ENDMDL
MODEL 3
REMARK VINA RESULT:    -5.121      2.036      5.630
REMARK INTER + INTRA:          -5.454
REMARK INTER:                  -5.419
REMARK INTRA:                  -0.035
REMARK UNBOUND:                -0.033
REMARK SMILES COc1ccc2ccc(=O)oc2c1
REMARK SMILES IDX 3 1 13 2 12 3 6 4 5 5 4 6 7 7 8 8 9 9 10 10 11 11 2 12 1 13
REMARK H PARENT
REMARK Flexibility Score: inf
ROOT
ATOM      1  C   UNL     1      74.671  40.051  -5.796  1.00  0.00     0.122 A 
ATOM      2  C   UNL     1      75.036  41.379  -5.493  1.00  0.00     0.094 A 
ATOM      3  C   UNL     1      74.558  41.996  -4.333  1.00  0.00     0.142 A 
ATOM      4  C   UNL     1      73.704  41.285  -3.461  1.00  0.00     0.018 A 
ATOM      5  C   UNL     1      73.342  39.966  -3.760  1.00  0.00     0.016 A 
ATOM      6  C   UNL     1      73.824  39.357  -4.922  1.00  0.00     0.047 A 
ATOM      7  C   UNL     1      73.243  41.929  -2.308  1.00  0.00     0.019 A 
ATOM      8  C   UNL     1      73.634  43.244  -2.056  1.00  0.00     0.094 A 
ATOM      9  C   UNL     1      74.482  43.885  -2.965  1.00  0.00     0.336 A 
ATOM     10  O   UNL     1      74.847  45.072  -2.755  1.00  0.00    -0.246 OA
ATOM     11  O   UNL     1      74.907  43.250  -4.054  1.00  0.00    -0.423 OA
ENDROOT
BRANCH   1  12
ATOM     12  O   UNL     1      75.124  39.390  -6.947  1.00  0.00    -0.497 OA
ATOM     13  C   UNL     1      74.297  38.612  -7.806  1.00  0.00     0.278 C 
ENDBRANCH   1  12
TORSDOF 1
ENDMDL
MODEL 4
REMARK VINA RESULT:    -5.011      2.111      3.474
REMARK INTER + INTRA:          -5.338
REMARK INTER:                  -5.299
REMARK INTRA:                  -0.039
REMARK UNBOUND:                -0.033
REMARK SMILES COc1ccc2ccc(=O)oc2c1
REMARK SMILES IDX 3 1 13 2 12 3 6 4 5 5 4 6 7 7 8 8 9 9 10 10 11 11 2 12 1 13
REMARK H PARENT
REMARK Flexibility Score: inf
ROOT
ATOM      1  C   UNL     1      74.684  42.859  -3.489  1.00  0.00     0.122 A 
ATOM      2  C   UNL     1      75.125  42.324  -4.717  1.00  0.00     0.094 A 
ATOM      3  C   UNL     1      74.670  41.073  -5.146  1.00  0.00     0.142 A 
ATOM      4  C   UNL     1      73.765  40.342  -4.346  1.00  0.00     0.018 A 
ATOM      5  C   UNL     1      73.326  40.873  -3.126  1.00  0.00     0.016 A 
ATOM      6  C   UNL     1      73.786  42.124  -2.704  1.00  0.00     0.047 A 
ATOM      7  C   UNL     1      73.328  39.095  -4.803  1.00  0.00     0.019 A 
ATOM      8  C   UNL     1      73.796  38.612  -6.025  1.00  0.00     0.094 A 
ATOM      9  C   UNL     1      74.692  39.391  -6.764  1.00  0.00     0.336 A 
ATOM     10  O   UNL     1      75.125  38.972  -7.870  1.00  0.00    -0.246 OA
ATOM     11  O   UNL     1      75.091  40.575  -6.306  1.00  0.00    -0.423 OA
ENDROOT
BRANCH   1  12
ATOM     12  O   UNL     1      75.112  44.108  -3.016  1.00  0.00    -0.497 OA
ATOM     13  C   UNL     1      74.393  44.901  -2.076  1.00  0.00     0.278 C 
ENDBRANCH   1  12
TORSDOF 1
ENDMDL
MODEL 5
REMARK VINA RESULT:    -4.968      9.186     12.542
REMARK INTER + INTRA:          -5.292
REMARK INTER:                  -5.254
REMARK INTRA:                  -0.038
REMARK UNBOUND:                -0.033
REMARK SMILES COc1ccc2ccc(=O)oc2c1
REMARK SMILES IDX 3 1 13 2 12 3 6 4 5 5 4 6 7 7 8 8 9 9 10 10 11 11 2 12 1 13
REMARK H PARENT
REMARK Flexibility Score: inf
ROOT
ATOM      1  C   UNL     1      73.391  48.380   6.434  1.00  0.00     0.122 A 
ATOM      2  C   UNL     1      72.021  48.121   6.221  1.00  0.00     0.094 A 
ATOM      3  C   UNL     1      71.055  48.716   7.039  1.00  0.00     0.142 A 
ATOM      4  C   UNL     1      71.454  49.580   8.082  1.00  0.00     0.018 A 
ATOM      5  C   UNL     1      72.814  49.839   8.293  1.00  0.00     0.016 A 
ATOM      6  C   UNL     1      73.773  49.240   7.472  1.00  0.00     0.047 A 
ATOM      7  C   UNL     1      70.464  50.161   8.882  1.00  0.00     0.019 A 
ATOM      8  C   UNL     1      69.123  49.870   8.629  1.00  0.00     0.094 A 
ATOM      9  C   UNL     1      68.803  49.005   7.579  1.00  0.00     0.336 A 
ATOM     10  O   UNL     1      67.598  48.731   7.335  1.00  0.00    -0.246 OA
ATOM     11  O   UNL     1      69.764  48.467   6.833  1.00  0.00    -0.423 OA
ENDROOT
BRANCH   1  12
ATOM     12  O   UNL     1      74.396  47.807   5.641  1.00  0.00    -0.497 OA
ATOM     13  C   UNL     1      74.225  46.638   4.845  1.00  0.00     0.278 C 
ENDBRANCH   1  12
TORSDOF 1
ENDMDL
MODEL 6
REMARK VINA RESULT:    -4.931     10.683     12.559
REMARK INTER + INTRA:          -5.253
REMARK INTER:                  -5.214
REMARK INTRA:                  -0.039
REMARK UNBOUND:                -0.033
REMARK SMILES COc1ccc2ccc(=O)oc2c1
REMARK SMILES IDX 3 1 13 2 12 3 6 4 5 5 4 6 7 7 8 8 9 9 10 10 11 11 2 12 1 13
REMARK H PARENT
REMARK Flexibility Score: inf
ROOT
ATOM      1  C   UNL     1      68.720  49.220   8.018  1.00  0.00     0.122 A 
ATOM      2  C   UNL     1      69.588  48.559   7.125  1.00  0.00     0.094 A 
ATOM      3  C   UNL     1      70.965  48.797   7.173  1.00  0.00     0.142 A 
ATOM      4  C   UNL     1      71.489  49.704   8.119  1.00  0.00     0.018 A 
ATOM      5  C   UNL     1      70.627  50.361   9.008  1.00  0.00     0.016 A 
ATOM      6  C   UNL     1      69.252  50.118   8.953  1.00  0.00     0.047 A 
ATOM      7  C   UNL     1      72.870  49.921   8.142  1.00  0.00     0.019 A 
ATOM      8  C   UNL     1      73.684  49.241   7.237  1.00  0.00     0.094 A 
ATOM      9  C   UNL     1      73.096  48.357   6.327  1.00  0.00     0.336 A 
ATOM     10  O   UNL     1      73.814  47.734   5.502  1.00  0.00    -0.246 OA
ATOM     11  O   UNL     1      71.778  48.169   6.327  1.00  0.00    -0.423 OA
ENDROOT
BRANCH   1  12
ATOM     12  O   UNL     1      67.332  49.015   8.009  1.00  0.00    -0.497 OA
ATOM     13  C   UNL     1      66.655  48.139   7.113  1.00  0.00     0.278 C 
ENDBRANCH   1  12
TORSDOF 1
ENDMDL
MODEL 7
REMARK VINA RESULT:    -4.823      9.425     11.950
REMARK INTER + INTRA:          -5.138
REMARK INTER:                  -5.103
REMARK INTRA:                  -0.035
REMARK UNBOUND:                -0.033
REMARK SMILES COc1ccc2ccc(=O)oc2c1
REMARK SMILES IDX 3 1 13 2 12 3 6 4 5 5 4 6 7 7 8 8 9 9 10 10 11 11 2 12 1 13
REMARK H PARENT
REMARK Flexibility Score: inf
ROOT
ATOM      1  C   UNL     1      70.174  49.737   8.441  1.00  0.00     0.122 A 
ATOM      2  C   UNL     1      70.389  49.142   7.182  1.00  0.00     0.094 A 
ATOM      3  C   UNL     1      71.676  48.757   6.794  1.00  0.00     0.142 A 
ATOM      4  C   UNL     1      72.765  48.965   7.669  1.00  0.00     0.018 A 
ATOM      5  C   UNL     1      72.552  49.556   8.921  1.00  0.00     0.016 A 
ATOM      6  C   UNL     1      71.262  49.938   9.300  1.00  0.00     0.047 A 
ATOM      7  C   UNL     1      74.040  48.569   7.253  1.00  0.00     0.019 A 
ATOM      8  C   UNL     1      74.199  47.985   5.996  1.00  0.00     0.094 A 
ATOM      9  C   UNL     1      73.075  47.809   5.183  1.00  0.00     0.336 A 
ATOM     10  O   UNL     1      73.198  47.284   4.046  1.00  0.00    -0.246 OA
ATOM     11  O   UNL     1      71.873  48.195   5.603  1.00  0.00    -0.423 OA
ENDROOT
BRANCH   1  12
ATOM     12  O   UNL     1      68.902  50.141   8.874  1.00  0.00    -0.497 OA
ATOM     13  C   UNL     1      67.759  49.291   8.916  1.00  0.00     0.278 C 
ENDBRANCH   1  12
TORSDOF 1
ENDMDL
MODEL 8
REMARK VINA RESULT:    -4.740     11.972     13.641
REMARK INTER + INTRA:          -5.050
REMARK INTER:                  -5.020
REMARK INTRA:                  -0.031
REMARK UNBOUND:                -0.033
REMARK SMILES COc1ccc2ccc(=O)oc2c1
REMARK SMILES IDX 3 1 13 2 12 3 6 4 5 5 4 6 7 7 8 8 9 9 10 10 11 11 2 12 1 13
REMARK H PARENT
REMARK Flexibility Score: inf
ROOT
ATOM      1  C   UNL     1      66.667  48.780   7.786  1.00  0.00     0.122 A 
ATOM      2  C   UNL     1      67.847  48.393   7.120  1.00  0.00     0.094 A 
ATOM      3  C   UNL     1      69.081  48.933   7.497  1.00  0.00     0.142 A 
ATOM      4  C   UNL     1      69.144  49.871   8.551  1.00  0.00     0.018 A 
ATOM      5  C   UNL     1      67.971  50.256   9.214  1.00  0.00     0.016 A 
ATOM      6  C   UNL     1      66.743  49.711   8.830  1.00  0.00     0.047 A 
ATOM      7  C   UNL     1      70.392  50.393   8.905  1.00  0.00     0.019 A 
ATOM      8  C   UNL     1      71.529  49.977   8.213  1.00  0.00     0.094 A 
ATOM      9  C   UNL     1      71.390  49.044   7.181  1.00  0.00     0.336 A 
ATOM     10  O   UNL     1      72.405  48.655   6.544  1.00  0.00    -0.246 OA
ATOM     11  O   UNL     1      70.191  48.563   6.864  1.00  0.00    -0.423 OA
ENDROOT
BRANCH   1  12
ATOM     12  O   UNL     1      65.407  48.267   7.443  1.00  0.00    -0.497 OA
ATOM     13  C   UNL     1      64.685  47.320   8.224  1.00  0.00     0.278 C 
ENDBRANCH   1  12
TORSDOF 1
ENDMDL
MODEL 9
REMARK VINA RESULT:    -4.657     10.456     13.612
REMARK INTER + INTRA:          -4.963
REMARK INTER:                  -4.925
REMARK INTRA:                  -0.038
REMARK UNBOUND:                -0.033
REMARK SMILES COc1ccc2ccc(=O)oc2c1
REMARK SMILES IDX 3 1 13 2 12 3 6 4 5 5 4 6 7 7 8 8 9 9 10 10 11 11 2 12 1 13
REMARK H PARENT
REMARK Flexibility Score: inf
ROOT
ATOM      1  C   UNL     1      71.360  49.106   7.224  1.00  0.00     0.122 A 
ATOM      2  C   UNL     1      70.096  48.610   6.848  1.00  0.00     0.094 A 
ATOM      3  C   UNL     1      68.947  49.009   7.539  1.00  0.00     0.142 A 
ATOM      4  C   UNL     1      69.055  49.912   8.619  1.00  0.00     0.018 A 
ATOM      5  C   UNL     1      70.311  50.407   8.993  1.00  0.00     0.016 A 
ATOM      6  C   UNL     1      71.454  50.002   8.297  1.00  0.00     0.047 A 
ATOM      7  C   UNL     1      67.888  50.293   9.289  1.00  0.00     0.019 A 
ATOM      8  C   UNL     1      66.661  49.772   8.877  1.00  0.00     0.094 A 
ATOM      9  C   UNL     1      66.631  48.881   7.800  1.00  0.00     0.336 A 
ATOM     10  O   UNL     1      65.533  48.401   7.412  1.00  0.00    -0.246 OA
ATOM     11  O   UNL     1      67.756  48.536   7.179  1.00  0.00    -0.423 OA
ENDROOT
BRANCH   1  12
ATOM     12  O   UNL     1      72.541  48.735   6.563  1.00  0.00    -0.497 OA
ATOM     13  C   UNL     1      72.725  47.500   5.878  1.00  0.00     0.278 C 
ENDBRANCH   1  12
TORSDOF 1
ENDMDL
