MODEL 1
REMARK VINA RESULT:    -3.103      0.000      0.000
REMARK INTER + INTRA:          -4.075
REMARK INTER:                  -3.829
REMARK INTRA:                  -0.246
REMARK UNBOUND:                -0.246
REMARK SMILES CCCCCC(=O)[O-]
REMARK SMILES IDX 4 1 5 2 6 3 7 4 8 5 3 6 2 7 1 8
REMARK H PARENT
REMARK Flexibility Score: inf
ROOT
ATOM      1  C   UNL     1     -20.549 120.651  -0.543  1.00  0.00     0.006 C 
ENDROOT
BRANCH   1   2
ATOM      2  C   UNL     1     -21.851 121.309  -1.012  1.00  0.00     0.053 C 
BRANCH   2   3
ATOM      3  C   UNL     1     -23.032 120.497  -0.583  1.00  0.00     0.041 C 
ATOM      4  O   UNL     1     -22.865 119.395   0.001  1.00  0.00    -0.550 OA
ATOM      5  O   UNL     1     -24.319 120.935  -0.872  1.00  0.00    -0.550 OA
ENDBRANCH   2   3
ENDBRANCH   1   2
BRANCH   1   6
ATOM      6  C   UNL     1     -19.804 120.010  -1.722  1.00  0.00     0.000 C 
BRANCH   6   7
ATOM      7  C   UNL     1     -19.835 118.474  -1.675  1.00  0.00    -0.003 C 
ATOM      8  C   UNL     1     -20.829 117.872  -2.667  1.00  0.00     0.004 C 
ENDBRANCH   6   7
ENDBRANCH   1   6
TORSDOF 4
ENDMDL
MODEL 2
REMARK VINA RESULT:    -3.061      1.975      3.455
REMARK INTER + INTRA:          -4.023
REMARK INTER:                  -3.768
REMARK INTRA:                  -0.255
REMARK UNBOUND:                -0.246
REMARK SMILES CCCCCC(=O)[O-]
REMARK SMILES IDX 4 1 5 2 6 3 7 4 8 5 3 6 2 7 1 8
REMARK H PARENT
REMARK Flexibility Score: inf
ROOT
ATOM      1  C   UNL     1     -20.374 120.635  -1.977  1.00  0.00     0.006 C 
ENDROOT
BRANCH   1   2
ATOM      2  C   UNL     1     -19.569 119.457  -1.419  1.00  0.00     0.053 C 
BRANCH   2   3
ATOM      3  C   UNL     1     -20.290 118.168  -1.660  1.00  0.00     0.041 C 
ATOM      4  O   UNL     1     -20.148 117.558  -2.752  1.00  0.00    -0.550 OA
ATOM      5  O   UNL     1     -21.158 117.666  -0.699  1.00  0.00    -0.550 OA
ENDBRANCH   2   3
ENDBRANCH   1   2
BRANCH   1   6
ATOM      6  C   UNL     1     -21.284 121.237  -0.898  1.00  0.00     0.000 C 
BRANCH   6   7
ATOM      7  C   UNL     1     -22.770 120.932  -1.141  1.00  0.00    -0.003 C 
ATOM      8  C   UNL     1     -23.065 120.544  -2.590  1.00  0.00     0.004 C 
ENDBRANCH   6   7
ENDBRANCH   1   6
TORSDOF 4
ENDMDL
MODEL 3
REMARK VINA RESULT:    -3.057      2.496      3.232
REMARK INTER + INTRA:          -4.018
REMARK INTER:                  -3.805
REMARK INTRA:                  -0.213
REMARK UNBOUND:                -0.246
REMARK SMILES CCCCCC(=O)[O-]
REMARK SMILES IDX 4 1 5 2 6 3 7 4 8 5 3 6 2 7 1 8
REMARK H PARENT
REMARK Flexibility Score: inf
ROOT
ATOM      1  C   UNL     1     -22.711 119.711  -0.438  1.00  0.00     0.006 C 
ENDROOT
BRANCH   1   2
ATOM      2  C   UNL     1     -21.757 119.014   0.536  1.00  0.00     0.053 C 
BRANCH   2   3
ATOM      3  C   UNL     1     -21.451 117.626   0.068  1.00  0.00     0.041 C 
ATOM      4  O   UNL     1     -21.800 116.633   0.759  1.00  0.00    -0.550 OA
ATOM      5  O   UNL     1     -20.737 117.430  -1.107  1.00  0.00    -0.550 OA
ENDBRANCH   2   3
ENDBRANCH   1   2
BRANCH   1   6
ATOM      6  C   UNL     1     -22.128 121.049  -0.913  1.00  0.00     0.000 C 
BRANCH   6   7
ATOM      7  C   UNL     1     -20.594 121.086  -0.833  1.00  0.00    -0.003 C 
ATOM      8  C   UNL     1     -19.924 120.761  -2.167  1.00  0.00     0.004 C 
ENDBRANCH   6   7
ENDBRANCH   1   6
TORSDOF 4
ENDMDL
MODEL 4
REMARK VINA RESULT:    -3.053      2.359      3.140
REMARK INTER + INTRA:          -4.014
REMARK INTER:                  -3.803
REMARK INTRA:                  -0.211
REMARK UNBOUND:                -0.246
REMARK SMILES CCCCCC(=O)[O-]
REMARK SMILES IDX 4 1 5 2 6 3 7 4 8 5 3 6 2 7 1 8
REMARK H PARENT
REMARK Flexibility Score: inf
ROOT
ATOM      1  C   UNL     1     -22.630 119.532  -1.329  1.00  0.00     0.006 C 
ENDROOT
BRANCH   1   2
ATOM      2  C   UNL     1     -23.059 118.805  -0.050  1.00  0.00     0.053 C 
BRANCH   2   3
ATOM      3  C   UNL     1     -21.908 118.046   0.532  1.00  0.00     0.041 C 
ATOM      4  O   UNL     1     -21.073 117.484  -0.224  1.00  0.00    -0.550 OA
ATOM      5  O   UNL     1     -21.786 117.916   1.910  1.00  0.00    -0.550 OA
ENDBRANCH   2   3
ENDBRANCH   1   2
BRANCH   1   6
ATOM      6  C   UNL     1     -22.282 120.998  -1.035  1.00  0.00     0.000 C 
BRANCH   6   7
ATOM      7  C   UNL     1     -20.770 121.227  -0.883  1.00  0.00    -0.003 C 
ATOM      8  C   UNL     1     -19.961 120.610  -2.023  1.00  0.00     0.004 C 
ENDBRANCH   6   7
ENDBRANCH   1   6
TORSDOF 4
ENDMDL
MODEL 5
REMARK VINA RESULT:    -2.999      1.688      2.869
REMARK INTER + INTRA:          -3.947
REMARK INTER:                  -3.723
REMARK INTRA:                  -0.224
REMARK UNBOUND:                -0.246
REMARK SMILES CCCCCC(=O)[O-]
REMARK SMILES IDX 4 1 5 2 6 3 7 4 8 5 3 6 2 7 1 8
REMARK H PARENT
REMARK Flexibility Score: inf
ROOT
ATOM      1  C   UNL     1     -20.938 118.231  -1.662  1.00  0.00     0.006 C 
ENDROOT
BRANCH   1   2
ATOM      2  C   UNL     1     -21.128 117.362  -0.415  1.00  0.00     0.053 C 
BRANCH   2   3
ATOM      3  C   UNL     1     -21.968 118.075   0.598  1.00  0.00     0.041 C 
ATOM      4  O   UNL     1     -21.653 118.044   1.816  1.00  0.00    -0.550 OA
ATOM      5  O   UNL     1     -23.126 118.732   0.202  1.00  0.00    -0.550 OA
ENDBRANCH   2   3
ENDBRANCH   1   2
BRANCH   1   6
ATOM      6  C   UNL     1     -19.724 119.158  -1.503  1.00  0.00     0.000 C 
BRANCH   6   7
ATOM      7  C   UNL     1     -20.016 120.596  -1.959  1.00  0.00    -0.003 C 
ATOM      8  C   UNL     1     -21.045 121.299  -1.075  1.00  0.00     0.004 C 
ENDBRANCH   6   7
ENDBRANCH   1   6
TORSDOF 4
ENDMDL
MODEL 6
REMARK VINA RESULT:    -2.965      2.082      3.674
REMARK INTER + INTRA:          -3.904
REMARK INTER:                  -3.667
REMARK INTRA:                  -0.237
REMARK UNBOUND:                -0.246
REMARK SMILES CCCCCC(=O)[O-]
REMARK SMILES IDX 4 1 5 2 6 3 7 4 8 5 3 6 2 7 1 8
REMARK H PARENT
REMARK Flexibility Score: inf
ROOT
ATOM      1  C   UNL     1     -21.304 119.620  -2.919  1.00  0.00     0.006 C 
ENDROOT
BRANCH   1   2
ATOM      2  C   UNL     1     -20.783 118.192  -3.105  1.00  0.00     0.053 C 
BRANCH   2   3
ATOM      3  C   UNL     1     -20.305 117.634  -1.801  1.00  0.00     0.041 C 
ATOM      4  O   UNL     1     -19.135 117.183  -1.696  1.00  0.00    -0.550 OA
ATOM      5  O   UNL     1     -21.169 117.567  -0.715  1.00  0.00    -0.550 OA
ENDBRANCH   2   3
ENDBRANCH   1   2
BRANCH   1   6
ATOM      6  C   UNL     1     -20.262 120.496  -2.208  1.00  0.00     0.000 C 
BRANCH   6   7
ATOM      7  C   UNL     1     -20.842 121.234  -0.992  1.00  0.00    -0.003 C 
ATOM      8  C   UNL     1     -22.348 121.026  -0.836  1.00  0.00     0.004 C 
ENDBRANCH   6   7
ENDBRANCH   1   6
TORSDOF 4
ENDMDL
MODEL 7
REMARK VINA RESULT:    -2.959      2.033      3.082
REMARK INTER + INTRA:          -3.897
REMARK INTER:                  -3.766
REMARK INTRA:                  -0.131
REMARK UNBOUND:                -0.246
REMARK SMILES CCCCCC(=O)[O-]
REMARK SMILES IDX 4 1 5 2 6 3 7 4 8 5 3 6 2 7 1 8
REMARK H PARENT
REMARK Flexibility Score: inf
ROOT
ATOM      1  C   UNL     1     -23.119 120.366  -1.499  1.00  0.00     0.006 C 
ENDROOT
BRANCH   1   2
ATOM      2  C   UNL     1     -23.579 120.964  -2.832  1.00  0.00     0.053 C 
BRANCH   2   3
ATOM      3  C   UNL     1     -24.998 121.429  -2.736  1.00  0.00     0.041 C 
ATOM      4  O   UNL     1     -25.602 121.834  -3.763  1.00  0.00    -0.550 OA
ATOM      5  O   UNL     1     -25.637 121.461  -1.503  1.00  0.00    -0.550 OA
ENDBRANCH   2   3
ENDBRANCH   1   2
BRANCH   1   6
ATOM      6  C   UNL     1     -22.033 121.238  -0.853  1.00  0.00     0.000 C 
BRANCH   6   7
ATOM      7  C   UNL     1     -20.676 120.522  -0.766  1.00  0.00    -0.003 C 
ATOM      8  C   UNL     1     -19.817 120.729  -2.013  1.00  0.00     0.004 C 
ENDBRANCH   6   7
ENDBRANCH   1   6
TORSDOF 4
ENDMDL
MODEL 8
REMARK VINA RESULT:    -2.784      2.911      3.992
REMARK INTER + INTRA:          -3.682
REMARK INTER:                  -3.483
REMARK INTRA:                  -0.198
REMARK UNBOUND:                -0.246
REMARK SMILES CCCCCC(=O)[O-]
REMARK SMILES IDX 4 1 5 2 6 3 7 4 8 5 3 6 2 7 1 8
REMARK H PARENT
REMARK Flexibility Score: inf
ROOT
ATOM      1  C   UNL     1     -21.479 118.720   0.175  1.00  0.00     0.006 C 
ENDROOT
BRANCH   1   2
ATOM      2  C   UNL     1     -21.746 117.518  -0.737  1.00  0.00     0.053 C 
BRANCH   2   3
ATOM      3  C   UNL     1     -20.487 116.741  -0.961  1.00  0.00     0.041 C 
ATOM      4  O   UNL     1     -19.581 117.204  -1.703  1.00  0.00    -0.550 OA
ATOM      5  O   UNL     1     -20.335 115.483  -0.392  1.00  0.00    -0.550 OA
ENDBRANCH   2   3
ENDBRANCH   1   2
BRANCH   1   6
ATOM      6  C   UNL     1     -21.846 120.034  -0.530  1.00  0.00     0.000 C 
BRANCH   6   7
ATOM      7  C   UNL     1     -20.641 120.971  -0.696  1.00  0.00    -0.003 C 
ATOM      8  C   UNL     1     -19.854 120.703  -1.978  1.00  0.00     0.004 C 
ENDBRANCH   6   7
ENDBRANCH   1   6
TORSDOF 4
ENDMDL
MODEL 9
REMARK VINA RESULT:    -2.700      3.130      4.018
REMARK INTER + INTRA:          -3.577
REMARK INTER:                  -3.336
REMARK INTRA:                  -0.242
REMARK UNBOUND:                -0.246
REMARK SMILES CCCCCC(=O)[O-]
REMARK SMILES IDX 4 1 5 2 6 3 7 4 8 5 3 6 2 7 1 8
REMARK H PARENT
REMARK Flexibility Score: inf
ROOT
ATOM      1  C   UNL     1     -22.214 117.375  -0.719  1.00  0.00     0.006 C 
ENDROOT
BRANCH   1   2
ATOM      2  C   UNL     1     -21.152 118.393  -0.292  1.00  0.00     0.053 C 
BRANCH   2   3
ATOM      3  C   UNL     1     -20.242 118.712  -1.436  1.00  0.00     0.041 C 
ATOM      4  O   UNL     1     -20.043 117.862  -2.343  1.00  0.00    -0.550 OA
ATOM      5  O   UNL     1     -19.575 119.930  -1.475  1.00  0.00    -0.550 OA
ENDBRANCH   2   3
ENDBRANCH   1   2
BRANCH   1   6
ATOM      6  C   UNL     1     -22.044 116.053   0.043  1.00  0.00     0.000 C 
BRANCH   6   7
ATOM      7  C   UNL     1     -21.513 114.921  -0.850  1.00  0.00    -0.003 C 
ATOM      8  C   UNL     1     -20.014 114.683  -0.675  1.00  0.00     0.004 C 
ENDBRANCH   6   7
ENDBRANCH   1   6
TORSDOF 4
ENDMDL
