MODEL 1
REMARK VINA RESULT:    48.514      0.000      0.000
REMARK INTER + INTRA:          76.041
REMARK INTER:                  76.875
REMARK INTRA:                  -0.835
REMARK UNBOUND:                -0.835
REMARK SMILES C[C@@H]1O[C@H](O[C@@H]2[C@@H](Oc3cc(O)c4c(c3)O[C@H](c3ccc(O)cc3)CC4=O)O[C@H](CO)[C@@H](O)[C@H]2O)[C@@H](O)[C@@H](O)[C@H]1O
REMARK SMILES IDX 6 1 34 2 32 3 29 4 28 5 7 6 5 7 4 8 1 9 2 10 40 11 3 12
REMARK SMILES IDX 38 13 36 14 41 15 39 17 37 19 35 21 8 23 9 24 10 25 15 26
REMARK SMILES IDX 11 27 14 28 13 29 16 30 26 31 17 32 27 33 25 34 12 35 18 37
REMARK SMILES IDX 19 38 24 39 20 40 23 41 21 42 22 43 33 45 30 47 31 48
REMARK H PARENT 41 16 39 18 37 20 35 22 12 36 22 44 33 46 31 49
REMARK Flexibility Score: inf
ROOT
ATOM      1  C   UNL     1      -7.142  12.296  17.616  1.00  0.00     0.221 C 
ATOM      2  C   UNL     1      -8.451  12.870  18.291  1.00  0.00     0.181 C 
ATOM      3  C   UNL     1      -9.793  12.526  17.536  1.00  0.00     0.177 C 
ATOM      4  C   UNL     1      -9.655  11.146  16.828  1.00  0.00     0.179 C 
ATOM      5  O   UNL     1      -8.578  11.111  15.881  1.00  0.00    -0.332 OA
ATOM      6  C   UNL     1      -7.282  11.183  16.484  1.00  0.00     0.339 C 
ENDROOT
BRANCH   1   7
ATOM      7  O   UNL     1      -6.076  13.250  17.490  1.00  0.00    -0.337 OA
BRANCH   7   8
ATOM      8  C   UNL     1      -5.328  13.344  16.247  1.00  0.00     0.282 C 
ATOM      9  C   UNL     1      -3.729  16.109  15.723  1.00  0.00     0.041 C 
ATOM     10  C   UNL     1      -4.556  15.175  14.826  1.00  0.00     0.150 C 
ATOM     11  C   UNL     1      -3.628  14.222  14.063  1.00  0.00     0.174 C 
ATOM     12  O   UNL     1      -5.643  14.556  15.539  1.00  0.00    -0.344 OA
ATOM     13  C   UNL     1      -2.929  13.287  15.052  1.00  0.00     0.179 C 
ATOM     14  C   UNL     1      -3.852  12.749  16.223  1.00  0.00     0.202 C 
BRANCH  11  15
ATOM     15  O   UNL     1      -4.312  13.487  13.059  1.00  0.00    -0.388 OA
ATOM     16  H   UNL     1      -3.640  13.326  12.338  1.00  0.00     0.211 HD
ENDBRANCH  11  15
BRANCH  13  17
ATOM     17  O   UNL     1      -2.220  12.304  14.306  1.00  0.00    -0.387 OA
ATOM     18  H   UNL     1      -1.295  12.669  14.200  1.00  0.00     0.211 HD
ENDBRANCH  13  17
BRANCH  14  19
ATOM     19  O   UNL     1      -3.965  11.312  16.168  1.00  0.00    -0.385 OA
ATOM     20  H   UNL     1      -4.900  11.047  15.938  1.00  0.00     0.211 HD
ENDBRANCH  14  19
ENDBRANCH   7   8
ENDBRANCH   1   7
BRANCH   2  21
ATOM     21  O   UNL     1      -8.519  12.448  19.639  1.00  0.00    -0.387 OA
ATOM     22  H   UNL     1      -7.704  12.806  20.098  1.00  0.00     0.211 HD
ENDBRANCH   2  21
BRANCH   6  23
ATOM     23  O   UNL     1      -6.825   9.856  16.890  1.00  0.00    -0.462 OA
BRANCH  23  24
ATOM     24  C   UNL     1      -6.990   8.628  16.187  1.00  0.00     0.130 A 
ATOM     25  C   UNL     1      -7.889   8.542  15.118  1.00  0.00     0.093 A 
ATOM     26  C   UNL     1      -6.327   7.480  16.638  1.00  0.00     0.094 A 
ATOM     27  C   UNL     1      -8.159   7.312  14.508  1.00  0.00     0.133 A 
ATOM     28  C   UNL     1      -6.609   6.221  16.081  1.00  0.00     0.138 A 
ATOM     29  C   UNL     1      -7.574   6.128  15.038  1.00  0.00     0.102 A 
ATOM     30  O   UNL     1      -5.938   5.047  16.548  1.00  0.00    -0.484 OA
ATOM     31  C   UNL     1      -7.931   4.789  14.589  1.00  0.00     0.174 C 
ATOM     32  C   UNL     1      -6.368   3.700  16.216  1.00  0.00     0.211 C 
ATOM     33  O   UNL     1      -8.446   4.602  13.437  1.00  0.00    -0.294 OA
ATOM     34  C   UNL     1      -7.751   3.644  15.509  1.00  0.00     0.131 C 
BRANCH  27  35
ATOM     35  O   UNL     1      -9.017   7.258  13.414  1.00  0.00    -0.507 OA
ATOM     36  H   UNL     1      -9.189   8.079  12.838  1.00  0.00     0.293 HD
ENDBRANCH  27  35
BRANCH  32  37
ATOM     37  C   UNL     1      -5.306   2.972  15.419  1.00  0.00    -0.007 A 
ATOM     38  C   UNL     1      -4.310   2.228  16.059  1.00  0.00     0.011 A 
ATOM     39  C   UNL     1      -5.221   3.170  14.035  1.00  0.00     0.011 A 
ATOM     40  C   UNL     1      -3.214   1.702  15.313  1.00  0.00     0.046 A 
ATOM     41  C   UNL     1      -4.204   2.599  13.279  1.00  0.00     0.046 A 
ATOM     42  C   UNL     1      -3.196   1.872  13.923  1.00  0.00     0.115 A 
BRANCH  42  43
ATOM     43  O   UNL     1      -2.202   1.297  13.155  1.00  0.00    -0.508 OA
ATOM     44  H   UNL     1      -1.645   0.519  13.498  1.00  0.00     0.293 HD
ENDBRANCH  42  43
ENDBRANCH  32  37
ENDBRANCH  23  24
ENDBRANCH   6  23
BRANCH   3  45
ATOM     45  O   UNL     1     -10.919  12.468  18.416  1.00  0.00    -0.387 OA
ATOM     46  H   UNL     1     -11.724  12.265  17.850  1.00  0.00     0.211 HD
ENDBRANCH   3  45
BRANCH   4  47
ATOM     47  C   UNL     1     -10.976  10.658  16.158  1.00  0.00     0.191 C 
BRANCH  47  48
ATOM     48  O   UNL     1     -11.903  10.412  17.176  1.00  0.00    -0.394 OA
ATOM     49  H   UNL     1     -12.505   9.718  16.887  1.00  0.00     0.210 HD
ENDBRANCH  47  48
ENDBRANCH   4  47
TORSDOF 14
ENDMDL
MODEL 2
REMARK VINA RESULT:    49.843      3.793     11.882
REMARK INTER + INTRA:          78.146
REMARK INTER:                  79.192
REMARK INTRA:                  -1.045
REMARK UNBOUND:                -0.835
REMARK SMILES C[C@@H]1O[C@H](O[C@@H]2[C@@H](Oc3cc(O)c4c(c3)O[C@H](c3ccc(O)cc3)CC4=O)O[C@H](CO)[C@@H](O)[C@H]2O)[C@@H](O)[C@@H](O)[C@H]1O
REMARK SMILES IDX 6 1 34 2 32 3 29 4 28 5 7 6 5 7 4 8 1 9 2 10 40 11 3 12
REMARK SMILES IDX 38 13 36 14 41 15 39 17 37 19 35 21 8 23 9 24 10 25 15 26
REMARK SMILES IDX 11 27 14 28 13 29 16 30 26 31 17 32 27 33 25 34 12 35 18 37
REMARK SMILES IDX 19 38 24 39 20 40 23 41 21 42 22 43 33 45 30 47 31 48
REMARK H PARENT 41 16 39 18 37 20 35 22 12 36 22 44 33 46 31 49
REMARK Flexibility Score: inf
ROOT
ATOM      1  C   UNL     1      -0.914  -0.550  11.418  1.00  0.00     0.221 C 
ATOM      2  C   UNL     1      -1.125  -2.093  11.149  1.00  0.00     0.181 C 
ATOM      3  C   UNL     1      -1.544  -2.936  12.415  1.00  0.00     0.177 C 
ATOM      4  C   UNL     1      -2.387  -2.049  13.378  1.00  0.00     0.179 C 
ATOM      5  O   UNL     1      -1.679  -0.881  13.822  1.00  0.00    -0.332 OA
ATOM      6  C   UNL     1      -1.444   0.075  12.784  1.00  0.00     0.339 C 
ENDROOT
BRANCH   1   7
ATOM      7  O   UNL     1       0.298  -0.015  10.861  1.00  0.00    -0.337 OA
BRANCH   7   8
ATOM      8  C   UNL     1       1.120   0.891  11.646  1.00  0.00     0.282 C 
ATOM      9  C   UNL     1       4.231   1.136  10.789  1.00  0.00     0.041 C 
ATOM     10  C   UNL     1       3.505   1.075  12.142  1.00  0.00     0.150 C 
ATOM     11  C   UNL     1       3.304   2.490  12.695  1.00  0.00     0.174 C 
ATOM     12  O   UNL     1       2.327   0.247  12.091  1.00  0.00    -0.344 OA
ATOM     13  C   UNL     1       2.353   3.267  11.783  1.00  0.00     0.179 C 
ATOM     14  C   UNL     1       1.121   2.430  11.242  1.00  0.00     0.202 C 
BRANCH  11  15
ATOM     15  O   UNL     1       2.838   2.487  14.037  1.00  0.00    -0.388 OA
ATOM     16  H   UNL     1       1.872   2.729  13.987  1.00  0.00     0.211 HD
ENDBRANCH  11  15
BRANCH  13  17
ATOM     17  O   UNL     1       2.046   4.505  12.414  1.00  0.00    -0.387 OA
ATOM     18  H   UNL     1       1.810   4.269  13.357  1.00  0.00     0.211 HD
ENDBRANCH  13  17
BRANCH  14  19
ATOM     19  O   UNL     1      -0.124   2.999  11.697  1.00  0.00    -0.385 OA
ATOM     20  H   UNL     1      -0.534   3.556  10.975  1.00  0.00     0.211 HD
ENDBRANCH  14  19
ENDBRANCH   7   8
ENDBRANCH   1   7
BRANCH   2  21
ATOM     21  O   UNL     1      -2.059  -2.274  10.102  1.00  0.00    -0.387 OA
ATOM     22  H   UNL     1      -2.967  -2.113  10.492  1.00  0.00     0.211 HD
ENDBRANCH   2  21
BRANCH   6  23
ATOM     23  O   UNL     1      -2.594   0.964  12.628  1.00  0.00    -0.462 OA
BRANCH  23  24
ATOM     24  C   UNL     1      -3.350   1.594  13.658  1.00  0.00     0.130 A 
ATOM     25  C   UNL     1      -3.236   1.161  14.984  1.00  0.00     0.093 A 
ATOM     26  C   UNL     1      -4.287   2.580  13.322  1.00  0.00     0.094 A 
ATOM     27  C   UNL     1      -4.070   1.679  15.980  1.00  0.00     0.133 A 
ATOM     28  C   UNL     1      -5.173   3.089  14.287  1.00  0.00     0.138 A 
ATOM     29  C   UNL     1      -5.097   2.596  15.621  1.00  0.00     0.102 A 
ATOM     30  O   UNL     1      -6.135   4.088  13.942  1.00  0.00    -0.484 OA
ATOM     31  C   UNL     1      -6.124   3.052  16.549  1.00  0.00     0.174 C 
ATOM     32  C   UNL     1      -7.244   4.456  14.804  1.00  0.00     0.211 C 
ATOM     33  O   UNL     1      -5.929   3.010  17.809  1.00  0.00    -0.294 OA
ATOM     34  C   UNL     1      -7.428   3.507  16.021  1.00  0.00     0.131 C 
BRANCH  27  35
ATOM     35  O   UNL     1      -3.905   1.271  17.300  1.00  0.00    -0.507 OA
ATOM     36  H   UNL     1      -3.000   0.959  17.646  1.00  0.00     0.293 HD
ENDBRANCH  27  35
BRANCH  32  37
ATOM     37  C   UNL     1      -7.138   5.904  15.238  1.00  0.00    -0.007 A 
ATOM     38  C   UNL     1      -7.487   6.943  14.370  1.00  0.00     0.011 A 
ATOM     39  C   UNL     1      -6.536   6.217  16.463  1.00  0.00     0.011 A 
ATOM     40  C   UNL     1      -7.210   8.296  14.721  1.00  0.00     0.046 A 
ATOM     41  C   UNL     1      -6.330   7.534  16.858  1.00  0.00     0.046 A 
ATOM     42  C   UNL     1      -6.661   8.573  15.980  1.00  0.00     0.115 A 
BRANCH  42  43
ATOM     43  O   UNL     1      -6.465   9.876  16.394  1.00  0.00    -0.508 OA
ATOM     44  H   UNL     1      -6.359  10.637  15.729  1.00  0.00     0.293 HD
ENDBRANCH  42  43
ENDBRANCH  32  37
ENDBRANCH  23  24
ENDBRANCH   6  23
BRANCH   3  45
ATOM     45  O   UNL     1      -2.319  -4.089  12.075  1.00  0.00    -0.387 OA
ATOM     46  H   UNL     1      -1.792  -4.606  11.393  1.00  0.00     0.211 HD
ENDBRANCH   3  45
BRANCH   4  47
ATOM     47  C   UNL     1      -2.957  -2.829  14.602  1.00  0.00     0.191 C 
BRANCH  47  48
ATOM     48  O   UNL     1      -3.993  -3.645  14.139  1.00  0.00    -0.394 OA
ATOM     49  H   UNL     1      -4.036  -3.580  13.179  1.00  0.00     0.210 HD
ENDBRANCH  47  48
ENDBRANCH   4  47
TORSDOF 14
ENDMDL
MODEL 3
REMARK VINA RESULT:    50.810      4.998     11.722
REMARK INTER + INTRA:          79.678
REMARK INTER:                  80.624
REMARK INTRA:                  -0.946
REMARK UNBOUND:                -0.835
REMARK SMILES C[C@@H]1O[C@H](O[C@@H]2[C@@H](Oc3cc(O)c4c(c3)O[C@H](c3ccc(O)cc3)CC4=O)O[C@H](CO)[C@@H](O)[C@H]2O)[C@@H](O)[C@@H](O)[C@H]1O
REMARK SMILES IDX 6 1 34 2 32 3 29 4 28 5 7 6 5 7 4 8 1 9 2 10 40 11 3 12
REMARK SMILES IDX 38 13 36 14 41 15 39 17 37 19 35 21 8 23 9 24 10 25 15 26
REMARK SMILES IDX 11 27 14 28 13 29 16 30 26 31 17 32 27 33 25 34 12 35 18 37
REMARK SMILES IDX 19 38 24 39 20 40 23 41 21 42 22 43 33 45 30 47 31 48
REMARK H PARENT 41 16 39 18 37 20 35 22 12 36 22 44 33 46 31 49
REMARK Flexibility Score: inf
ROOT
ATOM      1  C   UNL     1       0.440   1.648  10.706  1.00  0.00     0.221 C 
ATOM      2  C   UNL     1       1.839   2.186  11.206  1.00  0.00     0.181 C 
ATOM      3  C   UNL     1       1.790   3.582  11.939  1.00  0.00     0.177 C 
ATOM      4  C   UNL     1       0.430   3.735  12.681  1.00  0.00     0.179 C 
ATOM      5  O   UNL     1      -0.699   3.644  11.800  1.00  0.00    -0.332 OA
ATOM      6  C   UNL     1      -0.891   2.337  11.248  1.00  0.00     0.339 C 
ENDROOT
BRANCH   1   7
ATOM      7  O   UNL     1       0.442   1.167   9.353  1.00  0.00    -0.337 OA
BRANCH   7   8
ATOM      8  C   UNL     1       1.144   1.909   8.319  1.00  0.00     0.282 C 
ATOM      9  C   UNL     1       2.778   0.164   6.137  1.00  0.00     0.041 C 
ATOM     10  C   UNL     1       3.071   1.476   6.882  1.00  0.00     0.150 C 
ATOM     11  C   UNL     1       2.711   2.675   5.997  1.00  0.00     0.174 C 
ATOM     12  O   UNL     1       2.513   1.485   8.210  1.00  0.00    -0.344 OA
ATOM     13  C   UNL     1       1.200   2.699   5.758  1.00  0.00     0.179 C 
ATOM     14  C   UNL     1       0.321   2.338   7.026  1.00  0.00     0.202 C 
BRANCH  11  15
ATOM     15  O   UNL     1       3.162   3.906   6.543  1.00  0.00    -0.388 OA
ATOM     16  H   UNL     1       4.152   3.816   6.629  1.00  0.00     0.211 HD
ENDBRANCH  11  15
BRANCH  13  17
ATOM     17  O   UNL     1       0.877   3.914   5.091  1.00  0.00    -0.387 OA
ATOM     18  H   UNL     1       1.742   4.409   5.009  1.00  0.00     0.211 HD
ENDBRANCH  13  17
BRANCH  14  19
ATOM     19  O   UNL     1      -0.522   3.449   7.397  1.00  0.00    -0.385 OA
ATOM     20  H   UNL     1      -1.354   3.118   7.841  1.00  0.00     0.211 HD
ENDBRANCH  14  19
ENDBRANCH   7   8
ENDBRANCH   1   7
BRANCH   2  21
ATOM     21  O   UNL     1       2.460   1.217  12.028  1.00  0.00    -0.387 OA
ATOM     22  H   UNL     1       1.814   0.456  12.119  1.00  0.00     0.211 HD
ENDBRANCH   2  21
BRANCH   6  23
ATOM     23  O   UNL     1      -1.670   1.500  12.158  1.00  0.00    -0.462 OA
BRANCH  23  24
ATOM     24  C   UNL     1      -2.549   1.928  13.193  1.00  0.00     0.130 A 
ATOM     25  C   UNL     1      -2.441   1.390  14.480  1.00  0.00     0.093 A 
ATOM     26  C   UNL     1      -3.591   2.815  12.891  1.00  0.00     0.094 A 
ATOM     27  C   UNL     1      -3.381   1.702  15.468  1.00  0.00     0.133 A 
ATOM     28  C   UNL     1      -4.580   3.113  13.844  1.00  0.00     0.138 A 
ATOM     29  C   UNL     1      -4.503   2.510  15.131  1.00  0.00     0.102 A 
ATOM     30  O   UNL     1      -5.649   4.011  13.532  1.00  0.00    -0.484 OA
ATOM     31  C   UNL     1      -5.622   2.742  16.034  1.00  0.00     0.174 C 
ATOM     32  C   UNL     1      -6.836   4.152  14.357  1.00  0.00     0.211 C 
ATOM     33  O   UNL     1      -5.482   2.606  17.295  1.00  0.00    -0.294 OA
ATOM     34  C   UNL     1      -6.949   3.076  15.474  1.00  0.00     0.131 C 
BRANCH  27  35
ATOM     35  O   UNL     1      -3.225   1.195  16.754  1.00  0.00    -0.507 OA
ATOM     36  H   UNL     1      -2.366   1.344  17.279  1.00  0.00     0.293 HD
ENDBRANCH  27  35
BRANCH  32  37
ATOM     37  C   UNL     1      -6.942   5.553  14.922  1.00  0.00    -0.007 A 
ATOM     38  C   UNL     1      -7.493   6.593  14.168  1.00  0.00     0.011 A 
ATOM     39  C   UNL     1      -6.339   5.852  16.151  1.00  0.00     0.011 A 
ATOM     40  C   UNL     1      -7.420   7.938  14.636  1.00  0.00     0.046 A 
ATOM     41  C   UNL     1      -6.328   7.145  16.661  1.00  0.00     0.046 A 
ATOM     42  C   UNL     1      -6.862   8.189  15.896  1.00  0.00     0.115 A 
BRANCH  42  43
ATOM     43  O   UNL     1      -6.857   9.465  16.425  1.00  0.00    -0.508 OA
ATOM     44  H   UNL     1      -7.561  10.152  16.167  1.00  0.00     0.293 HD
ENDBRANCH  42  43
ENDBRANCH  32  37
ENDBRANCH  23  24
ENDBRANCH   6  23
BRANCH   3  45
ATOM     45  O   UNL     1       2.843   3.738  12.895  1.00  0.00    -0.387 OA
ATOM     46  H   UNL     1       2.437   4.158  13.713  1.00  0.00     0.211 HD
ENDBRANCH   3  45
BRANCH   4  47
ATOM     47  C   UNL     1       0.335   5.032  13.542  1.00  0.00     0.191 C 
BRANCH  47  48
ATOM     48  O   UNL     1      -0.291   6.012  12.765  1.00  0.00    -0.394 OA
ATOM     49  H   UNL     1      -0.577   6.729  13.341  1.00  0.00     0.210 HD
ENDBRANCH  47  48
ENDBRANCH   4  47
TORSDOF 14
ENDMDL
