MODEL 1
REMARK VINA RESULT:    -4.334      0.000      0.000
REMARK INTER + INTRA:          -5.616
REMARK INTER:                  -5.347
REMARK INTRA:                  -0.268
REMARK UNBOUND:                -0.268
REMARK SMILES O=c1c(O)c(-c2cc(O)c(O)c(O)c2)oc2cc(O)cc(O)c12
REMARK SMILES IDX 5 1 3 2 2 3 1 4 23 5 21 6 20 7 18 8 17 9 16 10 15 11 6 12
REMARK SMILES IDX 7 13 8 14 14 15 10 16 12 17 9 18 11 20 13 22 4 24 22 26
REMARK SMILES IDX 19 28
REMARK H PARENT 9 19 11 21 13 23 4 25 22 27 19 29
REMARK Flexibility Score: inf
ROOT
ATOM      1  C   UNL     1     -13.361 -34.332  32.563  1.00  0.00     0.180 A 
ATOM      2  C   UNL     1     -14.590 -33.682  32.773  1.00  0.00     0.208 A 
ATOM      3  C   UNL     1     -14.653 -32.626  33.696  1.00  0.00     0.238 A 
ATOM      4  O   UNL     1     -15.738 -32.001  33.823  1.00  0.00    -0.285 OA
ATOM      5  C   UNL     1     -13.503 -32.269  34.439  1.00  0.00     0.111 A 
ATOM      6  C   UNL     1     -13.464 -31.245  35.434  1.00  0.00     0.134 A 
ATOM      7  C   UNL     1     -12.242 -30.908  36.030  1.00  0.00     0.093 A 
ATOM      8  C   UNL     1     -11.072 -31.598  35.716  1.00  0.00     0.123 A 
ATOM      9  C   UNL     1     -11.109 -32.638  34.786  1.00  0.00     0.094 A 
ATOM     10  C   UNL     1     -12.305 -32.972  34.146  1.00  0.00     0.146 A 
ATOM     11  O   UNL     1     -12.291 -33.953  33.251  1.00  0.00    -0.452 OA
ENDROOT
BRANCH   1  12
ATOM     12  C   UNL     1     -13.211 -35.443  31.596  1.00  0.00     0.029 A 
ATOM     13  C   UNL     1     -13.262 -35.173  30.223  1.00  0.00     0.062 A 
ATOM     14  C   UNL     1     -13.143 -36.204  29.288  1.00  0.00     0.162 A 
ATOM     15  C   UNL     1     -13.080 -36.773  32.026  1.00  0.00     0.062 A 
ATOM     16  C   UNL     1     -12.987 -37.535  29.717  1.00  0.00     0.200 A 
ATOM     17  C   UNL     1     -12.963 -37.819  31.104  1.00  0.00     0.162 A 
BRANCH  14  18
ATOM     18  O   UNL     1     -13.182 -35.886  27.930  1.00  0.00    -0.504 OA
ATOM     19  H   UNL     1     -12.422 -35.406  27.464  1.00  0.00     0.293 HD
ENDBRANCH  14  18
BRANCH  16  20
ATOM     20  O   UNL     1     -12.862 -38.536  28.749  1.00  0.00    -0.502 OA
ATOM     21  H   UNL     1     -13.066 -38.405  27.768  1.00  0.00     0.293 HD
ENDBRANCH  16  20
BRANCH  17  22
ATOM     22  O   UNL     1     -12.834 -39.115  31.607  1.00  0.00    -0.504 OA
ATOM     23  H   UNL     1     -12.704 -39.333  32.585  1.00  0.00     0.293 HD
ENDBRANCH  17  22
ENDBRANCH   1  12
BRANCH   2  24
ATOM     24  O   UNL     1     -15.732 -34.100  32.084  1.00  0.00    -0.502 OA
ATOM     25  H   UNL     1     -16.039 -35.064  32.074  1.00  0.00     0.293 HD
ENDBRANCH   2  24
BRANCH   6  26
ATOM     26  O   UNL     1     -14.589 -30.551  35.889  1.00  0.00    -0.507 OA
ATOM     27  H   UNL     1     -14.999 -30.653  36.804  1.00  0.00     0.293 HD
ENDBRANCH   6  26
BRANCH   8  28
ATOM     28  O   UNL     1      -9.878 -31.247  36.342  1.00  0.00    -0.508 OA
ATOM     29  H   UNL     1      -9.456 -30.335  36.206  1.00  0.00     0.293 HD
ENDBRANCH   8  28
TORSDOF 7
ENDMDL
MODEL 2
REMARK VINA RESULT:    -4.299      0.095      1.768
REMARK INTER + INTRA:          -5.573
REMARK INTER:                  -5.267
REMARK INTRA:                  -0.305
REMARK UNBOUND:                -0.268
REMARK SMILES O=c1c(O)c(-c2cc(O)c(O)c(O)c2)oc2cc(O)cc(O)c12
REMARK SMILES IDX 5 1 3 2 2 3 1 4 23 5 21 6 20 7 18 8 17 9 16 10 15 11 6 12
REMARK SMILES IDX 7 13 8 14 14 15 10 16 12 17 9 18 11 20 13 22 4 24 22 26
REMARK SMILES IDX 19 28
REMARK H PARENT 9 19 11 21 13 23 4 25 22 27 19 29
REMARK Flexibility Score: inf
ROOT
ATOM      1  C   UNL     1     -13.417 -34.371  32.507  1.00  0.00     0.180 A 
ATOM      2  C   UNL     1     -14.633 -33.700  32.721  1.00  0.00     0.208 A 
ATOM      3  C   UNL     1     -14.676 -32.649  33.652  1.00  0.00     0.238 A 
ATOM      4  O   UNL     1     -15.749 -32.004  33.784  1.00  0.00    -0.285 OA
ATOM      5  C   UNL     1     -13.519 -32.319  34.398  1.00  0.00     0.111 A 
ATOM      6  C   UNL     1     -13.460 -31.303  35.400  1.00  0.00     0.134 A 
ATOM      7  C   UNL     1     -12.233 -30.993  35.998  1.00  0.00     0.093 A 
ATOM      8  C   UNL     1     -11.076 -31.703  35.678  1.00  0.00     0.123 A 
ATOM      9  C   UNL     1     -11.133 -32.735  34.742  1.00  0.00     0.094 A 
ATOM     10  C   UNL     1     -12.335 -33.042  34.099  1.00  0.00     0.146 A 
ATOM     11  O   UNL     1     -12.339 -34.017  33.198  1.00  0.00    -0.452 OA
ENDROOT
BRANCH   1  12
ATOM     12  C   UNL     1     -13.288 -35.478  31.532  1.00  0.00     0.029 A 
ATOM     13  C   UNL     1     -13.138 -36.791  31.998  1.00  0.00     0.062 A 
ATOM     14  C   UNL     1     -12.995 -37.853  31.101  1.00  0.00     0.162 A 
ATOM     15  C   UNL     1     -13.254 -35.236  30.150  1.00  0.00     0.062 A 
ATOM     16  C   UNL     1     -12.984 -37.614  29.715  1.00  0.00     0.200 A 
ATOM     17  C   UNL     1     -13.108 -36.287  29.238  1.00  0.00     0.162 A 
BRANCH  14  18
ATOM     18  O   UNL     1     -12.863 -39.146  31.610  1.00  0.00    -0.504 OA
ATOM     19  H   UNL     1     -12.745 -39.954  31.011  1.00  0.00     0.293 HD
ENDBRANCH  14  18
BRANCH  16  20
ATOM     20  O   UNL     1     -12.848 -38.706  28.853  1.00  0.00    -0.502 OA
ATOM     21  H   UNL     1     -11.990 -38.952  28.380  1.00  0.00     0.293 HD
ENDBRANCH  16  20
BRANCH  17  22
ATOM     22  O   UNL     1     -13.084 -35.967  27.880  1.00  0.00    -0.504 OA
ATOM     23  H   UNL     1     -12.806 -36.609  27.151  1.00  0.00     0.293 HD
ENDBRANCH  17  22
ENDBRANCH   1  12
BRANCH   2  24
ATOM     24  O   UNL     1     -15.783 -34.090  32.031  1.00  0.00    -0.502 OA
ATOM     25  H   UNL     1     -16.574 -34.523  32.491  1.00  0.00     0.293 HD
ENDBRANCH   2  24
BRANCH   6  26
ATOM     26  O   UNL     1     -14.572 -30.591  35.860  1.00  0.00    -0.507 OA
ATOM     27  H   UNL     1     -14.621 -29.588  35.945  1.00  0.00     0.293 HD
ENDBRANCH   6  26
BRANCH   8  28
ATOM     28  O   UNL     1      -9.875 -31.379  36.306  1.00  0.00    -0.508 OA
ATOM     29  H   UNL     1      -8.981 -31.544  35.858  1.00  0.00     0.293 HD
ENDBRANCH   8  28
TORSDOF 7
ENDMDL
MODEL 3
REMARK VINA RESULT:    -3.415      1.300      7.070
REMARK INTER + INTRA:          -4.481
REMARK INTER:                  -4.187
REMARK INTRA:                  -0.294
REMARK UNBOUND:                -0.268
REMARK SMILES O=c1c(O)c(-c2cc(O)c(O)c(O)c2)oc2cc(O)cc(O)c12
REMARK SMILES IDX 5 1 3 2 2 3 1 4 23 5 21 6 20 7 18 8 17 9 16 10 15 11 6 12
REMARK SMILES IDX 7 13 8 14 14 15 10 16 12 17 9 18 11 20 13 22 4 24 22 26
REMARK SMILES IDX 19 28
REMARK H PARENT 9 19 11 21 13 23 4 25 22 27 19 29
REMARK Flexibility Score: inf
ROOT
ATOM      1  C   UNL     1     -12.770 -34.454  32.360  1.00  0.00     0.180 A 
ATOM      2  C   UNL     1     -13.099 -34.113  31.037  1.00  0.00     0.208 A 
ATOM      3  C   UNL     1     -13.244 -35.135  30.086  1.00  0.00     0.238 A 
ATOM      4  O   UNL     1     -13.612 -34.828  28.922  1.00  0.00    -0.285 OA
ATOM      5  C   UNL     1     -13.002 -36.481  30.453  1.00  0.00     0.111 A 
ATOM      6  C   UNL     1     -13.075 -37.593  29.560  1.00  0.00     0.134 A 
ATOM      7  C   UNL     1     -12.919 -38.892  30.061  1.00  0.00     0.093 A 
ATOM      8  C   UNL     1     -12.632 -39.116  31.407  1.00  0.00     0.123 A 
ATOM      9  C   UNL     1     -12.503 -38.033  32.278  1.00  0.00     0.094 A 
ATOM     10  C   UNL     1     -12.691 -36.728  31.817  1.00  0.00     0.146 A 
ATOM     11  O   UNL     1     -12.582 -35.729  32.684  1.00  0.00    -0.452 OA
ENDROOT
BRANCH   1  12
ATOM     12  C   UNL     1     -12.615 -33.435  33.423  1.00  0.00     0.029 A 
ATOM     13  C   UNL     1     -11.340 -33.163  33.935  1.00  0.00     0.062 A 
ATOM     14  C   UNL     1     -11.166 -32.220  34.951  1.00  0.00     0.162 A 
ATOM     15  C   UNL     1     -13.726 -32.776  33.972  1.00  0.00     0.062 A 
ATOM     16  C   UNL     1     -12.277 -31.541  35.486  1.00  0.00     0.200 A 
ATOM     17  C   UNL     1     -13.571 -31.831  34.993  1.00  0.00     0.162 A 
BRANCH  14  18
ATOM     18  O   UNL     1      -9.875 -31.969  35.420  1.00  0.00    -0.504 OA
ATOM     19  H   UNL     1      -9.326 -32.674  35.897  1.00  0.00     0.293 HD
ENDBRANCH  14  18
BRANCH  16  20
ATOM     20  O   UNL     1     -12.057 -30.599  36.495  1.00  0.00    -0.502 OA
ATOM     21  H   UNL     1     -11.396 -29.838  36.427  1.00  0.00     0.293 HD
ENDBRANCH  16  20
BRANCH  17  22
ATOM     22  O   UNL     1     -14.723 -31.217  35.487  1.00  0.00    -0.504 OA
ATOM     23  H   UNL     1     -15.200 -30.454  35.030  1.00  0.00     0.293 HD
ENDBRANCH  17  22
ENDBRANCH   1  12
BRANCH   2  24
ATOM     24  O   UNL     1     -13.259 -32.772  30.676  1.00  0.00    -0.502 OA
ATOM     25  H   UNL     1     -14.022 -32.454  30.092  1.00  0.00     0.293 HD
ENDBRANCH   2  24
BRANCH   6  26
ATOM     26  O   UNL     1     -13.270 -37.479  28.181  1.00  0.00    -0.507 OA
ATOM     27  H   UNL     1     -13.959 -36.888  27.742  1.00  0.00     0.293 HD
ENDBRANCH   6  26
BRANCH   8  28
ATOM     28  O   UNL     1     -12.466 -40.421  31.866  1.00  0.00    -0.508 OA
ATOM     29  H   UNL     1     -13.197 -40.898  32.381  1.00  0.00     0.293 HD
ENDBRANCH   8  28
TORSDOF 7
ENDMDL
MODEL 4
REMARK VINA RESULT:    -3.414      1.895      7.188
REMARK INTER + INTRA:          -4.481
REMARK INTER:                  -4.368
REMARK INTRA:                  -0.113
REMARK UNBOUND:                -0.268
REMARK SMILES O=c1c(O)c(-c2cc(O)c(O)c(O)c2)oc2cc(O)cc(O)c12
REMARK SMILES IDX 5 1 3 2 2 3 1 4 23 5 21 6 20 7 18 8 17 9 16 10 15 11 6 12
REMARK SMILES IDX 7 13 8 14 14 15 10 16 12 17 9 18 11 20 13 22 4 24 22 26
REMARK SMILES IDX 19 28
REMARK H PARENT 9 19 11 21 13 23 4 25 22 27 19 29
REMARK Flexibility Score: inf
ROOT
ATOM      1  C   UNL     1     -12.579 -33.918  31.896  1.00  0.00     0.180 A 
ATOM      2  C   UNL     1     -12.128 -35.233  31.687  1.00  0.00     0.208 A 
ATOM      3  C   UNL     1     -12.253 -35.801  30.409  1.00  0.00     0.238 A 
ATOM      4  O   UNL     1     -11.780 -36.950  30.211  1.00  0.00    -0.285 OA
ATOM      5  C   UNL     1     -12.878 -35.070  29.370  1.00  0.00     0.111 A 
ATOM      6  C   UNL     1     -13.099 -35.564  28.048  1.00  0.00     0.134 A 
ATOM      7  C   UNL     1     -13.632 -34.711  27.074  1.00  0.00     0.093 A 
ATOM      8  C   UNL     1     -14.010 -33.406  27.386  1.00  0.00     0.123 A 
ATOM      9  C   UNL     1     -13.850 -32.931  28.688  1.00  0.00     0.094 A 
ATOM     10  C   UNL     1     -13.286 -33.744  29.674  1.00  0.00     0.146 A 
ATOM     11  O   UNL     1     -13.131 -33.245  30.894  1.00  0.00    -0.452 OA
ENDROOT
BRANCH   1  12
ATOM     12  C   UNL     1     -12.468 -33.246  33.211  1.00  0.00     0.029 A 
ATOM     13  C   UNL     1     -13.604 -32.661  33.783  1.00  0.00     0.062 A 
ATOM     14  C   UNL     1     -13.525 -32.003  35.014  1.00  0.00     0.162 A 
ATOM     15  C   UNL     1     -11.234 -33.129  33.870  1.00  0.00     0.062 A 
ATOM     16  C   UNL     1     -12.294 -31.906  35.687  1.00  0.00     0.200 A 
ATOM     17  C   UNL     1     -11.135 -32.470  35.101  1.00  0.00     0.162 A 
BRANCH  14  18
ATOM     18  O   UNL     1     -14.687 -31.450  35.553  1.00  0.00    -0.504 OA
ATOM     19  H   UNL     1     -14.803 -31.298  36.548  1.00  0.00     0.293 HD
ENDBRANCH  14  18
BRANCH  16  20
ATOM     20  O   UNL     1     -12.261 -31.247  36.920  1.00  0.00    -0.502 OA
ATOM     21  H   UNL     1     -12.392 -30.252  37.035  1.00  0.00     0.293 HD
ENDBRANCH  16  20
BRANCH  17  22
ATOM     22  O   UNL     1      -9.875 -32.395  35.696  1.00  0.00    -0.504 OA
ATOM     23  H   UNL     1      -9.005 -32.523  35.200  1.00  0.00     0.293 HD
ENDBRANCH  17  22
ENDBRANCH   1  12
BRANCH   2  24
ATOM     24  O   UNL     1     -11.583 -35.966  32.745  1.00  0.00    -0.502 OA
ATOM     25  H   UNL     1     -11.363 -35.548  33.640  1.00  0.00     0.293 HD
ENDBRANCH   2  24
BRANCH   6  26
ATOM     26  O   UNL     1     -12.841 -36.878  27.650  1.00  0.00    -0.507 OA
ATOM     27  H   UNL     1     -12.045 -37.170  27.103  1.00  0.00     0.293 HD
ENDBRANCH   6  26
BRANCH   8  28
ATOM     28  O   UNL     1     -14.553 -32.592  26.394  1.00  0.00    -0.508 OA
ATOM     29  H   UNL     1     -14.977 -32.983  25.561  1.00  0.00     0.293 HD
ENDBRANCH   8  28
TORSDOF 7
ENDMDL
MODEL 5
REMARK VINA RESULT:    -3.242      1.780      7.116
REMARK INTER + INTRA:          -4.268
REMARK INTER:                  -3.976
REMARK INTRA:                  -0.292
REMARK UNBOUND:                -0.268
REMARK SMILES O=c1c(O)c(-c2cc(O)c(O)c(O)c2)oc2cc(O)cc(O)c12
REMARK SMILES IDX 5 1 3 2 2 3 1 4 23 5 21 6 20 7 18 8 17 9 16 10 15 11 6 12
REMARK SMILES IDX 7 13 8 14 14 15 10 16 12 17 9 18 11 20 13 22 4 24 22 26
REMARK SMILES IDX 19 28
REMARK H PARENT 9 19 11 21 13 23 4 25 22 27 19 29
REMARK Flexibility Score: inf
ROOT
ATOM      1  C   UNL     1     -12.699 -34.327  31.811  1.00  0.00     0.180 A 
ATOM      2  C   UNL     1     -13.259 -35.615  31.852  1.00  0.00     0.208 A 
ATOM      3  C   UNL     1     -13.346 -36.358  30.663  1.00  0.00     0.238 A 
ATOM      4  O   UNL     1     -13.778 -37.539  30.721  1.00  0.00    -0.285 OA
ATOM      5  C   UNL     1     -12.926 -35.784  29.439  1.00  0.00     0.111 A 
ATOM      6  C   UNL     1     -13.011 -36.428  28.167  1.00  0.00     0.134 A 
ATOM      7  C   UNL     1     -12.467 -35.802  27.039  1.00  0.00     0.093 A 
ATOM      8  C   UNL     1     -11.899 -34.531  27.123  1.00  0.00     0.123 A 
ATOM      9  C   UNL     1     -11.861 -33.869  28.350  1.00  0.00     0.094 A 
ATOM     10  C   UNL     1     -12.361 -34.483  29.502  1.00  0.00     0.146 A 
ATOM     11  O   UNL     1     -12.284 -33.826  30.653  1.00  0.00    -0.452 OA
ENDROOT
BRANCH   1  12
ATOM     12  C   UNL     1     -12.560 -33.489  33.023  1.00  0.00     0.029 A 
ATOM     13  C   UNL     1     -11.305 -33.363  33.632  1.00  0.00     0.062 A 
ATOM     14  C   UNL     1     -11.147 -32.594  34.789  1.00  0.00     0.162 A 
ATOM     15  C   UNL     1     -13.670 -32.864  33.612  1.00  0.00     0.062 A 
ATOM     16  C   UNL     1     -12.256 -31.948  35.366  1.00  0.00     0.200 A 
ATOM     17  C   UNL     1     -13.532 -32.094  34.772  1.00  0.00     0.162 A 
BRANCH  14  18
ATOM     18  O   UNL     1      -9.875 -32.483  35.352  1.00  0.00    -0.504 OA
ATOM     19  H   UNL     1      -9.399 -33.272  35.773  1.00  0.00     0.293 HD
ENDBRANCH  14  18
BRANCH  16  20
ATOM     20  O   UNL     1     -12.052 -31.181  36.518  1.00  0.00    -0.502 OA
ATOM     21  H   UNL     1     -11.440 -31.448  37.276  1.00  0.00     0.293 HD
ENDBRANCH  16  20
BRANCH  17  22
ATOM     22  O   UNL     1     -14.682 -31.503  35.299  1.00  0.00    -0.504 OA
ATOM     23  H   UNL     1     -14.677 -30.707  35.920  1.00  0.00     0.293 HD
ENDBRANCH  17  22
ENDBRANCH   1  12
BRANCH   2  24
ATOM     24  O   UNL     1     -13.737 -36.136  33.057  1.00  0.00    -0.502 OA
ATOM     25  H   UNL     1     -14.250 -35.576  33.726  1.00  0.00     0.293 HD
ENDBRANCH   2  24
BRANCH   6  26
ATOM     26  O   UNL     1     -13.637 -37.659  27.953  1.00  0.00    -0.507 OA
ATOM     27  H   UNL     1     -14.287 -37.855  27.208  1.00  0.00     0.293 HD
ENDBRANCH   6  26
BRANCH   8  28
ATOM     28  O   UNL     1     -11.383 -33.932  25.976  1.00  0.00    -0.508 OA
ATOM     29  H   UNL     1     -11.104 -32.958  25.967  1.00  0.00     0.293 HD
ENDBRANCH   8  28
TORSDOF 7
ENDMDL
MODEL 6
REMARK VINA RESULT:    -3.164      1.961      7.478
REMARK INTER + INTRA:          -4.172
REMARK INTER:                  -3.833
REMARK INTRA:                  -0.339
REMARK UNBOUND:                -0.268
REMARK SMILES O=c1c(O)c(-c2cc(O)c(O)c(O)c2)oc2cc(O)cc(O)c12
REMARK SMILES IDX 5 1 3 2 2 3 1 4 23 5 21 6 20 7 18 8 17 9 16 10 15 11 6 12
REMARK SMILES IDX 7 13 8 14 14 15 10 16 12 17 9 18 11 20 13 22 4 24 22 26
REMARK SMILES IDX 19 28
REMARK H PARENT 9 19 11 21 13 23 4 25 22 27 19 29
REMARK Flexibility Score: inf
ROOT
ATOM      1  C   UNL     1     -11.526 -33.205  33.327  1.00  0.00     0.180 A 
ATOM      2  C   UNL     1     -10.664 -32.761  32.310  1.00  0.00     0.208 A 
ATOM      3  C   UNL     1     -10.594 -33.488  31.111  1.00  0.00     0.238 A 
ATOM      4  O   UNL     1      -9.877 -33.043  30.178  1.00  0.00    -0.285 OA
ATOM      5  C   UNL     1     -11.342 -34.680  30.964  1.00  0.00     0.111 A 
ATOM      6  C   UNL     1     -11.313 -35.522  29.810  1.00  0.00     0.134 A 
ATOM      7  C   UNL     1     -12.177 -36.621  29.736  1.00  0.00     0.093 A 
ATOM      8  C   UNL     1     -13.023 -36.947  30.795  1.00  0.00     0.123 A 
ATOM      9  C   UNL     1     -13.019 -36.165  31.950  1.00  0.00     0.094 A 
ATOM     10  C   UNL     1     -12.197 -35.039  32.040  1.00  0.00     0.146 A 
ATOM     11  O   UNL     1     -12.242 -34.309  33.148  1.00  0.00    -0.452 OA
ENDROOT
BRANCH   1  12
ATOM     12  C   UNL     1     -11.666 -32.484  34.613  1.00  0.00     0.029 A 
ATOM     13  C   UNL     1     -10.731 -32.705  35.632  1.00  0.00     0.062 A 
ATOM     14  C   UNL     1     -10.849 -32.053  36.862  1.00  0.00     0.162 A 
ATOM     15  C   UNL     1     -12.752 -31.627  34.857  1.00  0.00     0.062 A 
ATOM     16  C   UNL     1     -11.923 -31.176  37.099  1.00  0.00     0.200 A 
ATOM     17  C   UNL     1     -12.888 -30.969  36.084  1.00  0.00     0.162 A 
BRANCH  14  18
ATOM     18  O   UNL     1      -9.884 -32.292  37.842  1.00  0.00    -0.504 OA
ATOM     19  H   UNL     1      -9.389 -33.172  37.911  1.00  0.00     0.293 HD
ENDBRANCH  14  18
BRANCH  16  20
ATOM     20  O   UNL     1     -11.999 -30.538  38.341  1.00  0.00    -0.502 OA
ATOM     21  H   UNL     1     -12.593 -29.745  38.536  1.00  0.00     0.293 HD
ENDBRANCH  16  20
BRANCH  17  22
ATOM     22  O   UNL     1     -13.993 -30.133  36.252  1.00  0.00    -0.504 OA
ATOM     23  H   UNL     1     -14.116 -29.505  37.034  1.00  0.00     0.293 HD
ENDBRANCH  17  22
ENDBRANCH   1  12
BRANCH   2  24
ATOM     24  O   UNL     1      -9.876 -31.623  32.503  1.00  0.00    -0.502 OA
ATOM     25  H   UNL     1      -9.769 -30.909  31.794  1.00  0.00     0.293 HD
ENDBRANCH   2  24
BRANCH   6  26
ATOM     26  O   UNL     1     -10.444 -35.340  28.730  1.00  0.00    -0.507 OA
ATOM     27  H   UNL     1      -9.459 -35.552  28.740  1.00  0.00     0.293 HD
ENDBRANCH   6  26
BRANCH   8  28
ATOM     28  O   UNL     1     -13.857 -38.059  30.692  1.00  0.00    -0.508 OA
ATOM     29  H   UNL     1     -14.772 -37.996  30.261  1.00  0.00     0.293 HD
ENDBRANCH   8  28
TORSDOF 7
ENDMDL
MODEL 7
REMARK VINA RESULT:    -2.783      2.477      7.415
REMARK INTER + INTRA:          -3.702
REMARK INTER:                  -3.959
REMARK INTRA:                   0.258
REMARK UNBOUND:                -0.268
REMARK SMILES O=c1c(O)c(-c2cc(O)c(O)c(O)c2)oc2cc(O)cc(O)c12
REMARK SMILES IDX 5 1 3 2 2 3 1 4 23 5 21 6 20 7 18 8 17 9 16 10 15 11 6 12
REMARK SMILES IDX 7 13 8 14 14 15 10 16 12 17 9 18 11 20 13 22 4 24 22 26
REMARK SMILES IDX 19 28
REMARK H PARENT 9 19 11 21 13 23 4 25 22 27 19 29
REMARK Flexibility Score: inf
ROOT
ATOM      1  C   UNL     1     -11.963 -33.710  31.247  1.00  0.00     0.180 A 
ATOM      2  C   UNL     1     -10.926 -34.570  30.847  1.00  0.00     0.208 A 
ATOM      3  C   UNL     1     -10.851 -34.967  29.502  1.00  0.00     0.238 A 
ATOM      4  O   UNL     1      -9.877 -35.675  29.137  1.00  0.00    -0.285 OA
ATOM      5  C   UNL     1     -11.845 -34.548  28.587  1.00  0.00     0.111 A 
ATOM      6  C   UNL     1     -11.895 -34.927  27.210  1.00  0.00     0.134 A 
ATOM      7  C   UNL     1     -12.867 -34.365  26.374  1.00  0.00     0.093 A 
ATOM      8  C   UNL     1     -13.829 -33.488  26.874  1.00  0.00     0.123 A 
ATOM      9  C   UNL     1     -13.825 -33.154  28.229  1.00  0.00     0.094 A 
ATOM     10  C   UNL     1     -12.844 -33.668  29.081  1.00  0.00     0.146 A 
ATOM     11  O   UNL     1     -12.863 -33.306  30.358  1.00  0.00    -0.452 OA
ENDROOT
BRANCH   1  12
ATOM     12  C   UNL     1     -12.100 -33.235  32.643  1.00  0.00     0.029 A 
ATOM     13  C   UNL     1     -10.951 -33.045  33.421  1.00  0.00     0.062 A 
ATOM     14  C   UNL     1     -11.051 -32.616  34.748  1.00  0.00     0.162 A 
ATOM     15  C   UNL     1     -13.360 -33.029  33.225  1.00  0.00     0.062 A 
ATOM     16  C   UNL     1     -12.313 -32.385  35.325  1.00  0.00     0.200 A 
ATOM     17  C   UNL     1     -13.480 -32.603  34.553  1.00  0.00     0.162 A 
BRANCH  14  18
ATOM     18  O   UNL     1      -9.878 -32.424  35.480  1.00  0.00    -0.504 OA
ATOM     19  H   UNL     1      -9.855 -32.485  36.490  1.00  0.00     0.293 HD
ENDBRANCH  14  18
BRANCH  16  20
ATOM     20  O   UNL     1     -12.368 -31.949  36.651  1.00  0.00    -0.502 OA
ATOM     21  H   UNL     1     -12.648 -31.020  36.932  1.00  0.00     0.293 HD
ENDBRANCH  16  20
BRANCH  17  22
ATOM     22  O   UNL     1     -14.767 -32.418  35.061  1.00  0.00    -0.504 OA
ATOM     23  H   UNL     1     -15.528 -33.068  34.925  1.00  0.00     0.293 HD
ENDBRANCH  17  22
ENDBRANCH   1  12
BRANCH   2  24
ATOM     24  O   UNL     1      -9.997 -35.034  31.782  1.00  0.00    -0.502 OA
ATOM     25  H   UNL     1      -9.476 -34.411  32.387  1.00  0.00     0.293 HD
ENDBRANCH   2  24
BRANCH   6  26
ATOM     26  O   UNL     1     -11.037 -35.863  26.624  1.00  0.00    -0.507 OA
ATOM     27  H   UNL     1     -10.370 -35.659  25.897  1.00  0.00     0.293 HD
ENDBRANCH   6  26
BRANCH   8  28
ATOM     28  O   UNL     1     -14.792 -32.962  26.016  1.00  0.00    -0.508 OA
ATOM     29  H   UNL     1     -14.987 -33.384  25.115  1.00  0.00     0.293 HD
ENDBRANCH   8  28
TORSDOF 7
ENDMDL
MODEL 8
REMARK VINA RESULT:    -1.933      2.700      4.200
REMARK INTER + INTRA:          -2.653
REMARK INTER:                  -2.758
REMARK INTRA:                   0.105
REMARK UNBOUND:                -0.268
REMARK SMILES O=c1c(O)c(-c2cc(O)c(O)c(O)c2)oc2cc(O)cc(O)c12
REMARK SMILES IDX 5 1 3 2 2 3 1 4 23 5 21 6 20 7 18 8 17 9 16 10 15 11 6 12
REMARK SMILES IDX 7 13 8 14 14 15 10 16 12 17 9 18 11 20 13 22 4 24 22 26
REMARK SMILES IDX 19 28
REMARK H PARENT 9 19 11 21 13 23 4 25 22 27 19 29
REMARK Flexibility Score: inf
ROOT
ATOM      1  C   UNL     1     -12.557 -33.862  30.499  1.00  0.00     0.180 A 
ATOM      2  C   UNL     1     -11.508 -33.514  31.367  1.00  0.00     0.208 A 
ATOM      3  C   UNL     1     -11.803 -33.217  32.707  1.00  0.00     0.238 A 
ATOM      4  O   UNL     1     -10.851 -32.980  33.495  1.00  0.00    -0.285 OA
ATOM      5  C   UNL     1     -13.147 -33.215  33.150  1.00  0.00     0.111 A 
ATOM      6  C   UNL     1     -13.566 -32.885  34.475  1.00  0.00     0.134 A 
ATOM      7  C   UNL     1     -14.915 -33.020  34.826  1.00  0.00     0.093 A 
ATOM      8  C   UNL     1     -15.869 -33.412  33.888  1.00  0.00     0.123 A 
ATOM      9  C   UNL     1     -15.480 -33.683  32.576  1.00  0.00     0.094 A 
ATOM     10  C   UNL     1     -14.135 -33.595  32.204  1.00  0.00     0.146 A 
ATOM     11  O   UNL     1     -13.806 -33.884  30.951  1.00  0.00    -0.452 OA
ENDROOT
BRANCH   1  12
ATOM     12  C   UNL     1     -12.324 -34.203  29.077  1.00  0.00     0.029 A 
ATOM     13  C   UNL     1     -13.267 -33.820  28.114  1.00  0.00     0.062 A 
ATOM     14  C   UNL     1     -13.083 -34.145  26.767  1.00  0.00     0.162 A 
ATOM     15  C   UNL     1     -11.208 -34.955  28.678  1.00  0.00     0.062 A 
ATOM     16  C   UNL     1     -11.952 -34.878  26.363  1.00  0.00     0.200 A 
ATOM     17  C   UNL     1     -11.009 -35.292  27.335  1.00  0.00     0.162 A 
BRANCH  14  18
ATOM     18  O   UNL     1     -14.039 -33.728  25.841  1.00  0.00    -0.504 OA
ATOM     19  H   UNL     1     -15.008 -34.018  25.896  1.00  0.00     0.293 HD
ENDBRANCH  14  18
BRANCH  16  20
ATOM     20  O   UNL     1     -11.802 -35.174  25.005  1.00  0.00    -0.502 OA
ATOM     21  H   UNL     1     -11.824 -36.108  24.622  1.00  0.00     0.293 HD
ENDBRANCH  16  20
BRANCH  17  22
ATOM     22  O   UNL     1      -9.875 -36.041  27.016  1.00  0.00    -0.504 OA
ATOM     23  H   UNL     1      -9.095 -36.183  27.641  1.00  0.00     0.293 HD
ENDBRANCH  17  22
ENDBRANCH   1  12
BRANCH   2  24
ATOM     24  O   UNL     1     -10.195 -33.448  30.892  1.00  0.00    -0.502 OA
ATOM     25  H   UNL     1      -9.433 -33.081  31.449  1.00  0.00     0.293 HD
ENDBRANCH   2  24
BRANCH   6  26
ATOM     26  O   UNL     1     -12.711 -32.398  35.468  1.00  0.00    -0.507 OA
ATOM     27  H   UNL     1     -12.948 -32.316  36.445  1.00  0.00     0.293 HD
ENDBRANCH   6  26
BRANCH   8  28
ATOM     28  O   UNL     1     -17.205 -33.519  34.269  1.00  0.00    -0.508 OA
ATOM     29  H   UNL     1     -17.911 -32.888  33.908  1.00  0.00     0.293 HD
ENDBRANCH   8  28
TORSDOF 7
ENDMDL
