MODEL 1
REMARK VINA RESULT:    -4.062      0.000      0.000
REMARK INTER + INTRA:          -7.036
REMARK INTER:                  -6.437
REMARK INTRA:                  -0.599
REMARK UNBOUND:                -0.599
REMARK SMILES CCCCCCCCCCCC(=O)[O-]
REMARK SMILES IDX 7 1 8 2 9 3 10 4 11 5 12 6 13 7 14 8 6 9 5 10 4 11 3 12 2 13
REMARK SMILES IDX 1 14
REMARK H PARENT
REMARK Flexibility Score: inf
ROOT
ATOM      1  C   UNL     1     128.874 120.693 119.019  1.00  0.00     0.000 C 
ENDROOT
BRANCH   1   2
ATOM      2  C   UNL     1     127.585 120.141 118.389  1.00  0.00     0.000 C 
BRANCH   2   3
ATOM      3  C   UNL     1     126.726 121.235 117.737  1.00  0.00     0.000 C 
BRANCH   3   4
ATOM      4  C   UNL     1     125.239 120.849 117.758  1.00  0.00     0.006 C 
BRANCH   4   5
ATOM      5  C   UNL     1     124.367 121.853 116.992  1.00  0.00     0.053 C 
BRANCH   5   6
ATOM      6  C   UNL     1     123.118 122.190 117.744  1.00  0.00     0.041 C 
ATOM      7  O   UNL     1     122.906 123.372 118.125  1.00  0.00    -0.550 OA
ATOM      8  O   UNL     1     122.202 121.193 118.053  1.00  0.00    -0.550 OA
ENDBRANCH   5   6
ENDBRANCH   4   5
ENDBRANCH   3   4
ENDBRANCH   2   3
ENDBRANCH   1   2
BRANCH   1   9
ATOM      9  C   UNL     1     130.043 120.752 118.019  1.00  0.00     0.000 C 
BRANCH   9  10
ATOM     10  C   UNL     1     131.397 120.444 118.681  1.00  0.00    -0.000 C 
BRANCH  10  11
ATOM     11  C   UNL     1     131.349 120.586 120.213  1.00  0.00    -0.000 C 
BRANCH  11  12
ATOM     12  C   UNL     1     132.430 121.538 120.759  1.00  0.00    -0.000 C 
BRANCH  12  13
ATOM     13  C   UNL     1     132.068 123.032 120.702  1.00  0.00    -0.003 C 
ATOM     14  C   UNL     1     130.632 123.317 121.141  1.00  0.00     0.004 C 
ENDBRANCH  12  13
ENDBRANCH  11  12
ENDBRANCH  10  11
ENDBRANCH   9  10
ENDBRANCH   1   9
TORSDOF 10
ENDMDL
MODEL 2
REMARK VINA RESULT:    -3.967      4.032      7.264
REMARK INTER + INTRA:          -6.884
REMARK INTER:                  -6.320
REMARK INTRA:                  -0.564
REMARK UNBOUND:                -0.599
REMARK SMILES CCCCCCCCCCCC(=O)[O-]
REMARK SMILES IDX 7 1 8 2 9 3 10 4 11 5 12 6 13 7 14 8 6 9 5 10 4 11 3 12 2 13
REMARK SMILES IDX 1 14
REMARK H PARENT
REMARK Flexibility Score: inf
ROOT
ATOM      1  C   UNL     1     127.734 120.569 118.661  1.00  0.00     0.000 C 
ENDROOT
BRANCH   1   2
ATOM      2  C   UNL     1     129.062 120.473 117.894  1.00  0.00     0.000 C 
BRANCH   2   3
ATOM      3  C   UNL     1     130.240 121.085 118.666  1.00  0.00     0.000 C 
BRANCH   3   4
ATOM      4  C   UNL     1     129.845 121.388 120.120  1.00  0.00     0.006 C 
BRANCH   4   5
ATOM      5  C   UNL     1     130.450 122.704 120.625  1.00  0.00     0.053 C 
BRANCH   5   6
ATOM      6  C   UNL     1     131.935 122.606 120.788  1.00  0.00     0.041 C 
ATOM      7  O   UNL     1     132.662 123.620 120.615  1.00  0.00    -0.550 OA
ATOM      8  O   UNL     1     132.520 121.385 121.101  1.00  0.00    -0.550 OA
ENDBRANCH   5   6
ENDBRANCH   4   5
ENDBRANCH   3   4
ENDBRANCH   2   3
ENDBRANCH   1   2
BRANCH   1   9
ATOM      9  C   UNL     1     126.571 121.048 117.774  1.00  0.00     0.000 C 
BRANCH   9  10
ATOM     10  C   UNL     1     125.397 120.055 117.758  1.00  0.00    -0.000 C 
BRANCH  10  11
ATOM     11  C   UNL     1     124.162 120.616 117.029  1.00  0.00    -0.000 C 
BRANCH  11  12
ATOM     12  C   UNL     1     124.109 122.155 117.041  1.00  0.00    -0.000 C 
BRANCH  12  13
ATOM     13  C   UNL     1     123.028 122.761 117.954  1.00  0.00    -0.003 C 
ATOM     14  C   UNL     1     123.421 122.755 119.430  1.00  0.00     0.004 C 
ENDBRANCH  12  13
ENDBRANCH  11  12
ENDBRANCH  10  11
ENDBRANCH   9  10
ENDBRANCH   1   9
TORSDOF 10
ENDMDL
MODEL 3
REMARK VINA RESULT:    -3.928      1.574      2.457
REMARK INTER + INTRA:          -6.824
REMARK INTER:                  -5.527
REMARK INTRA:                  -1.297
REMARK UNBOUND:                -0.599
REMARK SMILES CCCCCCCCCCCC(=O)[O-]
REMARK SMILES IDX 7 1 8 2 9 3 10 4 11 5 12 6 13 7 14 8 6 9 5 10 4 11 3 12 2 13
REMARK SMILES IDX 1 14
REMARK H PARENT
REMARK Flexibility Score: inf
ROOT
ATOM      1  C   UNL     1     128.700 119.374 118.067  1.00  0.00     0.000 C 
ENDROOT
BRANCH   1   2
ATOM      2  C   UNL     1     127.192 119.478 117.790  1.00  0.00     0.000 C 
BRANCH   2   3
ATOM      3  C   UNL     1     126.706 120.930 117.681  1.00  0.00     0.000 C 
BRANCH   3   4
ATOM      4  C   UNL     1     125.233 121.049 118.104  1.00  0.00     0.006 C 
BRANCH   4   5
ATOM      5  C   UNL     1     124.396 121.829 117.081  1.00  0.00     0.053 C 
BRANCH   5   6
ATOM      6  C   UNL     1     123.038 122.163 117.616  1.00  0.00     0.041 C 
ATOM      7  O   UNL     1     122.734 123.357 117.876  1.00  0.00    -0.550 OA
ATOM      8  O   UNL     1     122.118 121.151 117.857  1.00  0.00    -0.550 OA
ENDBRANCH   5   6
ENDBRANCH   4   5
ENDBRANCH   3   4
ENDBRANCH   2   3
ENDBRANCH   1   2
BRANCH   1   9
ATOM      9  C   UNL     1     129.433 120.711 117.859  1.00  0.00     0.000 C 
BRANCH   9  10
ATOM     10  C   UNL     1     130.089 121.229 119.150  1.00  0.00    -0.000 C 
BRANCH  10  11
ATOM     11  C   UNL     1     129.391 120.704 120.416  1.00  0.00    -0.000 C 
BRANCH  11  12
ATOM     12  C   UNL     1     128.356 121.693 120.983  1.00  0.00    -0.000 C 
BRANCH  12  13
ATOM     13  C   UNL     1     126.989 121.076 121.330  1.00  0.00    -0.003 C 
ATOM     14  C   UNL     1     127.064 119.576 121.610  1.00  0.00     0.004 C 
ENDBRANCH  12  13
ENDBRANCH  11  12
ENDBRANCH  10  11
ENDBRANCH   9  10
ENDBRANCH   1   9
TORSDOF 10
ENDMDL
MODEL 4
REMARK VINA RESULT:    -3.849     10.037     11.815
REMARK INTER + INTRA:          -6.698
REMARK INTER:                  -5.149
REMARK INTRA:                  -1.549
REMARK UNBOUND:                -0.599
REMARK SMILES CCCCCCCCCCCC(=O)[O-]
REMARK SMILES IDX 7 1 8 2 9 3 10 4 11 5 12 6 13 7 14 8 6 9 5 10 4 11 3 12 2 13
REMARK SMILES IDX 1 14
REMARK H PARENT
REMARK Flexibility Score: inf
ROOT
ATOM      1  C   UNL     1     124.931 126.276 125.693  1.00  0.00     0.000 C 
ENDROOT
BRANCH   1   2
ATOM      2  C   UNL     1     126.068 127.201 125.229  1.00  0.00     0.000 C 
BRANCH   2   3
ATOM      3  C   UNL     1     125.709 128.689 125.348  1.00  0.00     0.000 C 
BRANCH   3   4
ATOM      4  C   UNL     1     126.503 129.356 126.482  1.00  0.00     0.006 C 
BRANCH   4   5
ATOM      5  C   UNL     1     127.919 128.778 126.619  1.00  0.00     0.053 C 
BRANCH   5   6
ATOM      6  C   UNL     1     128.967 129.828 126.422  1.00  0.00     0.041 C 
ATOM      7  O   UNL     1     129.243 130.242 125.265  1.00  0.00    -0.550 OA
ATOM      8  O   UNL     1     129.664 130.328 127.515  1.00  0.00    -0.550 OA
ENDBRANCH   5   6
ENDBRANCH   4   5
ENDBRANCH   3   4
ENDBRANCH   2   3
ENDBRANCH   1   2
BRANCH   1   9
ATOM      9  C   UNL     1     125.434 125.110 126.562  1.00  0.00     0.000 C 
BRANCH   9  10
ATOM     10  C   UNL     1     126.493 125.553 127.585  1.00  0.00    -0.000 C 
BRANCH  10  11
ATOM     11  C   UNL     1     125.897 125.793 128.983  1.00  0.00    -0.000 C 
BRANCH  11  12
ATOM     12  C   UNL     1     125.915 127.277 129.394  1.00  0.00    -0.000 C 
BRANCH  12  13
ATOM     13  C   UNL     1     124.538 127.965 129.404  1.00  0.00    -0.003 C 
ATOM     14  C   UNL     1     123.395 127.021 129.033  1.00  0.00     0.004 C 
ENDBRANCH  12  13
ENDBRANCH  11  12
ENDBRANCH  10  11
ENDBRANCH   9  10
ENDBRANCH   1   9
TORSDOF 10
ENDMDL
MODEL 5
REMARK VINA RESULT:    -3.814      1.404      2.054
REMARK INTER + INTRA:          -6.643
REMARK INTER:                  -6.033
REMARK INTRA:                  -0.610
REMARK UNBOUND:                -0.599
REMARK SMILES CCCCCCCCCCCC(=O)[O-]
REMARK SMILES IDX 7 1 8 2 9 3 10 4 11 5 12 6 13 7 14 8 6 9 5 10 4 11 3 12 2 13
REMARK SMILES IDX 1 14
REMARK H PARENT
REMARK Flexibility Score: inf
ROOT
ATOM      1  C   UNL     1     127.160 119.906 117.880  1.00  0.00     0.000 C 
ENDROOT
BRANCH   1   2
ATOM      2  C   UNL     1     125.690 120.273 118.137  1.00  0.00     0.000 C 
BRANCH   2   3
ATOM      3  C   UNL     1     125.228 121.487 117.318  1.00  0.00     0.000 C 
BRANCH   3   4
ATOM      4  C   UNL     1     123.702 121.653 117.396  1.00  0.00     0.006 C 
BRANCH   4   5
ATOM      5  C   UNL     1     123.291 122.841 118.275  1.00  0.00     0.053 C 
BRANCH   5   6
ATOM      6  C   UNL     1     123.058 122.426 119.695  1.00  0.00     0.041 C 
ATOM      7  O   UNL     1     124.012 122.415 120.517  1.00  0.00    -0.550 OA
ATOM      8  O   UNL     1     121.794 122.021 120.102  1.00  0.00    -0.550 OA
ENDBRANCH   5   6
ENDBRANCH   4   5
ENDBRANCH   3   4
ENDBRANCH   2   3
ENDBRANCH   1   2
BRANCH   1   9
ATOM      9  C   UNL     1     128.104 121.114 118.018  1.00  0.00     0.000 C 
BRANCH   9  10
ATOM     10  C   UNL     1     129.580 120.696 118.127  1.00  0.00    -0.000 C 
BRANCH  10  11
ATOM     11  C   UNL     1     130.167 120.967 119.523  1.00  0.00    -0.000 C 
BRANCH  11  12
ATOM     12  C   UNL     1     129.367 122.019 120.314  1.00  0.00    -0.000 C 
BRANCH  12  13
ATOM     13  C   UNL     1     130.220 123.079 121.033  1.00  0.00    -0.003 C 
ATOM     14  C   UNL     1     131.690 123.048 120.614  1.00  0.00     0.004 C 
ENDBRANCH  12  13
ENDBRANCH  11  12
ENDBRANCH  10  11
ENDBRANCH   9  10
ENDBRANCH   1   9
TORSDOF 10
ENDMDL
MODEL 6
REMARK VINA RESULT:    -3.801     16.020     16.998
REMARK INTER + INTRA:          -6.621
REMARK INTER:                  -5.675
REMARK INTRA:                  -0.946
REMARK UNBOUND:                -0.599
REMARK SMILES CCCCCCCCCCCC(=O)[O-]
REMARK SMILES IDX 7 1 8 2 9 3 10 4 11 5 12 6 13 7 14 8 6 9 5 10 4 11 3 12 2 13
REMARK SMILES IDX 1 14
REMARK H PARENT
REMARK Flexibility Score: inf
ROOT
ATOM      1  C   UNL     1     133.273 123.438 133.729  1.00  0.00     0.000 C 
ENDROOT
BRANCH   1   2
ATOM      2  C   UNL     1     131.932 122.778 134.090  1.00  0.00     0.000 C 
BRANCH   2   3
ATOM      3  C   UNL     1     132.034 121.250 134.207  1.00  0.00     0.000 C 
BRANCH   3   4
ATOM      4  C   UNL     1     131.450 120.763 135.542  1.00  0.00     0.006 C 
BRANCH   4   5
ATOM      5  C   UNL     1     130.955 119.312 135.465  1.00  0.00     0.053 C 
BRANCH   5   6
ATOM      6  C   UNL     1     129.776 119.176 134.553  1.00  0.00     0.041 C 
ATOM      7  O   UNL     1     128.777 119.932 134.690  1.00  0.00    -0.550 OA
ATOM      8  O   UNL     1     129.766 118.194 133.572  1.00  0.00    -0.550 OA
ENDBRANCH   5   6
ENDBRANCH   4   5
ENDBRANCH   3   4
ENDBRANCH   2   3
ENDBRANCH   1   2
BRANCH   1   9
ATOM      9  C   UNL     1     133.737 124.453 134.789  1.00  0.00     0.000 C 
BRANCH   9  10
ATOM     10  C   UNL     1     132.690 124.669 135.894  1.00  0.00    -0.000 C 
BRANCH  10  11
ATOM     11  C   UNL     1     132.259 126.142 136.016  1.00  0.00    -0.000 C 
BRANCH  11  12
ATOM     12  C   UNL     1     131.593 126.678 134.735  1.00  0.00    -0.000 C 
BRANCH  12  13
ATOM     13  C   UNL     1     130.055 126.701 134.763  1.00  0.00    -0.003 C 
ATOM     14  C   UNL     1     129.427 125.419 134.217  1.00  0.00     0.004 C 
ENDBRANCH  12  13
ENDBRANCH  11  12
ENDBRANCH  10  11
ENDBRANCH   9  10
ENDBRANCH   1   9
TORSDOF 10
ENDMDL
MODEL 7
REMARK VINA RESULT:    -3.794      3.463      6.816
REMARK INTER + INTRA:          -6.610
REMARK INTER:                  -5.666
REMARK INTRA:                  -0.944
REMARK UNBOUND:                -0.599
REMARK SMILES CCCCCCCCCCCC(=O)[O-]
REMARK SMILES IDX 7 1 8 2 9 3 10 4 11 5 12 6 13 7 14 8 6 9 5 10 4 11 3 12 2 13
REMARK SMILES IDX 1 14
REMARK H PARENT
REMARK Flexibility Score: inf
ROOT
ATOM      1  C   UNL     1     125.833 119.817 118.130  1.00  0.00     0.000 C 
ENDROOT
BRANCH   1   2
ATOM      2  C   UNL     1     126.783 121.018 117.997  1.00  0.00     0.000 C 
BRANCH   2   3
ATOM      3  C   UNL     1     128.263 120.613 118.040  1.00  0.00     0.000 C 
BRANCH   3   4
ATOM      4  C   UNL     1     128.865 120.878 119.429  1.00  0.00     0.006 C 
BRANCH   4   5
ATOM      5  C   UNL     1     130.316 121.372 119.349  1.00  0.00     0.053 C 
BRANCH   5   6
ATOM      6  C   UNL     1     130.603 122.419 120.380  1.00  0.00     0.041 C 
ATOM      7  O   UNL     1     131.784 122.806 120.580  1.00  0.00    -0.550 OA
ATOM      8  O   UNL     1     129.568 122.945 121.143  1.00  0.00    -0.550 OA
ENDBRANCH   5   6
ENDBRANCH   4   5
ENDBRANCH   3   4
ENDBRANCH   2   3
ENDBRANCH   1   2
BRANCH   1   9
ATOM      9  C   UNL     1     124.500 120.032 117.391  1.00  0.00     0.000 C 
BRANCH   9  10
ATOM     10  C   UNL     1     124.270 121.504 117.011  1.00  0.00    -0.000 C 
BRANCH  10  11
ATOM     11  C   UNL     1     123.067 122.121 117.747  1.00  0.00    -0.000 C 
BRANCH  11  12
ATOM     12  C   UNL     1     123.471 122.869 119.030  1.00  0.00    -0.000 C 
BRANCH  12  13
ATOM     13  C   UNL     1     123.347 122.049 120.327  1.00  0.00    -0.003 C 
ATOM     14  C   UNL     1     124.677 121.885 121.060  1.00  0.00     0.004 C 
ENDBRANCH  12  13
ENDBRANCH  11  12
ENDBRANCH  10  11
ENDBRANCH   9  10
ENDBRANCH   1   9
TORSDOF 10
ENDMDL
MODEL 8
REMARK VINA RESULT:    -3.785      4.120      7.337
REMARK INTER + INTRA:          -6.597
REMARK INTER:                  -5.898
REMARK INTRA:                  -0.699
REMARK UNBOUND:                -0.599
REMARK SMILES CCCCCCCCCCCC(=O)[O-]
REMARK SMILES IDX 7 1 8 2 9 3 10 4 11 5 12 6 13 7 14 8 6 9 5 10 4 11 3 12 2 13
REMARK SMILES IDX 1 14
REMARK H PARENT
REMARK Flexibility Score: inf
ROOT
ATOM      1  C   UNL     1     128.913 120.922 118.632  1.00  0.00     0.000 C 
ENDROOT
BRANCH   1   2
ATOM      2  C   UNL     1     128.968 121.513 120.050  1.00  0.00     0.000 C 
BRANCH   2   3
ATOM      3  C   UNL     1     130.316 122.179 120.364  1.00  0.00     0.000 C 
BRANCH   3   4
ATOM      4  C   UNL     1     131.470 121.433 119.673  1.00  0.00     0.006 C 
BRANCH   4   5
ATOM      5  C   UNL     1     132.364 120.692 120.675  1.00  0.00     0.053 C 
BRANCH   5   6
ATOM      6  C   UNL     1     132.111 119.216 120.659  1.00  0.00     0.041 C 
ATOM      7  O   UNL     1     131.118 118.736 121.267  1.00  0.00    -0.550 OA
ATOM      8  O   UNL     1     132.989 118.368 119.997  1.00  0.00    -0.550 OA
ENDBRANCH   5   6
ENDBRANCH   4   5
ENDBRANCH   3   4
ENDBRANCH   2   3
ENDBRANCH   1   2
BRANCH   1   9
ATOM      9  C   UNL     1     127.511 120.406 118.261  1.00  0.00     0.000 C 
BRANCH   9  10
ATOM     10  C   UNL     1     126.517 120.511 119.429  1.00  0.00    -0.000 C 
BRANCH  10  11
ATOM     11  C   UNL     1     125.113 120.944 118.971  1.00  0.00    -0.000 C 
BRANCH  11  12
ATOM     12  C   UNL     1     125.050 121.271 117.467  1.00  0.00    -0.000 C 
BRANCH  12  13
ATOM     13  C   UNL     1     124.005 122.331 117.076  1.00  0.00    -0.003 C 
ATOM     14  C   UNL     1     123.199 122.845 118.269  1.00  0.00     0.004 C 
ENDBRANCH  12  13
ENDBRANCH  11  12
ENDBRANCH  10  11
ENDBRANCH   9  10
ENDBRANCH   1   9
TORSDOF 10
ENDMDL
MODEL 9
REMARK VINA RESULT:    -3.721      9.399     10.988
REMARK INTER + INTRA:          -6.494
REMARK INTER:                  -5.189
REMARK INTRA:                  -1.305
REMARK UNBOUND:                -0.599
REMARK SMILES CCCCCCCCCCCC(=O)[O-]
REMARK SMILES IDX 7 1 8 2 9 3 10 4 11 5 12 6 13 7 14 8 6 9 5 10 4 11 3 12 2 13
REMARK SMILES IDX 1 14
REMARK H PARENT
REMARK Flexibility Score: inf
ROOT
ATOM      1  C   UNL     1     126.379 127.796 126.135  1.00  0.00     0.000 C 
ENDROOT
BRANCH   1   2
ATOM      2  C   UNL     1     125.715 126.727 125.254  1.00  0.00     0.000 C 
BRANCH   2   3
ATOM      3  C   UNL     1     124.190 126.678 125.428  1.00  0.00     0.000 C 
BRANCH   3   4
ATOM      4  C   UNL     1     123.672 127.963 126.093  1.00  0.00     0.006 C 
BRANCH   4   5
ATOM      5  C   UNL     1     122.246 128.314 125.649  1.00  0.00     0.053 C 
BRANCH   5   6
ATOM      6  C   UNL     1     122.238 129.389 124.607  1.00  0.00     0.041 C 
ATOM      7  O   UNL     1     122.566 129.126 123.420  1.00  0.00    -0.550 OA
ATOM      8  O   UNL     1     121.898 130.690 124.954  1.00  0.00    -0.550 OA
ENDBRANCH   5   6
ENDBRANCH   4   5
ENDBRANCH   3   4
ENDBRANCH   2   3
ENDBRANCH   1   2
BRANCH   1   9
ATOM      9  C   UNL     1     127.437 127.207 127.085  1.00  0.00     0.000 C 
BRANCH   9  10
ATOM     10  C   UNL     1     126.923 125.972 127.843  1.00  0.00    -0.000 C 
BRANCH  10  11
ATOM     11  C   UNL     1     126.197 126.342 129.149  1.00  0.00    -0.000 C 
BRANCH  11  12
ATOM     12  C   UNL     1     124.857 125.604 129.317  1.00  0.00    -0.000 C 
BRANCH  12  13
ATOM     13  C   UNL     1     123.612 126.510 129.320  1.00  0.00    -0.003 C 
ATOM     14  C   UNL     1     123.909 127.932 129.793  1.00  0.00     0.004 C 
ENDBRANCH  12  13
ENDBRANCH  11  12
ENDBRANCH  10  11
ENDBRANCH   9  10
ENDBRANCH   1   9
TORSDOF 10
ENDMDL
