MODEL 1
REMARK VINA RESULT:    -5.359      0.000      0.000
REMARK INTER + INTRA:          -7.718
REMARK INTER:                  -7.552
REMARK INTRA:                  -0.166
REMARK UNBOUND:                -0.166
REMARK SMILES CC1=CCC(=C(C)C)C(=O)CC(C)=CCC1
REMARK SMILES IDX 12 1 14 2 13 3 15 4 16 5 2 6 1 7 3 8 11 10 9 11 10 12 5 13
REMARK SMILES IDX 6 14 7 15 8 16 4 17
REMARK H PARENT
REMARK Flexibility Score: 60.00
ROOT
ATOM      1  C   UNL     1      -8.803  32.615  26.626  1.00  0.00    -0.070 C 
ATOM      2  C   UNL     1      -8.439  33.717  25.930  1.00  0.00    -0.027 C 
ATOM      3  C   UNL     1      -8.514  32.584  28.106  1.00  0.00     0.039 C 
ENDROOT
BRANCH   2   4
ATOM      4  C   UNL     1      -8.782  33.977  24.485  1.00  0.00     0.032 C 
BRANCH   4   5
ATOM      5  C   UNL     1      -7.600  33.587  23.590  1.00  0.00     0.034 C 
BRANCH   5   6
ATOM      6  C   UNL     1      -8.035  32.826  22.354  1.00  0.00    -0.077 C 
ATOM      7  C   UNL     1      -8.617  33.600  21.197  1.00  0.00     0.039 C 
ATOM      8  C   UNL     1      -7.999  31.475  22.254  1.00  0.00    -0.023 CG0
ATOM      9  G   UNL     1      -7.412  30.491  23.250  1.00  0.00     0.000 G0
ENDBRANCH   5   6
ENDBRANCH   4   5
ENDBRANCH   2   4
BRANCH   1  10
ATOM     10  C   UNL     1      -9.466  31.409  25.991  1.00  0.00     0.111 C 
BRANCH  10  11
ATOM     11  C   UNL     1      -8.458  30.359  25.591  1.00  0.00     0.163 C 
ATOM     12  O   UNL     1      -7.656  29.963  26.481  1.00  0.00    -0.294 OA
BRANCH  11  13
ATOM     13  C   UNL     1      -8.350  29.790  24.206  1.00  0.00    -0.002 C 
ATOM     14  C   UNL     1      -8.958  28.605  23.891  1.00  0.00    -0.069 C 
ATOM     15  C   UNL     1      -8.687  27.886  22.590  1.00  0.00     0.039 C 
ATOM     16  C   UNL     1      -9.981  27.974  24.811  1.00  0.00     0.039 C 
BRANCH  13  17
ATOM     17  C   UNL     1      -7.401  30.473  23.228  1.00  0.00     0.066 CG0
ATOM     18  G   UNL     1      -8.019  31.485  22.280  1.00  0.00     0.000 G0
ENDBRANCH  13  17
ENDBRANCH  11  13
ENDBRANCH  10  11
ENDBRANCH   1  10
TORSDOF 0
ENDMDL
MODEL 2
REMARK VINA RESULT:    -5.138      2.155      4.178
REMARK INTER + INTRA:          -7.406
REMARK INTER:                  -8.121
REMARK INTRA:                   0.714
REMARK UNBOUND:                -0.166
REMARK SMILES CC1=CCC(=C(C)C)C(=O)CC(C)=CCC1
REMARK SMILES IDX 12 1 14 2 13 3 15 4 16 5 2 6 1 7 3 8 11 10 9 11 10 12 5 13
REMARK SMILES IDX 6 14 7 15 8 16 4 17
REMARK H PARENT
REMARK Flexibility Score: 60.00
ROOT
ATOM      1  C   UNL     1      -8.143  33.364  20.964  1.00  0.00    -0.070 C 
ATOM      2  C   UNL     1      -7.695  34.377  21.740  1.00  0.00    -0.027 C 
ATOM      3  C   UNL     1      -7.376  33.041  19.707  1.00  0.00     0.039 C 
ENDROOT
BRANCH   2   4
ATOM      4  C   UNL     1      -8.248  34.737  23.096  1.00  0.00     0.032 C 
BRANCH   4   5
ATOM      5  C   UNL     1      -7.681  33.789  24.159  1.00  0.00     0.034 C 
BRANCH   5   6
ATOM      6  C   UNL     1      -8.617  33.613  25.337  1.00  0.00    -0.077 C 
ATOM      7  C   UNL     1      -8.439  34.505  26.541  1.00  0.00     0.039 C 
ATOM      8  C   UNL     1      -9.565  32.646  25.405  1.00  0.00    -0.023 CG0
ATOM      9  G   UNL     1      -9.970  31.672  24.313  1.00  0.00     0.000 G0
ENDBRANCH   5   6
ENDBRANCH   4   5
ENDBRANCH   2   4
BRANCH   1  10
ATOM     10  C   UNL     1      -9.384  32.554  21.285  1.00  0.00     0.111 C 
BRANCH  10  11
ATOM     11  C   UNL     1      -9.045  31.239  21.943  1.00  0.00     0.163 C 
ATOM     12  O   UNL     1      -8.886  30.242  21.187  1.00  0.00    -0.294 OA
BRANCH  11  13
ATOM     13  C   UNL     1      -8.910  31.059  23.427  1.00  0.00    -0.002 C 
ATOM     14  C   UNL     1      -7.928  30.258  23.944  1.00  0.00    -0.069 C 
ATOM     15  C   UNL     1      -7.900  29.867  25.404  1.00  0.00     0.039 C 
ATOM     16  C   UNL     1      -6.783  29.762  23.090  1.00  0.00     0.039 C 
BRANCH  13  17
ATOM     17  C   UNL     1     -10.003  31.642  24.317  1.00  0.00     0.066 CG0
ATOM     18  G   UNL     1      -9.554  32.621  25.387  1.00  0.00     0.000 G0
ENDBRANCH  13  17
ENDBRANCH  11  13
ENDBRANCH  10  11
ENDBRANCH   1  10
TORSDOF 0
ENDMDL
MODEL 3
REMARK VINA RESULT:    -4.783      1.780      3.694
REMARK INTER + INTRA:          -6.906
REMARK INTER:                  -7.414
REMARK INTRA:                   0.508
REMARK UNBOUND:                -0.166
REMARK SMILES CC1=CCC(=C(C)C)C(=O)CC(C)=CCC1
REMARK SMILES IDX 12 1 14 2 13 3 15 4 16 5 2 6 1 7 3 8 11 10 9 11 10 12 5 13
REMARK SMILES IDX 6 14 7 15 8 16 4 17
REMARK H PARENT
REMARK Flexibility Score: 60.00
ROOT
ATOM      1  C   UNL     1      -7.798  30.476  22.521  1.00  0.00    -0.070 C 
ATOM      2  C   UNL     1      -7.495  31.365  21.548  1.00  0.00    -0.027 C 
ATOM      3  C   UNL     1      -6.663  29.753  23.201  1.00  0.00     0.039 C 
ENDROOT
BRANCH   2   4
ATOM      4  C   UNL     1      -8.486  32.277  20.871  1.00  0.00     0.032 C 
BRANCH   4   5
ATOM      5  C   UNL     1      -9.330  33.004  21.925  1.00  0.00     0.034 C 
BRANCH   5   6
ATOM      6  C   UNL     1      -8.484  33.806  22.894  1.00  0.00    -0.077 C 
ATOM      7  C   UNL     1      -7.514  34.819  22.338  1.00  0.00     0.039 C 
ATOM      8  C   UNL     1      -8.495  33.613  24.236  1.00  0.00    -0.023 CG0
ATOM      9  G   UNL     1      -9.414  32.702  25.030  1.00  0.00     0.000 G0
ENDBRANCH   5   6
ENDBRANCH   4   5
ENDBRANCH   2   4
BRANCH   1  10
ATOM     10  C   UNL     1      -9.219  30.156  22.945  1.00  0.00     0.111 C 
BRANCH  10  11
ATOM     11  C   UNL     1      -9.375  30.169  24.446  1.00  0.00     0.163 C 
ATOM     12  O   UNL     1      -9.952  29.178  24.972  1.00  0.00    -0.294 OA
BRANCH  11  13
ATOM     13  C   UNL     1      -8.905  31.292  25.325  1.00  0.00    -0.002 C 
ATOM     14  C   UNL     1      -8.169  31.034  26.449  1.00  0.00    -0.069 C 
ATOM     15  C   UNL     1      -7.876  32.102  27.478  1.00  0.00     0.039 C 
ATOM     16  C   UNL     1      -7.561  29.671  26.699  1.00  0.00     0.039 C 
BRANCH  13  17
ATOM     17  C   UNL     1      -9.426  32.694  25.027  1.00  0.00     0.066 CG0
ATOM     18  G   UNL     1      -8.503  33.605  24.238  1.00  0.00     0.000 G0
ENDBRANCH  13  17
ENDBRANCH  11  13
ENDBRANCH  10  11
ENDBRANCH   1  10
TORSDOF 0
ENDMDL
MODEL 4
REMARK VINA RESULT:    -4.600      1.578      2.751
REMARK INTER + INTRA:          -6.649
REMARK INTER:                  -7.065
REMARK INTRA:                   0.416
REMARK UNBOUND:                -0.166
REMARK SMILES CC1=CCC(=C(C)C)C(=O)CC(C)=CCC1
REMARK SMILES IDX 12 1 14 2 13 3 15 4 16 5 2 6 1 7 3 8 11 10 9 11 10 12 5 13
REMARK SMILES IDX 6 14 7 15 8 16 4 17
REMARK H PARENT
REMARK Flexibility Score: 60.00
ROOT
ATOM      1  C   UNL     1      -8.130  34.590  24.098  1.00  0.00    -0.070 C 
ATOM      2  C   UNL     1      -7.674  34.596  22.824  1.00  0.00    -0.027 C 
ATOM      3  C   UNL     1      -7.501  35.545  25.081  1.00  0.00     0.039 C 
ENDROOT
BRANCH   2   4
ATOM      4  C   UNL     1      -8.283  33.819  21.685  1.00  0.00     0.032 C 
BRANCH   4   5
ATOM      5  C   UNL     1      -7.642  32.429  21.600  1.00  0.00     0.034 C 
BRANCH   5   6
ATOM      6  C   UNL     1      -8.660  31.313  21.718  1.00  0.00    -0.077 C 
ATOM      7  C   UNL     1      -9.579  31.047  20.551  1.00  0.00     0.039 C 
ATOM      8  C   UNL     1      -8.844  30.581  22.844  1.00  0.00    -0.023 CG0
ATOM      9  G   UNL     1      -8.017  30.622  24.117  1.00  0.00     0.000 G0
ENDBRANCH   5   6
ENDBRANCH   4   5
ENDBRANCH   2   4
BRANCH   1  10
ATOM     10  C   UNL     1      -9.221  33.659  24.589  1.00  0.00     0.111 C 
BRANCH  10  11
ATOM     11  C   UNL     1      -8.699  32.655  25.587  1.00  0.00     0.163 C 
ATOM     12  O   UNL     1      -8.201  33.111  26.653  1.00  0.00    -0.294 OA
BRANCH  11  13
ATOM     13  C   UNL     1      -8.723  31.170  25.369  1.00  0.00    -0.002 C 
ATOM     14  C   UNL     1      -9.211  30.333  26.335  1.00  0.00    -0.069 C 
ATOM     15  C   UNL     1      -9.043  28.833  26.255  1.00  0.00     0.039 C 
ATOM     16  C   UNL     1      -9.996  30.862  27.515  1.00  0.00     0.039 C 
BRANCH  13  17
ATOM     17  C   UNL     1      -8.025  30.622  24.129  1.00  0.00     0.066 CG0
ATOM     18  G   UNL     1      -8.841  30.594  22.849  1.00  0.00     0.000 G0
ENDBRANCH  13  17
ENDBRANCH  11  13
ENDBRANCH  10  11
ENDBRANCH   1  10
TORSDOF 0
ENDMDL
MODEL 5
REMARK VINA RESULT:    -4.446      2.071      4.717
REMARK INTER + INTRA:          -6.432
REMARK INTER:                  -7.446
REMARK INTRA:                   1.014
REMARK UNBOUND:                -0.166
REMARK SMILES CC1=CCC(=C(C)C)C(=O)CC(C)=CCC1
REMARK SMILES IDX 12 1 14 2 13 3 15 4 16 5 2 6 1 7 3 8 11 10 9 11 10 12 5 13
REMARK SMILES IDX 6 14 7 15 8 16 4 17
REMARK H PARENT
REMARK Flexibility Score: 60.00
ROOT
ATOM      1  C   UNL     1      -7.788  29.806  23.764  1.00  0.00    -0.070 C 
ATOM      2  C   UNL     1      -7.854  29.786  25.115  1.00  0.00    -0.027 C 
ATOM      3  C   UNL     1      -6.427  29.903  23.121  1.00  0.00     0.039 C 
ENDROOT
BRANCH   2   4
ATOM      4  C   UNL     1      -9.109  29.546  25.915  1.00  0.00     0.032 C 
BRANCH   4   5
ATOM      5  C   UNL     1      -9.782  30.883  26.244  1.00  0.00     0.034 C 
BRANCH   5   6
ATOM      6  C   UNL     1      -8.849  32.063  26.060  1.00  0.00    -0.077 C 
ATOM      7  C   UNL     1      -7.875  32.393  27.165  1.00  0.00     0.039 C 
ATOM      8  C   UNL     1      -8.887  32.890  24.986  1.00  0.00    -0.023 CG0
ATOM      9  G   UNL     1      -9.730  32.736  23.733  1.00  0.00     0.000 G0
ENDBRANCH   5   6
ENDBRANCH   4   5
ENDBRANCH   2   4
BRANCH   1  10
ATOM     10  C   UNL     1      -9.011  29.757  22.868  1.00  0.00     0.111 C 
BRANCH  10  11
ATOM     11  C   UNL     1      -9.090  30.957  21.957  1.00  0.00     0.163 C 
ATOM     12  O   UNL     1      -9.217  30.733  20.722  1.00  0.00    -0.294 OA
BRANCH  11  13
ATOM     13  C   UNL     1      -9.005  32.377  22.436  1.00  0.00    -0.002 C 
ATOM     14  C   UNL     1      -8.163  33.267  21.828  1.00  0.00    -0.069 C 
ATOM     15  C   UNL     1      -7.875  34.629  22.417  1.00  0.00     0.039 C 
ATOM     16  C   UNL     1      -7.511  32.956  20.499  1.00  0.00     0.039 C 
BRANCH  13  17
ATOM     17  C   UNL     1      -9.741  32.739  23.722  1.00  0.00     0.066 CG0
ATOM     18  G   UNL     1      -8.891  32.882  24.971  1.00  0.00     0.000 G0
ENDBRANCH  13  17
ENDBRANCH  11  13
ENDBRANCH  10  11
ENDBRANCH   1  10
TORSDOF 0
ENDMDL
MODEL 6
REMARK VINA RESULT:    -4.360      2.020      5.056
REMARK INTER + INTRA:          -6.310
REMARK INTER:                  -7.148
REMARK INTRA:                   0.838
REMARK UNBOUND:                -0.166
REMARK SMILES CC1=CCC(=C(C)C)C(=O)CC(C)=CCC1
REMARK SMILES IDX 12 1 14 2 13 3 15 4 16 5 2 6 1 7 3 8 11 10 9 11 10 12 5 13
REMARK SMILES IDX 6 14 7 15 8 16 4 17
REMARK H PARENT
REMARK Flexibility Score: 60.00
ROOT
ATOM      1  C   UNL     1      -8.094  33.236  20.760  1.00  0.00    -0.070 C 
ATOM      2  C   UNL     1      -8.342  31.910  20.659  1.00  0.00    -0.027 C 
ATOM      3  C   UNL     1      -7.139  33.857  19.772  1.00  0.00     0.039 C 
ENDROOT
BRANCH   2   4
ATOM      4  C   UNL     1      -9.373  31.160  21.462  1.00  0.00     0.032 C 
BRANCH   4   5
ATOM      5  C   UNL     1      -8.797  29.818  21.927  1.00  0.00     0.034 C 
BRANCH   5   6
ATOM      6  C   UNL     1      -7.812  29.973  23.068  1.00  0.00    -0.077 C 
ATOM      7  C   UNL     1      -6.616  29.054  23.120  1.00  0.00     0.039 C 
ATOM      8  C   UNL     1      -7.981  30.845  24.092  1.00  0.00    -0.023 CG0
ATOM      9  G   UNL     1      -9.062  31.901  24.236  1.00  0.00     0.000 G0
ENDBRANCH   5   6
ENDBRANCH   4   5
ENDBRANCH   2   4
BRANCH   1  10
ATOM     10  C   UNL     1      -8.711  34.120  21.826  1.00  0.00     0.111 C 
BRANCH  10  11
ATOM     11  C   UNL     1      -7.981  34.007  23.143  1.00  0.00     0.163 C 
ATOM     12  O   UNL     1      -6.810  34.474  23.193  1.00  0.00    -0.294 OA
BRANCH  11  13
ATOM     13  C   UNL     1      -8.562  33.358  24.366  1.00  0.00    -0.002 C 
ATOM     14  C   UNL     1      -8.494  33.981  25.582  1.00  0.00    -0.069 C 
ATOM     15  C   UNL     1      -8.854  33.271  26.868  1.00  0.00     0.039 C 
ATOM     16  C   UNL     1      -8.104  35.438  25.703  1.00  0.00     0.039 C 
BRANCH  13  17
ATOM     17  C   UNL     1      -9.058  31.922  24.242  1.00  0.00     0.066 CG0
ATOM     18  G   UNL     1      -7.994  30.848  24.099  1.00  0.00     0.000 G0
ENDBRANCH  13  17
ENDBRANCH  11  13
ENDBRANCH  10  11
ENDBRANCH   1  10
TORSDOF 0
ENDMDL
MODEL 7
REMARK VINA RESULT:    -4.345      1.550      4.012
REMARK INTER + INTRA:          -6.290
REMARK INTER:                  -6.980
REMARK INTRA:                   0.690
REMARK UNBOUND:                -0.166
REMARK SMILES CC1=CCC(=C(C)C)C(=O)CC(C)=CCC1
REMARK SMILES IDX 12 1 14 2 13 3 15 4 16 5 2 6 1 7 3 8 11 10 9 11 10 12 5 13
REMARK SMILES IDX 6 14 7 15 8 16 4 17
REMARK H PARENT
REMARK Flexibility Score: 60.00
ROOT
ATOM      1  C   UNL     1      -8.698  30.278  25.622  1.00  0.00    -0.070 C 
ATOM      2  C   UNL     1      -8.659  29.198  24.809  1.00  0.00    -0.027 C 
ATOM      3  C   UNL     1      -7.859  30.255  26.874  1.00  0.00     0.039 C 
ENDROOT
BRANCH   2   4
ATOM      4  C   UNL     1      -9.313  29.111  23.454  1.00  0.00     0.032 C 
BRANCH   4   5
ATOM      5  C   UNL     1      -8.319  29.533  22.366  1.00  0.00     0.034 C 
BRANCH   5   6
ATOM      6  C   UNL     1      -8.756  30.787  21.635  1.00  0.00    -0.077 C 
ATOM      7  C   UNL     1      -9.662  30.645  20.437  1.00  0.00     0.039 C 
ATOM      8  C   UNL     1      -8.319  32.031  21.952  1.00  0.00    -0.023 CG0
ATOM      9  G   UNL     1      -7.457  32.433  23.135  1.00  0.00     0.000 G0
ENDBRANCH   5   6
ENDBRANCH   4   5
ENDBRANCH   2   4
BRANCH   1  10
ATOM     10  C   UNL     1      -9.557  31.497  25.347  1.00  0.00     0.111 C 
BRANCH  10  11
ATOM     11  C   UNL     1      -8.749  32.772  25.371  1.00  0.00     0.163 C 
ATOM     12  O   UNL     1      -8.627  33.354  26.484  1.00  0.00    -0.294 OA
BRANCH  11  13
ATOM     13  C   UNL     1      -8.115  33.382  24.155  1.00  0.00    -0.002 C 
ATOM     14  C   UNL     1      -8.257  34.717  23.892  1.00  0.00    -0.069 C 
ATOM     15  C   UNL     1      -7.836  35.323  22.573  1.00  0.00     0.039 C 
ATOM     16  C   UNL     1      -8.796  35.674  24.932  1.00  0.00     0.039 C 
BRANCH  13  17
ATOM     17  C   UNL     1      -7.473  32.442  23.140  1.00  0.00     0.066 CG0
ATOM     18  G   UNL     1      -8.334  32.029  21.960  1.00  0.00     0.000 G0
ENDBRANCH  13  17
ENDBRANCH  11  13
ENDBRANCH  10  11
ENDBRANCH   1  10
TORSDOF 0
ENDMDL
MODEL 8
REMARK VINA RESULT:    -4.310      2.181      5.356
REMARK INTER + INTRA:          -6.240
REMARK INTER:                  -6.467
REMARK INTRA:                   0.227
REMARK UNBOUND:                -0.166
REMARK SMILES CC1=CCC(=C(C)C)C(=O)CC(C)=CCC1
REMARK SMILES IDX 12 1 14 2 13 3 15 4 16 5 2 6 1 7 3 8 11 10 9 11 10 12 5 13
REMARK SMILES IDX 6 14 7 15 8 16 4 17
REMARK H PARENT
REMARK Flexibility Score: 60.00
ROOT
ATOM      1  C   UNL     1      -8.037  32.153  21.215  1.00  0.00    -0.070 C 
ATOM      2  C   UNL     1      -7.907  30.826  21.448  1.00  0.00    -0.027 C 
ATOM      3  C   UNL     1      -7.123  32.787  20.197  1.00  0.00     0.039 C 
ENDROOT
BRANCH   2   4
ATOM      4  C   UNL     1      -8.828  30.007  22.316  1.00  0.00     0.032 C 
BRANCH   4   5
ATOM      5  C   UNL     1      -8.128  29.658  23.635  1.00  0.00     0.034 C 
BRANCH   5   6
ATOM      6  C   UNL     1      -8.874  30.182  24.845  1.00  0.00    -0.077 C 
ATOM      7  C   UNL     1      -9.901  29.292  25.501  1.00  0.00     0.039 C 
ATOM      8  C   UNL     1      -8.726  31.439  25.332  1.00  0.00    -0.023 CG0
ATOM      9  G   UNL     1      -7.727  32.490  24.883  1.00  0.00     0.000 G0
ENDBRANCH   5   6
ENDBRANCH   4   5
ENDBRANCH   2   4
BRANCH   1  10
ATOM     10  C   UNL     1      -9.036  33.032  21.940  1.00  0.00     0.111 C 
BRANCH  10  11
ATOM     11  C   UNL     1      -8.358  34.002  22.878  1.00  0.00     0.163 C 
ATOM     12  O   UNL     1      -7.809  35.012  22.360  1.00  0.00    -0.294 OA
BRANCH  11  13
ATOM     13  C   UNL     1      -8.287  33.814  24.365  1.00  0.00    -0.002 C 
ATOM     14  C   UNL     1      -8.572  34.851  25.211  1.00  0.00    -0.069 C 
ATOM     15  C   UNL     1      -8.292  34.774  26.695  1.00  0.00     0.039 C 
ATOM     16  C   UNL     1      -9.234  36.117  24.714  1.00  0.00     0.039 C 
BRANCH  13  17
ATOM     17  C   UNL     1      -7.717  32.501  24.890  1.00  0.00     0.066 CG0
ATOM     18  G   UNL     1      -8.724  31.448  25.317  1.00  0.00     0.000 G0
ENDBRANCH  13  17
ENDBRANCH  11  13
ENDBRANCH  10  11
ENDBRANCH   1  10
TORSDOF 0
ENDMDL
MODEL 9
REMARK VINA RESULT:    -4.088      1.722      2.233
REMARK INTER + INTRA:          -5.927
REMARK INTER:                  -7.417
REMARK INTRA:                   1.489
REMARK UNBOUND:                -0.166
REMARK SMILES CC1=CCC(=C(C)C)C(=O)CC(C)=CCC1
REMARK SMILES IDX 12 1 14 2 13 3 15 4 16 5 2 6 1 7 3 8 11 10 9 11 10 12 5 13
REMARK SMILES IDX 6 14 7 15 8 16 4 17
REMARK H PARENT
REMARK Flexibility Score: 60.00
ROOT
ATOM      1  C   UNL     1      -8.471  33.969  24.636  1.00  0.00    -0.070 C 
ATOM      2  C   UNL     1      -7.640  34.633  23.800  1.00  0.00    -0.027 C 
ATOM      3  C   UNL     1      -8.149  33.976  26.109  1.00  0.00     0.039 C 
ENDROOT
BRANCH   2   4
ATOM      4  C   UNL     1      -7.888  34.853  22.330  1.00  0.00     0.032 C 
BRANCH   4   5
ATOM      5  C   UNL     1      -8.851  33.786  21.798  1.00  0.00     0.034 C 
BRANCH   5   6
ATOM      6  C   UNL     1      -8.149  32.732  20.966  1.00  0.00    -0.077 C 
ATOM      7  C   UNL     1      -7.185  33.182  19.895  1.00  0.00     0.039 C 
ATOM      8  C   UNL     1      -8.391  31.403  21.078  1.00  0.00    -0.023 CG0
ATOM      9  G   UNL     1      -9.265  30.708  22.106  1.00  0.00     0.000 G0
ENDBRANCH   5   6
ENDBRANCH   4   5
ENDBRANCH   2   4
BRANCH   1  10
ATOM     10  C   UNL     1      -9.691  33.204  24.164  1.00  0.00     0.111 C 
BRANCH  10  11
ATOM     11  C   UNL     1      -9.577  31.727  24.452  1.00  0.00     0.163 C 
ATOM     12  O   UNL     1     -10.110  31.306  25.515  1.00  0.00    -0.294 OA
BRANCH  11  13
ATOM     13  C   UNL     1      -8.854  30.757  23.564  1.00  0.00    -0.002 C 
ATOM     14  C   UNL     1      -7.750  30.088  24.018  1.00  0.00    -0.069 C 
ATOM     15  C   UNL     1      -6.863  29.285  23.094  1.00  0.00     0.039 C 
ATOM     16  C   UNL     1      -7.384  30.072  25.486  1.00  0.00     0.039 C 
BRANCH  13  17
ATOM     17  C   UNL     1      -9.276  30.681  22.101  1.00  0.00     0.066 CG0
ATOM     18  G   UNL     1      -8.387  31.400  21.102  1.00  0.00     0.000 G0
ENDBRANCH  13  17
ENDBRANCH  11  13
ENDBRANCH  10  11
ENDBRANCH   1  10
TORSDOF 0
ENDMDL
