MODEL 1
REMARK VINA RESULT:    -3.997      0.000      0.000
REMARK INTER + INTRA:          -6.453
REMARK INTER:                  -5.866
REMARK INTRA:                  -0.586
REMARK UNBOUND:                -0.586
REMARK SMILES O=C([O-])CCCCCCCC(=O)[O-]
REMARK SMILES IDX 7 1 6 2 5 3 4 4 2 5 1 6 3 7 8 8 9 9 10 10 11 11 12 12 13 13
REMARK H PARENT
REMARK Flexibility Score: inf
ROOT
ATOM      1  C   UNL     1       6.644  25.815 112.243  1.00  0.00     0.000 C 
ENDROOT
BRANCH   1   2
ATOM      2  C   UNL     1       5.553  24.815 111.827  1.00  0.00     0.000 C 
BRANCH   2   3
ATOM      3  C   UNL     1       4.134  25.345 112.082  1.00  0.00     0.006 C 
BRANCH   3   4
ATOM      4  C   UNL     1       3.427  25.671 110.763  1.00  0.00     0.053 C 
BRANCH   4   5
ATOM      5  C   UNL     1       3.118  27.133 110.681  1.00  0.00     0.041 C 
ATOM      6  O   UNL     1       4.043  27.968 110.505  1.00  0.00    -0.550 OA
ATOM      7  O   UNL     1       1.800  27.570 110.749  1.00  0.00    -0.550 OA
ENDBRANCH   4   5
ENDBRANCH   3   4
ENDBRANCH   2   3
ENDBRANCH   1   2
BRANCH   1   8
ATOM      8  C   UNL     1       7.479  26.308 111.048  1.00  0.00     0.000 C 
BRANCH   8   9
ATOM      9  C   UNL     1       7.457  25.326 109.862  1.00  0.00     0.006 C 
BRANCH   9  10
ATOM     10  C   UNL     1       8.062  25.883 108.564  1.00  0.00     0.053 C 
BRANCH  10  11
ATOM     11  C   UNL     1       7.010  26.209 107.548  1.00  0.00     0.041 C 
ATOM     12  O   UNL     1       5.971  26.831 107.888  1.00  0.00    -0.550 OA
ATOM     13  O   UNL     1       7.165  25.796 106.230  1.00  0.00    -0.550 OA
ENDBRANCH  10  11
ENDBRANCH   9  10
ENDBRANCH   8   9
ENDBRANCH   1   8
TORSDOF 8
ENDMDL
MODEL 2
REMARK VINA RESULT:    -3.961      1.728      2.943
REMARK INTER + INTRA:          -6.400
REMARK INTER:                  -5.787
REMARK INTRA:                  -0.613
REMARK UNBOUND:                -0.586
REMARK SMILES O=C([O-])CCCCCCCC(=O)[O-]
REMARK SMILES IDX 7 1 6 2 5 3 4 4 2 5 1 6 3 7 8 8 9 9 10 10 11 11 12 12 13 13
REMARK H PARENT
REMARK Flexibility Score: inf
ROOT
ATOM      1  C   UNL     1       4.004  25.289 112.162  1.00  0.00     0.000 C 
ENDROOT
BRANCH   1   2
ATOM      2  C   UNL     1       3.131  25.644 110.947  1.00  0.00     0.000 C 
BRANCH   2   3
ATOM      3  C   UNL     1       3.590  26.930 110.242  1.00  0.00     0.006 C 
BRANCH   3   4
ATOM      4  C   UNL     1       3.322  28.157 111.118  1.00  0.00     0.053 C 
BRANCH   4   5
ATOM      5  C   UNL     1       2.358  29.082 110.446  1.00  0.00     0.041 C 
ATOM      6  O   UNL     1       1.178  28.709 110.215  1.00  0.00    -0.550 OA
ATOM      7  O   UNL     1       2.747  30.375 110.118  1.00  0.00    -0.550 OA
ENDBRANCH   4   5
ENDBRANCH   3   4
ENDBRANCH   2   3
ENDBRANCH   1   2
BRANCH   1   8
ATOM      8  C   UNL     1       5.050  24.207 111.841  1.00  0.00     0.000 C 
BRANCH   8   9
ATOM      9  C   UNL     1       6.496  24.707 112.016  1.00  0.00     0.006 C 
BRANCH   9  10
ATOM     10  C   UNL     1       7.218  25.040 110.701  1.00  0.00     0.053 C 
BRANCH  10  11
ATOM     11  C   UNL     1       7.141  26.499 110.372  1.00  0.00     0.041 C 
ATOM     12  O   UNL     1       7.037  26.875 109.175  1.00  0.00    -0.550 OA
ATOM     13  O   UNL     1       7.217  27.445 111.386  1.00  0.00    -0.550 OA
ENDBRANCH  10  11
ENDBRANCH   9  10
ENDBRANCH   8   9
ENDBRANCH   1   8
TORSDOF 8
ENDMDL
MODEL 3
REMARK VINA RESULT:    -3.946      1.950      2.769
REMARK INTER + INTRA:          -6.378
REMARK INTER:                  -5.711
REMARK INTRA:                  -0.667
REMARK UNBOUND:                -0.586
REMARK SMILES O=C([O-])CCCCCCCC(=O)[O-]
REMARK SMILES IDX 7 1 6 2 5 3 4 4 2 5 1 6 3 7 8 8 9 9 10 10 11 11 12 12 13 13
REMARK H PARENT
REMARK Flexibility Score: inf
ROOT
ATOM      1  C   UNL     1       4.609  24.820 113.138  1.00  0.00     0.000 C 
ENDROOT
BRANCH   1   2
ATOM      2  C   UNL     1       3.086  24.972 112.997  1.00  0.00     0.000 C 
BRANCH   2   3
ATOM      3  C   UNL     1       2.678  26.329 112.402  1.00  0.00     0.006 C 
BRANCH   3   4
ATOM      4  C   UNL     1       2.721  26.289 110.872  1.00  0.00     0.053 C 
BRANCH   4   5
ATOM      5  C   UNL     1       3.649  27.337 110.345  1.00  0.00     0.041 C 
ATOM      6  O   UNL     1       3.582  28.518 110.776  1.00  0.00    -0.550 OA
ATOM      7  O   UNL     1       4.624  26.998 109.414  1.00  0.00    -0.550 OA
ENDBRANCH   4   5
ENDBRANCH   3   4
ENDBRANCH   2   3
ENDBRANCH   1   2
BRANCH   1   8
ATOM      8  C   UNL     1       5.197  23.815 112.133  1.00  0.00     0.000 C 
BRANCH   8   9
ATOM      9  C   UNL     1       6.506  24.312 111.490  1.00  0.00     0.006 C 
BRANCH   9  10
ATOM     10  C   UNL     1       7.037  25.632 112.071  1.00  0.00     0.053 C 
BRANCH  10  11
ATOM     11  C   UNL     1       7.590  26.532 111.008  1.00  0.00     0.041 C 
ATOM     12  O   UNL     1       7.500  27.782 111.125  1.00  0.00    -0.550 OA
ATOM     13  O   UNL     1       8.176  25.987 109.873  1.00  0.00    -0.550 OA
ENDBRANCH  10  11
ENDBRANCH   9  10
ENDBRANCH   8   9
ENDBRANCH   1   8
TORSDOF 8
ENDMDL
MODEL 4
REMARK VINA RESULT:    -3.894      1.825      4.548
REMARK INTER + INTRA:          -6.302
REMARK INTER:                  -5.674
REMARK INTRA:                  -0.628
REMARK UNBOUND:                -0.586
REMARK SMILES O=C([O-])CCCCCCCC(=O)[O-]
REMARK SMILES IDX 7 1 6 2 5 3 4 4 2 5 1 6 3 7 8 8 9 9 10 10 11 11 12 12 13 13
REMARK H PARENT
REMARK Flexibility Score: inf
ROOT
ATOM      1  C   UNL     1       4.428  24.647 112.642  1.00  0.00     0.000 C 
ENDROOT
BRANCH   1   2
ATOM      2  C   UNL     1       5.645  24.244 111.793  1.00  0.00     0.000 C 
BRANCH   2   3
ATOM      3  C   UNL     1       6.970  24.768 112.369  1.00  0.00     0.006 C 
BRANCH   3   4
ATOM      4  C   UNL     1       7.844  25.372 111.266  1.00  0.00     0.053 C 
BRANCH   4   5
ATOM      5  C   UNL     1       7.239  26.639 110.751  1.00  0.00     0.041 C 
ATOM      6  O   UNL     1       6.792  26.696 109.575  1.00  0.00    -0.550 OA
ATOM      7  O   UNL     1       7.122  27.744 111.586  1.00  0.00    -0.550 OA
ENDBRANCH   4   5
ENDBRANCH   3   4
ENDBRANCH   2   3
ENDBRANCH   1   2
BRANCH   1   8
ATOM      8  C   UNL     1       3.947  26.078 112.342  1.00  0.00     0.000 C 
BRANCH   8   9
ATOM      9  C   UNL     1       3.073  26.157 111.076  1.00  0.00     0.006 C 
BRANCH   9  10
ATOM     10  C   UNL     1       3.440  27.304 110.121  1.00  0.00     0.053 C 
BRANCH  10  11
ATOM     11  C   UNL     1       2.457  28.432 110.194  1.00  0.00     0.041 C 
ATOM     12  O   UNL     1       2.755  29.564 109.731  1.00  0.00    -0.550 OA
ATOM     13  O   UNL     1       1.224  28.241 110.805  1.00  0.00    -0.550 OA
ENDBRANCH  10  11
ENDBRANCH   9  10
ENDBRANCH   8   9
ENDBRANCH   1   8
TORSDOF 8
ENDMDL
MODEL 5
REMARK VINA RESULT:    -3.800      1.783      4.795
REMARK INTER + INTRA:          -6.164
REMARK INTER:                  -5.440
REMARK INTRA:                  -0.724
REMARK UNBOUND:                -0.586
REMARK SMILES O=C([O-])CCCCCCCC(=O)[O-]
REMARK SMILES IDX 7 1 6 2 5 3 4 4 2 5 1 6 3 7 8 8 9 9 10 10 11 11 12 12 13 13
REMARK H PARENT
REMARK Flexibility Score: inf
ROOT
ATOM      1  C   UNL     1       4.940  24.286 112.746  1.00  0.00     0.000 C 
ENDROOT
BRANCH   1   2
ATOM      2  C   UNL     1       6.045  24.216 111.679  1.00  0.00     0.000 C 
BRANCH   2   3
ATOM      3  C   UNL     1       7.368  24.836 112.154  1.00  0.00     0.006 C 
BRANCH   3   4
ATOM      4  C   UNL     1       8.135  25.450 110.979  1.00  0.00     0.053 C 
BRANCH   4   5
ATOM      5  C   UNL     1       7.477  26.714 110.526  1.00  0.00     0.041 C 
ATOM      6  O   UNL     1       7.442  27.718 111.284  1.00  0.00    -0.550 OA
ATOM      7  O   UNL     1       6.945  26.801 109.245  1.00  0.00    -0.550 OA
ENDBRANCH   4   5
ENDBRANCH   3   4
ENDBRANCH   2   3
ENDBRANCH   1   2
BRANCH   1   8
ATOM      8  C   UNL     1       3.653  24.946 112.220  1.00  0.00     0.000 C 
BRANCH   8   9
ATOM      9  C   UNL     1       3.882  25.746 110.923  1.00  0.00     0.006 C 
BRANCH   9  10
ATOM     10  C   UNL     1       3.893  27.271 111.111  1.00  0.00     0.053 C 
BRANCH  10  11
ATOM     11  C   UNL     1       2.734  27.745 111.932  1.00  0.00     0.041 C 
ATOM     12  O   UNL     1       2.925  28.243 113.072  1.00  0.00    -0.550 OA
ATOM     13  O   UNL     1       1.438  27.606 111.449  1.00  0.00    -0.550 OA
ENDBRANCH  10  11
ENDBRANCH   9  10
ENDBRANCH   8   9
ENDBRANCH   1   8
TORSDOF 8
ENDMDL
MODEL 6
REMARK VINA RESULT:    -3.736      2.643      3.443
REMARK INTER + INTRA:          -6.070
REMARK INTER:                  -5.533
REMARK INTRA:                  -0.538
REMARK UNBOUND:                -0.586
REMARK SMILES O=C([O-])CCCCCCCC(=O)[O-]
REMARK SMILES IDX 7 1 6 2 5 3 4 4 2 5 1 6 3 7 8 8 9 9 10 10 11 11 12 12 13 13
REMARK H PARENT
REMARK Flexibility Score: inf
ROOT
ATOM      1  C   UNL     1       4.538  26.283 112.552  1.00  0.00     0.000 C 
ENDROOT
BRANCH   1   2
ATOM      2  C   UNL     1       4.033  25.685 111.229  1.00  0.00     0.000 C 
BRANCH   2   3
ATOM      3  C   UNL     1       2.735  26.344 110.737  1.00  0.00     0.006 C 
BRANCH   3   4
ATOM      4  C   UNL     1       2.574  27.745 111.335  1.00  0.00     0.053 C 
BRANCH   4   5
ATOM      5  C   UNL     1       1.897  28.656 110.361  1.00  0.00     0.041 C 
ATOM      6  O   UNL     1       0.656  28.851 110.432  1.00  0.00    -0.550 OA
ATOM      7  O   UNL     1       2.646  29.330 109.403  1.00  0.00    -0.550 OA
ENDBRANCH   4   5
ENDBRANCH   3   4
ENDBRANCH   2   3
ENDBRANCH   1   2
BRANCH   1   8
ATOM      8  C   UNL     1       5.914  26.957 112.408  1.00  0.00     0.000 C 
BRANCH   8   9
ATOM      9  C   UNL     1       6.574  26.676 111.045  1.00  0.00     0.006 C 
BRANCH   9  10
ATOM     10  C   UNL     1       7.945  25.987 111.133  1.00  0.00     0.053 C 
BRANCH  10  11
ATOM     11  C   UNL     1       7.903  24.757 111.986  1.00  0.00     0.041 C 
ATOM     12  O   UNL     1       7.130  23.808 111.693  1.00  0.00    -0.550 OA
ATOM     13  O   UNL     1       8.695  24.673 113.125  1.00  0.00    -0.550 OA
ENDBRANCH  10  11
ENDBRANCH   9  10
ENDBRANCH   8   9
ENDBRANCH   1   8
TORSDOF 8
ENDMDL
MODEL 7
REMARK VINA RESULT:    -3.643      2.651      3.922
REMARK INTER + INTRA:          -5.933
REMARK INTER:                  -5.288
REMARK INTRA:                  -0.645
REMARK UNBOUND:                -0.586
REMARK SMILES O=C([O-])CCCCCCCC(=O)[O-]
REMARK SMILES IDX 7 1 6 2 5 3 4 4 2 5 1 6 3 7 8 8 9 9 10 10 11 11 12 12 13 13
REMARK H PARENT
REMARK Flexibility Score: inf
ROOT
ATOM      1  C   UNL     1       3.797  25.212 114.266  1.00  0.00     0.000 C 
ENDROOT
BRANCH   1   2
ATOM      2  C   UNL     1       2.891  24.839 113.082  1.00  0.00     0.000 C 
BRANCH   2   3
ATOM      3  C   UNL     1       2.836  25.936 112.008  1.00  0.00     0.006 C 
BRANCH   3   4
ATOM      4  C   UNL     1       3.728  25.579 110.815  1.00  0.00     0.053 C 
BRANCH   4   5
ATOM      5  C   UNL     1       4.309  26.816 110.206  1.00  0.00     0.041 C 
ATOM      6  O   UNL     1       3.569  27.796 109.932  1.00  0.00    -0.550 OA
ATOM      7  O   UNL     1       5.679  26.905 109.986  1.00  0.00    -0.550 OA
ENDBRANCH   4   5
ENDBRANCH   3   4
ENDBRANCH   2   3
ENDBRANCH   1   2
BRANCH   1   8
ATOM      8  C   UNL     1       4.983  24.246 114.429  1.00  0.00     0.000 C 
BRANCH   8   9
ATOM      9  C   UNL     1       6.342  24.970 114.450  1.00  0.00     0.006 C 
BRANCH   9  10
ATOM     10  C   UNL     1       6.786  25.527 113.088  1.00  0.00     0.053 C 
BRANCH  10  11
ATOM     11  C   UNL     1       7.664  24.566 112.347  1.00  0.00     0.041 C 
ATOM     12  O   UNL     1       8.592  23.963 112.946  1.00  0.00    -0.550 OA
ATOM     13  O   UNL     1       7.476  24.362 110.985  1.00  0.00    -0.550 OA
ENDBRANCH  10  11
ENDBRANCH   9  10
ENDBRANCH   8   9
ENDBRANCH   1   8
TORSDOF 8
ENDMDL
MODEL 8
REMARK VINA RESULT:    -3.642      4.665      6.535
REMARK INTER + INTRA:          -5.931
REMARK INTER:                  -5.558
REMARK INTRA:                  -0.373
REMARK UNBOUND:                -0.586
REMARK SMILES O=C([O-])CCCCCCCC(=O)[O-]
REMARK SMILES IDX 7 1 6 2 5 3 4 4 2 5 1 6 3 7 8 8 9 9 10 10 11 11 12 12 13 13
REMARK H PARENT
REMARK Flexibility Score: inf
ROOT
ATOM      1  C   UNL     1       5.189  28.411 113.222  1.00  0.00     0.000 C 
ENDROOT
BRANCH   1   2
ATOM      2  C   UNL     1       6.020  27.157 112.906  1.00  0.00     0.000 C 
BRANCH   2   3
ATOM      3  C   UNL     1       6.160  26.904 111.397  1.00  0.00     0.006 C 
BRANCH   3   4
ATOM      4  C   UNL     1       7.601  26.527 111.038  1.00  0.00     0.053 C 
BRANCH   4   5
ATOM      5  C   UNL     1       7.931  25.164 111.559  1.00  0.00     0.041 C 
ATOM      6  O   UNL     1       7.282  24.160 111.165  1.00  0.00    -0.550 OA
ATOM      7  O   UNL     1       8.991  24.994 112.442  1.00  0.00    -0.550 OA
ENDBRANCH   4   5
ENDBRANCH   3   4
ENDBRANCH   2   3
ENDBRANCH   1   2
BRANCH   1   8
ATOM      8  C   UNL     1       5.529  29.012 114.597  1.00  0.00     0.000 C 
BRANCH   8   9
ATOM      9  C   UNL     1       5.169  30.507 114.698  1.00  0.00     0.006 C 
BRANCH   9  10
ATOM     10  C   UNL     1       5.932  31.411 113.718  1.00  0.00     0.053 C 
BRANCH  10  11
ATOM     11  C   UNL     1       7.325  31.700 114.187  1.00  0.00     0.041 C 
ATOM     12  O   UNL     1       8.289  31.659 113.378  1.00  0.00    -0.550 OA
ATOM     13  O   UNL     1       7.562  31.983 115.527  1.00  0.00    -0.550 OA
ENDBRANCH  10  11
ENDBRANCH   9  10
ENDBRANCH   8   9
ENDBRANCH   1   8
TORSDOF 8
ENDMDL
MODEL 9
REMARK VINA RESULT:    -3.619      4.641      6.494
REMARK INTER + INTRA:          -5.898
REMARK INTER:                  -5.602
REMARK INTRA:                  -0.296
REMARK UNBOUND:                -0.586
REMARK SMILES O=C([O-])CCCCCCCC(=O)[O-]
REMARK SMILES IDX 7 1 6 2 5 3 4 4 2 5 1 6 3 7 8 8 9 9 10 10 11 11 12 12 13 13
REMARK H PARENT
REMARK Flexibility Score: inf
ROOT
ATOM      1  C   UNL     1       3.687  30.658 112.541  1.00  0.00     0.000 C 
ENDROOT
BRANCH   1   2
ATOM      2  C   UNL     1       3.549  31.781 113.581  1.00  0.00     0.000 C 
BRANCH   2   3
ATOM      3  C   UNL     1       4.875  32.101 114.289  1.00  0.00     0.006 C 
BRANCH   3   4
ATOM      4  C   UNL     1       6.006  31.216 113.755  1.00  0.00     0.053 C 
BRANCH   4   5
ATOM      5  C   UNL     1       7.335  31.741 114.196  1.00  0.00     0.041 C 
ATOM      6  O   UNL     1       8.287  31.825 113.377  1.00  0.00    -0.550 OA
ATOM      7  O   UNL     1       7.509  32.187 115.501  1.00  0.00    -0.550 OA
ENDBRANCH   4   5
ENDBRANCH   3   4
ENDBRANCH   2   3
ENDBRANCH   1   2
BRANCH   1   8
ATOM      8  C   UNL     1       2.487  30.592 111.580  1.00  0.00     0.000 C 
BRANCH   8   9
ATOM      9  C   UNL     1       2.617  29.462 110.542  1.00  0.00     0.006 C 
BRANCH   9  10
ATOM     10  C   UNL     1       2.315  28.058 111.090  1.00  0.00     0.053 C 
BRANCH  10  11
ATOM     11  C   UNL     1       3.189  27.012 110.469  1.00  0.00     0.041 C 
ATOM     12  O   UNL     1       2.793  25.820 110.389  1.00  0.00    -0.550 OA
ATOM     13  O   UNL     1       4.456  27.350 110.008  1.00  0.00    -0.550 OA
ENDBRANCH  10  11
ENDBRANCH   9  10
ENDBRANCH   8   9
ENDBRANCH   1   8
TORSDOF 8
ENDMDL
