MODEL 1
REMARK VINA RESULT:    -3.372      0.000      0.000
REMARK INTER + INTRA:          -3.592
REMARK INTER:                  -3.569
REMARK INTRA:                  -0.023
REMARK UNBOUND:                -0.023
REMARK SMILES O=C([O-])c1cccnc1
REMARK SMILES IDX 4 1 5 2 9 3 6 4 8 5 7 6 2 7 1 8 3 9
REMARK H PARENT
REMARK Flexibility Score: inf
ROOT
ATOM      1  C   UNL     1      -1.134  10.456  22.752  1.00  0.00     0.016 A 
ATOM      2  C   UNL     1      -0.509  10.082  21.551  1.00  0.00     0.013 A 
ATOM      3  C   UNL     1      -0.800  11.699  23.319  1.00  0.00     0.120 A 
ATOM      4  C   UNL     1       0.418  10.932  20.947  1.00  0.00     0.021 A 
ATOM      5  N   UNL     1       0.107  12.510  22.710  1.00  0.00    -0.264 NA
ATOM      6  C   UNL     1       0.717  12.155  21.549  1.00  0.00     0.111 A 
ENDROOT
BRANCH   1   7
ATOM      7  C   UNL     1      -2.119   9.570  23.408  1.00  0.00     0.073 C 
ATOM      8  O   UNL     1      -2.435   9.747  24.615  1.00  0.00    -0.545 OA
ATOM      9  O   UNL     1      -2.710   8.529  22.701  1.00  0.00    -0.545 OA
ENDBRANCH   1   7
TORSDOF 1
ENDMDL
MODEL 2
REMARK VINA RESULT:    -3.328      1.205      1.225
REMARK INTER + INTRA:          -3.545
REMARK INTER:                  -3.527
REMARK INTRA:                  -0.018
REMARK UNBOUND:                -0.023
REMARK SMILES O=C([O-])c1cccnc1
REMARK SMILES IDX 4 1 5 2 9 3 6 4 8 5 7 6 2 7 1 8 3 9
REMARK H PARENT
REMARK Flexibility Score: inf
ROOT
ATOM      1  C   UNL     1      -1.005  10.329  23.504  1.00  0.00     0.016 A 
ATOM      2  C   UNL     1      -1.071   9.981  22.144  1.00  0.00     0.013 A 
ATOM      3  C   UNL     1       0.108  11.063  23.951  1.00  0.00     0.120 A 
ATOM      4  C   UNL     1      -0.050  10.361  21.272  1.00  0.00     0.021 A 
ATOM      5  N   UNL     1       1.088  11.422  23.080  1.00  0.00    -0.264 NA
ATOM      6  C   UNL     1       1.033  11.089  21.764  1.00  0.00     0.111 A 
ENDROOT
BRANCH   1   7
ATOM      7  C   UNL     1      -2.075   9.935  24.445  1.00  0.00     0.073 C 
ATOM      8  O   UNL     1      -2.694  10.808  25.111  1.00  0.00    -0.545 OA
ATOM      9  O   UNL     1      -2.413   8.597  24.607  1.00  0.00    -0.545 OA
ENDBRANCH   1   7
TORSDOF 1
ENDMDL
MODEL 3
REMARK VINA RESULT:    -3.260      1.313      1.764
REMARK INTER + INTRA:          -3.474
REMARK INTER:                  -3.451
REMARK INTRA:                  -0.022
REMARK UNBOUND:                -0.023
REMARK SMILES O=C([O-])c1cccnc1
REMARK SMILES IDX 4 1 5 2 9 3 6 4 8 5 7 6 2 7 1 8 3 9
REMARK H PARENT
REMARK Flexibility Score: inf
ROOT
ATOM      1  C   UNL     1      -0.566  10.437  23.000  1.00  0.00     0.016 A 
ATOM      2  C   UNL     1       0.294  10.903  24.009  1.00  0.00     0.013 A 
ATOM      3  C   UNL     1      -0.176  10.606  21.660  1.00  0.00     0.120 A 
ATOM      4  C   UNL     1       1.502  11.517  23.673  1.00  0.00     0.021 A 
ATOM      5  N   UNL     1       1.006  11.207  21.360  1.00  0.00    -0.264 NA
ATOM      6  C   UNL     1       1.844  11.662  22.328  1.00  0.00     0.111 A 
ENDROOT
BRANCH   1   7
ATOM      7  C   UNL     1      -1.849   9.785  23.334  1.00  0.00     0.073 C 
ATOM      8  O   UNL     1      -2.455  10.073  24.402  1.00  0.00    -0.545 OA
ATOM      9  O   UNL     1      -2.406   8.843  22.476  1.00  0.00    -0.545 OA
ENDBRANCH   1   7
TORSDOF 1
ENDMDL
MODEL 4
REMARK VINA RESULT:    -3.211      1.719      2.172
REMARK INTER + INTRA:          -3.422
REMARK INTER:                  -3.406
REMARK INTRA:                  -0.016
REMARK UNBOUND:                -0.023
REMARK SMILES O=C([O-])c1cccnc1
REMARK SMILES IDX 4 1 5 2 9 3 6 4 8 5 7 6 2 7 1 8 3 9
REMARK H PARENT
REMARK Flexibility Score: inf
ROOT
ATOM      1  C   UNL     1      -1.711  10.435  23.874  1.00  0.00     0.016 A 
ATOM      2  C   UNL     1      -2.371  11.670  23.987  1.00  0.00     0.013 A 
ATOM      3  C   UNL     1      -0.315  10.437  23.706  1.00  0.00     0.120 A 
ATOM      4  C   UNL     1      -1.646  12.861  23.932  1.00  0.00     0.021 A 
ATOM      5  N   UNL     1       0.368  11.612  23.656  1.00  0.00    -0.264 NA
ATOM      6  C   UNL     1      -0.262  12.811  23.764  1.00  0.00     0.111 A 
ENDROOT
BRANCH   1   7
ATOM      7  C   UNL     1      -2.461   9.163  23.929  1.00  0.00     0.073 C 
ATOM      8  O   UNL     1      -2.828   8.683  25.036  1.00  0.00    -0.545 OA
ATOM      9  O   UNL     1      -2.773   8.476  22.761  1.00  0.00    -0.545 OA
ENDBRANCH   1   7
TORSDOF 1
ENDMDL
MODEL 5
REMARK VINA RESULT:    -3.123      2.081      2.910
REMARK INTER + INTRA:          -3.329
REMARK INTER:                  -3.311
REMARK INTRA:                  -0.018
REMARK UNBOUND:                -0.023
REMARK SMILES O=C([O-])c1cccnc1
REMARK SMILES IDX 4 1 5 2 9 3 6 4 8 5 7 6 2 7 1 8 3 9
REMARK H PARENT
REMARK Flexibility Score: inf
ROOT
ATOM      1  C   UNL     1      -0.084  10.814  23.145  1.00  0.00     0.016 A 
ATOM      2  C   UNL     1      -0.690  11.831  23.901  1.00  0.00     0.013 A 
ATOM      3  C   UNL     1       1.274  10.530  23.375  1.00  0.00     0.120 A 
ATOM      4  C   UNL     1       0.050  12.534  24.853  1.00  0.00     0.021 A 
ATOM      5  N   UNL     1       1.972  11.230  24.309  1.00  0.00    -0.264 NA
ATOM      6  C   UNL     1       1.394  12.216  25.044  1.00  0.00     0.111 A 
ENDROOT
BRANCH   1   7
ATOM      7  C   UNL     1      -0.850  10.057  22.132  1.00  0.00     0.073 C 
ATOM      8  O   UNL     1      -0.483  10.049  20.926  1.00  0.00    -0.545 OA
ATOM      9  O   UNL     1      -1.988   9.345  22.495  1.00  0.00    -0.545 OA
ENDBRANCH   1   7
TORSDOF 1
ENDMDL
MODEL 6
REMARK VINA RESULT:    -3.105      2.456      3.486
REMARK INTER + INTRA:          -3.310
REMARK INTER:                  -3.294
REMARK INTRA:                  -0.016
REMARK UNBOUND:                -0.023
REMARK SMILES O=C([O-])c1cccnc1
REMARK SMILES IDX 4 1 5 2 9 3 6 4 8 5 7 6 2 7 1 8 3 9
REMARK H PARENT
REMARK Flexibility Score: inf
ROOT
ATOM      1  C   UNL     1      -0.702  11.047  22.944  1.00  0.00     0.016 A 
ATOM      2  C   UNL     1      -1.338  10.232  23.895  1.00  0.00     0.013 A 
ATOM      3  C   UNL     1      -1.151  12.371  22.793  1.00  0.00     0.120 A 
ATOM      4  C   UNL     1      -2.388  10.737  24.663  1.00  0.00     0.021 A 
ATOM      5  N   UNL     1      -2.176  12.839  23.555  1.00  0.00    -0.264 NA
ATOM      6  C   UNL     1      -2.798  12.057  24.476  1.00  0.00     0.111 A 
ENDROOT
BRANCH   1   7
ATOM      7  C   UNL     1       0.411  10.531  22.120  1.00  0.00     0.073 C 
ATOM      8  O   UNL     1       0.183   9.968  21.015  1.00  0.00    -0.545 OA
ATOM      9  O   UNL     1       1.726  10.660  22.552  1.00  0.00    -0.545 OA
ENDBRANCH   1   7
TORSDOF 1
ENDMDL
MODEL 7
REMARK VINA RESULT:    -3.059      2.924      3.689
REMARK INTER + INTRA:          -3.261
REMARK INTER:                  -3.241
REMARK INTRA:                  -0.019
REMARK UNBOUND:                -0.023
REMARK SMILES O=C([O-])c1cccnc1
REMARK SMILES IDX 4 1 5 2 9 3 6 4 8 5 7 6 2 7 1 8 3 9
REMARK H PARENT
REMARK Flexibility Score: inf
ROOT
ATOM      1  C   UNL     1       0.199  11.176  23.000  1.00  0.00     0.016 A 
ATOM      2  C   UNL     1      -0.764  10.299  22.475  1.00  0.00     0.013 A 
ATOM      3  C   UNL     1      -0.027  11.733  24.271  1.00  0.00     0.120 A 
ATOM      4  C   UNL     1      -1.914   9.999  23.208  1.00  0.00     0.021 A 
ATOM      5  N   UNL     1      -1.155  11.423  24.965  1.00  0.00    -0.264 NA
ATOM      6  C   UNL     1      -2.094  10.577  24.464  1.00  0.00     0.111 A 
ENDROOT
BRANCH   1   7
ATOM      7  C   UNL     1       1.423  11.508  22.240  1.00  0.00     0.073 C 
ATOM      8  O   UNL     1       2.548  11.507  22.807  1.00  0.00    -0.545 OA
ATOM      9  O   UNL     1       1.349  11.825  20.888  1.00  0.00    -0.545 OA
ENDBRANCH   1   7
TORSDOF 1
ENDMDL
MODEL 8
REMARK VINA RESULT:    -3.008     12.179     12.722
REMARK INTER + INTRA:          -3.206
REMARK INTER:                  -3.190
REMARK INTRA:                  -0.016
REMARK UNBOUND:                -0.023
REMARK SMILES O=C([O-])c1cccnc1
REMARK SMILES IDX 4 1 5 2 9 3 6 4 8 5 7 6 2 7 1 8 3 9
REMARK H PARENT
REMARK Flexibility Score: inf
ROOT
ATOM      1  C   UNL     1       5.440  -0.167  23.162  1.00  0.00     0.016 A 
ATOM      2  C   UNL     1       4.799   0.443  24.253  1.00  0.00     0.013 A 
ATOM      3  C   UNL     1       6.781   0.167  22.903  1.00  0.00     0.120 A 
ATOM      4  C   UNL     1       5.490   1.357  25.051  1.00  0.00     0.021 A 
ATOM      5  N   UNL     1       7.431   1.060  23.696  1.00  0.00    -0.264 NA
ATOM      6  C   UNL     1       6.819   1.656  24.752  1.00  0.00     0.111 A 
ENDROOT
BRANCH   1   7
ATOM      7  C   UNL     1       4.726  -1.138  22.305  1.00  0.00     0.073 C 
ATOM      8  O   UNL     1       4.136  -0.755  21.259  1.00  0.00    -0.545 OA
ATOM      9  O   UNL     1       4.697  -2.487  22.641  1.00  0.00    -0.545 OA
ENDBRANCH   1   7
TORSDOF 1
ENDMDL
MODEL 9
REMARK VINA RESULT:    -3.006     18.276     18.766
REMARK INTER + INTRA:          -3.205
REMARK INTER:                  -3.186
REMARK INTRA:                  -0.019
REMARK UNBOUND:                -0.023
REMARK SMILES O=C([O-])c1cccnc1
REMARK SMILES IDX 4 1 5 2 9 3 6 4 8 5 7 6 2 7 1 8 3 9
REMARK H PARENT
REMARK Flexibility Score: inf
ROOT
ATOM      1  C   UNL     1       2.928   2.660   6.338  1.00  0.00     0.016 A 
ATOM      2  C   UNL     1       4.301   2.684   6.046  1.00  0.00     0.013 A 
ATOM      3  C   UNL     1       2.471   1.769   7.325  1.00  0.00     0.120 A 
ATOM      4  C   UNL     1       5.179   1.839   6.727  1.00  0.00     0.021 A 
ATOM      5  N   UNL     1       3.346   0.957   7.975  1.00  0.00    -0.264 NA
ATOM      6  C   UNL     1       4.677   0.972   7.698  1.00  0.00     0.111 A 
ENDROOT
BRANCH   1   7
ATOM      7  C   UNL     1       1.982   3.547   5.628  1.00  0.00     0.073 C 
ATOM      8  O   UNL     1       0.913   3.086   5.143  1.00  0.00    -0.545 OA
ATOM      9  O   UNL     1       2.258   4.902   5.485  1.00  0.00    -0.545 OA
ENDBRANCH   1   7
TORSDOF 1
ENDMDL
