MODEL 1
REMARK VINA RESULT:    -7.706      0.000      0.000
REMARK INTER + INTRA:          -9.667
REMARK INTER:                  -9.509
REMARK INTRA:                  -0.158
REMARK UNBOUND:                -0.158
REMARK SMILES O=c1c(O)c(-c2cc(O)c(O)c(O)c2)oc2cc(O)cc(O)c12
REMARK SMILES IDX 5 1 3 2 2 3 1 4 23 5 21 6 20 7 18 8 17 9 16 10 15 11 6 12
REMARK SMILES IDX 7 13 8 14 14 15 10 16 12 17 9 18 11 20 13 22 4 24 22 26
REMARK SMILES IDX 19 28
REMARK H PARENT 9 19 11 21 13 23 4 25 22 27 19 29
REMARK Flexibility Score: inf
ROOT
ATOM      1  C   UNL     1      36.887  45.401 158.801  1.00  0.00     0.180 A 
ATOM      2  C   UNL     1      35.944  44.524 159.365  1.00  0.00     0.208 A 
ATOM      3  C   UNL     1      35.771  44.516 160.757  1.00  0.00     0.238 A 
ATOM      4  O   UNL     1      34.965  43.690 161.261  1.00  0.00    -0.285 OA
ATOM      5  C   UNL     1      36.529  45.395 161.568  1.00  0.00     0.111 A 
ATOM      6  C   UNL     1      36.405  45.500 162.986  1.00  0.00     0.134 A 
ATOM      7  C   UNL     1      37.297  46.310 163.699  1.00  0.00     0.093 A 
ATOM      8  C   UNL     1      38.264  47.069 163.041  1.00  0.00     0.123 A 
ATOM      9  C   UNL     1      38.355  47.020 161.649  1.00  0.00     0.094 A 
ATOM     10  C   UNL     1      37.503  46.193 160.914  1.00  0.00     0.146 A 
ATOM     11  O   UNL     1      37.629  46.167 159.592  1.00  0.00    -0.452 OA
ENDROOT
BRANCH   1  12
ATOM     12  C   UNL     1      37.109  45.486 157.339  1.00  0.00     0.029 A 
ATOM     13  C   UNL     1      36.889  46.680 156.635  1.00  0.00     0.062 A 
ATOM     14  C   UNL     1      37.124  46.758 155.257  1.00  0.00     0.162 A 
ATOM     15  C   UNL     1      37.603  44.371 156.650  1.00  0.00     0.062 A 
ATOM     16  C   UNL     1      37.599  45.618 154.563  1.00  0.00     0.200 A 
ATOM     17  C   UNL     1      37.840  44.429 155.274  1.00  0.00     0.162 A 
BRANCH  14  18
ATOM     18  O   UNL     1      36.883  47.980 154.625  1.00  0.00    -0.504 OA
ATOM     19  H   UNL     1      36.060  48.182 154.078  1.00  0.00     0.293 HD
ENDBRANCH  14  18
BRANCH  16  20
ATOM     20  O   UNL     1      37.840  45.631 153.187  1.00  0.00    -0.502 OA
ATOM     21  H   UNL     1      37.118  45.585 152.483  1.00  0.00     0.293 HD
ENDBRANCH  16  20
BRANCH  17  22
ATOM     22  O   UNL     1      38.318  43.287 154.628  1.00  0.00    -0.504 OA
ATOM     23  H   UNL     1      39.193  43.281 154.118  1.00  0.00     0.293 HD
ENDBRANCH  17  22
ENDBRANCH   1  12
BRANCH   2  24
ATOM     24  O   UNL     1      35.222  43.649 158.549  1.00  0.00    -0.502 OA
ATOM     25  H   UNL     1      34.395  43.937 158.041  1.00  0.00     0.293 HD
ENDBRANCH   2  24
BRANCH   6  26
ATOM     26  O   UNL     1      35.414  44.856 163.733  1.00  0.00    -0.507 OA
ATOM     27  H   UNL     1      35.587  44.297 164.555  1.00  0.00     0.293 HD
ENDBRANCH   6  26
BRANCH   8  28
ATOM     28  O   UNL     1      39.125  47.876 163.781  1.00  0.00    -0.508 OA
ATOM     29  H   UNL     1      39.948  48.297 163.364  1.00  0.00     0.293 HD
ENDBRANCH   8  28
TORSDOF 7
ENDMDL
MODEL 2
REMARK VINA RESULT:    -7.693      0.071      1.767
REMARK INTER + INTRA:          -9.650
REMARK INTER:                  -9.481
REMARK INTRA:                  -0.169
REMARK UNBOUND:                -0.158
REMARK SMILES O=c1c(O)c(-c2cc(O)c(O)c(O)c2)oc2cc(O)cc(O)c12
REMARK SMILES IDX 5 1 3 2 2 3 1 4 23 5 21 6 20 7 18 8 17 9 16 10 15 11 6 12
REMARK SMILES IDX 7 13 8 14 14 15 10 16 12 17 9 18 11 20 13 22 4 24 22 26
REMARK SMILES IDX 19 28
REMARK H PARENT 9 19 11 21 13 23 4 25 22 27 19 29
REMARK Flexibility Score: inf
ROOT
ATOM      1  C   UNL     1      36.933  45.399 158.832  1.00  0.00     0.180 A 
ATOM      2  C   UNL     1      35.987  44.517 159.383  1.00  0.00     0.208 A 
ATOM      3  C   UNL     1      35.793  44.510 160.773  1.00  0.00     0.238 A 
ATOM      4  O   UNL     1      34.984  43.680 161.266  1.00  0.00    -0.285 OA
ATOM      5  C   UNL     1      36.535  45.393 161.593  1.00  0.00     0.111 A 
ATOM      6  C   UNL     1      36.390  45.498 163.009  1.00  0.00     0.134 A 
ATOM      7  C   UNL     1      37.268  46.315 163.734  1.00  0.00     0.093 A 
ATOM      8  C   UNL     1      38.241  47.077 163.089  1.00  0.00     0.123 A 
ATOM      9  C   UNL     1      38.352  47.028 161.699  1.00  0.00     0.094 A 
ATOM     10  C   UNL     1      37.514  46.196 160.953  1.00  0.00     0.146 A 
ATOM     11  O   UNL     1      37.660  46.169 159.633  1.00  0.00    -0.452 OA
ENDROOT
BRANCH   1  12
ATOM     12  C   UNL     1      37.176  45.483 157.373  1.00  0.00     0.029 A 
ATOM     13  C   UNL     1      37.659  44.381 156.649  1.00  0.00     0.062 A 
ATOM     14  C   UNL     1      37.864  44.463 155.266  1.00  0.00     0.162 A 
ATOM     15  C   UNL     1      36.864  46.664 156.688  1.00  0.00     0.062 A 
ATOM     16  C   UNL     1      37.572  45.670 154.585  1.00  0.00     0.200 A 
ATOM     17  C   UNL     1      37.065  46.764 155.309  1.00  0.00     0.162 A 
BRANCH  14  18
ATOM     18  O   UNL     1      38.346  43.326 154.614  1.00  0.00    -0.504 OA
ATOM     19  H   UNL     1      37.806  42.769 153.969  1.00  0.00     0.293 HD
ENDBRANCH  14  18
BRANCH  16  20
ATOM     20  O   UNL     1      37.766  45.814 153.209  1.00  0.00    -0.502 OA
ATOM     21  H   UNL     1      38.587  45.494 152.715  1.00  0.00     0.293 HD
ENDBRANCH  16  20
BRANCH  17  22
ATOM     22  O   UNL     1      36.755  47.967 154.672  1.00  0.00    -0.504 OA
ATOM     23  H   UNL     1      37.045  48.167 153.723  1.00  0.00     0.293 HD
ENDBRANCH  17  22
ENDBRANCH   1  12
BRANCH   2  24
ATOM     24  O   UNL     1      35.281  43.638 158.557  1.00  0.00    -0.502 OA
ATOM     25  H   UNL     1      35.665  43.276 157.694  1.00  0.00     0.293 HD
ENDBRANCH   2  24
BRANCH   6  26
ATOM     26  O   UNL     1      35.392  44.850 163.743  1.00  0.00    -0.507 OA
ATOM     27  H   UNL     1      35.561  44.154 164.453  1.00  0.00     0.293 HD
ENDBRANCH   6  26
BRANCH   8  28
ATOM     28  O   UNL     1      39.086  47.890 163.841  1.00  0.00    -0.508 OA
ATOM     29  H   UNL     1      38.986  48.898 163.847  1.00  0.00     0.293 HD
ENDBRANCH   8  28
TORSDOF 7
ENDMDL
MODEL 3
REMARK VINA RESULT:    -7.667      1.850      7.497
REMARK INTER + INTRA:          -9.618
REMARK INTER:                  -9.429
REMARK INTRA:                  -0.189
REMARK UNBOUND:                -0.158
REMARK SMILES O=c1c(O)c(-c2cc(O)c(O)c(O)c2)oc2cc(O)cc(O)c12
REMARK SMILES IDX 5 1 3 2 2 3 1 4 23 5 21 6 20 7 18 8 17 9 16 10 15 11 6 12
REMARK SMILES IDX 7 13 8 14 14 15 10 16 12 17 9 18 11 20 13 22 4 24 22 26
REMARK SMILES IDX 19 28
REMARK H PARENT 9 19 11 21 13 23 4 25 22 27 19 29
REMARK Flexibility Score: inf
ROOT
ATOM      1  C   UNL     1      37.279  47.073 160.883  1.00  0.00     0.180 A 
ATOM      2  C   UNL     1      36.623  48.219 160.399  1.00  0.00     0.208 A 
ATOM      3  C   UNL     1      36.327  48.306 159.030  1.00  0.00     0.238 A 
ATOM      4  O   UNL     1      35.788  49.357 158.594  1.00  0.00    -0.285 OA
ATOM      5  C   UNL     1      36.675  47.241 158.165  1.00  0.00     0.111 A 
ATOM      6  C   UNL     1      36.386  47.206 156.767  1.00  0.00     0.134 A 
ATOM      7  C   UNL     1      36.892  46.161 155.984  1.00  0.00     0.093 A 
ATOM      8  C   UNL     1      37.619  45.118 156.557  1.00  0.00     0.123 A 
ATOM      9  C   UNL     1      37.856  45.112 157.932  1.00  0.00     0.094 A 
ATOM     10  C   UNL     1      37.395  46.159 158.733  1.00  0.00     0.146 A 
ATOM     11  O   UNL     1      37.651  46.121 160.036  1.00  0.00    -0.452 OA
ENDROOT
BRANCH   1  12
ATOM     12  C   UNL     1      37.603  46.897 162.318  1.00  0.00     0.029 A 
ATOM     13  C   UNL     1      37.030  45.862 163.073  1.00  0.00     0.062 A 
ATOM     14  C   UNL     1      37.360  45.688 164.423  1.00  0.00     0.162 A 
ATOM     15  C   UNL     1      38.542  47.742 162.922  1.00  0.00     0.062 A 
ATOM     16  C   UNL     1      38.291  46.564 165.034  1.00  0.00     0.200 A 
ATOM     17  C   UNL     1      38.881  47.585 164.269  1.00  0.00     0.162 A 
BRANCH  14  18
ATOM     18  O   UNL     1      36.749  44.637 165.110  1.00  0.00    -0.504 OA
ATOM     19  H   UNL     1      36.763  44.531 166.113  1.00  0.00     0.293 HD
ENDBRANCH  14  18
BRANCH  16  20
ATOM     20  O   UNL     1      38.650  46.447 166.379  1.00  0.00    -0.502 OA
ATOM     21  H   UNL     1      38.731  47.227 167.015  1.00  0.00     0.293 HD
ENDBRANCH  16  20
BRANCH  17  22
ATOM     22  O   UNL     1      39.811  48.461 164.832  1.00  0.00    -0.504 OA
ATOM     23  H   UNL     1      39.740  48.784 165.789  1.00  0.00     0.293 HD
ENDBRANCH  17  22
ENDBRANCH   1  12
BRANCH   2  24
ATOM     24  O   UNL     1      36.308  49.267 161.268  1.00  0.00    -0.502 OA
ATOM     25  H   UNL     1      35.909  49.113 162.185  1.00  0.00     0.293 HD
ENDBRANCH   2  24
BRANCH   6  26
ATOM     26  O   UNL     1      35.591  48.149 156.109  1.00  0.00    -0.507 OA
ATOM     27  H   UNL     1      34.760  48.569 156.496  1.00  0.00     0.293 HD
ENDBRANCH   6  26
BRANCH   8  28
ATOM     28  O   UNL     1      38.094  44.087 155.750  1.00  0.00    -0.508 OA
ATOM     29  H   UNL     1      38.008  44.121 154.741  1.00  0.00     0.293 HD
ENDBRANCH   8  28
TORSDOF 7
ENDMDL
MODEL 4
REMARK VINA RESULT:    -7.640      1.841      7.380
REMARK INTER + INTRA:          -9.584
REMARK INTER:                  -9.396
REMARK INTRA:                  -0.188
REMARK UNBOUND:                -0.158
REMARK SMILES O=c1c(O)c(-c2cc(O)c(O)c(O)c2)oc2cc(O)cc(O)c12
REMARK SMILES IDX 5 1 3 2 2 3 1 4 23 5 21 6 20 7 18 8 17 9 16 10 15 11 6 12
REMARK SMILES IDX 7 13 8 14 14 15 10 16 12 17 9 18 11 20 13 22 4 24 22 26
REMARK SMILES IDX 19 28
REMARK H PARENT 9 19 11 21 13 23 4 25 22 27 19 29
REMARK Flexibility Score: inf
ROOT
ATOM      1  C   UNL     1      37.354  47.061 160.840  1.00  0.00     0.180 A 
ATOM      2  C   UNL     1      36.695  48.208 160.367  1.00  0.00     0.208 A 
ATOM      3  C   UNL     1      36.381  48.297 159.002  1.00  0.00     0.238 A 
ATOM      4  O   UNL     1      35.839  49.351 158.574  1.00  0.00    -0.285 OA
ATOM      5  C   UNL     1      36.715  47.233 158.131  1.00  0.00     0.111 A 
ATOM      6  C   UNL     1      36.408  47.200 156.737  1.00  0.00     0.134 A 
ATOM      7  C   UNL     1      36.901  46.155 155.945  1.00  0.00     0.093 A 
ATOM      8  C   UNL     1      37.633  45.110 156.508  1.00  0.00     0.123 A 
ATOM      9  C   UNL     1      37.888  45.101 157.880  1.00  0.00     0.094 A 
ATOM     10  C   UNL     1      37.440  46.149 158.688  1.00  0.00     0.146 A 
ATOM     11  O   UNL     1      37.712  46.108 159.988  1.00  0.00    -0.452 OA
ENDROOT
BRANCH   1  12
ATOM     12  C   UNL     1      37.696  46.882 162.270  1.00  0.00     0.029 A 
ATOM     13  C   UNL     1      38.605  47.736 162.916  1.00  0.00     0.062 A 
ATOM     14  C   UNL     1      38.905  47.574 164.274  1.00  0.00     0.162 A 
ATOM     15  C   UNL     1      37.060  45.879 163.012  1.00  0.00     0.062 A 
ATOM     16  C   UNL     1      38.277  46.540 165.011  1.00  0.00     0.200 A 
ATOM     17  C   UNL     1      37.349  45.701 164.368  1.00  0.00     0.162 A 
BRANCH  14  18
ATOM     18  O   UNL     1      39.818  48.462 164.847  1.00  0.00    -0.504 OA
ATOM     19  H   UNL     1      39.659  48.961 165.709  1.00  0.00     0.293 HD
ENDBRANCH  14  18
BRANCH  16  20
ATOM     20  O   UNL     1      38.545  46.323 166.365  1.00  0.00    -0.502 OA
ATOM     21  H   UNL     1      37.859  46.409 167.101  1.00  0.00     0.293 HD
ENDBRANCH  16  20
BRANCH  17  22
ATOM     22  O   UNL     1      36.702  44.678 165.063  1.00  0.00    -0.504 OA
ATOM     23  H   UNL     1      35.954  44.860 165.721  1.00  0.00     0.293 HD
ENDBRANCH  17  22
ENDBRANCH   1  12
BRANCH   2  24
ATOM     24  O   UNL     1      36.394  49.257 161.240  1.00  0.00    -0.502 OA
ATOM     25  H   UNL     1      36.402  50.226 160.950  1.00  0.00     0.293 HD
ENDBRANCH   2  24
BRANCH   6  26
ATOM     26  O   UNL     1      35.607  48.146 156.091  1.00  0.00    -0.507 OA
ATOM     27  H   UNL     1      35.932  49.038 155.750  1.00  0.00     0.293 HD
ENDBRANCH   6  26
BRANCH   8  28
ATOM     28  O   UNL     1      38.094  44.078 155.694  1.00  0.00    -0.508 OA
ATOM     29  H   UNL     1      37.909  44.065 154.697  1.00  0.00     0.293 HD
ENDBRANCH   8  28
TORSDOF 7
ENDMDL
MODEL 5
REMARK VINA RESULT:    -7.572      1.262      7.258
REMARK INTER + INTRA:          -9.501
REMARK INTER:                  -9.155
REMARK INTRA:                  -0.346
REMARK UNBOUND:                -0.158
REMARK SMILES O=c1c(O)c(-c2cc(O)c(O)c(O)c2)oc2cc(O)cc(O)c12
REMARK SMILES IDX 5 1 3 2 2 3 1 4 23 5 21 6 20 7 18 8 17 9 16 10 15 11 6 12
REMARK SMILES IDX 7 13 8 14 14 15 10 16 12 17 9 18 11 20 13 22 4 24 22 26
REMARK SMILES IDX 19 28
REMARK H PARENT 9 19 11 21 13 23 4 25 22 27 19 29
REMARK Flexibility Score: inf
ROOT
ATOM      1  C   UNL     1      37.173  46.321 159.497  1.00  0.00     0.180 A 
ATOM      2  C   UNL     1      36.885  47.595 158.978  1.00  0.00     0.208 A 
ATOM      3  C   UNL     1      36.885  47.779 157.587  1.00  0.00     0.238 A 
ATOM      4  O   UNL     1      36.680  48.934 157.129  1.00  0.00    -0.285 OA
ATOM      5  C   UNL     1      37.156  46.685 156.731  1.00  0.00     0.111 A 
ATOM      6  C   UNL     1      37.142  46.748 155.305  1.00  0.00     0.134 A 
ATOM      7  C   UNL     1      37.553  45.635 154.560  1.00  0.00     0.093 A 
ATOM      8  C   UNL     1      37.914  44.443 155.187  1.00  0.00     0.123 A 
ATOM      9  C   UNL     1      37.873  44.351 156.578  1.00  0.00     0.094 A 
ATOM     10  C   UNL     1      37.503  45.455 157.349  1.00  0.00     0.146 A 
ATOM     11  O   UNL     1      37.487  45.330 158.671  1.00  0.00    -0.452 OA
ENDROOT
BRANCH   1  12
ATOM     12  C   UNL     1      37.168  46.043 160.952  1.00  0.00     0.029 A 
ATOM     13  C   UNL     1      36.048  45.478 161.583  1.00  0.00     0.062 A 
ATOM     14  C   UNL     1      36.060  45.197 162.954  1.00  0.00     0.162 A 
ATOM     15  C   UNL     1      38.321  46.293 161.706  1.00  0.00     0.062 A 
ATOM     16  C   UNL     1      37.221  45.477 163.716  1.00  0.00     0.200 A 
ATOM     17  C   UNL     1      38.350  46.021 163.077  1.00  0.00     0.162 A 
BRANCH  14  18
ATOM     18  O   UNL     1      34.910  44.635 163.512  1.00  0.00    -0.504 OA
ATOM     19  H   UNL     1      34.791  44.444 164.496  1.00  0.00     0.293 HD
ENDBRANCH  14  18
BRANCH  16  20
ATOM     20  O   UNL     1      37.289  45.229 165.089  1.00  0.00    -0.502 OA
ATOM     21  H   UNL     1      36.932  44.396 165.534  1.00  0.00     0.293 HD
ENDBRANCH  16  20
BRANCH  17  22
ATOM     22  O   UNL     1      39.517  46.302 163.791  1.00  0.00    -0.504 OA
ATOM     23  H   UNL     1      40.158  45.576 164.086  1.00  0.00     0.293 HD
ENDBRANCH  17  22
ENDBRANCH   1  12
BRANCH   2  24
ATOM     24  O   UNL     1      36.642  48.667 159.841  1.00  0.00    -0.502 OA
ATOM     25  H   UNL     1      37.253  48.892 160.615  1.00  0.00     0.293 HD
ENDBRANCH   2  24
BRANCH   6  26
ATOM     26  O   UNL     1      36.711  47.861 154.577  1.00  0.00    -0.507 OA
ATOM     27  H   UNL     1      37.151  48.768 154.600  1.00  0.00     0.293 HD
ENDBRANCH   6  26
BRANCH   8  28
ATOM     28  O   UNL     1      38.302  43.351 154.414  1.00  0.00    -0.508 OA
ATOM     29  H   UNL     1      37.808  42.467 154.458  1.00  0.00     0.293 HD
ENDBRANCH   8  28
TORSDOF 7
ENDMDL
MODEL 6
REMARK VINA RESULT:    -7.556      1.343      1.680
REMARK INTER + INTRA:          -9.481
REMARK INTER:                  -9.129
REMARK INTRA:                  -0.352
REMARK UNBOUND:                -0.158
REMARK SMILES O=c1c(O)c(-c2cc(O)c(O)c(O)c2)oc2cc(O)cc(O)c12
REMARK SMILES IDX 5 1 3 2 2 3 1 4 23 5 21 6 20 7 18 8 17 9 16 10 15 11 6 12
REMARK SMILES IDX 7 13 8 14 14 15 10 16 12 17 9 18 11 20 13 22 4 24 22 26
REMARK SMILES IDX 19 28
REMARK H PARENT 9 19 11 21 13 23 4 25 22 27 19 29
REMARK Flexibility Score: inf
ROOT
ATOM      1  C   UNL     1      37.145  46.007 160.101  1.00  0.00     0.180 A 
ATOM      2  C   UNL     1      36.445  44.929 160.668  1.00  0.00     0.208 A 
ATOM      3  C   UNL     1      36.489  44.747 162.059  1.00  0.00     0.238 A 
ATOM      4  O   UNL     1      35.904  43.748 162.556  1.00  0.00    -0.285 OA
ATOM      5  C   UNL     1      37.217  45.652 162.867  1.00  0.00     0.111 A 
ATOM      6  C   UNL     1      37.296  45.586 164.291  1.00  0.00     0.134 A 
ATOM      7  C   UNL     1      38.152  46.458 164.976  1.00  0.00     0.093 A 
ATOM      8  C   UNL     1      38.880  47.433 164.297  1.00  0.00     0.123 A 
ATOM      9  C   UNL     1      38.765  47.546 162.911  1.00  0.00     0.094 A 
ATOM     10  C   UNL     1      37.947  46.668 162.196  1.00  0.00     0.146 A 
ATOM     11  O   UNL     1      37.873  46.801 160.877  1.00  0.00    -0.452 OA
ENDROOT
BRANCH   1  12
ATOM     12  C   UNL     1      37.127  46.280 158.645  1.00  0.00     0.029 A 
ATOM     13  C   UNL     1      36.234  47.208 158.087  1.00  0.00     0.062 A 
ATOM     14  C   UNL     1      36.239  47.477 156.713  1.00  0.00     0.162 A 
ATOM     15  C   UNL     1      38.057  45.645 157.812  1.00  0.00     0.062 A 
ATOM     16  C   UNL     1      37.165  46.810 155.873  1.00  0.00     0.200 A 
ATOM     17  C   UNL     1      38.075  45.899 156.438  1.00  0.00     0.162 A 
BRANCH  14  18
ATOM     18  O   UNL     1      35.320  48.412 156.231  1.00  0.00    -0.504 OA
ATOM     19  H   UNL     1      35.527  49.094 155.517  1.00  0.00     0.293 HD
ENDBRANCH  14  18
BRANCH  16  20
ATOM     20  O   UNL     1      37.210  47.029 154.494  1.00  0.00    -0.502 OA
ATOM     21  H   UNL     1      37.695  47.799 154.056  1.00  0.00     0.293 HD
ENDBRANCH  16  20
BRANCH  17  22
ATOM     22  O   UNL     1      39.010  45.230 155.645  1.00  0.00    -0.504 OA
ATOM     23  H   UNL     1      39.792  45.707 155.212  1.00  0.00     0.293 HD
ENDBRANCH  17  22
ENDBRANCH   1  12
BRANCH   2  24
ATOM     24  O   UNL     1      35.749  44.034 159.851  1.00  0.00    -0.502 OA
ATOM     25  H   UNL     1      35.065  43.383 160.215  1.00  0.00     0.293 HD
ENDBRANCH   2  24
BRANCH   6  26
ATOM     26  O   UNL     1      36.541  44.709 165.075  1.00  0.00    -0.507 OA
ATOM     27  H   UNL     1      36.671  43.710 165.107  1.00  0.00     0.293 HD
ENDBRANCH   6  26
BRANCH   8  28
ATOM     28  O   UNL     1      39.710  48.294 165.012  1.00  0.00    -0.508 OA
ATOM     29  H   UNL     1      40.714  48.159 165.043  1.00  0.00     0.293 HD
ENDBRANCH   8  28
TORSDOF 7
ENDMDL
MODEL 7
REMARK VINA RESULT:    -7.515      1.729      7.065
REMARK INTER + INTRA:          -9.431
REMARK INTER:                  -9.062
REMARK INTRA:                  -0.369
REMARK UNBOUND:                -0.158
REMARK SMILES O=c1c(O)c(-c2cc(O)c(O)c(O)c2)oc2cc(O)cc(O)c12
REMARK SMILES IDX 5 1 3 2 2 3 1 4 23 5 21 6 20 7 18 8 17 9 16 10 15 11 6 12
REMARK SMILES IDX 7 13 8 14 14 15 10 16 12 17 9 18 11 20 13 22 4 24 22 26
REMARK SMILES IDX 19 28
REMARK H PARENT 9 19 11 21 13 23 4 25 22 27 19 29
REMARK Flexibility Score: inf
ROOT
ATOM      1  C   UNL     1      36.918  46.287 158.120  1.00  0.00     0.180 A 
ATOM      2  C   UNL     1      37.098  45.224 157.219  1.00  0.00     0.208 A 
ATOM      3  C   UNL     1      37.116  45.495 155.842  1.00  0.00     0.238 A 
ATOM      4  O   UNL     1      37.223  44.531 155.038  1.00  0.00    -0.285 OA
ATOM      5  C   UNL     1      36.972  46.826 155.383  1.00  0.00     0.111 A 
ATOM      6  C   UNL     1      37.016  47.220 154.012  1.00  0.00     0.134 A 
ATOM      7  C   UNL     1      36.732  48.547 153.665  1.00  0.00     0.093 A 
ATOM      8  C   UNL     1      36.470  49.506 154.642  1.00  0.00     0.123 A 
ATOM      9  C   UNL     1      36.483  49.145 155.990  1.00  0.00     0.094 A 
ATOM     10  C   UNL     1      36.727  47.821 156.364  1.00  0.00     0.146 A 
ATOM     11  O   UNL     1      36.721  47.516 157.657  1.00  0.00    -0.452 OA
ENDROOT
BRANCH   1  12
ATOM     12  C   UNL     1      36.912  46.085 159.587  1.00  0.00     0.029 A 
ATOM     13  C   UNL     1      38.100  46.125 160.335  1.00  0.00     0.062 A 
ATOM     14  C   UNL     1      38.082  45.956 161.724  1.00  0.00     0.162 A 
ATOM     15  C   UNL     1      35.694  45.907 160.254  1.00  0.00     0.062 A 
ATOM     16  C   UNL     1      36.848  45.749 162.389  1.00  0.00     0.200 A 
ATOM     17  C   UNL     1      35.657  45.733 161.640  1.00  0.00     0.162 A 
BRANCH  14  18
ATOM     18  O   UNL     1      39.304  46.009 162.400  1.00  0.00    -0.504 OA
ATOM     19  H   UNL     1      40.041  45.328 162.293  1.00  0.00     0.293 HD
ENDBRANCH  14  18
BRANCH  16  20
ATOM     20  O   UNL     1      36.769  45.563 163.771  1.00  0.00    -0.502 OA
ATOM     21  H   UNL     1      36.470  46.272 164.424  1.00  0.00     0.293 HD
ENDBRANCH  16  20
BRANCH  17  22
ATOM     22  O   UNL     1      34.421  45.543 162.260  1.00  0.00    -0.504 OA
ATOM     23  H   UNL     1      33.548  45.573 161.746  1.00  0.00     0.293 HD
ENDBRANCH  17  22
ENDBRANCH   1  12
BRANCH   2  24
ATOM     24  O   UNL     1      37.217  43.914 157.692  1.00  0.00    -0.502 OA
ATOM     25  H   UNL     1      37.276  43.115 157.073  1.00  0.00     0.293 HD
ENDBRANCH   2  24
BRANCH   6  26
ATOM     26  O   UNL     1      37.359  46.361 152.963  1.00  0.00    -0.507 OA
ATOM     27  H   UNL     1      37.094  46.498 151.999  1.00  0.00     0.293 HD
ENDBRANCH   6  26
BRANCH   8  28
ATOM     28  O   UNL     1      36.206  50.820 154.262  1.00  0.00    -0.508 OA
ATOM     29  H   UNL     1      35.859  51.504 154.924  1.00  0.00     0.293 HD
ENDBRANCH   8  28
TORSDOF 7
ENDMDL
MODEL 8
REMARK VINA RESULT:    -7.451      2.173      4.330
REMARK INTER + INTRA:          -9.351
REMARK INTER:                  -8.982
REMARK INTRA:                  -0.369
REMARK UNBOUND:                -0.158
REMARK SMILES O=c1c(O)c(-c2cc(O)c(O)c(O)c2)oc2cc(O)cc(O)c12
REMARK SMILES IDX 5 1 3 2 2 3 1 4 23 5 21 6 20 7 18 8 17 9 16 10 15 11 6 12
REMARK SMILES IDX 7 13 8 14 14 15 10 16 12 17 9 18 11 20 13 22 4 24 22 26
REMARK SMILES IDX 19 28
REMARK H PARENT 9 19 11 21 13 23 4 25 22 27 19 29
REMARK Flexibility Score: inf
ROOT
ATOM      1  C   UNL     1      37.060  46.216 161.570  1.00  0.00     0.180 A 
ATOM      2  C   UNL     1      37.712  47.125 162.420  1.00  0.00     0.208 A 
ATOM      3  C   UNL     1      37.795  46.835 163.791  1.00  0.00     0.238 A 
ATOM      4  O   UNL     1      38.332  47.679 164.556  1.00  0.00    -0.285 OA
ATOM      5  C   UNL     1      37.241  45.633 164.292  1.00  0.00     0.111 A 
ATOM      6  C   UNL     1      37.303  45.219 165.657  1.00  0.00     0.134 A 
ATOM      7  C   UNL     1      36.608  44.074 166.064  1.00  0.00     0.093 A 
ATOM      8  C   UNL     1      35.907  43.293 165.145  1.00  0.00     0.123 A 
ATOM      9  C   UNL     1      35.888  43.655 163.798  1.00  0.00     0.094 A 
ATOM     10  C   UNL     1      36.543  44.813 163.369  1.00  0.00     0.146 A 
ATOM     11  O   UNL     1      36.493  45.129 162.080  1.00  0.00    -0.452 OA
ENDROOT
BRANCH   1  12
ATOM     12  C   UNL     1      36.953  46.440 160.110  1.00  0.00     0.029 A 
ATOM     13  C   UNL     1      37.953  45.998 159.229  1.00  0.00     0.062 A 
ATOM     14  C   UNL     1      37.833  46.193 157.847  1.00  0.00     0.162 A 
ATOM     15  C   UNL     1      35.806  47.051 159.587  1.00  0.00     0.062 A 
ATOM     16  C   UNL     1      36.682  46.837 157.329  1.00  0.00     0.200 A 
ATOM     17  C   UNL     1      35.671  47.257 158.211  1.00  0.00     0.162 A 
BRANCH  14  18
ATOM     18  O   UNL     1      38.868  45.728 157.034  1.00  0.00    -0.504 OA
ATOM     19  H   UNL     1      39.061  46.076 156.106  1.00  0.00     0.293 HD
ENDBRANCH  14  18
BRANCH  16  20
ATOM     20  O   UNL     1      36.512  47.070 155.962  1.00  0.00    -0.502 OA
ATOM     21  H   UNL     1      37.170  46.785 155.251  1.00  0.00     0.293 HD
ENDBRANCH  16  20
BRANCH  17  22
ATOM     22  O   UNL     1      34.517  47.885 157.738  1.00  0.00    -0.504 OA
ATOM     23  H   UNL     1      34.492  48.872 157.512  1.00  0.00     0.293 HD
ENDBRANCH  17  22
ENDBRANCH   1  12
BRANCH   2  24
ATOM     24  O   UNL     1      38.233  48.317 161.908  1.00  0.00    -0.502 OA
ATOM     25  H   UNL     1      38.505  49.091 162.501  1.00  0.00     0.293 HD
ENDBRANCH   2  24
BRANCH   6  26
ATOM     26  O   UNL     1      38.051  45.876 166.639  1.00  0.00    -0.507 OA
ATOM     27  H   UNL     1      38.211  45.524 167.570  1.00  0.00     0.293 HD
ENDBRANCH   6  26
BRANCH   8  28
ATOM     28  O   UNL     1      35.239  42.152 165.582  1.00  0.00    -0.508 OA
ATOM     29  H   UNL     1      34.807  41.507 164.930  1.00  0.00     0.293 HD
ENDBRANCH   8  28
TORSDOF 7
ENDMDL
MODEL 9
REMARK VINA RESULT:    -7.368      2.235      7.248
REMARK INTER + INTRA:          -9.248
REMARK INTER:                  -9.663
REMARK INTRA:                   0.415
REMARK UNBOUND:                -0.158
REMARK SMILES O=c1c(O)c(-c2cc(O)c(O)c(O)c2)oc2cc(O)cc(O)c12
REMARK SMILES IDX 5 1 3 2 2 3 1 4 23 5 21 6 20 7 18 8 17 9 16 10 15 11 6 12
REMARK SMILES IDX 7 13 8 14 14 15 10 16 12 17 9 18 11 20 13 22 4 24 22 26
REMARK SMILES IDX 19 28
REMARK H PARENT 9 19 11 21 13 23 4 25 22 27 19 29
REMARK Flexibility Score: inf
ROOT
ATOM      1  C   UNL     1      37.058  47.455 157.672  1.00  0.00     0.180 A 
ATOM      2  C   UNL     1      36.533  48.183 156.591  1.00  0.00     0.208 A 
ATOM      3  C   UNL     1      36.731  47.703 155.287  1.00  0.00     0.238 A 
ATOM      4  O   UNL     1      36.305  48.387 154.320  1.00  0.00    -0.285 OA
ATOM      5  C   UNL     1      37.435  46.493 155.081  1.00  0.00     0.111 A 
ATOM      6  C   UNL     1      37.659  45.892 153.805  1.00  0.00     0.134 A 
ATOM      7  C   UNL     1      38.481  44.763 153.708  1.00  0.00     0.093 A 
ATOM      8  C   UNL     1      39.034  44.175 154.845  1.00  0.00     0.123 A 
ATOM      9  C   UNL     1      38.773  44.718 156.104  1.00  0.00     0.094 A 
ATOM     10  C   UNL     1      37.986  45.866 156.228  1.00  0.00     0.146 A 
ATOM     11  O   UNL     1      37.770  46.358 157.443  1.00  0.00    -0.452 OA
ENDROOT
BRANCH   1  12
ATOM     12  C   UNL     1      36.870  47.884 159.077  1.00  0.00     0.029 A 
ATOM     13  C   UNL     1      36.391  49.166 159.391  1.00  0.00     0.062 A 
ATOM     14  C   UNL     1      36.194  49.555 160.722  1.00  0.00     0.162 A 
ATOM     15  C   UNL     1      37.117  46.977 160.115  1.00  0.00     0.062 A 
ATOM     16  C   UNL     1      36.473  48.641 161.767  1.00  0.00     0.200 A 
ATOM     17  C   UNL     1      36.929  47.349 161.449  1.00  0.00     0.162 A 
BRANCH  14  18
ATOM     18  O   UNL     1      35.716  50.846 160.956  1.00  0.00    -0.504 OA
ATOM     19  H   UNL     1      36.066  51.459 161.678  1.00  0.00     0.293 HD
ENDBRANCH  14  18
BRANCH  16  20
ATOM     20  O   UNL     1      36.306  48.976 163.113  1.00  0.00    -0.502 OA
ATOM     21  H   UNL     1      36.929  49.581 163.629  1.00  0.00     0.293 HD
ENDBRANCH  16  20
BRANCH  17  22
ATOM     22  O   UNL     1      37.205  46.416 162.450  1.00  0.00    -0.504 OA
ATOM     23  H   UNL     1      38.123  46.007 162.571  1.00  0.00     0.293 HD
ENDBRANCH  17  22
ENDBRANCH   1  12
BRANCH   2  24
ATOM     24  O   UNL     1      35.859  49.387 156.815  1.00  0.00    -0.502 OA
ATOM     25  H   UNL     1      35.263  49.815 156.118  1.00  0.00     0.293 HD
ENDBRANCH   2  24
BRANCH   6  26
ATOM     26  O   UNL     1      37.080  46.346 152.616  1.00  0.00    -0.507 OA
ATOM     27  H   UNL     1      36.981  45.793 151.779  1.00  0.00     0.293 HD
ENDBRANCH   6  26
BRANCH   8  28
ATOM     28  O   UNL     1      39.834  43.042 154.713  1.00  0.00    -0.508 OA
ATOM     29  H   UNL     1      40.078  42.668 153.804  1.00  0.00     0.293 HD
ENDBRANCH   8  28
TORSDOF 7
ENDMDL
