MODEL 1
REMARK VINA RESULT:    -6.180      0.000      0.000
REMARK INTER + INTRA:          -9.331
REMARK INTER:                  -8.709
REMARK INTRA:                  -0.622
REMARK UNBOUND:                -0.622
REMARK SMILES COc1c(O[C@@H]2O[C@H](C(=O)[O-])[C@H](O)[C@@H](O)[C@@H]2O)cc(O)c2c(=O)cc(-c3ccccc3)oc12
REMARK SMILES IDX 5 1 6 2 8 3 12 4 7 5 14 6 16 7 9 8 10 9 11 10 13 11 15 13
REMARK SMILES IDX 17 15 4 17 3 18 18 19 33 20 19 21 21 22 32 23 22 24 25 25
REMARK SMILES IDX 24 26 23 27 2 28 1 29 20 30 26 32 27 33 31 34 28 35 30 36
REMARK SMILES IDX 29 37
REMARK H PARENT 13 12 15 14 17 16 20 31
REMARK Flexibility Score: inf
ROOT
ATOM      1  O   UNL     1      30.828  33.360  18.312  1.00  0.00    -0.458 OA
ENDROOT
BRANCH   1   2
ATOM      2  C   UNL     1      30.915  32.040  17.765  1.00  0.00     0.339 C 
ATOM      3  C   UNL     1      29.434  32.412  15.929  1.00  0.00     0.199 C 
ATOM      4  C   UNL     1      28.325  31.534  16.570  1.00  0.00     0.180 C 
ATOM      5  O   UNL     1      30.741  32.041  16.352  1.00  0.00    -0.328 OA
ATOM      6  C   UNL     1      28.470  31.489  18.098  1.00  0.00     0.181 C 
ATOM      7  C   UNL     1      29.912  31.099  18.461  1.00  0.00     0.214 C 
BRANCH   3   8
ATOM      8  C   UNL     1      29.222  33.906  16.020  1.00  0.00     0.073 C 
ATOM      9  O   UNL     1      30.175  34.716  15.876  1.00  0.00    -0.547 OA
ATOM     10  O   UNL     1      27.943  34.397  16.245  1.00  0.00    -0.547 OA
ENDBRANCH   3   8
BRANCH   4  11
ATOM     11  O   UNL     1      27.047  32.002  16.227  1.00  0.00    -0.387 OA
ATOM     12  H   UNL     1      27.177  32.712  15.545  1.00  0.00     0.211 HD
ENDBRANCH   4  11
BRANCH   6  13
ATOM     13  O   UNL     1      27.548  30.589  18.663  1.00  0.00    -0.387 OA
ATOM     14  H   UNL     1      27.436  30.829  19.620  1.00  0.00     0.211 HD
ENDBRANCH   6  13
BRANCH   7  15
ATOM     15  O   UNL     1      30.106  31.089  19.853  1.00  0.00    -0.384 OA
ATOM     16  H   UNL     1      31.045  30.822  20.029  1.00  0.00     0.211 HD
ENDBRANCH   7  15
ENDBRANCH   1   2
BRANCH   1  17
ATOM     17  C   UNL     1      31.853  34.118  18.913  1.00  0.00     0.172 A 
ATOM     18  C   UNL     1      32.246  34.006  20.268  1.00  0.00     0.205 A 
ATOM     19  C   UNL     1      32.512  35.018  18.079  1.00  0.00     0.097 A 
ATOM     20  C   UNL     1      33.340  34.779  20.738  1.00  0.00     0.188 A 
ATOM     21  C   UNL     1      33.559  35.816  18.532  1.00  0.00     0.134 A 
ATOM     22  C   UNL     1      34.026  35.669  19.866  1.00  0.00     0.111 A 
ATOM     23  O   UNL     1      33.726  34.670  22.008  1.00  0.00    -0.452 OA
ATOM     24  C   UNL     1      35.161  36.338  20.384  1.00  0.00     0.197 A 
ATOM     25  C   UNL     1      34.748  35.336  22.534  1.00  0.00     0.138 A 
ATOM     26  C   UNL     1      35.505  36.185  21.723  1.00  0.00     0.100 A 
ATOM     27  O   UNL     1      35.905  37.048  19.660  1.00  0.00    -0.289 OA
BRANCH  18  28
ATOM     28  O   UNL     1      31.530  33.131  21.105  1.00  0.00    -0.490 OA
ATOM     29  C   UNL     1      32.063  32.054  21.864  1.00  0.00     0.278 C 
ENDBRANCH  18  28
BRANCH  21  30
ATOM     30  O   UNL     1      34.070  36.747  17.623  1.00  0.00    -0.507 OA
ATOM     31  H   UNL     1      34.982  36.693  17.195  1.00  0.00     0.293 HD
ENDBRANCH  21  30
BRANCH  25  32
ATOM     32  C   UNL     1      35.075  35.138  23.967  1.00  0.00     0.017 A 
ATOM     33  C   UNL     1      35.733  36.134  24.715  1.00  0.00     0.012 A 
ATOM     34  C   UNL     1      34.708  33.943  24.607  1.00  0.00     0.012 A 
ATOM     35  C   UNL     1      36.023  35.928  26.067  1.00  0.00     0.001 A 
ATOM     36  C   UNL     1      34.998  33.744  25.959  1.00  0.00     0.001 A 
ATOM     37  C   UNL     1      35.658  34.732  26.688  1.00  0.00     0.000 A 
ENDBRANCH  25  32
ENDBRANCH   1  17
TORSDOF 9
ENDMDL
MODEL 2
REMARK VINA RESULT:    -5.934      1.062      1.612
REMARK INTER + INTRA:          -8.984
REMARK INTER:                  -8.383
REMARK INTRA:                  -0.601
REMARK UNBOUND:                -0.622
REMARK SMILES COc1c(O[C@@H]2O[C@H](C(=O)[O-])[C@H](O)[C@@H](O)[C@@H]2O)cc(O)c2c(=O)cc(-c3ccccc3)oc12
REMARK SMILES IDX 5 1 6 2 8 3 12 4 7 5 14 6 16 7 9 8 10 9 11 10 13 11 15 13
REMARK SMILES IDX 17 15 4 17 3 18 18 19 33 20 19 21 21 22 32 23 22 24 25 25
REMARK SMILES IDX 24 26 23 27 2 28 1 29 20 30 26 32 27 33 31 34 28 35 30 36
REMARK SMILES IDX 29 37
REMARK H PARENT 13 12 15 14 17 16 20 31
REMARK Flexibility Score: inf
ROOT
ATOM      1  O   UNL     1      30.125  32.728  17.880  1.00  0.00    -0.458 OA
ENDROOT
BRANCH   1   2
ATOM      2  C   UNL     1      30.200  31.429  17.283  1.00  0.00     0.339 C 
ATOM      3  C   UNL     1      28.181  31.597  16.019  1.00  0.00     0.199 C 
ATOM      4  C   UNL     1      27.452  30.582  16.941  1.00  0.00     0.180 C 
ATOM      5  O   UNL     1      29.591  31.403  15.996  1.00  0.00    -0.328 OA
ATOM      6  C   UNL     1      28.076  30.562  18.344  1.00  0.00     0.181 C 
ATOM      7  C   UNL     1      29.596  30.367  18.221  1.00  0.00     0.214 C 
BRANCH   3   8
ATOM      8  C   UNL     1      27.822  33.050  16.230  1.00  0.00     0.073 C 
ATOM      9  O   UNL     1      26.719  33.389  16.732  1.00  0.00    -0.547 OA
ATOM     10  O   UNL     1      28.739  34.033  15.882  1.00  0.00    -0.547 OA
ENDBRANCH   3   8
BRANCH   4  11
ATOM     11  O   UNL     1      26.082  30.877  17.034  1.00  0.00    -0.387 OA
ATOM     12  H   UNL     1      25.955  31.774  16.631  1.00  0.00     0.211 HD
ENDBRANCH   4  11
BRANCH   6  13
ATOM     13  O   UNL     1      27.502  29.550  19.134  1.00  0.00    -0.387 OA
ATOM     14  H   UNL     1      26.599  29.355  18.771  1.00  0.00     0.211 HD
ENDBRANCH   6  13
BRANCH   7  15
ATOM     15  O   UNL     1      30.220  30.387  19.480  1.00  0.00    -0.384 OA
ATOM     16  H   UNL     1      30.397  31.333  19.719  1.00  0.00     0.211 HD
ENDBRANCH   7  15
ENDBRANCH   1   2
BRANCH   1  17
ATOM     17  C   UNL     1      31.190  33.563  18.276  1.00  0.00     0.172 A 
ATOM     18  C   UNL     1      31.693  33.650  19.596  1.00  0.00     0.205 A 
ATOM     19  C   UNL     1      31.770  34.328  17.268  1.00  0.00     0.097 A 
ATOM     20  C   UNL     1      32.815  34.480  19.855  1.00  0.00     0.188 A 
ATOM     21  C   UNL     1      32.843  35.180  17.510  1.00  0.00     0.134 A 
ATOM     22  C   UNL     1      33.420  35.229  18.807  1.00  0.00     0.111 A 
ATOM     23  O   UNL     1      33.305  34.559  21.091  1.00  0.00    -0.452 OA
ATOM     24  C   UNL     1      34.588  35.964  19.126  1.00  0.00     0.197 A 
ATOM     25  C   UNL     1      34.361  35.291  21.428  1.00  0.00     0.138 A 
ATOM     26  C   UNL     1      35.041  36.009  20.441  1.00  0.00     0.100 A 
ATOM     27  O   UNL     1      35.264  36.556  18.246  1.00  0.00    -0.289 OA
BRANCH  18  28
ATOM     28  O   UNL     1      31.056  32.911  20.608  1.00  0.00    -0.490 OA
ATOM     29  C   UNL     1      31.685  32.134  21.618  1.00  0.00     0.278 C 
ENDBRANCH  18  28
BRANCH  21  30
ATOM     30  O   UNL     1      33.270  35.965  16.435  1.00  0.00    -0.507 OA
ATOM     31  H   UNL     1      34.003  35.709  15.790  1.00  0.00     0.293 HD
ENDBRANCH  21  30
BRANCH  25  32
ATOM     32  C   UNL     1      34.806  35.305  22.842  1.00  0.00     0.017 A 
ATOM     33  C   UNL     1      34.811  34.133  23.622  1.00  0.00     0.012 A 
ATOM     34  C   UNL     1      35.254  36.504  23.420  1.00  0.00     0.012 A 
ATOM     35  C   UNL     1      35.244  34.169  24.951  1.00  0.00     0.001 A 
ATOM     36  C   UNL     1      35.687  36.534  24.748  1.00  0.00     0.001 A 
ATOM     37  C   UNL     1      35.680  35.370  25.514  1.00  0.00     0.000 A 
ENDBRANCH  25  32
ENDBRANCH   1  17
TORSDOF 9
ENDMDL
MODEL 3
REMARK VINA RESULT:    -5.444     16.654     18.786
REMARK INTER + INTRA:          -8.294
REMARK INTER:                  -7.367
REMARK INTRA:                  -0.927
REMARK UNBOUND:                -0.622
REMARK SMILES COc1c(O[C@@H]2O[C@H](C(=O)[O-])[C@H](O)[C@@H](O)[C@@H]2O)cc(O)c2c(=O)cc(-c3ccccc3)oc12
REMARK SMILES IDX 5 1 6 2 8 3 12 4 7 5 14 6 16 7 9 8 10 9 11 10 13 11 15 13
REMARK SMILES IDX 17 15 4 17 3 18 18 19 33 20 19 21 21 22 32 23 22 24 25 25
REMARK SMILES IDX 24 26 23 27 2 28 1 29 20 30 26 32 27 33 31 34 28 35 30 36
REMARK SMILES IDX 29 37
REMARK H PARENT 13 12 15 14 17 16 20 31
REMARK Flexibility Score: inf
ROOT
ATOM      1  O   UNL     1      18.270  30.612  33.334  1.00  0.00    -0.458 OA
ENDROOT
BRANCH   1   2
ATOM      2  C   UNL     1      17.117  30.160  34.053  1.00  0.00     0.339 C 
ATOM      3  C   UNL     1      18.305  29.192  35.884  1.00  0.00     0.199 C 
ATOM      4  C   UNL     1      17.961  27.750  35.419  1.00  0.00     0.180 C 
ATOM      5  O   UNL     1      17.342  30.150  35.459  1.00  0.00    -0.328 OA
ATOM      6  C   UNL     1      17.700  27.704  33.907  1.00  0.00     0.181 C 
ATOM      7  C   UNL     1      16.665  28.780  33.538  1.00  0.00     0.214 C 
BRANCH   3   8
ATOM      8  C   UNL     1      19.715  29.655  35.598  1.00  0.00     0.073 C 
ATOM      9  O   UNL     1      20.185  30.697  36.125  1.00  0.00    -0.547 OA
ATOM     10  O   UNL     1      20.518  28.901  34.753  1.00  0.00    -0.547 OA
ENDBRANCH   3   8
BRANCH   4  11
ATOM     11  O   UNL     1      18.989  26.853  35.752  1.00  0.00    -0.387 OA
ATOM     12  H   UNL     1      19.339  27.135  36.636  1.00  0.00     0.211 HD
ENDBRANCH   4  11
BRANCH   6  13
ATOM     13  O   UNL     1      17.260  26.428  33.512  1.00  0.00    -0.387 OA
ATOM     14  H   UNL     1      17.931  26.057  32.881  1.00  0.00     0.211 HD
ENDBRANCH   6  13
BRANCH   7  15
ATOM     15  O   UNL     1      16.425  28.808  32.154  1.00  0.00    -0.384 OA
ATOM     16  H   UNL     1      15.801  28.069  31.936  1.00  0.00     0.211 HD
ENDBRANCH   7  15
ENDBRANCH   1   2
BRANCH   1  17
ATOM     17  C   UNL     1      18.376  31.728  32.479  1.00  0.00     0.172 A 
ATOM     18  C   UNL     1      19.588  32.390  32.170  1.00  0.00     0.205 A 
ATOM     19  C   UNL     1      17.186  32.170  31.908  1.00  0.00     0.097 A 
ATOM     20  C   UNL     1      19.572  33.463  31.241  1.00  0.00     0.188 A 
ATOM     21  C   UNL     1      17.144  33.247  31.027  1.00  0.00     0.134 A 
ATOM     22  C   UNL     1      18.353  33.882  30.637  1.00  0.00     0.111 A 
ATOM     23  O   UNL     1      20.709  34.084  30.932  1.00  0.00    -0.452 OA
ATOM     24  C   UNL     1      18.432  34.899  29.655  1.00  0.00     0.197 A 
ATOM     25  C   UNL     1      20.798  35.084  30.062  1.00  0.00     0.138 A 
ATOM     26  C   UNL     1      19.652  35.511  29.387  1.00  0.00     0.100 A 
ATOM     27  O   UNL     1      17.431  35.250  28.978  1.00  0.00    -0.289 OA
BRANCH  18  28
ATOM     28  O   UNL     1      20.768  31.962  32.803  1.00  0.00    -0.490 OA
ATOM     29  C   UNL     1      21.280  32.421  34.046  1.00  0.00     0.278 C 
ENDBRANCH  18  28
BRANCH  21  30
ATOM     30  O   UNL     1      15.875  33.653  30.600  1.00  0.00    -0.507 OA
ATOM     31  H   UNL     1      15.048  33.076  30.626  1.00  0.00     0.293 HD
ENDBRANCH  21  30
BRANCH  25  32
ATOM     32  C   UNL     1      22.121  35.703  29.809  1.00  0.00     0.017 A 
ATOM     33  C   UNL     1      22.724  36.558  30.752  1.00  0.00     0.012 A 
ATOM     34  C   UNL     1      22.806  35.422  28.616  1.00  0.00     0.012 A 
ATOM     35  C   UNL     1      23.978  37.123  30.496  1.00  0.00     0.001 A 
ATOM     36  C   UNL     1      24.059  35.987  28.366  1.00  0.00     0.001 A 
ATOM     37  C   UNL     1      24.643  36.839  29.302  1.00  0.00     0.000 A 
ENDBRANCH  25  32
ENDBRANCH   1  17
TORSDOF 9
ENDMDL
MODEL 4
REMARK VINA RESULT:    -5.155     17.244     19.528
REMARK INTER + INTRA:          -7.887
REMARK INTER:                  -7.346
REMARK INTRA:                  -0.541
REMARK UNBOUND:                -0.622
REMARK SMILES COc1c(O[C@@H]2O[C@H](C(=O)[O-])[C@H](O)[C@@H](O)[C@@H]2O)cc(O)c2c(=O)cc(-c3ccccc3)oc12
REMARK SMILES IDX 5 1 6 2 8 3 12 4 7 5 14 6 16 7 9 8 10 9 11 10 13 11 15 13
REMARK SMILES IDX 17 15 4 17 3 18 18 19 33 20 19 21 21 22 32 23 22 24 25 25
REMARK SMILES IDX 24 26 23 27 2 28 1 29 20 30 26 32 27 33 31 34 28 35 30 36
REMARK SMILES IDX 29 37
REMARK H PARENT 13 12 15 14 17 16 20 31
REMARK Flexibility Score: inf
ROOT
ATOM      1  O   UNL     1      18.969  33.738  32.584  1.00  0.00    -0.458 OA
ENDROOT
BRANCH   1   2
ATOM      2  C   UNL     1      18.648  35.041  33.084  1.00  0.00     0.339 C 
ATOM      3  C   UNL     1      18.722  36.163  30.977  1.00  0.00     0.199 C 
ATOM      4  C   UNL     1      20.042  36.893  31.346  1.00  0.00     0.180 C 
ATOM      5  O   UNL     1      17.946  35.819  32.119  1.00  0.00    -0.328 OA
ATOM      6  C   UNL     1      20.838  36.100  32.393  1.00  0.00     0.181 C 
ATOM      7  C   UNL     1      19.919  35.759  33.578  1.00  0.00     0.214 C 
BRANCH   3   8
ATOM      8  C   UNL     1      18.862  34.995  30.027  1.00  0.00     0.073 C 
ATOM      9  O   UNL     1      17.898  34.221  29.790  1.00  0.00    -0.547 OA
ATOM     10  O   UNL     1      20.074  34.786  29.383  1.00  0.00    -0.547 OA
ENDBRANCH   3   8
BRANCH   4  11
ATOM     11  O   UNL     1      20.836  37.109  30.209  1.00  0.00    -0.387 OA
ATOM     12  H   UNL     1      21.275  36.244  29.998  1.00  0.00     0.211 HD
ENDBRANCH   4  11
BRANCH   6  13
ATOM     13  O   UNL     1      21.964  36.825  32.823  1.00  0.00    -0.387 OA
ATOM     14  H   UNL     1      22.066  36.679  33.799  1.00  0.00     0.211 HD
ENDBRANCH   6  13
BRANCH   7  15
ATOM     15  O   UNL     1      20.592  34.991  34.544  1.00  0.00    -0.384 OA
ATOM     16  H   UNL     1      20.016  34.219  34.777  1.00  0.00     0.211 HD
ENDBRANCH   7  15
ENDBRANCH   1   2
BRANCH   1  17
ATOM     17  C   UNL     1      18.754  32.493  33.209  1.00  0.00     0.172 A 
ATOM     18  C   UNL     1      19.697  31.439  33.245  1.00  0.00     0.205 A 
ATOM     19  C   UNL     1      17.521  32.333  33.836  1.00  0.00     0.097 A 
ATOM     20  C   UNL     1      19.386  30.256  33.966  1.00  0.00     0.188 A 
ATOM     21  C   UNL     1      17.180  31.165  34.511  1.00  0.00     0.134 A 
ATOM     22  C   UNL     1      18.136  30.121  34.632  1.00  0.00     0.111 A 
ATOM     23  O   UNL     1      20.273  29.264  34.017  1.00  0.00    -0.452 OA
ATOM     24  C   UNL     1      17.935  28.950  35.402  1.00  0.00     0.197 A 
ATOM     25  C   UNL     1      20.081  28.129  34.680  1.00  0.00     0.138 A 
ATOM     26  C   UNL     1      18.901  27.948  35.406  1.00  0.00     0.100 A 
ATOM     27  O   UNL     1      16.918  28.793  36.125  1.00  0.00    -0.289 OA
BRANCH  18  28
ATOM     28  O   UNL     1      20.913  31.602  32.557  1.00  0.00    -0.490 OA
ATOM     29  C   UNL     1      21.141  32.420  31.417  1.00  0.00     0.278 C 
ENDBRANCH  18  28
BRANCH  21  30
ATOM     30  O   UNL     1      15.877  31.093  35.014  1.00  0.00    -0.507 OA
ATOM     31  H   UNL     1      15.639  30.858  35.965  1.00  0.00     0.293 HD
ENDBRANCH  21  30
BRANCH  25  32
ATOM     32  C   UNL     1      21.141  27.092  34.655  1.00  0.00     0.017 A 
ATOM     33  C   UNL     1      22.219  27.122  35.561  1.00  0.00     0.012 A 
ATOM     34  C   UNL     1      21.068  26.043  33.724  1.00  0.00     0.012 A 
ATOM     35  C   UNL     1      23.203  26.128  35.523  1.00  0.00     0.001 A 
ATOM     36  C   UNL     1      22.052  25.052  33.692  1.00  0.00     0.001 A 
ATOM     37  C   UNL     1      23.120  25.095  34.588  1.00  0.00     0.000 A 
ENDBRANCH  25  32
ENDBRANCH   1  17
TORSDOF 9
ENDMDL
MODEL 5
REMARK VINA RESULT:    -5.111     17.775     19.917
REMARK INTER + INTRA:          -7.825
REMARK INTER:                  -6.809
REMARK INTRA:                  -1.016
REMARK UNBOUND:                -0.622
REMARK SMILES COc1c(O[C@@H]2O[C@H](C(=O)[O-])[C@H](O)[C@@H](O)[C@@H]2O)cc(O)c2c(=O)cc(-c3ccccc3)oc12
REMARK SMILES IDX 5 1 6 2 8 3 12 4 7 5 14 6 16 7 9 8 10 9 11 10 13 11 15 13
REMARK SMILES IDX 17 15 4 17 3 18 18 19 33 20 19 21 21 22 32 23 22 24 25 25
REMARK SMILES IDX 24 26 23 27 2 28 1 29 20 30 26 32 27 33 31 34 28 35 30 36
REMARK SMILES IDX 29 37
REMARK H PARENT 13 12 15 14 17 16 20 31
REMARK Flexibility Score: inf
ROOT
ATOM      1  O   UNL     1      18.248  29.433  34.606  1.00  0.00    -0.458 OA
ENDROOT
BRANCH   1   2
ATOM      2  C   UNL     1      17.180  28.642  35.139  1.00  0.00     0.339 C 
ATOM      3  C   UNL     1      18.491  26.702  35.609  1.00  0.00     0.199 C 
ATOM      4  C   UNL     1      17.834  25.906  34.449  1.00  0.00     0.180 C 
ATOM      5  O   UNL     1      17.644  27.723  36.124  1.00  0.00    -0.328 OA
ATOM      6  C   UNL     1      17.307  26.850  33.360  1.00  0.00     0.181 C 
ATOM      7  C   UNL     1      16.419  27.926  34.007  1.00  0.00     0.214 C 
BRANCH   3   8
ATOM      8  C   UNL     1      19.887  27.219  35.343  1.00  0.00     0.073 C 
ATOM      9  O   UNL     1      20.450  28.028  36.125  1.00  0.00    -0.547 OA
ATOM     10  O   UNL     1      20.572  26.773  34.220  1.00  0.00    -0.547 OA
ENDBRANCH   3   8
BRANCH   4  11
ATOM     11  O   UNL     1      18.739  24.991  33.888  1.00  0.00    -0.387 OA
ATOM     12  H   UNL     1      19.636  25.413  33.931  1.00  0.00     0.211 HD
ENDBRANCH   4  11
BRANCH   6  13
ATOM     13  O   UNL     1      16.596  26.136  32.378  1.00  0.00    -0.387 OA
ATOM     14  H   UNL     1      16.861  25.182  32.444  1.00  0.00     0.211 HD
ENDBRANCH   6  13
BRANCH   7  15
ATOM     15  O   UNL     1      15.947  28.844  33.053  1.00  0.00    -0.384 OA
ATOM     16  H   UNL     1      16.640  28.938  32.349  1.00  0.00     0.211 HD
ENDBRANCH   7  15
ENDBRANCH   1   2
BRANCH   1  17
ATOM     17  C   UNL     1      18.229  30.803  34.274  1.00  0.00     0.172 A 
ATOM     18  C   UNL     1      19.223  31.457  33.508  1.00  0.00     0.205 A 
ATOM     19  C   UNL     1      17.133  31.525  34.739  1.00  0.00     0.097 A 
ATOM     20  C   UNL     1      19.056  32.830  33.186  1.00  0.00     0.188 A 
ATOM     21  C   UNL     1      16.973  32.881  34.469  1.00  0.00     0.134 A 
ATOM     22  C   UNL     1      17.913  33.546  33.638  1.00  0.00     0.111 A 
ATOM     23  O   UNL     1      19.978  33.451  32.454  1.00  0.00    -0.452 OA
ATOM     24  C   UNL     1      17.773  34.886  33.201  1.00  0.00     0.197 A 
ATOM     25  C   UNL     1      19.902  34.725  32.085  1.00  0.00     0.138 A 
ATOM     26  C   UNL     1      18.780  35.477  32.443  1.00  0.00     0.100 A 
ATOM     27  O   UNL     1      16.741  35.562  33.443  1.00  0.00    -0.289 OA
BRANCH  18  28
ATOM     28  O   UNL     1      20.348  30.721  33.098  1.00  0.00    -0.490 OA
ATOM     29  C   UNL     1      21.501  30.426  33.876  1.00  0.00     0.278 C 
ENDBRANCH  18  28
BRANCH  21  30
ATOM     30  O   UNL     1      15.881  33.512  35.075  1.00  0.00    -0.507 OA
ATOM     31  H   UNL     1      15.012  33.057  35.309  1.00  0.00     0.293 HD
ENDBRANCH  21  30
BRANCH  25  32
ATOM     32  C   UNL     1      20.999  35.309  31.277  1.00  0.00     0.017 A 
ATOM     33  C   UNL     1      21.585  36.544  31.617  1.00  0.00     0.012 A 
ATOM     34  C   UNL     1      21.487  34.613  30.159  1.00  0.00     0.012 A 
ATOM     35  C   UNL     1      22.625  37.070  30.844  1.00  0.00     0.001 A 
ATOM     36  C   UNL     1      22.529  35.143  29.392  1.00  0.00     0.001 A 
ATOM     37  C   UNL     1      23.095  36.370  29.731  1.00  0.00     0.000 A 
ENDBRANCH  25  32
ENDBRANCH   1  17
TORSDOF 9
ENDMDL
MODEL 6
REMARK VINA RESULT:    -5.034     17.244     19.342
REMARK INTER + INTRA:          -7.716
REMARK INTER:                  -6.621
REMARK INTRA:                  -1.094
REMARK UNBOUND:                -0.622
REMARK SMILES COc1c(O[C@@H]2O[C@H](C(=O)[O-])[C@H](O)[C@@H](O)[C@@H]2O)cc(O)c2c(=O)cc(-c3ccccc3)oc12
REMARK SMILES IDX 5 1 6 2 8 3 12 4 7 5 14 6 16 7 9 8 10 9 11 10 13 11 15 13
REMARK SMILES IDX 17 15 4 17 3 18 18 19 33 20 19 21 21 22 32 23 22 24 25 25
REMARK SMILES IDX 24 26 23 27 2 28 1 29 20 30 26 32 27 33 31 34 28 35 30 36
REMARK SMILES IDX 29 37
REMARK H PARENT 13 12 15 14 17 16 20 31
REMARK Flexibility Score: inf
ROOT
ATOM      1  O   UNL     1      20.548  34.961  31.950  1.00  0.00    -0.458 OA
ENDROOT
BRANCH   1   2
ATOM      2  C   UNL     1      20.478  36.227  31.285  1.00  0.00     0.339 C 
ATOM      3  C   UNL     1      20.970  35.409  29.096  1.00  0.00     0.199 C 
ATOM      4  C   UNL     1      22.382  36.057  29.109  1.00  0.00     0.180 C 
ATOM      5  O   UNL     1      20.045  36.092  29.935  1.00  0.00    -0.328 OA
ATOM      6  C   UNL     1      22.895  36.235  30.545  1.00  0.00     0.181 C 
ATOM      7  C   UNL     1      21.828  36.963  31.379  1.00  0.00     0.214 C 
BRANCH   3   8
ATOM      8  C   UNL     1      20.932  33.915  29.325  1.00  0.00     0.073 C 
ATOM      9  O   UNL     1      21.987  33.245  29.473  1.00  0.00    -0.547 OA
ATOM     10  O   UNL     1      19.704  33.271  29.395  1.00  0.00    -0.547 OA
ENDBRANCH   3   8
BRANCH   4  11
ATOM     11  O   UNL     1      23.296  35.292  28.368  1.00  0.00    -0.387 OA
ATOM     12  H   UNL     1      22.768  34.788  27.696  1.00  0.00     0.211 HD
ENDBRANCH   4  11
BRANCH   6  13
ATOM     13  O   UNL     1      24.111  36.942  30.558  1.00  0.00    -0.387 OA
ATOM     14  H   UNL     1      23.935  37.844  30.933  1.00  0.00     0.211 HD
ENDBRANCH   6  13
BRANCH   7  15
ATOM     15  O   UNL     1      22.235  37.110  32.716  1.00  0.00    -0.384 OA
ATOM     16  H   UNL     1      22.320  36.204  33.112  1.00  0.00     0.211 HD
ENDBRANCH   7  15
ENDBRANCH   1   2
BRANCH   1  17
ATOM     17  C   UNL     1      19.571  34.354  32.764  1.00  0.00     0.172 A 
ATOM     18  C   UNL     1      19.518  32.971  33.062  1.00  0.00     0.205 A 
ATOM     19  C   UNL     1      18.616  35.210  33.307  1.00  0.00     0.097 A 
ATOM     20  C   UNL     1      18.521  32.492  33.951  1.00  0.00     0.188 A 
ATOM     21  C   UNL     1      17.605  34.753  34.147  1.00  0.00     0.134 A 
ATOM     22  C   UNL     1      17.573  33.384  34.526  1.00  0.00     0.111 A 
ATOM     23  O   UNL     1      18.472  31.195  34.248  1.00  0.00    -0.452 OA
ATOM     24  C   UNL     1      16.667  32.846  35.471  1.00  0.00     0.197 A 
ATOM     25  C   UNL     1      17.589  30.656  35.082  1.00  0.00     0.138 A 
ATOM     26  C   UNL     1      16.665  31.479  35.729  1.00  0.00     0.100 A 
ATOM     27  O   UNL     1      15.875  33.573  36.125  1.00  0.00    -0.289 OA
BRANCH  18  28
ATOM     28  O   UNL     1      20.458  32.118  32.457  1.00  0.00    -0.490 OA
ATOM     29  C   UNL     1      21.136  31.030  33.071  1.00  0.00     0.278 C 
ENDBRANCH  18  28
BRANCH  21  30
ATOM     30  O   UNL     1      16.653  35.696  34.546  1.00  0.00    -0.507 OA
ATOM     31  H   UNL     1      15.702  35.481  34.805  1.00  0.00     0.293 HD
ENDBRANCH  21  30
BRANCH  25  32
ATOM     32  C   UNL     1      17.629  29.194  35.325  1.00  0.00     0.017 A 
ATOM     33  C   UNL     1      16.542  28.517  35.914  1.00  0.00     0.012 A 
ATOM     34  C   UNL     1      18.761  28.454  34.947  1.00  0.00     0.012 A 
ATOM     35  C   UNL     1      16.599  27.136  36.125  1.00  0.00     0.001 A 
ATOM     36  C   UNL     1      18.811  27.074  35.159  1.00  0.00     0.001 A 
ATOM     37  C   UNL     1      17.734  26.415  35.750  1.00  0.00     0.000 A 
ENDBRANCH  25  32
ENDBRANCH   1  17
TORSDOF 9
ENDMDL
MODEL 7
REMARK VINA RESULT:    -4.822     18.104     21.078
REMARK INTER + INTRA:          -7.418
REMARK INTER:                  -6.234
REMARK INTRA:                  -1.184
REMARK UNBOUND:                -0.622
REMARK SMILES COc1c(O[C@@H]2O[C@H](C(=O)[O-])[C@H](O)[C@@H](O)[C@@H]2O)cc(O)c2c(=O)cc(-c3ccccc3)oc12
REMARK SMILES IDX 5 1 6 2 8 3 12 4 7 5 14 6 16 7 9 8 10 9 11 10 13 11 15 13
REMARK SMILES IDX 17 15 4 17 3 18 18 19 33 20 19 21 21 22 32 23 22 24 25 25
REMARK SMILES IDX 24 26 23 27 2 28 1 29 20 30 26 32 27 33 31 34 28 35 30 36
REMARK SMILES IDX 29 37
REMARK H PARENT 13 12 15 14 17 16 20 31
REMARK Flexibility Score: inf
ROOT
ATOM      1  O   UNL     1      17.619  19.247  22.442  1.00  0.00    -0.458 OA
ENDROOT
BRANCH   1   2
ATOM      2  C   UNL     1      18.024  17.987  22.989  1.00  0.00     0.339 C 
ATOM      3  C   UNL     1      17.843  18.621  25.284  1.00  0.00     0.199 C 
ATOM      4  C   UNL     1      19.386  18.629  25.463  1.00  0.00     0.180 C 
ATOM      5  O   UNL     1      17.415  17.740  24.252  1.00  0.00    -0.328 OA
ATOM      6  C   UNL     1      20.097  18.883  24.126  1.00  0.00     0.181 C 
ATOM      7  C   UNL     1      19.560  17.902  23.071  1.00  0.00     0.214 C 
BRANCH   3   8
ATOM      8  C   UNL     1      17.190  19.979  25.164  1.00  0.00     0.073 C 
ATOM      9  O   UNL     1      15.938  20.107  25.146  1.00  0.00    -0.547 OA
ATOM     10  O   UNL     1      17.989  21.112  25.095  1.00  0.00    -0.547 OA
ENDBRANCH   3   8
BRANCH   4  11
ATOM     11  O   UNL     1      19.781  19.594  26.403  1.00  0.00    -0.387 OA
ATOM     12  H   UNL     1      20.671  19.927  26.115  1.00  0.00     0.211 HD
ENDBRANCH   4  11
BRANCH   6  13
ATOM     13  O   UNL     1      21.490  18.758  24.267  1.00  0.00    -0.387 OA
ATOM     14  H   UNL     1      21.838  18.297  23.459  1.00  0.00     0.211 HD
ENDBRANCH   6  13
BRANCH   7  15
ATOM     15  O   UNL     1      20.149  18.126  21.815  1.00  0.00    -0.384 OA
ATOM     16  H   UNL     1      21.103  17.860  21.872  1.00  0.00     0.211 HD
ENDBRANCH   7  15
ENDBRANCH   1   2
BRANCH   1  17
ATOM     17  C   UNL     1      17.404  19.574  21.088  1.00  0.00     0.172 A 
ATOM     18  C   UNL     1      17.375  20.893  20.575  1.00  0.00     0.205 A 
ATOM     19  C   UNL     1      17.225  18.497  20.223  1.00  0.00     0.097 A 
ATOM     20  C   UNL     1      17.215  21.089  19.178  1.00  0.00     0.188 A 
ATOM     21  C   UNL     1      17.024  18.670  18.857  1.00  0.00     0.134 A 
ATOM     22  C   UNL     1      17.069  19.977  18.302  1.00  0.00     0.111 A 
ATOM     23  O   UNL     1      17.201  22.325  18.684  1.00  0.00    -0.452 OA
ATOM     24  C   UNL     1      17.004  20.250  16.914  1.00  0.00     0.197 A 
ATOM     25  C   UNL     1      17.076  22.609  17.392  1.00  0.00     0.138 A 
ATOM     26  C   UNL     1      16.986  21.567  16.466  1.00  0.00     0.100 A 
ATOM     27  O   UNL     1      16.999  19.332  16.054  1.00  0.00    -0.289 OA
BRANCH  18  28
ATOM     28  O   UNL     1      17.501  21.966  21.475  1.00  0.00    -0.490 OA
ATOM     29  C   UNL     1      16.463  22.554  22.247  1.00  0.00     0.278 C 
ENDBRANCH  18  28
BRANCH  21  30
ATOM     30  O   UNL     1      16.761  17.515  18.115  1.00  0.00    -0.507 OA
ATOM     31  H   UNL     1      17.332  16.683  18.123  1.00  0.00     0.293 HD
ENDBRANCH  21  30
BRANCH  25  32
ATOM     32  C   UNL     1      17.064  24.029  16.964  1.00  0.00     0.017 A 
ATOM     33  C   UNL     1      15.972  24.872  17.250  1.00  0.00     0.012 A 
ATOM     34  C   UNL     1      18.167  24.559  16.276  1.00  0.00     0.012 A 
ATOM     35  C   UNL     1      15.987  26.210  16.844  1.00  0.00     0.001 A 
ATOM     36  C   UNL     1      18.177  25.898  15.875  1.00  0.00     0.001 A 
ATOM     37  C   UNL     1      17.089  26.722  16.155  1.00  0.00     0.000 A 
ENDBRANCH  25  32
ENDBRANCH   1  17
TORSDOF 9
ENDMDL
MODEL 8
REMARK VINA RESULT:    -4.632     16.654     18.642
REMARK INTER + INTRA:          -7.150
REMARK INTER:                  -5.902
REMARK INTRA:                  -1.248
REMARK UNBOUND:                -0.622
REMARK SMILES COc1c(O[C@@H]2O[C@H](C(=O)[O-])[C@H](O)[C@@H](O)[C@@H]2O)cc(O)c2c(=O)cc(-c3ccccc3)oc12
REMARK SMILES IDX 5 1 6 2 8 3 12 4 7 5 14 6 16 7 9 8 10 9 11 10 13 11 15 13
REMARK SMILES IDX 17 15 4 17 3 18 18 19 33 20 19 21 21 22 32 23 22 24 25 25
REMARK SMILES IDX 24 26 23 27 2 28 1 29 20 30 26 32 27 33 31 34 28 35 30 36
REMARK SMILES IDX 29 37
REMARK H PARENT 13 12 15 14 17 16 20 31
REMARK Flexibility Score: inf
ROOT
ATOM      1  O   UNL     1      17.692  31.075  32.466  1.00  0.00    -0.458 OA
ENDROOT
BRANCH   1   2
ATOM      2  C   UNL     1      16.412  30.591  32.886  1.00  0.00     0.339 C 
ATOM      3  C   UNL     1      16.934  30.436  35.211  1.00  0.00     0.199 C 
ATOM      4  C   UNL     1      16.948  28.883  35.164  1.00  0.00     0.180 C 
ATOM      5  O   UNL     1      16.099  31.009  34.211  1.00  0.00    -0.328 OA
ATOM      6  C   UNL     1      17.272  28.377  33.751  1.00  0.00     0.181 C 
ATOM      7  C   UNL     1      16.337  29.059  32.739  1.00  0.00     0.214 C 
BRANCH   3   8
ATOM      8  C   UNL     1      18.290  31.103  35.254  1.00  0.00     0.073 C 
ATOM      9  O   UNL     1      19.354  30.434  35.198  1.00  0.00    -0.547 OA
ATOM     10  O   UNL     1      18.362  32.487  35.334  1.00  0.00    -0.547 OA
ENDBRANCH   3   8
BRANCH   4  11
ATOM     11  O   UNL     1      17.870  28.357  36.081  1.00  0.00    -0.387 OA
ATOM     12  H   UNL     1      18.700  28.894  35.991  1.00  0.00     0.211 HD
ENDBRANCH   4  11
BRANCH   6  13
ATOM     13  O   UNL     1      17.153  26.977  33.680  1.00  0.00    -0.387 OA
ATOM     14  H   UNL     1      16.478  26.764  32.985  1.00  0.00     0.211 HD
ENDBRANCH   6  13
BRANCH   7  15
ATOM     15  O   UNL     1      16.627  28.661  31.423  1.00  0.00    -0.384 OA
ATOM     16  H   UNL     1      15.947  27.993  31.149  1.00  0.00     0.211 HD
ENDBRANCH   7  15
ENDBRANCH   1   2
BRANCH   1  17
ATOM     17  C   UNL     1      17.994  32.306  31.849  1.00  0.00     0.172 A 
ATOM     18  C   UNL     1      19.303  32.764  31.568  1.00  0.00     0.205 A 
ATOM     19  C   UNL     1      16.900  33.091  31.493  1.00  0.00     0.097 A 
ATOM     20  C   UNL     1      19.473  33.995  30.881  1.00  0.00     0.188 A 
ATOM     21  C   UNL     1      17.047  34.320  30.857  1.00  0.00     0.134 A 
ATOM     22  C   UNL     1      18.344  34.770  30.492  1.00  0.00     0.111 A 
ATOM     23  O   UNL     1      20.700  34.428  30.600  1.00  0.00    -0.452 OA
ATOM     24  C   UNL     1      18.591  35.939  29.733  1.00  0.00     0.197 A 
ATOM     25  C   UNL     1      20.959  35.555  29.946  1.00  0.00     0.138 A 
ATOM     26  C   UNL     1      19.900  36.339  29.482  1.00  0.00     0.100 A 
ATOM     27  O   UNL     1      17.658  36.623  29.238  1.00  0.00    -0.289 OA
BRANCH  18  28
ATOM     28  O   UNL     1      20.393  31.982  31.987  1.00  0.00    -0.490 OA
ATOM     29  C   UNL     1      21.106  32.103  33.211  1.00  0.00     0.278 C 
ENDBRANCH  18  28
BRANCH  21  30
ATOM     30  O   UNL     1      15.876  35.054  30.642  1.00  0.00    -0.507 OA
ATOM     31  H   UNL     1      14.949  34.659  30.602  1.00  0.00     0.293 HD
ENDBRANCH  21  30
BRANCH  25  32
ATOM     32  C   UNL     1      22.371  35.937  29.701  1.00  0.00     0.017 A 
ATOM     33  C   UNL     1      23.038  35.565  28.517  1.00  0.00     0.012 A 
ATOM     34  C   UNL     1      23.062  36.703  30.654  1.00  0.00     0.012 A 
ATOM     35  C   UNL     1      24.367  35.945  28.305  1.00  0.00     0.001 A 
ATOM     36  C   UNL     1      24.389  37.081  30.436  1.00  0.00     0.001 A 
ATOM     37  C   UNL     1      25.042  36.700  29.265  1.00  0.00     0.000 A 
ENDBRANCH  25  32
ENDBRANCH   1  17
TORSDOF 9
ENDMDL
MODEL 9
REMARK VINA RESULT:    -3.193      1.853      8.355
REMARK INTER + INTRA:          -5.122
REMARK INTER:                  -4.146
REMARK INTRA:                  -0.976
REMARK UNBOUND:                -0.622
REMARK SMILES COc1c(O[C@@H]2O[C@H](C(=O)[O-])[C@H](O)[C@@H](O)[C@@H]2O)cc(O)c2c(=O)cc(-c3ccccc3)oc12
REMARK SMILES IDX 5 1 6 2 8 3 12 4 7 5 14 6 16 7 9 8 10 9 11 10 13 11 15 13
REMARK SMILES IDX 17 15 4 17 3 18 18 19 33 20 19 21 21 22 32 23 22 24 25 25
REMARK SMILES IDX 24 26 23 27 2 28 1 29 20 30 26 32 27 33 31 34 28 35 30 36
REMARK SMILES IDX 29 37
REMARK H PARENT 13 12 15 14 17 16 20 31
REMARK Flexibility Score: inf
ROOT
ATOM      1  O   UNL     1      33.862  34.374  20.905  1.00  0.00    -0.458 OA
ENDROOT
BRANCH   1   2
ATOM      2  C   UNL     1      35.226  34.809  20.888  1.00  0.00     0.339 C 
ATOM      3  C   UNL     1      35.937  33.539  22.781  1.00  0.00     0.199 C 
ATOM      4  C   UNL     1      36.064  34.813  23.660  1.00  0.00     0.180 C 
ATOM      5  O   UNL     1      36.106  33.810  21.394  1.00  0.00    -0.328 OA
ATOM      6  C   UNL     1      35.141  35.930  23.152  1.00  0.00     0.181 C 
ATOM      7  C   UNL     1      35.379  36.141  21.648  1.00  0.00     0.214 C 
BRANCH   3   8
ATOM      8  C   UNL     1      34.717  32.685  23.037  1.00  0.00     0.073 C 
ATOM      9  O   UNL     1      34.474  31.660  22.347  1.00  0.00    -0.547 OA
ATOM     10  O   UNL     1      33.855  33.025  24.071  1.00  0.00    -0.547 OA
ENDBRANCH   3   8
BRANCH   4  11
ATOM     11  O   UNL     1      35.774  34.531  25.004  1.00  0.00    -0.387 OA
ATOM     12  H   UNL     1      34.792  34.625  25.111  1.00  0.00     0.211 HD
ENDBRANCH   4  11
BRANCH   6  13
ATOM     13  O   UNL     1      35.356  37.122  23.867  1.00  0.00    -0.387 OA
ATOM     14  H   UNL     1      35.974  36.920  24.618  1.00  0.00     0.211 HD
ENDBRANCH   6  13
BRANCH   7  15
ATOM     15  O   UNL     1      34.522  37.125  21.126  1.00  0.00    -0.384 OA
ATOM     16  H   UNL     1      34.910  37.448  20.272  1.00  0.00     0.211 HD
ENDBRANCH   7  15
ENDBRANCH   1   2
BRANCH   1  17
ATOM     17  C   UNL     1      32.950  34.341  19.831  1.00  0.00     0.172 A 
ATOM     18  C   UNL     1      31.961  33.345  19.647  1.00  0.00     0.205 A 
ATOM     19  C   UNL     1      33.051  35.386  18.916  1.00  0.00     0.097 A 
ATOM     20  C   UNL     1      31.057  33.460  18.559  1.00  0.00     0.188 A 
ATOM     21  C   UNL     1      32.201  35.493  17.819  1.00  0.00     0.134 A 
ATOM     22  C   UNL     1      31.149  34.552  17.652  1.00  0.00     0.111 A 
ATOM     23  O   UNL     1      30.114  32.536  18.386  1.00  0.00    -0.452 OA
ATOM     24  C   UNL     1      30.157  34.645  16.646  1.00  0.00     0.197 A 
ATOM     25  C   UNL     1      29.212  32.566  17.411  1.00  0.00     0.138 A 
ATOM     26  C   UNL     1      29.205  33.639  16.516  1.00  0.00     0.100 A 
ATOM     27  O   UNL     1      30.080  35.636  15.875  1.00  0.00    -0.289 OA
BRANCH  18  28
ATOM     28  O   UNL     1      31.915  32.270  20.552  1.00  0.00    -0.490 OA
ATOM     29  C   UNL     1      31.289  32.259  21.828  1.00  0.00     0.278 C 
ENDBRANCH  18  28
BRANCH  21  30
ATOM     30  O   UNL     1      32.469  36.533  16.923  1.00  0.00    -0.507 OA
ATOM     31  H   UNL     1      32.228  37.500  17.076  1.00  0.00     0.293 HD
ENDBRANCH  21  30
BRANCH  25  32
ATOM     32  C   UNL     1      28.217  31.471  17.315  1.00  0.00     0.017 A 
ATOM     33  C   UNL     1      26.834  31.727  17.393  1.00  0.00     0.012 A 
ATOM     34  C   UNL     1      28.651  30.149  17.124  1.00  0.00     0.012 A 
ATOM     35  C   UNL     1      25.914  30.679  17.292  1.00  0.00     0.001 A 
ATOM     36  C   UNL     1      27.727  29.106  17.021  1.00  0.00     0.001 A 
ATOM     37  C   UNL     1      26.361  29.369  17.108  1.00  0.00     0.000 A 
ENDBRANCH  25  32
ENDBRANCH   1  17
TORSDOF 9
ENDMDL
