MODEL 1
REMARK VINA RESULT:    -1.793      0.000      0.000
REMARK INTER + INTRA:          -2.647
REMARK INTER:                  -2.422
REMARK INTRA:                  -0.225
REMARK UNBOUND:                -0.225
REMARK SMILES CCCCCCCC(=O)[O-]
REMARK SMILES IDX 5 1 6 2 7 3 8 4 9 5 10 6 4 7 3 8 2 9 1 10
REMARK H PARENT
REMARK Flexibility Score: inf
ROOT
ATOM      1  C   UNL     1      -4.248 -15.773   6.827  1.00  0.00     0.000 C 
ENDROOT
BRANCH   1   2
ATOM      2  C   UNL     1      -3.679 -14.441   6.315  1.00  0.00     0.006 C 
BRANCH   2   3
ATOM      3  C   UNL     1      -2.150 -14.426   6.416  1.00  0.00     0.053 C 
BRANCH   3   4
ATOM      4  C   UNL     1      -1.717 -13.831   7.718  1.00  0.00     0.041 C 
ATOM      5  O   UNL     1      -0.527 -13.960   8.111  1.00  0.00    -0.550 OA
ATOM      6  O   UNL     1      -2.615 -13.089   8.477  1.00  0.00    -0.550 OA
ENDBRANCH   3   4
ENDBRANCH   2   3
ENDBRANCH   1   2
BRANCH   1   7
ATOM      7  C   UNL     1      -5.785 -15.815   6.784  1.00  0.00     0.000 C 
BRANCH   7   8
ATOM      8  C   UNL     1      -6.425 -14.460   7.120  1.00  0.00    -0.000 C 
BRANCH   8   9
ATOM      9  C   UNL     1      -7.065 -13.833   5.877  1.00  0.00    -0.003 C 
ATOM     10  C   UNL     1      -6.912 -12.315   5.883  1.00  0.00     0.004 C 
ENDBRANCH   8   9
ENDBRANCH   7   8
ENDBRANCH   1   7
TORSDOF 6
ENDMDL
MODEL 2
REMARK VINA RESULT:    -1.446      2.665      4.925
REMARK INTER + INTRA:          -2.177
REMARK INTER:                  -1.910
REMARK INTRA:                  -0.267
REMARK UNBOUND:                -0.225
REMARK SMILES CCCCCCCC(=O)[O-]
REMARK SMILES IDX 5 1 6 2 7 3 8 4 9 5 10 6 4 7 3 8 2 9 1 10
REMARK H PARENT
REMARK Flexibility Score: inf
ROOT
ATOM      1  C   UNL     1      -4.074 -13.331   7.026  1.00  0.00     0.000 C 
ENDROOT
BRANCH   1   2
ATOM      2  C   UNL     1      -5.416 -12.754   6.551  1.00  0.00     0.006 C 
BRANCH   2   3
ATOM      3  C   UNL     1      -6.318 -13.857   5.988  1.00  0.00     0.053 C 
BRANCH   3   4
ATOM      4  C   UNL     1      -6.490 -14.955   6.990  1.00  0.00     0.041 C 
ATOM      5  O   UNL     1      -7.125 -14.746   8.057  1.00  0.00    -0.550 OA
ATOM      6  O   UNL     1      -5.991 -16.224   6.723  1.00  0.00    -0.550 OA
ENDBRANCH   3   4
ENDBRANCH   2   3
ENDBRANCH   1   2
BRANCH   1   7
ATOM      7  C   UNL     1      -3.262 -13.959   5.881  1.00  0.00     0.000 C 
BRANCH   7   8
ATOM      8  C   UNL     1      -1.814 -14.274   6.285  1.00  0.00    -0.000 C 
BRANCH   8   9
ATOM      9  C   UNL     1      -1.612 -14.088   7.793  1.00  0.00    -0.003 C 
ATOM     10  C   UNL     1      -0.134 -13.929   8.138  1.00  0.00     0.004 C 
ENDBRANCH   8   9
ENDBRANCH   7   8
ENDBRANCH   1   7
TORSDOF 6
ENDMDL
MODEL 3
REMARK VINA RESULT:    -1.347      0.948      2.136
REMARK INTER + INTRA:          -2.044
REMARK INTER:                  -2.731
REMARK INTRA:                   0.687
REMARK UNBOUND:                -0.225
REMARK SMILES CCCCCCCC(=O)[O-]
REMARK SMILES IDX 5 1 6 2 7 3 8 4 9 5 10 6 4 7 3 8 2 9 1 10
REMARK H PARENT
REMARK Flexibility Score: inf
ROOT
ATOM      1  C   UNL     1      -4.323 -13.652   6.761  1.00  0.00     0.000 C 
ENDROOT
BRANCH   1   2
ATOM      2  C   UNL     1      -3.083 -13.868   5.882  1.00  0.00     0.006 C 
BRANCH   2   3
ATOM      3  C   UNL     1      -2.020 -14.684   6.626  1.00  0.00     0.053 C 
BRANCH   3   4
ATOM      4  C   UNL     1      -1.516 -13.927   7.814  1.00  0.00     0.041 C 
ATOM      5  O   UNL     1      -2.313 -13.258   8.525  1.00  0.00    -0.550 OA
ATOM      6  O   UNL     1      -0.174 -14.001   8.167  1.00  0.00    -0.550 OA
ENDBRANCH   3   4
ENDBRANCH   2   3
ENDBRANCH   1   2
BRANCH   1   7
ATOM      7  C   UNL     1      -5.489 -13.008   5.993  1.00  0.00     0.000 C 
BRANCH   7   8
ATOM      8  C   UNL     1      -6.780 -13.836   6.071  1.00  0.00    -0.000 C 
BRANCH   8   9
ATOM      9  C   UNL     1      -6.800 -14.704   7.334  1.00  0.00    -0.003 C 
ATOM     10  C   UNL     1      -6.327 -16.123   7.036  1.00  0.00     0.004 C 
ENDBRANCH   8   9
ENDBRANCH   7   8
ENDBRANCH   1   7
TORSDOF 6
ENDMDL
MODEL 4
REMARK VINA RESULT:    -1.211      2.690      5.442
REMARK INTER + INTRA:          -1.861
REMARK INTER:                  -1.697
REMARK INTRA:                  -0.163
REMARK UNBOUND:                -0.225
REMARK SMILES CCCCCCCC(=O)[O-]
REMARK SMILES IDX 5 1 6 2 7 3 8 4 9 5 10 6 4 7 3 8 2 9 1 10
REMARK H PARENT
REMARK Flexibility Score: inf
ROOT
ATOM      1  C   UNL     1      -2.508 -14.500   6.345  1.00  0.00     0.000 C 
ENDROOT
BRANCH   1   2
ATOM      2  C   UNL     1      -4.021 -14.761   6.354  1.00  0.00     0.006 C 
BRANCH   2   3
ATOM      3  C   UNL     1      -4.800 -13.461   6.582  1.00  0.00     0.053 C 
BRANCH   3   4
ATOM      4  C   UNL     1      -6.272 -13.724   6.573  1.00  0.00     0.041 C 
ATOM      5  O   UNL     1      -6.750 -14.684   7.233  1.00  0.00    -0.550 OA
ATOM      6  O   UNL     1      -7.125 -12.877   5.875  1.00  0.00    -0.550 OA
ENDBRANCH   3   4
ENDBRANCH   2   3
ENDBRANCH   1   2
BRANCH   1   7
ATOM      7  C   UNL     1      -2.057 -13.591   7.501  1.00  0.00     0.000 C 
BRANCH   7   8
ATOM      8  C   UNL     1      -1.077 -14.288   8.456  1.00  0.00    -0.000 C 
BRANCH   8   9
ATOM      9  C   UNL     1       0.372 -13.918   8.120  1.00  0.00    -0.003 C 
ATOM     10  C   UNL     1       1.357 -14.734   8.953  1.00  0.00     0.004 C 
ENDBRANCH   8   9
ENDBRANCH   7   8
ENDBRANCH   1   7
TORSDOF 6
ENDMDL
MODEL 5
REMARK VINA RESULT:    -0.137      2.133      4.684
REMARK INTER + INTRA:          -0.409
REMARK INTER:                  -0.309
REMARK INTRA:                  -0.100
REMARK UNBOUND:                -0.225
REMARK SMILES CCCCCCCC(=O)[O-]
REMARK SMILES IDX 5 1 6 2 7 3 8 4 9 5 10 6 4 7 3 8 2 9 1 10
REMARK H PARENT
REMARK Flexibility Score: inf
ROOT
ATOM      1  C   UNL     1      -4.063 -16.074   6.871  1.00  0.00     0.000 C 
ENDROOT
BRANCH   1   2
ATOM      2  C   UNL     1      -5.407 -15.650   6.260  1.00  0.00     0.006 C 
BRANCH   2   3
ATOM      3  C   UNL     1      -6.131 -14.653   7.170  1.00  0.00     0.053 C 
BRANCH   3   4
ATOM      4  C   UNL     1      -6.055 -13.272   6.598  1.00  0.00     0.041 C 
ATOM      5  O   UNL     1      -5.007 -12.587   6.732  1.00  0.00    -0.550 OA
ATOM      6  O   UNL     1      -7.125 -12.759   5.875  1.00  0.00    -0.550 OA
ENDBRANCH   3   4
ENDBRANCH   2   3
ENDBRANCH   1   2
BRANCH   1   7
ATOM      7  C   UNL     1      -2.949 -15.043   6.626  1.00  0.00     0.000 C 
BRANCH   7   8
ATOM      8  C   UNL     1      -2.132 -14.740   7.890  1.00  0.00    -0.000 C 
BRANCH   8   9
ATOM      9  C   UNL     1      -1.056 -13.685   7.609  1.00  0.00    -0.003 C 
ATOM     10  C   UNL     1       0.232 -13.995   8.365  1.00  0.00     0.004 C 
ENDBRANCH   8   9
ENDBRANCH   7   8
ENDBRANCH   1   7
TORSDOF 6
ENDMDL
