MODEL 1
REMARK VINA RESULT:    -3.123      0.000      0.000
REMARK INTER + INTRA:          -4.068
REMARK INTER:                  -3.671
REMARK INTRA:                  -0.396
REMARK UNBOUND:                -0.396
REMARK SMILES [NH3+][C@H](CO)C(=O)[O-]
REMARK SMILES IDX 3 1 2 2 1 3 5 7 6 8 7 9 4 10
REMARK H PARENT 1 4 1 5 1 6 4 11
REMARK Flexibility Score: inf
ROOT
ATOM      1  C   UNL     1     147.345 137.451 153.573  1.00  0.00     0.227 C 
ENDROOT
BRANCH   1   2
ATOM      2  C   UNL     1     147.431 138.819 152.878  1.00  0.00     0.253 C 
BRANCH   2   3
ATOM      3  N   UNL     1     146.233 139.626 153.140  1.00  0.00    -0.348 N 
ATOM      4  H   UNL     1     145.435 139.321 152.534  1.00  0.00     0.345 HD
ATOM      5  H   UNL     1     146.437 140.634 152.951  1.00  0.00     0.345 HD
ATOM      6  H   UNL     1     145.956 139.530 154.144  1.00  0.00     0.345 HD
ENDBRANCH   2   3
BRANCH   2   7
ATOM      7  C   UNL     1     148.676 139.554 153.303  1.00  0.00     0.102 C 
ATOM      8  O   UNL     1     149.689 139.564 152.556  1.00  0.00    -0.544 OA
ATOM      9  O   UNL     1     148.731 140.190 154.538  1.00  0.00    -0.544 OA
ENDBRANCH   2   7
ENDBRANCH   1   2
BRANCH   1  10
ATOM     10  O   UNL     1     148.523 137.179 154.283  1.00  0.00    -0.390 OA
ATOM     11  H   UNL     1     148.815 138.043 154.674  1.00  0.00     0.210 HD
ENDBRANCH   1  10
TORSDOF 4
ENDMDL
MODEL 2
REMARK VINA RESULT:    -3.116      1.741      2.551
REMARK INTER + INTRA:          -4.059
REMARK INTER:                  -3.848
REMARK INTRA:                  -0.211
REMARK UNBOUND:                -0.396
REMARK SMILES [NH3+][C@H](CO)C(=O)[O-]
REMARK SMILES IDX 3 1 2 2 1 3 5 7 6 8 7 9 4 10
REMARK H PARENT 1 4 1 5 1 6 4 11
REMARK Flexibility Score: inf
ROOT
ATOM      1  C   UNL     1     149.890 139.151 154.036  1.00  0.00     0.227 C 
ENDROOT
BRANCH   1   2
ATOM      2  C   UNL     1     148.354 139.204 154.024  1.00  0.00     0.253 C 
BRANCH   2   3
ATOM      3  N   UNL     1     147.864 140.257 153.126  1.00  0.00    -0.348 N 
ATOM      4  H   UNL     1     146.998 139.950 152.626  1.00  0.00     0.345 HD
ATOM      5  H   UNL     1     148.600 140.490 152.421  1.00  0.00     0.345 HD
ATOM      6  H   UNL     1     147.654 141.120 153.677  1.00  0.00     0.345 HD
ENDBRANCH   2   3
BRANCH   2   7
ATOM      7  C   UNL     1     147.779 137.864 153.644  1.00  0.00     0.102 C 
ATOM      8  O   UNL     1     147.105 137.744 152.588  1.00  0.00    -0.544 OA
ATOM      9  O   UNL     1     147.952 136.762 154.474  1.00  0.00    -0.544 OA
ENDBRANCH   2   7
ENDBRANCH   1   2
BRANCH   1  10
ATOM     10  O   UNL     1     150.346 138.091 154.833  1.00  0.00    -0.390 OA
ATOM     11  H   UNL     1     150.641 137.382 154.206  1.00  0.00     0.210 HD
ENDBRANCH   1  10
TORSDOF 4
ENDMDL
MODEL 3
REMARK VINA RESULT:    -2.936      2.253      2.553
REMARK INTER + INTRA:          -3.847
REMARK INTER:                  -3.632
REMARK INTRA:                  -0.215
REMARK UNBOUND:                -0.396
REMARK SMILES [NH3+][C@H](CO)C(=O)[O-]
REMARK SMILES IDX 3 1 2 2 1 3 5 7 6 8 7 9 4 10
REMARK H PARENT 1 4 1 5 1 6 4 11
REMARK Flexibility Score: inf
ROOT
ATOM      1  C   UNL     1     147.751 138.991 153.402  1.00  0.00     0.227 C 
ENDROOT
BRANCH   1   2
ATOM      2  C   UNL     1     148.928 138.847 154.381  1.00  0.00     0.253 C 
BRANCH   2   3
ATOM      3  N   UNL     1     149.049 137.467 154.868  1.00  0.00    -0.348 N 
ATOM      4  H   UNL     1     149.112 136.792 154.071  1.00  0.00     0.345 HD
ATOM      5  H   UNL     1     148.218 137.225 155.454  1.00  0.00     0.345 HD
ATOM      6  H   UNL     1     149.905 137.377 155.461  1.00  0.00     0.345 HD
ENDBRANCH   2   3
BRANCH   2   7
ATOM      7  C   UNL     1     150.212 139.303 153.738  1.00  0.00     0.102 C 
ATOM      8  O   UNL     1     150.241 139.572 152.508  1.00  0.00    -0.544 OA
ATOM      9  O   UNL     1     151.381 139.393 154.485  1.00  0.00    -0.544 OA
ENDBRANCH   2   7
ENDBRANCH   1   2
BRANCH   1  10
ATOM     10  O   UNL     1     147.591 140.327 153.009  1.00  0.00    -0.390 OA
ATOM     11  H   UNL     1     148.353 140.531 152.408  1.00  0.00     0.210 HD
ENDBRANCH   1  10
TORSDOF 4
ENDMDL
MODEL 4
REMARK VINA RESULT:    -2.910      1.789      2.754
REMARK INTER + INTRA:          -3.817
REMARK INTER:                  -3.472
REMARK INTRA:                  -0.345
REMARK UNBOUND:                -0.396
REMARK SMILES [NH3+][C@H](CO)C(=O)[O-]
REMARK SMILES IDX 3 1 2 2 1 3 5 7 6 8 7 9 4 10
REMARK H PARENT 1 4 1 5 1 6 4 11
REMARK Flexibility Score: inf
ROOT
ATOM      1  C   UNL     1     150.092 139.261 153.522  1.00  0.00     0.227 C 
ENDROOT
BRANCH   1   2
ATOM      2  C   UNL     1     148.738 139.222 154.250  1.00  0.00     0.253 C 
BRANCH   2   3
ATOM      3  N   UNL     1     148.447 140.505 154.901  1.00  0.00    -0.348 N 
ATOM      4  H   UNL     1     149.324 141.054 155.058  1.00  0.00     0.345 HD
ATOM      5  H   UNL     1     147.981 140.336 155.822  1.00  0.00     0.345 HD
ATOM      6  H   UNL     1     147.796 141.063 154.303  1.00  0.00     0.345 HD
ENDBRANCH   2   3
BRANCH   2   7
ATOM      7  C   UNL     1     147.634 138.840 153.298  1.00  0.00     0.102 C 
ATOM      8  O   UNL     1     147.392 137.626 153.067  1.00  0.00    -0.544 OA
ATOM      9  O   UNL     1     146.903 139.820 152.638  1.00  0.00    -0.544 OA
ENDBRANCH   2   7
ENDBRANCH   1   2
BRANCH   1  10
ATOM     10  O   UNL     1     149.912 139.478 152.149  1.00  0.00    -0.390 OA
ATOM     11  H   UNL     1     149.658 140.432 152.052  1.00  0.00     0.210 HD
ENDBRANCH   1  10
TORSDOF 4
ENDMDL
MODEL 5
REMARK VINA RESULT:    -2.877      2.095      2.138
REMARK INTER + INTRA:          -3.778
REMARK INTER:                  -3.445
REMARK INTRA:                  -0.333
REMARK UNBOUND:                -0.396
REMARK SMILES [NH3+][C@H](CO)C(=O)[O-]
REMARK SMILES IDX 3 1 2 2 1 3 5 7 6 8 7 9 4 10
REMARK H PARENT 1 4 1 5 1 6 4 11
REMARK Flexibility Score: inf
ROOT
ATOM      1  C   UNL     1     147.834 137.080 154.065  1.00  0.00     0.227 C 
ENDROOT
BRANCH   1   2
ATOM      2  C   UNL     1     148.610 138.375 154.350  1.00  0.00     0.253 C 
BRANCH   2   3
ATOM      3  N   UNL     1     150.000 138.092 154.726  1.00  0.00    -0.348 N 
ATOM      4  H   UNL     1     150.455 137.457 154.029  1.00  0.00     0.345 HD
ATOM      5  H   UNL     1     150.026 137.638 155.667  1.00  0.00     0.345 HD
ATOM      6  H   UNL     1     150.541 138.986 154.778  1.00  0.00     0.345 HD
ENDBRANCH   2   3
BRANCH   2   7
ATOM      7  C   UNL     1     148.553 139.301 153.162  1.00  0.00     0.102 C 
ATOM      8  O   UNL     1     149.594 139.533 152.493  1.00  0.00    -0.544 OA
ATOM      9  O   UNL     1     147.365 139.937 152.821  1.00  0.00    -0.544 OA
ENDBRANCH   2   7
ENDBRANCH   1   2
BRANCH   1  10
ATOM     10  O   UNL     1     147.509 136.984 152.704  1.00  0.00    -0.390 OA
ATOM     11  H   UNL     1     147.615 137.896 152.330  1.00  0.00     0.210 HD
ENDBRANCH   1  10
TORSDOF 4
ENDMDL
MODEL 6
REMARK VINA RESULT:    -2.864      2.283      3.359
REMARK INTER + INTRA:          -3.763
REMARK INTER:                  -3.552
REMARK INTRA:                  -0.211
REMARK UNBOUND:                -0.396
REMARK SMILES [NH3+][C@H](CO)C(=O)[O-]
REMARK SMILES IDX 3 1 2 2 1 3 5 7 6 8 7 9 4 10
REMARK H PARENT 1 4 1 5 1 6 4 11
REMARK Flexibility Score: inf
ROOT
ATOM      1  C   UNL     1     148.345 139.726 154.378  1.00  0.00     0.227 C 
ENDROOT
BRANCH   1   2
ATOM      2  C   UNL     1     148.906 138.357 153.960  1.00  0.00     0.253 C 
BRANCH   2   3
ATOM      3  N   UNL     1     149.958 137.909 154.881  1.00  0.00    -0.348 N 
ATOM      4  H   UNL     1     149.721 136.978 155.296  1.00  0.00     0.345 HD
ATOM      5  H   UNL     1     150.074 138.606 155.651  1.00  0.00     0.345 HD
ATOM      6  H   UNL     1     150.866 137.833 154.368  1.00  0.00     0.345 HD
ENDBRANCH   2   3
BRANCH   2   7
ATOM      7  C   UNL     1     147.802 137.335 153.869  1.00  0.00     0.102 C 
ATOM      8  O   UNL     1     147.792 136.346 154.646  1.00  0.00    -0.544 OA
ATOM      9  O   UNL     1     146.810 137.455 152.902  1.00  0.00    -0.544 OA
ENDBRANCH   2   7
ENDBRANCH   1   2
BRANCH   1  10
ATOM     10  O   UNL     1     147.256 140.085 153.571  1.00  0.00    -0.390 OA
ATOM     11  H   UNL     1     147.249 139.442 152.815  1.00  0.00     0.210 HD
ENDBRANCH   1  10
TORSDOF 4
ENDMDL
MODEL 7
REMARK VINA RESULT:    -2.798      7.670      8.147
REMARK INTER + INTRA:          -3.685
REMARK INTER:                  -3.458
REMARK INTRA:                  -0.226
REMARK UNBOUND:                -0.396
REMARK SMILES [NH3+][C@H](CO)C(=O)[O-]
REMARK SMILES IDX 3 1 2 2 1 3 5 7 6 8 7 9 4 10
REMARK H PARENT 1 4 1 5 1 6 4 11
REMARK Flexibility Score: inf
ROOT
ATOM      1  C   UNL     1     141.575 137.562 155.265  1.00  0.00     0.227 C 
ENDROOT
BRANCH   1   2
ATOM      2  C   UNL     1     141.076 139.006 155.431  1.00  0.00     0.253 C 
BRANCH   2   3
ATOM      3  N   UNL     1     141.930 139.952 154.703  1.00  0.00    -0.348 N 
ATOM      4  H   UNL     1     142.807 139.487 154.372  1.00  0.00     0.345 HD
ATOM      5  H   UNL     1     142.183 140.752 155.327  1.00  0.00     0.345 HD
ATOM      6  H   UNL     1     141.412 140.332 153.878  1.00  0.00     0.345 HD
ENDBRANCH   2   3
BRANCH   2   7
ATOM      7  C   UNL     1     139.641 139.126 154.986  1.00  0.00     0.102 C 
ATOM      8  O   UNL     1     138.881 138.124 155.030  1.00  0.00    -0.544 OA
ATOM      9  O   UNL     1     139.157 140.330 154.486  1.00  0.00    -0.544 OA
ENDBRANCH   2   7
ENDBRANCH   1   2
BRANCH   1  10
ATOM     10  O   UNL     1     141.118 136.753 156.315  1.00  0.00    -0.390 OA
ATOM     11  H   UNL     1     141.819 136.789 157.016  1.00  0.00     0.210 HD
ENDBRANCH   1  10
TORSDOF 4
ENDMDL
MODEL 8
REMARK VINA RESULT:    -2.745      7.862      8.501
REMARK INTER + INTRA:          -3.623
REMARK INTER:                  -3.397
REMARK INTRA:                  -0.226
REMARK UNBOUND:                -0.396
REMARK SMILES [NH3+][C@H](CO)C(=O)[O-]
REMARK SMILES IDX 3 1 2 2 1 3 5 7 6 8 7 9 4 10
REMARK H PARENT 1 4 1 5 1 6 4 11
REMARK Flexibility Score: inf
ROOT
ATOM      1  C   UNL     1     141.705 139.162 155.771  1.00  0.00     0.227 C 
ENDROOT
BRANCH   1   2
ATOM      2  C   UNL     1     140.940 137.925 155.273  1.00  0.00     0.253 C 
BRANCH   2   3
ATOM      3  N   UNL     1     141.093 136.796 156.200  1.00  0.00    -0.348 N 
ATOM      4  H   UNL     1     141.427 135.941 155.697  1.00  0.00     0.345 HD
ATOM      5  H   UNL     1     140.175 136.586 156.656  1.00  0.00     0.345 HD
ATOM      6  H   UNL     1     141.781 137.044 156.947  1.00  0.00     0.345 HD
ENDBRANCH   2   3
BRANCH   2   7
ATOM      7  C   UNL     1     139.484 138.251 155.061  1.00  0.00     0.102 C 
ATOM      8  O   UNL     1     139.074 139.432 155.207  1.00  0.00    -0.544 OA
ATOM      9  O   UNL     1     138.576 137.247 154.743  1.00  0.00    -0.544 OA
ENDBRANCH   2   7
ENDBRANCH   1   2
BRANCH   1  10
ATOM     10  O   UNL     1     141.870 140.094 154.736  1.00  0.00    -0.390 OA
ATOM     11  H   UNL     1     142.520 140.764 155.071  1.00  0.00     0.210 HD
ENDBRANCH   1  10
TORSDOF 4
ENDMDL
MODEL 9
REMARK VINA RESULT:    -2.702      1.839      2.253
REMARK INTER + INTRA:          -3.572
REMARK INTER:                  -3.346
REMARK INTRA:                  -0.226
REMARK UNBOUND:                -0.396
REMARK SMILES [NH3+][C@H](CO)C(=O)[O-]
REMARK SMILES IDX 3 1 2 2 1 3 5 7 6 8 7 9 4 10
REMARK H PARENT 1 4 1 5 1 6 4 11
REMARK Flexibility Score: inf
ROOT
ATOM      1  C   UNL     1     146.875 138.013 152.188  1.00  0.00     0.227 C 
ENDROOT
BRANCH   1   2
ATOM      2  C   UNL     1     147.491 138.167 153.588  1.00  0.00     0.253 C 
BRANCH   2   3
ATOM      3  N   UNL     1     148.168 136.935 154.010  1.00  0.00    -0.348 N 
ATOM      4  H   UNL     1     149.144 136.896 153.633  1.00  0.00     0.345 HD
ATOM      5  H   UNL     1     147.636 136.104 153.666  1.00  0.00     0.345 HD
ATOM      6  H   UNL     1     148.203 136.893 155.054  1.00  0.00     0.345 HD
ENDBRANCH   2   3
BRANCH   2   7
ATOM      7  C   UNL     1     148.436 139.340 153.626  1.00  0.00     0.102 C 
ATOM      8  O   UNL     1     148.454 140.104 154.626  1.00  0.00    -0.544 OA
ATOM      9  O   UNL     1     149.266 139.612 152.544  1.00  0.00    -0.544 OA
ENDBRANCH   2   7
ENDBRANCH   1   2
BRANCH   1  10
ATOM     10  O   UNL     1     147.793 137.429 151.302  1.00  0.00    -0.390 OA
ATOM     11  H   UNL     1     147.491 136.493 151.171  1.00  0.00     0.210 HD
ENDBRANCH   1  10
TORSDOF 4
ENDMDL
