MODEL 1
REMARK VINA RESULT:    -3.405      0.000      0.000
REMARK INTER + INTRA:          -3.809
REMARK INTER:                  -3.803
REMARK INTRA:                  -0.006
REMARK UNBOUND:                -0.006
REMARK SMILES CCCC(=O)[O-]
REMARK SMILES IDX 3 1 4 2 5 3 6 4 2 5 1 6
REMARK H PARENT
REMARK Flexibility Score: inf
ROOT
ATOM      1  C   UNL     1       5.329  21.767 -52.637  1.00  0.00     0.052 C 
ENDROOT
BRANCH   1   2
ATOM      2  C   UNL     1       6.444  21.084 -53.367  1.00  0.00     0.041 C 
ATOM      3  O   UNL     1       6.190  20.243 -54.269  1.00  0.00    -0.550 OA
ATOM      4  O   UNL     1       7.764  21.351 -53.027  1.00  0.00    -0.550 OA
ENDBRANCH   1   2
BRANCH   1   5
ATOM      5  C   UNL     1       5.131  23.209 -53.118  1.00  0.00     0.003 C 
ATOM      6  C   UNL     1       4.808  23.285 -54.610  1.00  0.00     0.004 C 
ENDBRANCH   1   5
TORSDOF 2
ENDMDL
MODEL 2
REMARK VINA RESULT:    -3.200      1.367      2.042
REMARK INTER + INTRA:          -3.580
REMARK INTER:                  -3.564
REMARK INTRA:                  -0.016
REMARK UNBOUND:                -0.006
REMARK SMILES CCCC(=O)[O-]
REMARK SMILES IDX 3 1 4 2 5 3 6 4 2 5 1 6
REMARK H PARENT
REMARK Flexibility Score: inf
ROOT
ATOM      1  C   UNL     1       5.367  22.350 -52.737  1.00  0.00     0.052 C 
ENDROOT
BRANCH   1   2
ATOM      2  C   UNL     1       5.409  21.423 -53.913  1.00  0.00     0.041 C 
ATOM      3  O   UNL     1       6.217  20.457 -53.929  1.00  0.00    -0.550 OA
ATOM      4  O   UNL     1       4.580  21.645 -55.005  1.00  0.00    -0.550 OA
ENDBRANCH   1   2
BRANCH   1   5
ATOM      5  C   UNL     1       4.897  23.755 -53.136  1.00  0.00     0.003 C 
ATOM      6  C   UNL     1       4.109  24.442 -52.021  1.00  0.00     0.004 C 
ENDBRANCH   1   5
TORSDOF 2
ENDMDL
MODEL 3
REMARK VINA RESULT:    -2.936     17.703     18.274
REMARK INTER + INTRA:          -3.286
REMARK INTER:                  -3.255
REMARK INTRA:                  -0.030
REMARK UNBOUND:                -0.006
REMARK SMILES CCCC(=O)[O-]
REMARK SMILES IDX 3 1 4 2 5 3 6 4 2 5 1 6
REMARK H PARENT
REMARK Flexibility Score: inf
ROOT
ATOM      1  C   UNL     1      -5.161   7.603 -58.981  1.00  0.00     0.052 C 
ENDROOT
BRANCH   1   2
ATOM      2  C   UNL     1      -4.068   8.600 -58.749  1.00  0.00     0.041 C 
ATOM      3  O   UNL     1      -4.347   9.811 -58.546  1.00  0.00    -0.550 OA
ATOM      4  O   UNL     1      -2.739   8.198 -58.792  1.00  0.00    -0.550 OA
ENDBRANCH   1   2
BRANCH   1   5
ATOM      5  C   UNL     1      -6.039   7.420 -57.736  1.00  0.00     0.003 C 
ATOM      6  C   UNL     1      -7.518   7.674 -58.026  1.00  0.00     0.004 C 
ENDBRANCH   1   5
TORSDOF 2
ENDMDL
MODEL 4
REMARK VINA RESULT:    -2.897      1.553      1.975
REMARK INTER + INTRA:          -3.241
REMARK INTER:                  -3.232
REMARK INTRA:                  -0.010
REMARK UNBOUND:                -0.006
REMARK SMILES CCCC(=O)[O-]
REMARK SMILES IDX 3 1 4 2 5 3 6 4 2 5 1 6
REMARK H PARENT
REMARK Flexibility Score: inf
ROOT
ATOM      1  C   UNL     1       5.118  23.452 -53.540  1.00  0.00     0.052 C 
ENDROOT
BRANCH   1   2
ATOM      2  C   UNL     1       5.285  22.002 -53.206  1.00  0.00     0.041 C 
ATOM      3  O   UNL     1       5.521  21.165 -54.117  1.00  0.00    -0.550 OA
ATOM      4  O   UNL     1       5.146  21.569 -51.894  1.00  0.00    -0.550 OA
ENDBRANCH   1   2
BRANCH   1   5
ATOM      5  C   UNL     1       4.716  23.658 -55.006  1.00  0.00     0.003 C 
ATOM      6  C   UNL     1       4.439  25.125 -55.332  1.00  0.00     0.004 C 
ENDBRANCH   1   5
TORSDOF 2
ENDMDL
MODEL 5
REMARK VINA RESULT:    -2.827     17.058     17.653
REMARK INTER + INTRA:          -3.164
REMARK INTER:                  -3.125
REMARK INTRA:                  -0.038
REMARK UNBOUND:                -0.006
REMARK SMILES CCCC(=O)[O-]
REMARK SMILES IDX 3 1 4 2 5 3 6 4 2 5 1 6
REMARK H PARENT
REMARK Flexibility Score: inf
ROOT
ATOM      1  C   UNL     1      -4.579   8.220 -58.915  1.00  0.00     0.052 C 
ENDROOT
BRANCH   1   2
ATOM      2  C   UNL     1      -3.495   8.976 -58.211  1.00  0.00     0.041 C 
ATOM      3  O   UNL     1      -3.457   9.007 -56.953  1.00  0.00    -0.550 OA
ATOM      4  O   UNL     1      -2.547   9.677 -58.945  1.00  0.00    -0.550 OA
ENDBRANCH   1   2
BRANCH   1   5
ATOM      5  C   UNL     1      -5.859   8.142 -58.072  1.00  0.00     0.003 C 
ATOM      6  C   UNL     1      -6.148   6.722 -57.585  1.00  0.00     0.004 C 
ENDBRANCH   1   5
TORSDOF 2
ENDMDL
MODEL 6
REMARK VINA RESULT:    -2.791     14.461     15.346
REMARK INTER + INTRA:          -3.123
REMARK INTER:                  -3.117
REMARK INTRA:                  -0.006
REMARK UNBOUND:                -0.006
REMARK SMILES CCCC(=O)[O-]
REMARK SMILES IDX 3 1 4 2 5 3 6 4 2 5 1 6
REMARK H PARENT
REMARK Flexibility Score: inf
ROOT
ATOM      1  C   UNL     1      -5.823  16.861 -60.922  1.00  0.00     0.052 C 
ENDROOT
BRANCH   1   2
ATOM      2  C   UNL     1      -7.252  16.493 -61.184  1.00  0.00     0.041 C 
ATOM      3  O   UNL     1      -8.024  17.313 -61.746  1.00  0.00    -0.550 OA
ATOM      4  O   UNL     1      -7.738  15.258 -60.775  1.00  0.00    -0.550 OA
ENDBRANCH   1   2
BRANCH   1   5
ATOM      5  C   UNL     1      -5.705  17.998 -59.900  1.00  0.00     0.003 C 
ATOM      6  C   UNL     1      -4.261  18.462 -59.710  1.00  0.00     0.004 C 
ENDBRANCH   1   5
TORSDOF 2
ENDMDL
MODEL 7
REMARK VINA RESULT:    -2.778     16.755     17.520
REMARK INTER + INTRA:          -3.109
REMARK INTER:                  -3.061
REMARK INTRA:                  -0.048
REMARK UNBOUND:                -0.006
REMARK SMILES CCCC(=O)[O-]
REMARK SMILES IDX 3 1 4 2 5 3 6 4 2 5 1 6
REMARK H PARENT
REMARK Flexibility Score: inf
ROOT
ATOM      1  C   UNL     1      -2.745   7.589 -58.112  1.00  0.00     0.052 C 
ENDROOT
BRANCH   1   2
ATOM      2  C   UNL     1      -3.157   8.924 -58.653  1.00  0.00     0.041 C 
ATOM      3  O   UNL     1      -2.289   9.732 -59.073  1.00  0.00    -0.550 OA
ATOM      4  O   UNL     1      -4.497   9.288 -58.660  1.00  0.00    -0.550 OA
ENDBRANCH   1   2
BRANCH   1   5
ATOM      5  C   UNL     1      -1.957   6.774 -59.145  1.00  0.00     0.003 C 
ATOM      6  C   UNL     1      -2.871   6.003 -60.098  1.00  0.00     0.004 C 
ENDBRANCH   1   5
TORSDOF 2
ENDMDL
MODEL 8
REMARK VINA RESULT:    -2.753     16.922     17.488
REMARK INTER + INTRA:          -3.081
REMARK INTER:                  -3.018
REMARK INTRA:                  -0.063
REMARK UNBOUND:                -0.006
REMARK SMILES CCCC(=O)[O-]
REMARK SMILES IDX 3 1 4 2 5 3 6 4 2 5 1 6
REMARK H PARENT
REMARK Flexibility Score: inf
ROOT
ATOM      1  C   UNL     1      -3.617   9.044 -58.728  1.00  0.00     0.052 C 
ENDROOT
BRANCH   1   2
ATOM      2  C   UNL     1      -2.711   7.893 -58.414  1.00  0.00     0.041 C 
ATOM      3  O   UNL     1      -2.119   7.281 -59.341  1.00  0.00    -0.550 OA
ATOM      4  O   UNL     1      -2.549   7.474 -57.100  1.00  0.00    -0.550 OA
ENDBRANCH   1   2
BRANCH   1   5
ATOM      5  C   UNL     1      -4.935   8.961 -57.948  1.00  0.00     0.003 C 
ATOM      6  C   UNL     1      -5.844   7.843 -58.459  1.00  0.00     0.004 C 
ENDBRANCH   1   5
TORSDOF 2
ENDMDL
MODEL 9
REMARK VINA RESULT:    -2.736     17.924     18.565
REMARK INTER + INTRA:          -3.061
REMARK INTER:                  -3.017
REMARK INTRA:                  -0.045
REMARK UNBOUND:                -0.006
REMARK SMILES CCCC(=O)[O-]
REMARK SMILES IDX 3 1 4 2 5 3 6 4 2 5 1 6
REMARK H PARENT
REMARK Flexibility Score: inf
ROOT
ATOM      1  C   UNL     1      -5.030   7.696 -59.050  1.00  0.00     0.052 C 
ENDROOT
BRANCH   1   2
ATOM      2  C   UNL     1      -5.967   7.469 -57.903  1.00  0.00     0.041 C 
ATOM      3  O   UNL     1      -5.534   7.012 -56.812  1.00  0.00    -0.550 OA
ATOM      4  O   UNL     1      -7.323   7.729 -58.050  1.00  0.00    -0.550 OA
ENDBRANCH   1   2
BRANCH   1   5
ATOM      5  C   UNL     1      -3.637   8.125 -58.572  1.00  0.00     0.003 C 
ATOM      6  C   UNL     1      -3.549   9.630 -58.315  1.00  0.00     0.004 C 
ENDBRANCH   1   5
TORSDOF 2
ENDMDL
