MODEL 1
REMARK VINA RESULT:    -3.575      0.000      0.000
REMARK INTER + INTRA:          -4.839
REMARK INTER:                  -4.620
REMARK INTRA:                  -0.220
REMARK UNBOUND:                -0.220
REMARK SMILES CCO[C@@H]1O[C@H](CO)[C@@H](O)[C@@H](O)[C@@H]1O
REMARK SMILES IDX 4 1 13 2 11 3 9 4 6 5 5 6 3 7 2 8 1 9 14 10 12 12 7 14 8 15
REMARK SMILES IDX 10 17
REMARK H PARENT 14 11 12 13 8 16 10 18
REMARK Flexibility Score: inf
ROOT
ATOM      1  C   UNL     1     -13.782  -7.821  -6.366  1.00  0.00     0.281 C 
ATOM      2  C   UNL     1     -14.660  -7.013  -7.351  1.00  0.00     0.202 C 
ATOM      3  C   UNL     1     -16.074  -7.630  -7.465  1.00  0.00     0.179 C 
ATOM      4  C   UNL     1     -16.503  -8.282  -6.135  1.00  0.00     0.177 C 
ATOM      5  C   UNL     1     -15.431  -9.323  -5.677  1.00  0.00     0.178 C 
ATOM      6  O   UNL     1     -14.195  -9.177  -6.366  1.00  0.00    -0.341 OA
ENDROOT
BRANCH   1   7
ATOM      7  O   UNL     1     -12.423  -7.732  -6.754  1.00  0.00    -0.350 OA
BRANCH   7   8
ATOM      8  C   UNL     1     -11.803  -9.006  -6.763  1.00  0.00     0.160 C 
ATOM      9  C   UNL     1     -10.293  -8.838  -6.871  1.00  0.00     0.035 C 
ENDBRANCH   7   8
ENDBRANCH   1   7
BRANCH   2  10
ATOM     10  O   UNL     1     -14.061  -6.982  -8.623  1.00  0.00    -0.385 OA
ATOM     11  H   UNL     1     -13.475  -7.781  -8.682  1.00  0.00     0.211 HD
ENDBRANCH   2  10
BRANCH   3  12
ATOM     12  O   UNL     1     -16.991  -6.639  -7.851  1.00  0.00    -0.387 OA
ATOM     13  H   UNL     1     -17.691  -6.606  -7.148  1.00  0.00     0.211 HD
ENDBRANCH   3  12
BRANCH   5  14
ATOM     14  C   UNL     1     -15.922 -10.763  -5.895  1.00  0.00     0.191 C 
BRANCH  14  15
ATOM     15  O   UNL     1     -15.832 -11.125  -7.247  1.00  0.00    -0.394 OA
ATOM     16  H   UNL     1     -15.370 -12.003  -7.276  1.00  0.00     0.210 HD
ENDBRANCH  14  15
ENDBRANCH   5  14
BRANCH   4  17
ATOM     17  O   UNL     1     -16.644  -7.297  -5.141  1.00  0.00    -0.387 OA
ATOM     18  H   UNL     1     -15.831  -7.339  -4.571  1.00  0.00     0.211 HD
ENDBRANCH   4  17
TORSDOF 7
ENDMDL
MODEL 2
REMARK VINA RESULT:    -3.473      1.676      4.123
REMARK INTER + INTRA:          -4.708
REMARK INTER:                  -4.504
REMARK INTRA:                  -0.204
REMARK UNBOUND:                -0.220
REMARK SMILES CCO[C@@H]1O[C@H](CO)[C@@H](O)[C@@H](O)[C@@H]1O
REMARK SMILES IDX 4 1 13 2 11 3 9 4 6 5 5 6 3 7 2 8 1 9 14 10 12 12 7 14 8 15
REMARK SMILES IDX 10 17
REMARK H PARENT 14 11 12 13 8 16 10 18
REMARK Flexibility Score: inf
ROOT
ATOM      1  C   UNL     1     -14.371  -9.385  -5.634  1.00  0.00     0.281 C 
ATOM      2  C   UNL     1     -12.891  -9.438  -6.083  1.00  0.00     0.202 C 
ATOM      3  C   UNL     1     -12.597  -8.354  -7.146  1.00  0.00     0.179 C 
ATOM      4  C   UNL     1     -13.469  -7.102  -6.918  1.00  0.00     0.177 C 
ATOM      5  C   UNL     1     -14.980  -7.502  -6.874  1.00  0.00     0.178 C 
ATOM      6  O   UNL     1     -15.172  -8.901  -6.699  1.00  0.00    -0.341 OA
ENDROOT
BRANCH   1   7
ATOM      7  O   UNL     1     -14.803 -10.680  -5.257  1.00  0.00    -0.350 OA
BRANCH   7   8
ATOM      8  C   UNL     1     -16.018 -11.028  -5.899  1.00  0.00     0.160 C 
ATOM      9  C   UNL     1     -17.147 -11.043  -4.878  1.00  0.00     0.035 C 
ENDBRANCH   7   8
ENDBRANCH   1   7
BRANCH   2  10
ATOM     10  O   UNL     1     -12.590 -10.705  -6.614  1.00  0.00    -0.385 OA
ATOM     11  H   UNL     1     -11.903 -10.565  -7.317  1.00  0.00     0.211 HD
ENDBRANCH   2  10
BRANCH   3  12
ATOM     12  O   UNL     1     -11.233  -8.021  -7.115  1.00  0.00    -0.387 OA
ATOM     13  H   UNL     1     -11.150  -7.113  -7.509  1.00  0.00     0.211 HD
ENDBRANCH   3  12
BRANCH   5  14
ATOM     14  C   UNL     1     -15.706  -7.086  -8.163  1.00  0.00     0.191 C 
BRANCH  14  15
ATOM     15  O   UNL     1     -16.305  -8.193  -8.781  1.00  0.00    -0.394 OA
ATOM     16  H   UNL     1     -17.242  -7.934  -8.982  1.00  0.00     0.210 HD
ENDBRANCH  14  15
ENDBRANCH   5  14
BRANCH   4  17
ATOM     17  O   UNL     1     -13.119  -6.488  -5.703  1.00  0.00    -0.387 OA
ATOM     18  H   UNL     1     -13.400  -7.101  -4.973  1.00  0.00     0.211 HD
ENDBRANCH   4  17
TORSDOF 7
ENDMDL
MODEL 3
REMARK VINA RESULT:    -3.426      8.458     10.437
REMARK INTER + INTRA:          -4.646
REMARK INTER:                  -4.455
REMARK INTRA:                  -0.191
REMARK UNBOUND:                -0.220
REMARK SMILES CCO[C@@H]1O[C@H](CO)[C@@H](O)[C@@H](O)[C@@H]1O
REMARK SMILES IDX 4 1 13 2 11 3 9 4 6 5 5 6 3 7 2 8 1 9 14 10 12 12 7 14 8 15
REMARK SMILES IDX 10 17
REMARK H PARENT 14 11 12 13 8 16 10 18
REMARK Flexibility Score: inf
ROOT
ATOM      1  C   UNL     1      -4.033  -7.752  -6.312  1.00  0.00     0.281 C 
ATOM      2  C   UNL     1      -5.398  -7.814  -5.584  1.00  0.00     0.202 C 
ATOM      3  C   UNL     1      -6.272  -8.960  -6.144  1.00  0.00     0.179 C 
ATOM      4  C   UNL     1      -5.400 -10.142  -6.617  1.00  0.00     0.177 C 
ATOM      5  C   UNL     1      -4.334  -9.644  -7.646  1.00  0.00     0.178 C 
ATOM      6  O   UNL     1      -4.183  -8.230  -7.638  1.00  0.00    -0.341 OA
ENDROOT
BRANCH   1   7
ATOM      7  O   UNL     1      -3.563  -6.417  -6.331  1.00  0.00    -0.350 OA
BRANCH   7   8
ATOM      8  C   UNL     1      -2.576  -6.201  -5.337  1.00  0.00     0.160 C 
ATOM      9  C   UNL     1      -1.745  -7.465  -5.161  1.00  0.00     0.035 C 
ENDBRANCH   7   8
ENDBRANCH   1   7
BRANCH   2  10
ATOM     10  O   UNL     1      -6.082  -6.593  -5.729  1.00  0.00    -0.385 OA
ATOM     11  H   UNL     1      -6.856  -6.768  -6.325  1.00  0.00     0.211 HD
ENDBRANCH   2  10
BRANCH   3  12
ATOM     12  O   UNL     1      -7.186  -9.379  -5.163  1.00  0.00    -0.387 OA
ATOM     13  H   UNL     1      -6.878  -8.994  -4.301  1.00  0.00     0.211 HD
ENDBRANCH   3  12
BRANCH   5  14
ATOM     14  C   UNL     1      -4.700 -10.069  -9.077  1.00  0.00     0.191 C 
BRANCH  14  15
ATOM     15  O   UNL     1      -3.555 -10.438  -9.799  1.00  0.00    -0.394 OA
ATOM     16  H   UNL     1      -2.788 -10.361  -9.175  1.00  0.00     0.210 HD
ENDBRANCH  14  15
ENDBRANCH   5  14
BRANCH   4  17
ATOM     17  O   UNL     1      -4.744 -10.724  -5.517  1.00  0.00    -0.387 OA
ATOM     18  H   UNL     1      -3.771 -10.572  -5.644  1.00  0.00     0.211 HD
ENDBRANCH   4  17
TORSDOF 7
ENDMDL
MODEL 4
REMARK VINA RESULT:    -3.426      6.336      9.738
REMARK INTER + INTRA:          -4.646
REMARK INTER:                  -4.539
REMARK INTRA:                  -0.107
REMARK UNBOUND:                -0.220
REMARK SMILES CCO[C@@H]1O[C@H](CO)[C@@H](O)[C@@H](O)[C@@H]1O
REMARK SMILES IDX 4 1 13 2 11 3 9 4 6 5 5 6 3 7 2 8 1 9 14 10 12 12 7 14 8 15
REMARK SMILES IDX 10 17
REMARK H PARENT 14 11 12 13 8 16 10 18
REMARK Flexibility Score: inf
ROOT
ATOM      1  C   UNL     1      -6.899  -9.699  -7.135  1.00  0.00     0.281 C 
ATOM      2  C   UNL     1      -6.434  -8.539  -6.221  1.00  0.00     0.202 C 
ATOM      3  C   UNL     1      -4.917  -8.285  -6.379  1.00  0.00     0.179 C 
ATOM      4  C   UNL     1      -4.448  -8.601  -7.814  1.00  0.00     0.177 C 
ATOM      5  C   UNL     1      -4.854 -10.060  -8.202  1.00  0.00     0.178 C 
ATOM      6  O   UNL     1      -5.829 -10.609  -7.325  1.00  0.00    -0.341 OA
ENDROOT
BRANCH   1   7
ATOM      7  O   UNL     1      -7.998 -10.364  -6.541  1.00  0.00    -0.350 OA
BRANCH   7   8
ATOM      8  C   UNL     1      -9.227  -9.756  -6.900  1.00  0.00     0.160 C 
ATOM      9  C   UNL     1     -10.323 -10.224  -5.953  1.00  0.00     0.035 C 
ENDBRANCH   7   8
ENDBRANCH   1   7
BRANCH   2  10
ATOM     10  O   UNL     1      -6.719  -8.837  -4.876  1.00  0.00    -0.385 OA
ATOM     11  H   UNL     1      -7.217  -8.060  -4.510  1.00  0.00     0.211 HD
ENDBRANCH   2  10
BRANCH   3  12
ATOM     12  O   UNL     1      -4.625  -6.953  -6.042  1.00  0.00    -0.387 OA
ATOM     13  H   UNL     1      -4.992  -6.800  -5.132  1.00  0.00     0.211 HD
ENDBRANCH   3  12
BRANCH   5  14
ATOM     14  C   UNL     1      -3.636 -10.998  -8.197  1.00  0.00     0.191 C 
BRANCH  14  15
ATOM     15  O   UNL     1      -2.957 -10.946  -9.423  1.00  0.00    -0.394 OA
ATOM     16  H   UNL     1      -2.595 -10.026  -9.509  1.00  0.00     0.210 HD
ENDBRANCH  14  15
ENDBRANCH   5  14
BRANCH   4  17
ATOM     17  O   UNL     1      -5.037  -7.701  -8.720  1.00  0.00    -0.387 OA
ATOM     18  H   UNL     1      -5.919  -8.080  -8.976  1.00  0.00     0.211 HD
ENDBRANCH   4  17
TORSDOF 7
ENDMDL
MODEL 5
REMARK VINA RESULT:    -3.337      6.968      9.449
REMARK INTER + INTRA:          -4.533
REMARK INTER:                  -4.479
REMARK INTRA:                  -0.053
REMARK UNBOUND:                -0.220
REMARK SMILES CCO[C@@H]1O[C@H](CO)[C@@H](O)[C@@H](O)[C@@H]1O
REMARK SMILES IDX 4 1 13 2 11 3 9 4 6 5 5 6 3 7 2 8 1 9 14 10 12 12 7 14 8 15
REMARK SMILES IDX 10 17
REMARK H PARENT 14 11 12 13 8 16 10 18
REMARK Flexibility Score: inf
ROOT
ATOM      1  C   UNL     1      -4.942 -10.036  -8.026  1.00  0.00     0.281 C 
ATOM      2  C   UNL     1      -4.769  -8.567  -7.568  1.00  0.00     0.202 C 
ATOM      3  C   UNL     1      -5.794  -8.207  -6.468  1.00  0.00     0.179 C 
ATOM      4  C   UNL     1      -6.125  -9.434  -5.594  1.00  0.00     0.177 C 
ATOM      5  C   UNL     1      -6.605 -10.620  -6.494  1.00  0.00     0.178 C 
ATOM      6  O   UNL     1      -6.296 -10.424  -7.869  1.00  0.00    -0.341 OA
ENDROOT
BRANCH   1   7
ATOM      7  O   UNL     1      -4.559 -10.162  -9.383  1.00  0.00    -0.350 OA
BRANCH   7   8
ATOM      8  C   UNL     1      -3.393 -10.955  -9.521  1.00  0.00     0.160 C 
ATOM      9  C   UNL     1      -2.728 -11.124  -8.162  1.00  0.00     0.035 C 
ENDBRANCH   7   8
ENDBRANCH   1   7
BRANCH   2  10
ATOM     10  O   UNL     1      -4.931  -7.697  -8.661  1.00  0.00    -0.385 OA
ATOM     11  H   UNL     1      -4.242  -7.946  -9.330  1.00  0.00     0.211 HD
ENDBRANCH   2  10
BRANCH   3  12
ATOM     12  O   UNL     1      -5.291  -7.158  -5.681  1.00  0.00    -0.387 OA
ATOM     13  H   UNL     1      -4.343  -7.379  -5.480  1.00  0.00     0.211 HD
ENDBRANCH   3  12
BRANCH   5  14
ATOM     14  C   UNL     1      -8.123 -10.828  -6.379  1.00  0.00     0.191 C 
BRANCH  14  15
ATOM     15  O   UNL     1      -8.820  -9.868  -7.126  1.00  0.00    -0.394 OA
ATOM     16  H   UNL     1      -8.645 -10.069  -8.082  1.00  0.00     0.210 HD
ENDBRANCH  14  15
ENDBRANCH   5  14
BRANCH   4  17
ATOM     17  O   UNL     1      -4.984  -9.833  -4.876  1.00  0.00    -0.387 OA
ATOM     18  H   UNL     1      -4.232  -9.879  -5.523  1.00  0.00     0.211 HD
ENDBRANCH   4  17
TORSDOF 7
ENDMDL
MODEL 6
REMARK VINA RESULT:    -3.291      1.637      3.283
REMARK INTER + INTRA:          -4.472
REMARK INTER:                  -4.286
REMARK INTRA:                  -0.186
REMARK UNBOUND:                -0.220
REMARK SMILES CCO[C@@H]1O[C@H](CO)[C@@H](O)[C@@H](O)[C@@H]1O
REMARK SMILES IDX 4 1 13 2 11 3 9 4 6 5 5 6 3 7 2 8 1 9 14 10 12 12 7 14 8 15
REMARK SMILES IDX 10 17
REMARK H PARENT 14 11 12 13 8 16 10 18
REMARK Flexibility Score: inf
ROOT
ATOM      1  C   UNL     1     -14.276  -8.620  -5.906  1.00  0.00     0.281 C 
ATOM      2  C   UNL     1     -14.900 -10.032  -6.021  1.00  0.00     0.202 C 
ATOM      3  C   UNL     1     -16.445  -9.953  -6.033  1.00  0.00     0.179 C 
ATOM      4  C   UNL     1     -16.929  -8.650  -6.702  1.00  0.00     0.177 C 
ATOM      5  C   UNL     1     -16.272  -7.414  -6.006  1.00  0.00     0.178 C 
ATOM      6  O   UNL     1     -15.158  -7.769  -5.195  1.00  0.00    -0.341 OA
ENDROOT
BRANCH   1   7
ATOM      7  O   UNL     1     -13.035  -8.700  -5.230  1.00  0.00    -0.350 OA
BRANCH   7   8
ATOM      8  C   UNL     1     -12.065  -7.853  -5.823  1.00  0.00     0.160 C 
ATOM      9  C   UNL     1     -11.705  -8.381  -7.205  1.00  0.00     0.035 C 
ENDBRANCH   7   8
ENDBRANCH   1   7
BRANCH   2  10
ATOM     10  O   UNL     1     -14.483 -10.836  -4.945  1.00  0.00    -0.385 OA
ATOM     11  H   UNL     1     -15.303 -11.228  -4.546  1.00  0.00     0.211 HD
ENDBRANCH   2  10
BRANCH   3  12
ATOM     12  O   UNL     1     -16.969 -11.076  -6.695  1.00  0.00    -0.387 OA
ATOM     13  H   UNL     1     -17.609 -11.505  -6.069  1.00  0.00     0.211 HD
ENDBRANCH   3  12
BRANCH   5  14
ATOM     14  C   UNL     1     -17.283  -6.673  -5.116  1.00  0.00     0.191 C 
BRANCH  14  15
ATOM     15  O   UNL     1     -18.167  -5.907  -5.890  1.00  0.00    -0.394 OA
ATOM     16  H   UNL     1     -18.211  -5.010  -5.468  1.00  0.00     0.210 HD
ENDBRANCH  14  15
ENDBRANCH   5  14
BRANCH   4  17
ATOM     17  O   UNL     1     -16.580  -8.652  -8.064  1.00  0.00    -0.387 OA
ATOM     18  H   UNL     1     -15.745  -8.122  -8.153  1.00  0.00     0.211 HD
ENDBRANCH   4  17
TORSDOF 7
ENDMDL
MODEL 7
REMARK VINA RESULT:    -3.244      7.963     10.838
REMARK INTER + INTRA:          -4.412
REMARK INTER:                  -4.191
REMARK INTRA:                  -0.221
REMARK UNBOUND:                -0.220
REMARK SMILES CCO[C@@H]1O[C@H](CO)[C@@H](O)[C@@H](O)[C@@H]1O
REMARK SMILES IDX 4 1 13 2 11 3 9 4 6 5 5 6 3 7 2 8 1 9 14 10 12 12 7 14 8 15
REMARK SMILES IDX 10 17
REMARK H PARENT 14 11 12 13 8 16 10 18
REMARK Flexibility Score: inf
ROOT
ATOM      1  C   UNL     1      -3.440  -9.301  -6.199  1.00  0.00     0.281 C 
ATOM      2  C   UNL     1      -2.986  -9.962  -7.523  1.00  0.00     0.202 C 
ATOM      3  C   UNL     1      -4.203 -10.324  -8.406  1.00  0.00     0.179 C 
ATOM      4  C   UNL     1      -5.357  -9.320  -8.198  1.00  0.00     0.177 C 
ATOM      5  C   UNL     1      -5.723  -9.229  -6.681  1.00  0.00     0.178 C 
ATOM      6  O   UNL     1      -4.721  -9.790  -5.841  1.00  0.00    -0.341 OA
ENDROOT
BRANCH   1   7
ATOM      7  O   UNL     1      -2.509  -9.597  -5.174  1.00  0.00    -0.350 OA
BRANCH   7   8
ATOM      8  C   UNL     1      -1.647  -8.499  -4.925  1.00  0.00     0.160 C 
ATOM      9  C   UNL     1      -2.376  -7.198  -5.231  1.00  0.00     0.035 C 
ENDBRANCH   7   8
ENDBRANCH   1   7
BRANCH   2  10
ATOM     10  O   UNL     1      -2.242 -11.125  -7.255  1.00  0.00    -0.385 OA
ATOM     11  H   UNL     1      -2.896 -11.835  -7.022  1.00  0.00     0.211 HD
ENDBRANCH   2  10
BRANCH   3  12
ATOM     12  O   UNL     1      -3.813 -10.360  -9.754  1.00  0.00    -0.387 OA
ATOM     13  H   UNL     1      -4.094  -9.497 -10.158  1.00  0.00     0.211 HD
ENDBRANCH   3  12
BRANCH   5  14
ATOM     14  C   UNL     1      -7.045  -9.954  -6.382  1.00  0.00     0.191 C 
BRANCH  14  15
ATOM     15  O   UNL     1      -7.596 -10.497  -7.552  1.00  0.00    -0.394 OA
ATOM     16  H   UNL     1      -8.268  -9.845  -7.880  1.00  0.00     0.210 HD
ENDBRANCH  14  15
ENDBRANCH   5  14
BRANCH   4  17
ATOM     17  O   UNL     1      -4.973  -8.047  -8.657  1.00  0.00    -0.387 OA
ATOM     18  H   UNL     1      -4.071  -8.142  -9.062  1.00  0.00     0.211 HD
ENDBRANCH   4  17
TORSDOF 7
ENDMDL
MODEL 8
REMARK VINA RESULT:    -3.101      7.246     10.875
REMARK INTER + INTRA:          -4.227
REMARK INTER:                  -4.023
REMARK INTRA:                  -0.205
REMARK UNBOUND:                -0.220
REMARK SMILES CCO[C@@H]1O[C@H](CO)[C@@H](O)[C@@H](O)[C@@H]1O
REMARK SMILES IDX 4 1 13 2 11 3 9 4 6 5 5 6 3 7 2 8 1 9 14 10 12 12 7 14 8 15
REMARK SMILES IDX 10 17
REMARK H PARENT 14 11 12 13 8 16 10 18
REMARK Flexibility Score: inf
ROOT
ATOM      1  C   UNL     1      -5.692  -9.445  -6.343  1.00  0.00     0.281 C 
ATOM      2  C   UNL     1      -4.858 -10.442  -7.184  1.00  0.00     0.202 C 
ATOM      3  C   UNL     1      -3.377 -10.001  -7.255  1.00  0.00     0.179 C 
ATOM      4  C   UNL     1      -2.953  -9.270  -5.964  1.00  0.00     0.177 C 
ATOM      5  C   UNL     1      -3.921  -8.074  -5.683  1.00  0.00     0.178 C 
ATOM      6  O   UNL     1      -5.122  -8.151  -6.442  1.00  0.00    -0.341 OA
ENDROOT
BRANCH   1   7
ATOM      7  O   UNL     1      -7.026  -9.421  -6.817  1.00  0.00    -0.350 OA
BRANCH   7   8
ATOM      8  C   UNL     1      -7.916  -8.923  -5.832  1.00  0.00     0.160 C 
ATOM      9  C   UNL     1      -8.705  -7.753  -6.403  1.00  0.00     0.035 C 
ENDBRANCH   7   8
ENDBRANCH   1   7
BRANCH   2  10
ATOM     10  O   UNL     1      -5.379 -10.534  -8.486  1.00  0.00    -0.385 OA
ATOM     11  H   UNL     1      -4.695 -10.996  -9.037  1.00  0.00     0.211 HD
ENDBRANCH   2  10
BRANCH   3  12
ATOM     12  O   UNL     1      -2.562 -11.123  -7.481  1.00  0.00    -0.387 OA
ATOM     13  H   UNL     1      -1.727 -10.980  -6.961  1.00  0.00     0.211 HD
ENDBRANCH   3  12
BRANCH   5  14
ATOM     14  C   UNL     1      -3.251  -6.728  -6.000  1.00  0.00     0.191 C 
BRANCH  14  15
ATOM     15  O   UNL     1      -3.725  -6.204  -7.211  1.00  0.00    -0.394 OA
ATOM     16  H   UNL     1      -3.792  -5.221  -7.089  1.00  0.00     0.210 HD
ENDBRANCH  14  15
ENDBRANCH   5  14
BRANCH   4  17
ATOM     17  O   UNL     1      -2.990 -10.159  -4.875  1.00  0.00    -0.387 OA
ATOM     18  H   UNL     1      -3.727  -9.861  -4.279  1.00  0.00     0.211 HD
ENDBRANCH   4  17
TORSDOF 7
ENDMDL
MODEL 9
REMARK VINA RESULT:    -0.921      7.113     10.374
REMARK INTER + INTRA:          -1.410
REMARK INTER:                  -1.399
REMARK INTRA:                  -0.011
REMARK UNBOUND:                -0.220
REMARK SMILES CCO[C@@H]1O[C@H](CO)[C@@H](O)[C@@H](O)[C@@H]1O
REMARK SMILES IDX 4 1 13 2 11 3 9 4 6 5 5 6 3 7 2 8 1 9 14 10 12 12 7 14 8 15
REMARK SMILES IDX 10 17
REMARK H PARENT 14 11 12 13 8 16 10 18
REMARK Flexibility Score: inf
ROOT
ATOM      1  C   UNL     1      -6.283  -9.158  -6.453  1.00  0.00     0.281 C 
ATOM      2  C   UNL     1      -5.643 -10.098  -5.403  1.00  0.00     0.202 C 
ATOM      3  C   UNL     1      -4.339 -10.728  -5.947  1.00  0.00     0.179 C 
ATOM      4  C   UNL     1      -3.620  -9.766  -6.915  1.00  0.00     0.177 C 
ATOM      5  C   UNL     1      -4.594  -9.327  -8.057  1.00  0.00     0.178 C 
ATOM      6  O   UNL     1      -5.955  -9.611  -7.756  1.00  0.00    -0.341 OA
ENDROOT
BRANCH   1   7
ATOM      7  O   UNL     1      -7.689  -9.145  -6.288  1.00  0.00    -0.350 OA
BRANCH   7   8
ATOM      8  C   UNL     1      -8.075  -8.332  -5.193  1.00  0.00     0.160 C 
ATOM      9  C   UNL     1      -8.537  -6.975  -5.705  1.00  0.00     0.035 C 
ENDBRANCH   7   8
ENDBRANCH   1   7
BRANCH   2  10
ATOM     10  O   UNL     1      -6.544 -11.120  -5.053  1.00  0.00    -0.385 OA
ATOM     11  H   UNL     1      -7.374 -10.675  -4.741  1.00  0.00     0.211 HD
ENDBRANCH   2  10
BRANCH   3  12
ATOM     12  O   UNL     1      -3.500 -11.073  -4.875  1.00  0.00    -0.387 OA
ATOM     13  H   UNL     1      -3.563 -12.058  -4.767  1.00  0.00     0.211 HD
ENDBRANCH   3  12
BRANCH   5  14
ATOM     14  C   UNL     1      -4.251 -10.024  -9.382  1.00  0.00     0.191 C 
BRANCH  14  15
ATOM     15  O   UNL     1      -3.213 -10.951  -9.208  1.00  0.00    -0.394 OA
ATOM     16  H   UNL     1      -2.664 -10.625  -8.448  1.00  0.00     0.210 HD
ENDBRANCH  14  15
ENDBRANCH   5  14
BRANCH   4  17
ATOM     17  O   UNL     1      -3.181  -8.626  -6.220  1.00  0.00    -0.387 OA
ATOM     18  H   UNL     1      -3.466  -7.833  -6.747  1.00  0.00     0.211 HD
ENDBRANCH   4  17
TORSDOF 7
ENDMDL
