MODEL 1
REMARK VINA RESULT:    -5.836      0.000      0.000
REMARK INTER + INTRA:          -6.409
REMARK INTER:                  -6.348
REMARK INTRA:                  -0.061
REMARK UNBOUND:                -0.061
REMARK SMILES COc1cc2ccc(=O)oc2cc1O
REMARK SMILES IDX 3 1 13 2 12 3 11 4 5 5 4 6 6 7 7 8 8 9 9 10 10 11 2 12 1 13
REMARK SMILES IDX 14 14
REMARK H PARENT 14 15
REMARK Flexibility Score: inf
ROOT
ATOM      1  C   UNL     1     -13.493  -9.508 -15.476  1.00  0.00     0.161 A 
ATOM      2  C   UNL     1     -13.995  -8.981 -14.276  1.00  0.00     0.161 A 
ATOM      3  C   UNL     1     -15.332  -9.196 -13.913  1.00  0.00     0.098 A 
ATOM      4  C   UNL     1     -16.177  -9.937 -14.743  1.00  0.00     0.142 A 
ATOM      5  C   UNL     1     -15.681 -10.471 -15.950  1.00  0.00     0.022 A 
ATOM      6  C   UNL     1     -14.343 -10.257 -16.314  1.00  0.00     0.062 A 
ATOM      7  C   UNL     1     -16.549 -11.210 -16.760  1.00  0.00     0.019 A 
ATOM      8  C   UNL     1     -17.871 -11.395 -16.355  1.00  0.00     0.094 A 
ATOM      9  C   UNL     1     -18.293 -10.837 -15.143  1.00  0.00     0.336 A 
ATOM     10  O   UNL     1     -19.482 -10.993 -14.759  1.00  0.00    -0.246 OA
ATOM     11  O   UNL     1     -17.445 -10.139 -14.392  1.00  0.00    -0.423 OA
ENDROOT
BRANCH   1  12
ATOM     12  O   UNL     1     -12.148  -9.267 -15.799  1.00  0.00    -0.493 OA
ATOM     13  C   UNL     1     -11.084 -10.182 -15.554  1.00  0.00     0.278 C 
ENDBRANCH   1  12
BRANCH   2  14
ATOM     14  O   UNL     1     -13.155  -8.240 -13.445  1.00  0.00    -0.504 OA
ATOM     15  H   UNL     1     -13.184  -8.338 -12.438  1.00  0.00     0.293 HD
ENDBRANCH   2  14
TORSDOF 2
ENDMDL
MODEL 2
REMARK VINA RESULT:    -5.783     13.759     15.099
REMARK INTER + INTRA:          -6.352
REMARK INTER:                  -6.287
REMARK INTRA:                  -0.065
REMARK UNBOUND:                -0.061
REMARK SMILES COc1cc2ccc(=O)oc2cc1O
REMARK SMILES IDX 3 1 13 2 12 3 11 4 5 5 4 6 6 7 7 8 8 9 9 10 10 11 2 12 1 13
REMARK SMILES IDX 14 14
REMARK H PARENT 14 15
REMARK Flexibility Score: inf
ROOT
ATOM      1  C   UNL     1     -12.085 -19.776  -6.100  1.00  0.00     0.161 A 
ATOM      2  C   UNL     1     -11.526 -20.734  -5.240  1.00  0.00     0.161 A 
ATOM      3  C   UNL     1     -10.137 -20.923  -5.196  1.00  0.00     0.098 A 
ATOM      4  C   UNL     1      -9.297 -20.158  -6.009  1.00  0.00     0.142 A 
ATOM      5  C   UNL     1      -9.849 -19.192  -6.876  1.00  0.00     0.022 A 
ATOM      6  C   UNL     1     -11.238 -19.003  -6.920  1.00  0.00     0.062 A 
ATOM      7  C   UNL     1      -8.983 -18.441  -7.677  1.00  0.00     0.019 A 
ATOM      8  C   UNL     1      -7.609 -18.667  -7.597  1.00  0.00     0.094 A 
ATOM      9  C   UNL     1      -7.132 -19.641  -6.713  1.00  0.00     0.336 A 
ATOM     10  O   UNL     1      -5.896 -19.860  -6.626  1.00  0.00    -0.246 OA
ATOM     11  O   UNL     1      -7.980 -20.341  -5.963  1.00  0.00    -0.423 OA
ENDROOT
BRANCH   1  12
ATOM     12  O   UNL     1     -13.480 -19.621  -6.110  1.00  0.00    -0.493 OA
ATOM     13  C   UNL     1     -14.340 -20.122  -7.130  1.00  0.00     0.278 C 
ENDBRANCH   1  12
BRANCH   2  14
ATOM     14  O   UNL     1     -12.362 -21.500  -4.428  1.00  0.00    -0.504 OA
ATOM     15  H   UNL     1     -12.464 -22.498  -4.564  1.00  0.00     0.293 HD
ENDBRANCH   2  14
TORSDOF 2
ENDMDL
MODEL 3
REMARK VINA RESULT:    -5.731     12.972     14.492
REMARK INTER + INTRA:          -6.295
REMARK INTER:                  -6.234
REMARK INTRA:                  -0.061
REMARK UNBOUND:                -0.061
REMARK SMILES COc1cc2ccc(=O)oc2cc1O
REMARK SMILES IDX 3 1 13 2 12 3 11 4 5 5 4 6 6 7 7 8 8 9 9 10 10 11 2 12 1 13
REMARK SMILES IDX 14 14
REMARK H PARENT 14 15
REMARK Flexibility Score: inf
ROOT
ATOM      1  C   UNL     1     -11.663 -19.416  -6.618  1.00  0.00     0.161 A 
ATOM      2  C   UNL     1     -11.398 -18.288  -7.410  1.00  0.00     0.161 A 
ATOM      3  C   UNL     1     -10.078 -17.955  -7.748  1.00  0.00     0.098 A 
ATOM      4  C   UNL     1      -9.016 -18.743  -7.300  1.00  0.00     0.142 A 
ATOM      5  C   UNL     1      -9.273 -19.879  -6.505  1.00  0.00     0.022 A 
ATOM      6  C   UNL     1     -10.593 -20.213  -6.166  1.00  0.00     0.062 A 
ATOM      7  C   UNL     1      -8.190 -20.650  -6.072  1.00  0.00     0.019 A 
ATOM      8  C   UNL     1      -6.896 -20.277  -6.435  1.00  0.00     0.094 A 
ATOM      9  C   UNL     1      -6.716 -19.137  -7.227  1.00  0.00     0.336 A 
ATOM     10  O   UNL     1      -5.557 -18.783  -7.566  1.00  0.00    -0.246 OA
ATOM     11  O   UNL     1      -7.766 -18.422  -7.625  1.00  0.00    -0.423 OA
ENDROOT
BRANCH   1  12
ATOM     12  O   UNL     1     -13.000 -19.711  -6.304  1.00  0.00    -0.493 OA
ATOM     13  C   UNL     1     -13.804 -20.654  -7.007  1.00  0.00     0.278 C 
ENDBRANCH   1  12
BRANCH   2  14
ATOM     14  O   UNL     1     -12.456 -17.498  -7.858  1.00  0.00    -0.504 OA
ATOM     15  H   UNL     1     -12.429 -16.488  -7.792  1.00  0.00     0.293 HD
ENDBRANCH   2  14
TORSDOF 2
ENDMDL
MODEL 4
REMARK VINA RESULT:    -5.666      1.571      4.717
REMARK INTER + INTRA:          -6.225
REMARK INTER:                  -6.179
REMARK INTRA:                  -0.045
REMARK UNBOUND:                -0.061
REMARK SMILES COc1cc2ccc(=O)oc2cc1O
REMARK SMILES IDX 3 1 13 2 12 3 11 4 5 5 4 6 6 7 7 8 8 9 9 10 10 11 2 12 1 13
REMARK SMILES IDX 14 14
REMARK H PARENT 14 15
REMARK Flexibility Score: inf
ROOT
ATOM      1  C   UNL     1     -17.021 -11.189 -16.474  1.00  0.00     0.161 A 
ATOM      2  C   UNL     1     -17.651 -10.766 -15.293  1.00  0.00     0.161 A 
ATOM      3  C   UNL     1     -17.037  -9.817 -14.464  1.00  0.00     0.098 A 
ATOM      4  C   UNL     1     -15.792  -9.283 -14.805  1.00  0.00     0.142 A 
ATOM      5  C   UNL     1     -15.152  -9.701 -15.990  1.00  0.00     0.022 A 
ATOM      6  C   UNL     1     -15.765 -10.651 -16.820  1.00  0.00     0.062 A 
ATOM      7  C   UNL     1     -13.906  -9.149 -16.307  1.00  0.00     0.019 A 
ATOM      8  C   UNL     1     -13.337  -8.208 -15.449  1.00  0.00     0.094 A 
ATOM      9  C   UNL     1     -14.031  -7.840 -14.290  1.00  0.00     0.336 A 
ATOM     10  O   UNL     1     -13.535  -6.992 -13.503  1.00  0.00    -0.246 OA
ATOM     11  O   UNL     1     -15.215  -8.381 -14.015  1.00  0.00    -0.423 OA
ENDROOT
BRANCH   1  12
ATOM     12  O   UNL     1     -17.672 -12.141 -17.274  1.00  0.00    -0.493 OA
ATOM     13  C   UNL     1     -17.249 -12.523 -18.579  1.00  0.00     0.278 C 
ENDBRANCH   1  12
BRANCH   2  14
ATOM     14  O   UNL     1     -18.893 -11.297 -14.949  1.00  0.00    -0.504 OA
ATOM     15  H   UNL     1     -19.511 -11.696 -15.646  1.00  0.00     0.293 HD
ENDBRANCH   2  14
TORSDOF 2
ENDMDL
MODEL 5
REMARK VINA RESULT:    -5.344     13.386     14.129
REMARK INTER + INTRA:          -5.874
REMARK INTER:                  -5.809
REMARK INTRA:                  -0.065
REMARK UNBOUND:                -0.061
REMARK SMILES COc1cc2ccc(=O)oc2cc1O
REMARK SMILES IDX 3 1 13 2 12 3 11 4 5 5 4 6 6 7 7 8 8 9 9 10 10 11 2 12 1 13
REMARK SMILES IDX 14 14
REMARK H PARENT 14 15
REMARK Flexibility Score: inf
ROOT
ATOM      1  C   UNL     1      -7.567 -19.183  -7.169  1.00  0.00     0.161 A 
ATOM      2  C   UNL     1      -7.708 -20.300  -6.330  1.00  0.00     0.161 A 
ATOM      3  C   UNL     1      -8.972 -20.673  -5.854  1.00  0.00     0.098 A 
ATOM      4  C   UNL     1     -10.105 -19.937  -6.210  1.00  0.00     0.142 A 
ATOM      5  C   UNL     1      -9.974 -18.815  -7.054  1.00  0.00     0.022 A 
ATOM      6  C   UNL     1      -8.709 -18.440  -7.531  1.00  0.00     0.062 A 
ATOM      7  C   UNL     1     -11.125 -18.098  -7.395  1.00  0.00     0.019 A 
ATOM      8  C   UNL     1     -12.361 -18.510  -6.895  1.00  0.00     0.094 A 
ATOM      9  C   UNL     1     -12.415 -19.634  -6.063  1.00  0.00     0.336 A 
ATOM     10  O   UNL     1     -13.519 -20.022  -5.602  1.00  0.00    -0.246 OA
ATOM     11  O   UNL     1     -11.303 -20.297  -5.756  1.00  0.00    -0.423 OA
ENDROOT
BRANCH   1  12
ATOM     12  O   UNL     1      -6.282 -18.846  -7.622  1.00  0.00    -0.493 OA
ATOM     13  C   UNL     1      -5.492 -17.787  -7.091  1.00  0.00     0.278 C 
ENDBRANCH   1  12
BRANCH   2  14
ATOM     14  O   UNL     1      -6.579 -21.036  -5.971  1.00  0.00    -0.504 OA
ATOM     15  H   UNL     1      -6.316 -21.878  -6.468  1.00  0.00     0.293 HD
ENDBRANCH   2  14
TORSDOF 2
ENDMDL
MODEL 6
REMARK VINA RESULT:    -5.312      1.557      4.814
REMARK INTER + INTRA:          -5.839
REMARK INTER:                  -5.791
REMARK INTRA:                  -0.048
REMARK UNBOUND:                -0.061
REMARK SMILES COc1cc2ccc(=O)oc2cc1O
REMARK SMILES IDX 3 1 13 2 12 3 11 4 5 5 4 6 6 7 7 8 8 9 9 10 10 11 2 12 1 13
REMARK SMILES IDX 14 14
REMARK H PARENT 14 15
REMARK Flexibility Score: inf
ROOT
ATOM      1  C   UNL     1     -16.050 -10.524 -14.865  1.00  0.00     0.161 A 
ATOM      2  C   UNL     1     -15.097  -9.965 -13.999  1.00  0.00     0.161 A 
ATOM      3  C   UNL     1     -13.879  -9.485 -14.501  1.00  0.00     0.098 A 
ATOM      4  C   UNL     1     -13.602  -9.559 -15.868  1.00  0.00     0.142 A 
ATOM      5  C   UNL     1     -14.554 -10.118 -16.746  1.00  0.00     0.022 A 
ATOM      6  C   UNL     1     -15.772 -10.598 -16.245  1.00  0.00     0.062 A 
ATOM      7  C   UNL     1     -14.249 -10.178 -18.110  1.00  0.00     0.019 A 
ATOM      8  C   UNL     1     -13.024  -9.687 -18.560  1.00  0.00     0.094 A 
ATOM      9  C   UNL     1     -12.128  -9.145 -17.631  1.00  0.00     0.336 A 
ATOM     10  O   UNL     1     -11.017  -8.697 -18.016  1.00  0.00    -0.246 OA
ATOM     11  O   UNL     1     -12.445  -9.101 -16.339  1.00  0.00    -0.423 OA
ENDROOT
BRANCH   1  12
ATOM     12  O   UNL     1     -17.255 -10.991 -14.319  1.00  0.00    -0.493 OA
ATOM     13  C   UNL     1     -18.510 -10.962 -14.991  1.00  0.00     0.278 C 
ENDBRANCH   1  12
BRANCH   2  14
ATOM     14  O   UNL     1     -15.370  -9.890 -12.634  1.00  0.00    -0.504 OA
ATOM     15  H   UNL     1     -15.299 -10.703 -12.034  1.00  0.00     0.293 HD
ENDBRANCH   2  14
TORSDOF 2
ENDMDL
MODEL 7
REMARK VINA RESULT:    -5.118     13.614     14.173
REMARK INTER + INTRA:          -5.629
REMARK INTER:                  -5.566
REMARK INTRA:                  -0.063
REMARK UNBOUND:                -0.061
REMARK SMILES COc1cc2ccc(=O)oc2cc1O
REMARK SMILES IDX 3 1 13 2 12 3 11 4 5 5 4 6 6 7 7 8 8 9 9 10 10 11 2 12 1 13
REMARK SMILES IDX 14 14
REMARK H PARENT 14 15
REMARK Flexibility Score: inf
ROOT
ATOM      1  C   UNL     1      -8.496 -19.921  -6.492  1.00  0.00     0.161 A 
ATOM      2  C   UNL     1      -8.948 -19.173  -7.590  1.00  0.00     0.161 A 
ATOM      3  C   UNL     1     -10.321 -19.031  -7.833  1.00  0.00     0.098 A 
ATOM      4  C   UNL     1     -11.253 -19.633  -6.984  1.00  0.00     0.142 A 
ATOM      5  C   UNL     1     -10.808 -20.387  -5.878  1.00  0.00     0.022 A 
ATOM      6  C   UNL     1      -9.434 -20.529  -5.634  1.00  0.00     0.062 A 
ATOM      7  C   UNL     1     -11.764 -20.977  -5.045  1.00  0.00     0.019 A 
ATOM      8  C   UNL     1     -13.118 -20.807  -5.329  1.00  0.00     0.094 A 
ATOM      9  C   UNL     1     -13.486 -20.045  -6.444  1.00  0.00     0.336 A 
ATOM     10  O   UNL     1     -14.703 -19.879  -6.718  1.00  0.00    -0.246 OA
ATOM     11  O   UNL     1     -12.555 -19.494  -7.219  1.00  0.00    -0.423 OA
ENDROOT
BRANCH   1  12
ATOM     12  O   UNL     1      -7.111 -20.037  -6.287  1.00  0.00    -0.493 OA
ATOM     13  C   UNL     1      -6.377 -21.251  -6.407  1.00  0.00     0.278 C 
ENDBRANCH   1  12
BRANCH   2  14
ATOM     14  O   UNL     1      -8.020 -18.571  -8.440  1.00  0.00    -0.504 OA
ATOM     15  H   UNL     1      -8.237 -17.719  -8.943  1.00  0.00     0.293 HD
ENDBRANCH   2  14
TORSDOF 2
ENDMDL
MODEL 8
REMARK VINA RESULT:    -5.049     13.097     13.263
REMARK INTER + INTRA:          -5.553
REMARK INTER:                  -5.488
REMARK INTRA:                  -0.064
REMARK UNBOUND:                -0.061
REMARK SMILES COc1cc2ccc(=O)oc2cc1O
REMARK SMILES IDX 3 1 13 2 12 3 11 4 5 5 4 6 6 7 7 8 8 9 9 10 10 11 2 12 1 13
REMARK SMILES IDX 14 14
REMARK H PARENT 14 15
REMARK Flexibility Score: inf
ROOT
ATOM      1  C   UNL     1     -10.879 -20.341  -6.916  1.00  0.00     0.161 A 
ATOM      2  C   UNL     1     -11.567 -20.325  -5.692  1.00  0.00     0.161 A 
ATOM      3  C   UNL     1     -12.969 -20.322  -5.668  1.00  0.00     0.098 A 
ATOM      4  C   UNL     1     -13.694 -20.335  -6.862  1.00  0.00     0.142 A 
ATOM      5  C   UNL     1     -13.011 -20.352  -8.096  1.00  0.00     0.022 A 
ATOM      6  C   UNL     1     -11.609 -20.355  -8.121  1.00  0.00     0.062 A 
ATOM      7  C   UNL     1     -13.764 -20.366  -9.275  1.00  0.00     0.019 A 
ATOM      8  C   UNL     1     -15.156 -20.363  -9.198  1.00  0.00     0.094 A 
ATOM      9  C   UNL     1     -15.765 -20.346  -7.939  1.00  0.00     0.336 A 
ATOM     10  O   UNL     1     -17.021 -20.343  -7.847  1.00  0.00    -0.246 OA
ATOM     11  O   UNL     1     -15.024 -20.334  -6.833  1.00  0.00    -0.423 OA
ENDROOT
BRANCH   1  12
ATOM     12  O   UNL     1      -9.475 -20.343  -6.892  1.00  0.00    -0.493 OA
ATOM     13  C   UNL     1      -8.660 -19.241  -7.278  1.00  0.00     0.278 C 
ENDBRANCH   1  12
BRANCH   2  14
ATOM     14  O   UNL     1     -10.846 -20.311  -4.499  1.00  0.00    -0.504 OA
ATOM     15  H   UNL     1     -11.026 -19.621  -3.779  1.00  0.00     0.293 HD
ENDBRANCH   2  14
TORSDOF 2
ENDMDL
MODEL 9
REMARK VINA RESULT:    -4.933      1.479      2.532
REMARK INTER + INTRA:          -5.427
REMARK INTER:                  -5.369
REMARK INTRA:                  -0.059
REMARK UNBOUND:                -0.061
REMARK SMILES COc1cc2ccc(=O)oc2cc1O
REMARK SMILES IDX 3 1 13 2 12 3 11 4 5 5 4 6 6 7 7 8 8 9 9 10 10 11 2 12 1 13
REMARK SMILES IDX 14 14
REMARK H PARENT 14 15
REMARK Flexibility Score: inf
ROOT
ATOM      1  C   UNL     1     -12.801  -9.783 -16.264  1.00  0.00     0.161 A 
ATOM      2  C   UNL     1     -13.556  -9.983 -17.431  1.00  0.00     0.161 A 
ATOM      3  C   UNL     1     -14.923 -10.283 -17.348  1.00  0.00     0.098 A 
ATOM      4  C   UNL     1     -15.547 -10.387 -16.102  1.00  0.00     0.142 A 
ATOM      5  C   UNL     1     -14.797 -10.187 -14.924  1.00  0.00     0.022 A 
ATOM      6  C   UNL     1     -13.430  -9.886 -15.007  1.00  0.00     0.062 A 
ATOM      7  C   UNL     1     -15.449 -10.296 -13.692  1.00  0.00     0.019 A 
ATOM      8  C   UNL     1     -16.810 -10.597 -13.662  1.00  0.00     0.094 A 
ATOM      9  C   UNL     1     -17.490 -10.781 -14.871  1.00  0.00     0.336 A 
ATOM     10  O   UNL     1     -18.719 -11.053 -14.866  1.00  0.00    -0.246 OA
ATOM     11  O   UNL     1     -16.845 -10.671 -16.029  1.00  0.00    -0.423 OA
ENDROOT
BRANCH   1  12
ATOM     12  O   UNL     1     -11.436  -9.485 -16.395  1.00  0.00    -0.493 OA
ATOM     13  C   UNL     1     -10.389 -10.446 -16.315  1.00  0.00     0.278 C 
ENDBRANCH   1  12
BRANCH   2  14
ATOM     14  O   UNL     1     -12.936  -9.881 -18.676  1.00  0.00    -0.504 OA
ATOM     15  H   UNL     1     -12.531  -9.010 -18.997  1.00  0.00     0.293 HD
ENDBRANCH   2  14
TORSDOF 2
ENDMDL
