MODEL 1
REMARK VINA RESULT:    -5.202      0.000      0.000
REMARK INTER + INTRA:          -9.074
REMARK INTER:                  -8.243
REMARK INTRA:                  -0.831
REMARK UNBOUND:                -0.831
REMARK SMILES CCCCCCCCCCCC(=O)[O-]
REMARK SMILES IDX 7 1 8 2 9 3 10 4 11 5 12 6 13 7 14 8 6 9 5 10 4 11 3 12 2 13
REMARK SMILES IDX 1 14
REMARK H PARENT
REMARK Flexibility Score: inf
ROOT
ATOM      1  C   UNL     1      35.014  44.545  47.891  1.00  0.00     0.000 C 
ENDROOT
BRANCH   1   2
ATOM      2  C   UNL     1      35.564  44.185  46.506  1.00  0.00     0.000 C 
BRANCH   2   3
ATOM      3  C   UNL     1      36.600  43.057  46.600  1.00  0.00     0.000 C 
BRANCH   3   4
ATOM      4  C   UNL     1      36.533  42.359  47.963  1.00  0.00     0.006 C 
BRANCH   4   5
ATOM      5  C   UNL     1      37.919  42.275  48.606  1.00  0.00     0.053 C 
BRANCH   5   6
ATOM      6  C   UNL     1      37.836  42.572  50.071  1.00  0.00     0.041 C 
ATOM      7  O   UNL     1      38.861  42.940  50.701  1.00  0.00    -0.550 OA
ATOM      8  O   UNL     1      36.615  42.489  50.728  1.00  0.00    -0.550 OA
ENDBRANCH   5   6
ENDBRANCH   4   5
ENDBRANCH   3   4
ENDBRANCH   2   3
ENDBRANCH   1   2
BRANCH   1   9
ATOM      9  C   UNL     1      33.480  44.476  47.908  1.00  0.00     0.000 C 
BRANCH   9  10
ATOM     10  C   UNL     1      32.917  43.537  46.828  1.00  0.00    -0.000 C 
BRANCH  10  11
ATOM     11  C   UNL     1      31.771  44.179  46.026  1.00  0.00    -0.000 C 
BRANCH  11  12
ATOM     12  C   UNL     1      31.858  43.869  44.523  1.00  0.00    -0.000 C 
BRANCH  12  13
ATOM     13  C   UNL     1      32.967  44.666  43.819  1.00  0.00    -0.003 C 
ATOM     14  C   UNL     1      32.387  45.584  42.748  1.00  0.00     0.004 C 
ENDBRANCH  12  13
ENDBRANCH  11  12
ENDBRANCH  10  11
ENDBRANCH   9  10
ENDBRANCH   1   9
TORSDOF 10
ENDMDL
MODEL 2
REMARK VINA RESULT:    -5.093      3.348      6.796
REMARK INTER + INTRA:          -8.902
REMARK INTER:                  -8.253
REMARK INTRA:                  -0.649
REMARK UNBOUND:                -0.831
REMARK SMILES CCCCCCCCCCCC(=O)[O-]
REMARK SMILES IDX 7 1 8 2 9 3 10 4 11 5 12 6 13 7 14 8 6 9 5 10 4 11 3 12 2 13
REMARK SMILES IDX 1 14
REMARK H PARENT
REMARK Flexibility Score: inf
ROOT
ATOM      1  C   UNL     1      33.498  42.875  48.433  1.00  0.00     0.000 C 
ENDROOT
BRANCH   1   2
ATOM      2  C   UNL     1      33.117  41.914  47.301  1.00  0.00     0.000 C 
BRANCH   2   3
ATOM      3  C   UNL     1      31.968  42.482  46.459  1.00  0.00     0.000 C 
BRANCH   3   4
ATOM      4  C   UNL     1      32.288  43.900  45.973  1.00  0.00     0.006 C 
BRANCH   4   5
ATOM      5  C   UNL     1      32.119  44.013  44.456  1.00  0.00     0.053 C 
BRANCH   5   6
ATOM      6  C   UNL     1      33.234  44.814  43.861  1.00  0.00     0.041 C 
ATOM      7  O   UNL     1      34.417  44.644  44.257  1.00  0.00    -0.550 OA
ATOM      8  O   UNL     1      32.974  45.713  42.835  1.00  0.00    -0.550 OA
ENDBRANCH   5   6
ENDBRANCH   4   5
ENDBRANCH   3   4
ENDBRANCH   2   3
ENDBRANCH   1   2
BRANCH   1   9
ATOM      9  C   UNL     1      35.017  42.883  48.659  1.00  0.00     0.000 C 
BRANCH   9  10
ATOM     10  C   UNL     1      35.809  42.640  47.364  1.00  0.00    -0.000 C 
BRANCH  10  11
ATOM     11  C   UNL     1      37.307  42.399  47.624  1.00  0.00    -0.000 C 
BRANCH  11  12
ATOM     12  C   UNL     1      37.641  42.330  49.123  1.00  0.00    -0.000 C 
BRANCH  12  13
ATOM     13  C   UNL     1      38.750  41.315  49.434  1.00  0.00    -0.003 C 
ATOM     14  C   UNL     1      39.230  41.450  50.876  1.00  0.00     0.004 C 
ENDBRANCH  12  13
ENDBRANCH  11  12
ENDBRANCH  10  11
ENDBRANCH   9  10
ENDBRANCH   1   9
TORSDOF 10
ENDMDL
MODEL 3
REMARK VINA RESULT:    -5.045      3.640      6.737
REMARK INTER + INTRA:          -8.824
REMARK INTER:                  -8.205
REMARK INTRA:                  -0.619
REMARK UNBOUND:                -0.831
REMARK SMILES CCCCCCCCCCCC(=O)[O-]
REMARK SMILES IDX 7 1 8 2 9 3 10 4 11 5 12 6 13 7 14 8 6 9 5 10 4 11 3 12 2 13
REMARK SMILES IDX 1 14
REMARK H PARENT
REMARK Flexibility Score: inf
ROOT
ATOM      1  C   UNL     1      34.839  42.622  47.623  1.00  0.00     0.000 C 
ENDROOT
BRANCH   1   2
ATOM      2  C   UNL     1      36.029  42.989  46.728  1.00  0.00     0.000 C 
BRANCH   2   3
ATOM      3  C   UNL     1      35.731  44.246  45.901  1.00  0.00     0.000 C 
BRANCH   3   4
ATOM      4  C   UNL     1      34.262  44.283  45.464  1.00  0.00     0.006 C 
BRANCH   4   5
ATOM      5  C   UNL     1      34.117  44.914  44.077  1.00  0.00     0.053 C 
BRANCH   5   6
ATOM      6  C   UNL     1      32.720  44.747  43.568  1.00  0.00     0.041 C 
ATOM      7  O   UNL     1      32.360  45.318  42.506  1.00  0.00    -0.550 OA
ATOM      8  O   UNL     1      31.829  43.921  44.243  1.00  0.00    -0.550 OA
ENDBRANCH   5   6
ENDBRANCH   4   5
ENDBRANCH   3   4
ENDBRANCH   2   3
ENDBRANCH   1   2
BRANCH   1   9
ATOM      9  C   UNL     1      34.774  43.538  48.853  1.00  0.00     0.000 C 
BRANCH   9  10
ATOM     10  C   UNL     1      35.290  42.853  50.129  1.00  0.00    -0.000 C 
BRANCH  10  11
ATOM     11  C   UNL     1      36.490  43.590  50.750  1.00  0.00    -0.000 C 
BRANCH  11  12
ATOM     12  C   UNL     1      37.761  42.725  50.781  1.00  0.00    -0.000 C 
BRANCH  12  13
ATOM     13  C   UNL     1      38.203  42.275  49.381  1.00  0.00    -0.003 C 
ATOM     14  C   UNL     1      39.044  41.005  49.452  1.00  0.00     0.004 C 
ENDBRANCH  12  13
ENDBRANCH  11  12
ENDBRANCH  10  11
ENDBRANCH   9  10
ENDBRANCH   1   9
TORSDOF 10
ENDMDL
MODEL 4
REMARK VINA RESULT:    -5.001      1.476      2.269
REMARK INTER + INTRA:          -8.755
REMARK INTER:                  -8.315
REMARK INTRA:                  -0.440
REMARK UNBOUND:                -0.831
REMARK SMILES CCCCCCCCCCCC(=O)[O-]
REMARK SMILES IDX 7 1 8 2 9 3 10 4 11 5 12 6 13 7 14 8 6 9 5 10 4 11 3 12 2 13
REMARK SMILES IDX 1 14
REMARK H PARENT
REMARK Flexibility Score: inf
ROOT
ATOM      1  C   UNL     1      35.401  42.808  47.652  1.00  0.00     0.000 C 
ENDROOT
BRANCH   1   2
ATOM      2  C   UNL     1      35.251  42.957  49.170  1.00  0.00     0.000 C 
BRANCH   2   3
ATOM      3  C   UNL     1      36.592  42.739  49.881  1.00  0.00     0.000 C 
BRANCH   3   4
ATOM      4  C   UNL     1      37.707  42.433  48.875  1.00  0.00     0.006 C 
BRANCH   4   5
ATOM      5  C   UNL     1      38.601  41.295  49.374  1.00  0.00     0.053 C 
BRANCH   5   6
ATOM      6  C   UNL     1      38.870  41.443  50.839  1.00  0.00     0.041 C 
ATOM      7  O   UNL     1      38.538  40.531  51.640  1.00  0.00    -0.550 OA
ATOM      8  O   UNL     1      39.531  42.570  51.313  1.00  0.00    -0.550 OA
ENDBRANCH   5   6
ENDBRANCH   4   5
ENDBRANCH   3   4
ENDBRANCH   2   3
ENDBRANCH   1   2
BRANCH   1   9
ATOM      9  C   UNL     1      34.928  44.075  46.926  1.00  0.00     0.000 C 
BRANCH   9  10
ATOM     10  C   UNL     1      35.604  44.261  45.557  1.00  0.00    -0.000 C 
BRANCH  10  11
ATOM     11  C   UNL     1      34.649  44.843  44.500  1.00  0.00    -0.000 C 
BRANCH  11  12
ATOM     12  C   UNL     1      33.186  44.434  44.739  1.00  0.00    -0.000 C 
BRANCH  12  13
ATOM     13  C   UNL     1      32.419  44.195  43.430  1.00  0.00    -0.003 C 
ATOM     14  C   UNL     1      32.211  45.500  42.669  1.00  0.00     0.004 C 
ENDBRANCH  12  13
ENDBRANCH  11  12
ENDBRANCH  10  11
ENDBRANCH   9  10
ENDBRANCH   1   9
TORSDOF 10
ENDMDL
MODEL 5
REMARK VINA RESULT:    -4.954      2.796      6.078
REMARK INTER + INTRA:          -8.681
REMARK INTER:                  -7.715
REMARK INTRA:                  -0.966
REMARK UNBOUND:                -0.831
REMARK SMILES CCCCCCCCCCCC(=O)[O-]
REMARK SMILES IDX 7 1 8 2 9 3 10 4 11 5 12 6 13 7 14 8 6 9 5 10 4 11 3 12 2 13
REMARK SMILES IDX 1 14
REMARK H PARENT
REMARK Flexibility Score: inf
ROOT
ATOM      1  C   UNL     1      34.147  42.603  50.849  1.00  0.00     0.000 C 
ENDROOT
BRANCH   1   2
ATOM      2  C   UNL     1      33.083  42.975  49.809  1.00  0.00     0.000 C 
BRANCH   2   3
ATOM      3  C   UNL     1      33.575  42.681  48.386  1.00  0.00     0.000 C 
BRANCH   3   4
ATOM      4  C   UNL     1      33.698  43.972  47.568  1.00  0.00     0.006 C 
BRANCH   4   5
ATOM      5  C   UNL     1      35.140  44.484  47.563  1.00  0.00     0.053 C 
BRANCH   5   6
ATOM      6  C   UNL     1      35.916  43.853  46.450  1.00  0.00     0.041 C 
ATOM      7  O   UNL     1      35.754  44.242  45.264  1.00  0.00    -0.550 OA
ATOM      8  O   UNL     1      36.855  42.867  46.730  1.00  0.00    -0.550 OA
ENDBRANCH   5   6
ENDBRANCH   4   5
ENDBRANCH   3   4
ENDBRANCH   2   3
ENDBRANCH   1   2
BRANCH   1   9
ATOM      9  C   UNL     1      34.667  43.852  51.574  1.00  0.00     0.000 C 
BRANCH   9  10
ATOM     10  C   UNL     1      36.200  43.965  51.532  1.00  0.00    -0.000 C 
BRANCH  10  11
ATOM     11  C   UNL     1      36.834  43.019  50.498  1.00  0.00    -0.000 C 
BRANCH  11  12
ATOM     12  C   UNL     1      38.366  42.960  50.614  1.00  0.00    -0.000 C 
BRANCH  12  13
ATOM     13  C   UNL     1      38.903  41.521  50.612  1.00  0.00    -0.003 C 
ATOM     14  C   UNL     1      38.950  40.954  49.197  1.00  0.00     0.004 C 
ENDBRANCH  12  13
ENDBRANCH  11  12
ENDBRANCH  10  11
ENDBRANCH   9  10
ENDBRANCH   1   9
TORSDOF 10
ENDMDL
MODEL 6
REMARK VINA RESULT:    -4.950      1.958      3.222
REMARK INTER + INTRA:          -8.675
REMARK INTER:                  -7.411
REMARK INTRA:                  -1.263
REMARK UNBOUND:                -0.831
REMARK SMILES CCCCCCCCCCCC(=O)[O-]
REMARK SMILES IDX 7 1 8 2 9 3 10 4 11 5 12 6 13 7 14 8 6 9 5 10 4 11 3 12 2 13
REMARK SMILES IDX 1 14
REMARK H PARENT
REMARK Flexibility Score: inf
ROOT
ATOM      1  C   UNL     1      34.121  42.708  49.803  1.00  0.00     0.000 C 
ENDROOT
BRANCH   1   2
ATOM      2  C   UNL     1      34.562  44.066  50.361  1.00  0.00     0.000 C 
BRANCH   2   3
ATOM      3  C   UNL     1      36.029  44.030  50.807  1.00  0.00     0.000 C 
BRANCH   3   4
ATOM      4  C   UNL     1      36.689  42.701  50.422  1.00  0.00     0.006 C 
BRANCH   4   5
ATOM      5  C   UNL     1      38.206  42.858  50.293  1.00  0.00     0.053 C 
BRANCH   5   6
ATOM      6  C   UNL     1      38.882  41.526  50.392  1.00  0.00     0.041 C 
ATOM      7  O   UNL     1      39.148  41.033  51.518  1.00  0.00    -0.550 OA
ATOM      8  O   UNL     1      39.173  40.807  49.238  1.00  0.00    -0.550 OA
ENDBRANCH   5   6
ENDBRANCH   4   5
ENDBRANCH   3   4
ENDBRANCH   2   3
ENDBRANCH   1   2
BRANCH   1   9
ATOM      9  C   UNL     1      33.051  42.882  48.715  1.00  0.00     0.000 C 
BRANCH   9  10
ATOM     10  C   UNL     1      33.240  44.172  47.900  1.00  0.00    -0.000 C 
BRANCH  10  11
ATOM     11  C   UNL     1      33.354  43.904  46.389  1.00  0.00    -0.000 C 
BRANCH  11  12
ATOM     12  C   UNL     1      34.699  44.371  45.808  1.00  0.00    -0.000 C 
BRANCH  12  13
ATOM     13  C   UNL     1      35.874  44.117  46.763  1.00  0.00    -0.003 C 
ATOM     14  C   UNL     1      36.302  42.654  46.731  1.00  0.00     0.004 C 
ENDBRANCH  12  13
ENDBRANCH  11  12
ENDBRANCH  10  11
ENDBRANCH   9  10
ENDBRANCH   1   9
TORSDOF 10
ENDMDL
MODEL 7
REMARK VINA RESULT:    -4.886      2.902      6.320
REMARK INTER + INTRA:          -8.573
REMARK INTER:                  -7.642
REMARK INTRA:                  -0.930
REMARK UNBOUND:                -0.831
REMARK SMILES CCCCCCCCCCCC(=O)[O-]
REMARK SMILES IDX 7 1 8 2 9 3 10 4 11 5 12 6 13 7 14 8 6 9 5 10 4 11 3 12 2 13
REMARK SMILES IDX 1 14
REMARK H PARENT
REMARK Flexibility Score: inf
ROOT
ATOM      1  C   UNL     1      36.021  43.392  46.399  1.00  0.00     0.000 C 
ENDROOT
BRANCH   1   2
ATOM      2  C   UNL     1      35.064  44.561  46.141  1.00  0.00     0.000 C 
BRANCH   2   3
ATOM      3  C   UNL     1      34.493  44.503  44.719  1.00  0.00     0.000 C 
BRANCH   3   4
ATOM      4  C   UNL     1      32.961  44.442  44.741  1.00  0.00     0.006 C 
BRANCH   4   5
ATOM      5  C   UNL     1      32.444  44.130  46.148  1.00  0.00     0.053 C 
BRANCH   5   6
ATOM      6  C   UNL     1      31.776  42.792  46.176  1.00  0.00     0.041 C 
ATOM      7  O   UNL     1      32.334  41.816  46.741  1.00  0.00    -0.550 OA
ATOM      8  O   UNL     1      30.512  42.634  45.618  1.00  0.00    -0.550 OA
ENDBRANCH   5   6
ENDBRANCH   4   5
ENDBRANCH   3   4
ENDBRANCH   2   3
ENDBRANCH   1   2
BRANCH   1   9
ATOM      9  C   UNL     1      35.676  42.680  47.716  1.00  0.00     0.000 C 
BRANCH   9  10
ATOM     10  C   UNL     1      35.003  43.614  48.735  1.00  0.00    -0.000 C 
BRANCH  10  11
ATOM     11  C   UNL     1      35.872  43.850  49.984  1.00  0.00    -0.000 C 
BRANCH  11  12
ATOM     12  C   UNL     1      36.647  42.592  50.408  1.00  0.00    -0.000 C 
BRANCH  12  13
ATOM     13  C   UNL     1      38.164  42.827  50.470  1.00  0.00    -0.003 C 
ATOM     14  C   UNL     1      38.922  41.505  50.518  1.00  0.00     0.004 C 
ENDBRANCH  12  13
ENDBRANCH  11  12
ENDBRANCH  10  11
ENDBRANCH   9  10
ENDBRANCH   1   9
TORSDOF 10
ENDMDL
MODEL 8
REMARK VINA RESULT:    -4.875      3.501      6.282
REMARK INTER + INTRA:          -8.555
REMARK INTER:                  -7.359
REMARK INTRA:                  -1.196
REMARK UNBOUND:                -0.831
REMARK SMILES CCCCCCCCCCCC(=O)[O-]
REMARK SMILES IDX 7 1 8 2 9 3 10 4 11 5 12 6 13 7 14 8 6 9 5 10 4 11 3 12 2 13
REMARK SMILES IDX 1 14
REMARK H PARENT
REMARK Flexibility Score: inf
ROOT
ATOM      1  C   UNL     1      35.105  45.537  49.784  1.00  0.00     0.000 C 
ENDROOT
BRANCH   1   2
ATOM      2  C   UNL     1      34.321  44.921  48.619  1.00  0.00     0.000 C 
BRANCH   2   3
ATOM      3  C   UNL     1      35.262  44.491  47.487  1.00  0.00     0.000 C 
BRANCH   3   4
ATOM      4  C   UNL     1      35.048  43.017  47.122  1.00  0.00     0.006 C 
BRANCH   4   5
ATOM      5  C   UNL     1      33.840  42.438  47.862  1.00  0.00     0.053 C 
BRANCH   5   6
ATOM      6  C   UNL     1      32.766  42.055  46.892  1.00  0.00     0.041 C 
ATOM      7  O   UNL     1      32.420  40.851  46.774  1.00  0.00    -0.550 OA
ATOM      8  O   UNL     1      32.113  43.035  46.155  1.00  0.00    -0.550 OA
ENDBRANCH   5   6
ENDBRANCH   4   5
ENDBRANCH   3   4
ENDBRANCH   2   3
ENDBRANCH   1   2
BRANCH   1   9
ATOM      9  C   UNL     1      35.161  44.574  50.979  1.00  0.00     0.000 C 
BRANCH   9  10
ATOM     10  C   UNL     1      36.546  43.930  51.156  1.00  0.00    -0.000 C 
BRANCH  10  11
ATOM     11  C   UNL     1      36.666  42.578  50.431  1.00  0.00    -0.000 C 
BRANCH  11  12
ATOM     12  C   UNL     1      37.934  42.483  49.566  1.00  0.00    -0.000 C 
BRANCH  12  13
ATOM     13  C   UNL     1      38.796  41.262  49.917  1.00  0.00    -0.003 C 
ATOM     14  C   UNL     1      39.493  41.449  51.261  1.00  0.00     0.004 C 
ENDBRANCH  12  13
ENDBRANCH  11  12
ENDBRANCH  10  11
ENDBRANCH   9  10
ENDBRANCH   1   9
TORSDOF 10
ENDMDL
MODEL 9
REMARK VINA RESULT:    -4.854      3.824      6.214
REMARK INTER + INTRA:          -8.523
REMARK INTER:                  -7.380
REMARK INTRA:                  -1.143
REMARK UNBOUND:                -0.831
REMARK SMILES CCCCCCCCCCCC(=O)[O-]
REMARK SMILES IDX 7 1 8 2 9 3 10 4 11 5 12 6 13 7 14 8 6 9 5 10 4 11 3 12 2 13
REMARK SMILES IDX 1 14
REMARK H PARENT
REMARK Flexibility Score: inf
ROOT
ATOM      1  C   UNL     1      33.038  43.927  48.694  1.00  0.00     0.000 C 
ENDROOT
BRANCH   1   2
ATOM      2  C   UNL     1      32.152  44.498  47.580  1.00  0.00     0.000 C 
BRANCH   2   3
ATOM      3  C   UNL     1      32.306  43.690  46.285  1.00  0.00     0.000 C 
BRANCH   3   4
ATOM      4  C   UNL     1      31.794  44.483  45.076  1.00  0.00     0.006 C 
BRANCH   4   5
ATOM      5  C   UNL     1      32.545  44.089  43.802  1.00  0.00     0.053 C 
BRANCH   5   6
ATOM      6  C   UNL     1      32.698  45.271  42.897  1.00  0.00     0.041 C 
ATOM      7  O   UNL     1      33.703  46.021  43.000  1.00  0.00    -0.550 OA
ATOM      8  O   UNL     1      31.754  45.515  41.907  1.00  0.00    -0.550 OA
ENDBRANCH   5   6
ENDBRANCH   4   5
ENDBRANCH   3   4
ENDBRANCH   2   3
ENDBRANCH   1   2
BRANCH   1   9
ATOM      9  C   UNL     1      34.156  44.912  49.065  1.00  0.00     0.000 C 
BRANCH   9  10
ATOM     10  C   UNL     1      35.413  44.205  49.599  1.00  0.00    -0.000 C 
BRANCH  10  11
ATOM     11  C   UNL     1      35.570  42.779  49.042  1.00  0.00    -0.000 C 
BRANCH  11  12
ATOM     12  C   UNL     1      36.608  42.699  47.911  1.00  0.00    -0.000 C 
BRANCH  12  13
ATOM     13  C   UNL     1      35.966  42.739  46.516  1.00  0.00    -0.003 C 
ATOM     14  C   UNL     1      35.928  44.162  45.970  1.00  0.00     0.004 C 
ENDBRANCH  12  13
ENDBRANCH  11  12
ENDBRANCH  10  11
ENDBRANCH   9  10
ENDBRANCH   1   9
TORSDOF 10
ENDMDL
