MODEL 1
REMARK VINA RESULT:    -2.628      0.000      0.000
REMARK INTER + INTRA:          -3.487
REMARK INTER:                  -4.011
REMARK INTRA:                   0.524
REMARK UNBOUND:                 0.524
REMARK SMILES CC1=CCC[C@@H](C)C(=O)C[C@@H](C(C)C)C(=O)C1
REMARK SMILES IDX 8 1 9 2 6 3 7 4 5 5 4 6 3 7 2 8 1 9 10 11 11 12 15 13 16 14
REMARK SMILES IDX 17 15 12 17 13 18 14 19
REMARK H PARENT
REMARK Flexibility Score: 70.00
ROOT
ATOM      1  C   UNL     1      53.074  -0.226  21.494  1.00  0.00     0.136 C 
ATOM      2  O   UNL     1      52.963  -1.325  22.018  1.00  0.00    -0.299 OA
ENDROOT
BRANCH   1   3
ATOM      3  C   UNL     1      51.833   0.506  21.022  1.00  0.00     0.053 C 
ATOM      4  C   UNL     1      51.119  -0.341  19.963  1.00  0.00     0.016 C 
BRANCH   3   5
ATOM      5  C   UNL     1      52.158   1.908  20.452  1.00  0.00     0.015 C 
BRANCH   5   6
ATOM      6  C   UNL     1      52.048   3.048  21.479  1.00  0.00     0.028 C 
BRANCH   6   7
ATOM      7  C   UNL     1      51.826   2.516  22.876  1.00  0.00    -0.028 C 
ATOM      8  C   UNL     1      52.805   2.241  23.769  1.00  0.00    -0.070 CG0
ATOM      9  C   UNL     1      52.401   1.703  25.118  1.00  0.00     0.039 C 
ATOM     10  G   UNL     1      54.280   2.439  23.467  1.00  0.00     0.000 G0
ENDBRANCH   6   7
ENDBRANCH   5   6
ENDBRANCH   3   5
ENDBRANCH   1   3
BRANCH   1  11
ATOM     11  C   UNL     1      54.448   0.397  21.376  1.00  0.00     0.087 C 
BRANCH  11  12
ATOM     12  C   UNL     1      55.344   0.129  22.614  1.00  0.00     0.066 C 
BRANCH  12  13
ATOM     13  C   UNL     1      55.153   1.196  23.683  1.00  0.00     0.140 C 
ATOM     14  O   UNL     1      55.652   1.034  24.787  1.00  0.00    -0.299 OA
BRANCH  13  15
ATOM     15  C   UNL     1      54.305   2.429  23.456  1.00  0.00     0.106 CG0
ATOM     16  G   UNL     1      52.831   2.228  23.759  1.00  0.00     0.000 G0
ENDBRANCH  13  15
ENDBRANCH  12  13
BRANCH  12  17
ATOM     17  C   UNL     1      56.856  -0.046  22.273  1.00  0.00    -0.006 C 
ATOM     18  C   UNL     1      57.191   0.140  20.783  1.00  0.00     0.008 C 
ATOM     19  C   UNL     1      57.401  -1.394  22.768  1.00  0.00     0.008 C 
ENDBRANCH  12  17
ENDBRANCH  11  12
ENDBRANCH   1  11
TORSDOF 1
ENDMDL
MODEL 2
REMARK VINA RESULT:    -2.238      1.936      5.138
REMARK INTER + INTRA:          -2.891
REMARK INTER:                  -3.361
REMARK INTRA:                   0.471
REMARK UNBOUND:                 0.524
REMARK SMILES CC1=CCC[C@@H](C)C(=O)C[C@@H](C(C)C)C(=O)C1
REMARK SMILES IDX 8 1 9 2 6 3 7 4 5 5 4 6 3 7 2 8 1 9 10 11 11 12 15 13 16 14
REMARK SMILES IDX 17 15 12 17 13 18 14 19
REMARK H PARENT
REMARK Flexibility Score: 70.00
ROOT
ATOM      1  C   UNL     1      54.785   2.291  23.901  1.00  0.00     0.136 C 
ATOM      2  O   UNL     1      53.952   2.098  24.774  1.00  0.00    -0.299 OA
ENDROOT
BRANCH   1   3
ATOM      3  C   UNL     1      56.182   2.737  24.286  1.00  0.00     0.053 C 
ATOM      4  C   UNL     1      56.958   3.120  23.022  1.00  0.00     0.016 C 
BRANCH   3   5
ATOM      5  C   UNL     1      56.950   1.649  25.074  1.00  0.00     0.015 C 
BRANCH   5   6
ATOM      6  C   UNL     1      56.385   0.228  24.906  1.00  0.00     0.028 C 
BRANCH   6   7
ATOM      7  C   UNL     1      57.327  -0.653  24.119  1.00  0.00    -0.028 C 
ATOM      8  C   UNL     1      57.307  -0.812  22.776  1.00  0.00    -0.070 CG0
ATOM      9  C   UNL     1      58.318  -1.744  22.158  1.00  0.00     0.039 C 
ATOM     10  G   UNL     1      56.309  -0.106  21.875  1.00  0.00     0.000 G0
ENDBRANCH   6   7
ENDBRANCH   5   6
ENDBRANCH   3   5
ENDBRANCH   1   3
BRANCH   1  11
ATOM     11  C   UNL     1      54.412   2.031  22.458  1.00  0.00     0.087 C 
BRANCH  11  12
ATOM     12  C   UNL     1      53.787   0.629  22.235  1.00  0.00     0.066 C 
BRANCH  12  13
ATOM     13  C   UNL     1      54.859  -0.444  22.101  1.00  0.00     0.140 C 
ATOM     14  O   UNL     1      54.556  -1.617  22.264  1.00  0.00    -0.299 OA
BRANCH  13  15
ATOM     15  C   UNL     1      56.311  -0.112  21.839  1.00  0.00     0.106 CG0
ATOM     16  G   UNL     1      57.282  -0.812  22.773  1.00  0.00     0.000 G0
ENDBRANCH  13  15
ENDBRANCH  12  13
BRANCH  12  17
ATOM     17  C   UNL     1      52.789   0.564  21.039  1.00  0.00    -0.006 C 
ATOM     18  C   UNL     1      52.310   1.940  20.543  1.00  0.00     0.008 C 
ATOM     19  C   UNL     1      51.579  -0.331  21.351  1.00  0.00     0.008 C 
ENDBRANCH  12  17
ENDBRANCH  11  12
ENDBRANCH   1  11
TORSDOF 1
ENDMDL
MODEL 3
REMARK VINA RESULT:    -1.982      1.708      4.359
REMARK INTER + INTRA:          -2.501
REMARK INTER:                  -2.834
REMARK INTRA:                   0.334
REMARK UNBOUND:                 0.524
REMARK SMILES CC1=CCC[C@@H](C)C(=O)C[C@@H](C(C)C)C(=O)C1
REMARK SMILES IDX 8 1 9 2 6 3 7 4 5 5 4 6 3 7 2 8 1 9 10 11 11 12 15 13 16 14
REMARK SMILES IDX 17 15 12 17 13 18 14 19
REMARK H PARENT
REMARK Flexibility Score: 70.00
ROOT
ATOM      1  C   UNL     1      53.706  -0.151  21.652  1.00  0.00     0.136 C 
ATOM      2  O   UNL     1      53.623  -1.276  22.125  1.00  0.00    -0.299 OA
ENDROOT
BRANCH   1   3
ATOM      3  C   UNL     1      54.943   0.683  21.921  1.00  0.00     0.053 C 
ATOM      4  C   UNL     1      55.989  -0.178  22.638  1.00  0.00     0.016 C 
BRANCH   3   5
ATOM      5  C   UNL     1      54.630   1.947  22.759  1.00  0.00     0.015 C 
BRANCH   5   6
ATOM      6  C   UNL     1      54.043   1.654  24.150  1.00  0.00     0.028 C 
BRANCH   6   7
ATOM      7  C   UNL     1      52.810   2.485  24.417  1.00  0.00    -0.028 C 
ATOM      8  C   UNL     1      51.541   2.019  24.413  1.00  0.00    -0.070 CG0
ATOM      9  C   UNL     1      50.426   2.995  24.689  1.00  0.00     0.039 C 
ATOM     10  G   UNL     1      51.194   0.567  24.132  1.00  0.00     0.000 G0
ENDBRANCH   6   7
ENDBRANCH   5   6
ENDBRANCH   3   5
ENDBRANCH   1   3
BRANCH   1  11
ATOM     11  C   UNL     1      52.589   0.359  20.769  1.00  0.00     0.087 C 
BRANCH  11  12
ATOM     12  C   UNL     1      51.468   1.080  21.563  1.00  0.00     0.066 C 
BRANCH  12  13
ATOM     13  C   UNL     1      50.948   0.216  22.703  1.00  0.00     0.140 C 
ATOM     14  O   UNL     1      50.261  -0.763  22.448  1.00  0.00    -0.299 OA
BRANCH  13  15
ATOM     15  C   UNL     1      51.189   0.559  24.157  1.00  0.00     0.106 CG0
ATOM     16  G   UNL     1      51.530   2.020  24.397  1.00  0.00     0.000 G0
ENDBRANCH  13  15
ENDBRANCH  12  13
BRANCH  12  17
ATOM     17  C   UNL     1      50.292   1.589  20.675  1.00  0.00    -0.006 C 
ATOM     18  C   UNL     1      50.207   0.914  19.295  1.00  0.00     0.008 C 
ATOM     19  C   UNL     1      50.318   3.116  20.510  1.00  0.00     0.008 C 
ENDBRANCH  12  17
ENDBRANCH  11  12
ENDBRANCH   1  11
TORSDOF 1
ENDMDL
MODEL 4
REMARK VINA RESULT:    -1.887      1.974      3.648
REMARK INTER + INTRA:          -2.356
REMARK INTER:                  -2.591
REMARK INTRA:                   0.235
REMARK UNBOUND:                 0.524
REMARK SMILES CC1=CCC[C@@H](C)C(=O)C[C@@H](C(C)C)C(=O)C1
REMARK SMILES IDX 8 1 9 2 6 3 7 4 5 5 4 6 3 7 2 8 1 9 10 11 11 12 15 13 16 14
REMARK SMILES IDX 17 15 12 17 13 18 14 19
REMARK H PARENT
REMARK Flexibility Score: 70.00
ROOT
ATOM      1  C   UNL     1      52.070   1.514  23.849  1.00  0.00     0.136 C 
ATOM      2  O   UNL     1      51.342   0.531  23.851  1.00  0.00    -0.299 OA
ENDROOT
BRANCH   1   3
ATOM      3  C   UNL     1      51.454   2.899  23.831  1.00  0.00     0.053 C 
ATOM      4  C   UNL     1      50.653   3.113  25.120  1.00  0.00     0.016 C 
BRANCH   3   5
ATOM      5  C   UNL     1      50.547   3.123  22.597  1.00  0.00     0.015 C 
BRANCH   5   6
ATOM      6  C   UNL     1      51.209   2.775  21.254  1.00  0.00     0.028 C 
BRANCH   6   7
ATOM      7  C   UNL     1      50.670   1.481  20.689  1.00  0.00    -0.028 C 
ATOM      8  C   UNL     1      51.425   0.442  20.266  1.00  0.00    -0.070 CG0
ATOM      9  C   UNL     1      50.718  -0.771  19.718  1.00  0.00     0.039 C 
ATOM     10  G   UNL     1      52.944   0.452  20.308  1.00  0.00     0.000 G0
ENDBRANCH   6   7
ENDBRANCH   5   6
ENDBRANCH   3   5
ENDBRANCH   1   3
BRANCH   1  11
ATOM     11  C   UNL     1      53.569   1.319  23.915  1.00  0.00     0.087 C 
BRANCH  11  12
ATOM     12  C   UNL     1      54.230   1.217  22.515  1.00  0.00     0.066 C 
BRANCH  12  13
ATOM     13  C   UNL     1      53.556   0.156  21.656  1.00  0.00     0.140 C 
ATOM     14  O   UNL     1      53.538  -1.005  22.040  1.00  0.00    -0.299 OA
BRANCH  13  15
ATOM     15  C   UNL     1      52.960   0.468  20.300  1.00  0.00     0.106 CG0
ATOM     16  G   UNL     1      51.442   0.429  20.270  1.00  0.00     0.000 G0
ENDBRANCH  13  15
ENDBRANCH  12  13
BRANCH  12  17
ATOM     17  C   UNL     1      55.772   0.991  22.560  1.00  0.00    -0.006 C 
ATOM     18  C   UNL     1      56.237   0.030  23.668  1.00  0.00     0.008 C 
ATOM     19  C   UNL     1      56.541   2.318  22.662  1.00  0.00     0.008 C 
ENDBRANCH  12  17
ENDBRANCH  11  12
ENDBRANCH   1  11
TORSDOF 1
ENDMDL
MODEL 5
REMARK VINA RESULT:    -1.815      2.047      3.798
REMARK INTER + INTRA:          -2.245
REMARK INTER:                  -3.208
REMARK INTRA:                   0.963
REMARK UNBOUND:                 0.524
REMARK SMILES CC1=CCC[C@@H](C)C(=O)C[C@@H](C(C)C)C(=O)C1
REMARK SMILES IDX 8 1 9 2 6 3 7 4 5 5 4 6 3 7 2 8 1 9 10 11 11 12 15 13 16 14
REMARK SMILES IDX 17 15 12 17 13 18 14 19
REMARK H PARENT
REMARK Flexibility Score: 70.00
ROOT
ATOM      1  C   UNL     1      52.810   2.613  22.190  1.00  0.00     0.136 C 
ATOM      2  O   UNL     1      52.837   2.991  21.027  1.00  0.00    -0.299 OA
ENDROOT
BRANCH   1   3
ATOM      3  C   UNL     1      51.592   2.908  23.043  1.00  0.00     0.053 C 
ATOM      4  C   UNL     1      51.957   2.740  24.521  1.00  0.00     0.016 C 
BRANCH   3   5
ATOM      5  C   UNL     1      50.389   2.002  22.684  1.00  0.00     0.015 C 
BRANCH   5   6
ATOM      6  C   UNL     1      50.570   0.526  23.077  1.00  0.00     0.028 C 
BRANCH   6   7
ATOM      7  C   UNL     1      50.127  -0.400  21.969  1.00  0.00    -0.028 C 
ATOM      8  C   UNL     1      50.829  -0.657  20.841  1.00  0.00    -0.070 CG0
ATOM      9  C   UNL     1      50.228  -1.602  19.832  1.00  0.00     0.039 C 
ATOM     10  G   UNL     1      52.181  -0.030  20.548  1.00  0.00     0.000 G0
ENDBRANCH   6   7
ENDBRANCH   5   6
ENDBRANCH   3   5
ENDBRANCH   1   3
BRANCH   1  11
ATOM     11  C   UNL     1      53.975   1.815  22.731  1.00  0.00     0.087 C 
BRANCH  11  12
ATOM     12  C   UNL     1      54.415   0.666  21.787  1.00  0.00     0.066 C 
BRANCH  12  13
ATOM     13  C   UNL     1      53.278  -0.312  21.530  1.00  0.00     0.140 C 
ATOM     14  O   UNL     1      53.265  -1.385  22.117  1.00  0.00    -0.299 OA
BRANCH  13  15
ATOM     15  C   UNL     1      52.186  -0.040  20.518  1.00  0.00     0.106 CG0
ATOM     16  G   UNL     1      50.847  -0.662  20.873  1.00  0.00     0.000 G0
ENDBRANCH  13  15
ENDBRANCH  12  13
BRANCH  12  17
ATOM     17  C   UNL     1      55.695  -0.089  22.263  1.00  0.00    -0.006 C 
ATOM     18  C   UNL     1      56.199   0.341  23.651  1.00  0.00     0.008 C 
ATOM     19  C   UNL     1      56.834   0.013  21.237  1.00  0.00     0.008 C 
ENDBRANCH  12  17
ENDBRANCH  11  12
ENDBRANCH   1  11
TORSDOF 1
ENDMDL
MODEL 6
REMARK VINA RESULT:    -1.795      1.821      2.574
REMARK INTER + INTRA:          -2.215
REMARK INTER:                  -3.619
REMARK INTRA:                   1.405
REMARK UNBOUND:                 0.524
REMARK SMILES CC1=CCC[C@@H](C)C(=O)C[C@@H](C(C)C)C(=O)C1
REMARK SMILES IDX 8 1 9 2 6 3 7 4 5 5 4 6 3 7 2 8 1 9 10 11 11 12 15 13 16 14
REMARK SMILES IDX 17 15 12 17 13 18 14 19
REMARK H PARENT
REMARK Flexibility Score: 70.00
ROOT
ATOM      1  C   UNL     1      52.472   1.624  20.876  1.00  0.00     0.136 C 
ATOM      2  O   UNL     1      51.555   2.297  20.426  1.00  0.00    -0.299 OA
ENDROOT
BRANCH   1   3
ATOM      3  C   UNL     1      52.480   0.126  20.648  1.00  0.00     0.053 C 
ATOM      4  C   UNL     1      51.256  -0.267  19.815  1.00  0.00     0.016 C 
BRANCH   3   5
ATOM      5  C   UNL     1      52.499  -0.671  21.976  1.00  0.00     0.015 C 
BRANCH   5   6
ATOM      6  C   UNL     1      51.110  -0.893  22.599  1.00  0.00     0.028 C 
BRANCH   6   7
ATOM      7  C   UNL     1      50.445   0.417  22.952  1.00  0.00    -0.028 C 
ATOM      8  C   UNL     1      50.919   1.314  23.847  1.00  0.00    -0.070 CG0
ATOM      9  C   UNL     1      50.117   2.568  24.085  1.00  0.00     0.039 C 
ATOM     10  G   UNL     1      52.208   1.106  24.623  1.00  0.00     0.000 G0
ENDBRANCH   6   7
ENDBRANCH   5   6
ENDBRANCH   3   5
ENDBRANCH   1   3
BRANCH   1  11
ATOM     11  C   UNL     1      53.601   2.316  21.608  1.00  0.00     0.087 C 
BRANCH  11  12
ATOM     12  C   UNL     1      54.116   1.512  22.830  1.00  0.00     0.066 C 
BRANCH  12  13
ATOM     13  C   UNL     1      53.389   1.910  24.107  1.00  0.00     0.140 C 
ATOM     14  O   UNL     1      53.795   2.863  24.755  1.00  0.00    -0.299 OA
BRANCH  13  15
ATOM     15  C   UNL     1      52.214   1.126  24.649  1.00  0.00     0.106 CG0
ATOM     16  G   UNL     1      50.934   1.301  23.850  1.00  0.00     0.000 G0
ENDBRANCH  13  15
ENDBRANCH  12  13
BRANCH  12  17
ATOM     17  C   UNL     1      55.661   1.585  23.029  1.00  0.00    -0.006 C 
ATOM     18  C   UNL     1      56.291   2.916  22.582  1.00  0.00     0.008 C 
ATOM     19  C   UNL     1      56.382   0.410  22.351  1.00  0.00     0.008 C 
ENDBRANCH  12  17
ENDBRANCH  11  12
ENDBRANCH   1  11
TORSDOF 1
ENDMDL
MODEL 7
REMARK VINA RESULT:    -1.483      1.723      3.669
REMARK INTER + INTRA:          -1.739
REMARK INTER:                  -2.670
REMARK INTRA:                   0.931
REMARK UNBOUND:                 0.524
REMARK SMILES CC1=CCC[C@@H](C)C(=O)C[C@@H](C(C)C)C(=O)C1
REMARK SMILES IDX 8 1 9 2 6 3 7 4 5 5 4 6 3 7 2 8 1 9 10 11 11 12 15 13 16 14
REMARK SMILES IDX 17 15 12 17 13 18 14 19
REMARK H PARENT
REMARK Flexibility Score: 70.00
ROOT
ATOM      1  C   UNL     1      56.245   2.251  22.971  1.00  0.00     0.136 C 
ATOM      2  O   UNL     1      56.754   2.608  21.918  1.00  0.00    -0.299 OA
ENDROOT
BRANCH   1   3
ATOM      3  C   UNL     1      55.193   3.125  23.626  1.00  0.00     0.053 C 
ATOM      4  C   UNL     1      55.137   2.813  25.125  1.00  0.00     0.016 C 
BRANCH   3   5
ATOM      5  C   UNL     1      53.794   2.938  22.990  1.00  0.00     0.015 C 
BRANCH   5   6
ATOM      6  C   UNL     1      52.946   1.832  23.642  1.00  0.00     0.028 C 
BRANCH   6   7
ATOM      7  C   UNL     1      52.210   1.015  22.606  1.00  0.00    -0.028 C 
ATOM      8  C   UNL     1      52.787   0.381  21.560  1.00  0.00    -0.070 CG0
ATOM      9  C   UNL     1      51.895  -0.381  20.614  1.00  0.00     0.039 C 
ATOM     10  G   UNL     1      54.282   0.414  21.296  1.00  0.00     0.000 G0
ENDBRANCH   6   7
ENDBRANCH   5   6
ENDBRANCH   3   5
ENDBRANCH   1   3
BRANCH   1  11
ATOM     11  C   UNL     1      56.644   0.919  23.567  1.00  0.00     0.087 C 
BRANCH  11  12
ATOM     12  C   UNL     1      56.552  -0.251  22.554  1.00  0.00     0.066 C 
BRANCH  12  13
ATOM     13  C   UNL     1      55.109  -0.539  22.164  1.00  0.00     0.140 C 
ATOM     14  O   UNL     1      54.594  -1.594  22.504  1.00  0.00    -0.299 OA
BRANCH  13  15
ATOM     15  C   UNL     1      54.297   0.406  21.304  1.00  0.00     0.106 CG0
ATOM     16  G   UNL     1      52.806   0.374  21.592  1.00  0.00     0.000 G0
ENDBRANCH  13  15
ENDBRANCH  12  13
BRANCH  12  17
ATOM     17  C   UNL     1      57.265  -1.555  23.028  1.00  0.00    -0.006 C 
ATOM     18  C   UNL     1      57.846  -1.474  24.450  1.00  0.00     0.008 C 
ATOM     19  C   UNL     1      58.355  -2.001  22.041  1.00  0.00     0.008 C 
ENDBRANCH  12  17
ENDBRANCH  11  12
ENDBRANCH   1  11
TORSDOF 1
ENDMDL
MODEL 8
REMARK VINA RESULT:    -1.452      1.762      4.080
REMARK INTER + INTRA:          -1.692
REMARK INTER:                  -3.452
REMARK INTRA:                   1.760
REMARK UNBOUND:                 0.524
REMARK SMILES CC1=CCC[C@@H](C)C(=O)C[C@@H](C(C)C)C(=O)C1
REMARK SMILES IDX 8 1 9 2 6 3 7 4 5 5 4 6 3 7 2 8 1 9 10 11 11 12 15 13 16 14
REMARK SMILES IDX 17 15 12 17 13 18 14 19
REMARK H PARENT
REMARK Flexibility Score: 70.00
ROOT
ATOM      1  C   UNL     1      55.626   0.323  22.125  1.00  0.00     0.136 C 
ATOM      2  O   UNL     1      56.081   0.044  21.025  1.00  0.00    -0.299 OA
ENDROOT
BRANCH   1   3
ATOM      3  C   UNL     1      56.533   0.934  23.175  1.00  0.00     0.053 C 
ATOM      4  C   UNL     1      56.462   0.096  24.455  1.00  0.00     0.016 C 
BRANCH   3   5
ATOM      5  C   UNL     1      56.167   2.407  23.481  1.00  0.00     0.015 C 
BRANCH   5   6
ATOM      6  C   UNL     1      55.638   2.644  24.906  1.00  0.00     0.028 C 
BRANCH   6   7
ATOM      7  C   UNL     1      54.130   2.563  24.957  1.00  0.00    -0.028 C 
ATOM      8  C   UNL     1      53.306   2.718  23.896  1.00  0.00    -0.070 CG0
ATOM      9  C   UNL     1      51.820   2.617  24.132  1.00  0.00     0.039 C 
ATOM     10  G   UNL     1      53.810   2.997  22.491  1.00  0.00     0.000 G0
ENDBRANCH   6   7
ENDBRANCH   5   6
ENDBRANCH   3   5
ENDBRANCH   1   3
BRANCH   1  11
ATOM     11  C   UNL     1      54.154   0.094  22.392  1.00  0.00     0.087 C 
BRANCH  11  12
ATOM     12  C   UNL     1      53.239   0.671  21.280  1.00  0.00     0.066 C 
BRANCH  12  13
ATOM     13  C   UNL     1      53.068   2.177  21.424  1.00  0.00     0.140 C 
ATOM     14  O   UNL     1      52.366   2.780  20.624  1.00  0.00    -0.299 OA
BRANCH  13  15
ATOM     15  C   UNL     1      53.792   2.978  22.484  1.00  0.00     0.106 CG0
ATOM     16  G   UNL     1      53.306   2.711  23.897  1.00  0.00     0.000 G0
ENDBRANCH  13  15
ENDBRANCH  12  13
BRANCH  12  17
ATOM     17  C   UNL     1      51.852  -0.034  21.175  1.00  0.00    -0.006 C 
ATOM     18  C   UNL     1      51.735  -1.322  22.008  1.00  0.00     0.008 C 
ATOM     19  C   UNL     1      51.463  -0.317  19.715  1.00  0.00     0.008 C 
ENDBRANCH  12  17
ENDBRANCH  11  12
ENDBRANCH   1  11
TORSDOF 1
ENDMDL
MODEL 9
REMARK VINA RESULT:    -1.294      2.003      5.056
REMARK INTER + INTRA:          -1.451
REMARK INTER:                  -1.881
REMARK INTRA:                   0.430
REMARK UNBOUND:                 0.524
REMARK SMILES CC1=CCC[C@@H](C)C(=O)C[C@@H](C(C)C)C(=O)C1
REMARK SMILES IDX 8 1 9 2 6 3 7 4 5 5 4 6 3 7 2 8 1 9 10 11 11 12 15 13 16 14
REMARK SMILES IDX 17 15 12 17 13 18 14 19
REMARK H PARENT
REMARK Flexibility Score: 70.00
ROOT
ATOM      1  C   UNL     1      54.859   2.421  23.927  1.00  0.00     0.136 C 
ATOM      2  O   UNL     1      55.174   3.024  24.943  1.00  0.00    -0.299 OA
ENDROOT
BRANCH   1   3
ATOM      3  C   UNL     1      55.320   0.990  23.734  1.00  0.00     0.053 C 
ATOM      4  C   UNL     1      56.215   0.583  24.910  1.00  0.00     0.016 C 
BRANCH   3   5
ATOM      5  C   UNL     1      56.075   0.790  22.397  1.00  0.00     0.015 C 
BRANCH   5   6
ATOM      6  C   UNL     1      55.419  -0.226  21.447  1.00  0.00     0.028 C 
BRANCH   6   7
ATOM      7  C   UNL     1      54.161  -0.812  22.045  1.00  0.00    -0.028 C 
ATOM      8  C   UNL     1      52.900  -0.468  21.697  1.00  0.00    -0.070 CG0
ATOM      9  C   UNL     1      51.758  -1.148  22.408  1.00  0.00     0.039 C 
ATOM     10  G   UNL     1      52.590   0.573  20.636  1.00  0.00     0.000 G0
ENDBRANCH   6   7
ENDBRANCH   5   6
ENDBRANCH   3   5
ENDBRANCH   1   3
BRANCH   1  11
ATOM     11  C   UNL     1      53.974   3.107  22.909  1.00  0.00     0.087 C 
BRANCH  11  12
ATOM     12  C   UNL     1      52.658   2.335  22.631  1.00  0.00     0.066 C 
BRANCH  12  13
ATOM     13  C   UNL     1      52.508   2.002  21.153  1.00  0.00     0.140 C 
ATOM     14  O   UNL     1      52.255   2.897  20.360  1.00  0.00    -0.299 OA
BRANCH  13  15
ATOM     15  C   UNL     1      52.592   0.585  20.628  1.00  0.00     0.106 CG0
ATOM     16  G   UNL     1      52.904  -0.450  21.695  1.00  0.00     0.000 G0
ENDBRANCH  13  15
ENDBRANCH  12  13
BRANCH  12  17
ATOM     17  C   UNL     1      51.380   3.050  23.167  1.00  0.00    -0.006 C 
ATOM     18  C   UNL     1      51.209   2.973  24.694  1.00  0.00     0.008 C 
ATOM     19  C   UNL     1      50.107   2.545  22.471  1.00  0.00     0.008 C 
ENDBRANCH  12  17
ENDBRANCH  11  12
ENDBRANCH   1  11
TORSDOF 1
ENDMDL
