MODEL 1
REMARK VINA RESULT:    -4.246      0.000      0.000
REMARK INTER + INTRA:         -12.414
REMARK INTER:                  -9.708
REMARK INTRA:                  -2.706
REMARK UNBOUND:                -2.706
REMARK SMILES CCCCCCCCCCCCCCCCCCCCCCCC(=O)[O-]
REMARK SMILES IDX 13 1 14 2 15 3 16 4 17 5 18 6 19 7 20 8 21 9 22 10 23 11
REMARK SMILES IDX 24 12 25 13 26 14 12 15 11 16 10 17 9 18 8 19 7 20 6 21 5 22
REMARK SMILES IDX 4 23 3 24 2 25 1 26
REMARK H PARENT
REMARK Flexibility Score: inf
ROOT
ATOM      1  C   UNL     1      -3.236 -10.612   7.155  1.00  0.00     0.000 C 
ENDROOT
BRANCH   1   2
ATOM      2  C   UNL     1      -2.953 -11.885   7.968  1.00  0.00     0.000 C 
BRANCH   2   3
ATOM      3  C   UNL     1      -4.220 -12.711   8.231  1.00  0.00     0.000 C 
BRANCH   3   4
ATOM      4  C   UNL     1      -5.439 -12.079   7.549  1.00  0.00     0.000 C 
BRANCH   4   5
ATOM      5  C   UNL     1      -6.551 -11.787   8.568  1.00  0.00     0.000 C 
BRANCH   5   6
ATOM      6  C   UNL     1      -7.950 -11.785   7.928  1.00  0.00     0.000 C 
BRANCH   6   7
ATOM      7  C   UNL     1      -7.892 -11.584   6.404  1.00  0.00     0.000 C 
BRANCH   7   8
ATOM      8  C   UNL     1      -9.071 -10.755   5.863  1.00  0.00     0.000 C 
BRANCH   8   9
ATOM      9  C   UNL     1      -8.871 -10.181   4.450  1.00  0.00     0.000 C 
BRANCH   9  10
ATOM     10  C   UNL     1      -9.957 -10.627   3.459  1.00  0.00     0.006 C 
BRANCH  10  11
ATOM     11  C   UNL     1      -9.352 -10.959   2.092  1.00  0.00     0.053 C 
BRANCH  11  12
ATOM     12  C   UNL     1     -10.278 -11.824   1.296  1.00  0.00     0.041 C 
ATOM     13  O   UNL     1     -11.477 -11.478   1.121  1.00  0.00    -0.550 OA
ATOM     14  O   UNL     1      -9.819 -13.016   0.748  1.00  0.00    -0.550 OA
ENDBRANCH  11  12
ENDBRANCH  10  11
ENDBRANCH   9  10
ENDBRANCH   8   9
ENDBRANCH   7   8
ENDBRANCH   6   7
ENDBRANCH   5   6
ENDBRANCH   4   5
ENDBRANCH   3   4
ENDBRANCH   2   3
ENDBRANCH   1   2
BRANCH   1  15
ATOM     15  C   UNL     1      -2.888  -9.328   7.931  1.00  0.00     0.000 C 
BRANCH  15  16
ATOM     16  C   UNL     1      -2.501  -8.164   7.003  1.00  0.00     0.000 C 
BRANCH  16  17
ATOM     17  C   UNL     1      -1.141  -8.381   6.322  1.00  0.00     0.000 C 
BRANCH  17  18
ATOM     18  C   UNL     1       0.020  -8.443   7.327  1.00  0.00    -0.000 C 
BRANCH  18  19
ATOM     19  C   UNL     1       0.974  -9.622   7.060  1.00  0.00    -0.000 C 
BRANCH  19  20
ATOM     20  C   UNL     1       0.593 -10.875   7.876  1.00  0.00    -0.000 C 
BRANCH  20  21
ATOM     21  C   UNL     1       0.715 -12.187   7.082  1.00  0.00    -0.000 C 
BRANCH  21  22
ATOM     22  C   UNL     1      -0.091 -12.169   5.777  1.00  0.00    -0.000 C 
BRANCH  22  23
ATOM     23  C   UNL     1      -0.248 -13.588   5.208  1.00  0.00    -0.000 C 
BRANCH  23  24
ATOM     24  C   UNL     1      -1.340 -13.683   4.126  1.00  0.00    -0.000 C 
BRANCH  24  25
ATOM     25  C   UNL     1      -2.773 -13.425   4.624  1.00  0.00    -0.003 C 
ATOM     26  C   UNL     1      -3.453 -14.680   5.172  1.00  0.00     0.004 C 
ENDBRANCH  24  25
ENDBRANCH  23  24
ENDBRANCH  22  23
ENDBRANCH  21  22
ENDBRANCH  20  21
ENDBRANCH  19  20
ENDBRANCH  18  19
ENDBRANCH  17  18
ENDBRANCH  16  17
ENDBRANCH  15  16
ENDBRANCH   1  15
TORSDOF 22
ENDMDL
MODEL 2
REMARK VINA RESULT:    -4.142      1.874      3.424
REMARK INTER + INTRA:         -12.176
REMARK INTER:                  -8.784
REMARK INTRA:                  -3.392
REMARK UNBOUND:                -2.706
REMARK SMILES CCCCCCCCCCCCCCCCCCCCCCCC(=O)[O-]
REMARK SMILES IDX 13 1 14 2 15 3 16 4 17 5 18 6 19 7 20 8 21 9 22 10 23 11
REMARK SMILES IDX 24 12 25 13 26 14 12 15 11 16 10 17 9 18 8 19 7 20 6 21 5 22
REMARK SMILES IDX 4 23 3 24 2 25 1 26
REMARK H PARENT
REMARK Flexibility Score: inf
ROOT
ATOM      1  C   UNL     1      -1.545  -8.349   6.747  1.00  0.00     0.000 C 
ENDROOT
BRANCH   1   2
ATOM      2  C   UNL     1      -2.755  -9.274   6.954  1.00  0.00     0.000 C 
BRANCH   2   3
ATOM      3  C   UNL     1      -2.527 -10.680   6.383  1.00  0.00     0.000 C 
BRANCH   3   4
ATOM      4  C   UNL     1      -3.370 -11.720   7.132  1.00  0.00     0.000 C 
BRANCH   4   5
ATOM      5  C   UNL     1      -3.497 -13.016   6.317  1.00  0.00     0.000 C 
BRANCH   5   6
ATOM      6  C   UNL     1      -4.923 -13.239   5.785  1.00  0.00     0.000 C 
BRANCH   6   7
ATOM      7  C   UNL     1      -5.996 -12.803   6.797  1.00  0.00     0.000 C 
BRANCH   7   8
ATOM      8  C   UNL     1      -6.992 -11.784   6.215  1.00  0.00     0.000 C 
BRANCH   8   9
ATOM      9  C   UNL     1      -8.198 -11.462   7.114  1.00  0.00     0.000 C 
BRANCH   9  10
ATOM     10  C   UNL     1      -9.361 -10.808   6.352  1.00  0.00     0.006 C 
BRANCH  10  11
ATOM     11  C   UNL     1      -9.441 -11.333   4.916  1.00  0.00     0.053 C 
BRANCH  11  12
ATOM     12  C   UNL     1      -9.682 -10.213   3.953  1.00  0.00     0.041 C 
ATOM     13  O   UNL     1     -10.299  -9.178   4.324  1.00  0.00    -0.550 OA
ATOM     14  O   UNL     1      -9.228 -10.310   2.643  1.00  0.00    -0.550 OA
ENDBRANCH  11  12
ENDBRANCH  10  11
ENDBRANCH   9  10
ENDBRANCH   8   9
ENDBRANCH   7   8
ENDBRANCH   6   7
ENDBRANCH   5   6
ENDBRANCH   4   5
ENDBRANCH   3   4
ENDBRANCH   2   3
ENDBRANCH   1   2
BRANCH   1  15
ATOM     15  C   UNL     1      -0.253  -9.129   6.440  1.00  0.00     0.000 C 
BRANCH  15  16
ATOM     16  C   UNL     1       0.884  -8.798   7.420  1.00  0.00     0.000 C 
BRANCH  16  17
ATOM     17  C   UNL     1       0.393  -8.669   8.871  1.00  0.00     0.000 C 
BRANCH  17  18
ATOM     18  C   UNL     1       0.502  -9.989   9.650  1.00  0.00    -0.000 C 
BRANCH  18  19
ATOM     19  C   UNL     1      -0.859 -10.685   9.834  1.00  0.00    -0.000 C 
BRANCH  19  20
ATOM     20  C   UNL     1      -0.758 -12.215   9.660  1.00  0.00    -0.000 C 
BRANCH  20  21
ATOM     21  C   UNL     1       0.449 -12.659   8.815  1.00  0.00    -0.000 C 
BRANCH  21  22
ATOM     22  C   UNL     1       0.047 -13.183   7.431  1.00  0.00    -0.000 C 
BRANCH  22  23
ATOM     23  C   UNL     1       0.951 -12.597   6.336  1.00  0.00    -0.000 C 
BRANCH  23  24
ATOM     24  C   UNL     1       2.430 -12.518   6.759  1.00  0.00    -0.000 C 
BRANCH  24  25
ATOM     25  C   UNL     1       3.306 -13.692   6.285  1.00  0.00    -0.003 C 
ATOM     26  C   UNL     1       2.612 -14.577   5.250  1.00  0.00     0.004 C 
ENDBRANCH  24  25
ENDBRANCH  23  24
ENDBRANCH  22  23
ENDBRANCH  21  22
ENDBRANCH  20  21
ENDBRANCH  19  20
ENDBRANCH  18  19
ENDBRANCH  17  18
ENDBRANCH  16  17
ENDBRANCH  15  16
ENDBRANCH   1  15
TORSDOF 22
ENDMDL
MODEL 3
REMARK VINA RESULT:    -4.139      1.150      1.853
REMARK INTER + INTRA:         -12.169
REMARK INTER:                  -8.785
REMARK INTRA:                  -3.384
REMARK UNBOUND:                -2.706
REMARK SMILES CCCCCCCCCCCCCCCCCCCCCCCC(=O)[O-]
REMARK SMILES IDX 13 1 14 2 15 3 16 4 17 5 18 6 19 7 20 8 21 9 22 10 23 11
REMARK SMILES IDX 24 12 25 13 26 14 12 15 11 16 10 17 9 18 8 19 7 20 6 21 5 22
REMARK SMILES IDX 4 23 3 24 2 25 1 26
REMARK H PARENT
REMARK Flexibility Score: inf
ROOT
ATOM      1  C   UNL     1      -2.773  -9.576   7.059  1.00  0.00     0.000 C 
ENDROOT
BRANCH   1   2
ATOM      2  C   UNL     1      -3.129 -10.011   8.489  1.00  0.00     0.000 C 
BRANCH   2   3
ATOM      3  C   UNL     1      -3.858 -11.361   8.531  1.00  0.00     0.000 C 
BRANCH   3   4
ATOM      4  C   UNL     1      -3.880 -12.017   7.145  1.00  0.00     0.000 C 
BRANCH   4   5
ATOM      5  C   UNL     1      -5.316 -12.135   6.613  1.00  0.00     0.000 C 
BRANCH   5   6
ATOM      6  C   UNL     1      -6.318 -12.535   7.709  1.00  0.00     0.000 C 
BRANCH   6   7
ATOM      7  C   UNL     1      -7.664 -11.804   7.562  1.00  0.00     0.000 C 
BRANCH   7   8
ATOM      8  C   UNL     1      -8.134 -11.700   6.100  1.00  0.00     0.000 C 
BRANCH   8   9
ATOM      9  C   UNL     1      -9.184 -10.609   5.828  1.00  0.00     0.000 C 
BRANCH   9  10
ATOM     10  C   UNL     1      -9.110 -10.044   4.401  1.00  0.00     0.006 C 
BRANCH  10  11
ATOM     11  C   UNL     1     -10.401 -10.332   3.628  1.00  0.00     0.053 C 
BRANCH  11  12
ATOM     12  C   UNL     1     -10.206 -11.465   2.671  1.00  0.00     0.041 C 
ATOM     13  O   UNL     1     -10.665 -12.608   2.938  1.00  0.00    -0.550 OA
ATOM     14  O   UNL     1      -9.514 -11.262   1.482  1.00  0.00    -0.550 OA
ENDBRANCH  11  12
ENDBRANCH  10  11
ENDBRANCH   9  10
ENDBRANCH   8   9
ENDBRANCH   7   8
ENDBRANCH   6   7
ENDBRANCH   5   6
ENDBRANCH   4   5
ENDBRANCH   3   4
ENDBRANCH   2   3
ENDBRANCH   1   2
BRANCH   1  15
ATOM     15  C   UNL     1      -1.827  -8.362   7.030  1.00  0.00     0.000 C 
BRANCH  15  16
ATOM     16  C   UNL     1      -0.507  -8.660   6.301  1.00  0.00     0.000 C 
BRANCH  16  17
ATOM     17  C   UNL     1       0.697  -8.707   7.256  1.00  0.00     0.000 C 
BRANCH  17  18
ATOM     18  C   UNL     1       0.290  -8.534   8.728  1.00  0.00    -0.000 C 
BRANCH  18  19
ATOM     19  C   UNL     1       0.564  -9.791   9.573  1.00  0.00    -0.000 C 
BRANCH  19  20
ATOM     20  C   UNL     1       0.859 -11.027   8.698  1.00  0.00    -0.000 C 
BRANCH  20  21
ATOM     21  C   UNL     1      -0.106 -12.200   8.945  1.00  0.00    -0.000 C 
BRANCH  21  22
ATOM     22  C   UNL     1      -0.481 -12.945   7.658  1.00  0.00    -0.000 C 
BRANCH  22  23
ATOM     23  C   UNL     1       0.287 -12.381   6.453  1.00  0.00    -0.000 C 
BRANCH  23  24
ATOM     24  C   UNL     1      -0.619 -12.114   5.236  1.00  0.00    -0.000 C 
BRANCH  24  25
ATOM     25  C   UNL     1      -1.450 -13.321   4.767  1.00  0.00    -0.003 C 
ATOM     26  C   UNL     1      -0.640 -14.322   3.944  1.00  0.00     0.004 C 
ENDBRANCH  24  25
ENDBRANCH  23  24
ENDBRANCH  22  23
ENDBRANCH  21  22
ENDBRANCH  20  21
ENDBRANCH  19  20
ENDBRANCH  18  19
ENDBRANCH  17  18
ENDBRANCH  16  17
ENDBRANCH  15  16
ENDBRANCH   1  15
TORSDOF 22
ENDMDL
MODEL 4
REMARK VINA RESULT:    -4.125      5.109      8.645
REMARK INTER + INTRA:         -12.136
REMARK INTER:                  -7.903
REMARK INTRA:                  -4.233
REMARK UNBOUND:                -2.706
REMARK SMILES CCCCCCCCCCCCCCCCCCCCCCCC(=O)[O-]
REMARK SMILES IDX 13 1 14 2 15 3 16 4 17 5 18 6 19 7 20 8 21 9 22 10 23 11
REMARK SMILES IDX 24 12 25 13 26 14 12 15 11 16 10 17 9 18 8 19 7 20 6 21 5 22
REMARK SMILES IDX 4 23 3 24 2 25 1 26
REMARK H PARENT
REMARK Flexibility Score: inf
ROOT
ATOM      1  C   UNL     1      -1.514  -8.028   6.222  1.00  0.00     0.000 C 
ENDROOT
BRANCH   1   2
ATOM      2  C   UNL     1      -0.337  -8.935   6.617  1.00  0.00     0.000 C 
BRANCH   2   3
ATOM      3  C   UNL     1       0.319  -8.509   7.938  1.00  0.00     0.000 C 
BRANCH   3   4
ATOM      4  C   UNL     1       0.528  -9.714   8.862  1.00  0.00     0.000 C 
BRANCH   4   5
ATOM      5  C   UNL     1       0.851 -10.979   8.053  1.00  0.00     0.000 C 
BRANCH   5   6
ATOM      6  C   UNL     1       0.511 -12.270   8.818  1.00  0.00     0.000 C 
BRANCH   6   7
ATOM      7  C   UNL     1       0.157 -13.431   7.873  1.00  0.00     0.000 C 
BRANCH   7   8
ATOM      8  C   UNL     1       0.091 -13.004   6.396  1.00  0.00     0.000 C 
BRANCH   8   9
ATOM      9  C   UNL     1       1.149 -13.647   5.482  1.00  0.00     0.000 C 
BRANCH   9  10
ATOM     10  C   UNL     1       2.188 -14.474   6.254  1.00  0.00     0.006 C 
BRANCH  10  11
ATOM     11  C   UNL     1       3.608 -13.976   5.970  1.00  0.00     0.053 C 
BRANCH  11  12
ATOM     12  C   UNL     1       3.995 -12.896   6.932  1.00  0.00     0.041 C 
ATOM     13  O   UNL     1       4.510 -11.826   6.511  1.00  0.00    -0.550 OA
ATOM     14  O   UNL     1       3.789 -13.071   8.295  1.00  0.00    -0.550 OA
ENDBRANCH  11  12
ENDBRANCH  10  11
ENDBRANCH   9  10
ENDBRANCH   8   9
ENDBRANCH   7   8
ENDBRANCH   6   7
ENDBRANCH   5   6
ENDBRANCH   4   5
ENDBRANCH   3   4
ENDBRANCH   2   3
ENDBRANCH   1   2
BRANCH   1  15
ATOM     15  C   UNL     1      -2.872  -8.596   6.673  1.00  0.00     0.000 C 
BRANCH  15  16
ATOM     16  C   UNL     1      -2.803 -10.093   7.014  1.00  0.00     0.000 C 
BRANCH  16  17
ATOM     17  C   UNL     1      -3.265 -10.393   8.449  1.00  0.00     0.000 C 
BRANCH  17  18
ATOM     18  C   UNL     1      -3.106 -11.874   8.824  1.00  0.00    -0.000 C 
BRANCH  18  19
ATOM     19  C   UNL     1      -4.214 -12.371   9.771  1.00  0.00    -0.000 C 
BRANCH  19  20
ATOM     20  C   UNL     1      -5.541 -11.613   9.561  1.00  0.00    -0.000 C 
BRANCH  20  21
ATOM     21  C   UNL     1      -6.669 -12.494   8.997  1.00  0.00    -0.000 C 
BRANCH  21  22
ATOM     22  C   UNL     1      -7.265 -11.939   7.697  1.00  0.00    -0.000 C 
BRANCH  22  23
ATOM     23  C   UNL     1      -6.187 -11.801   6.613  1.00  0.00    -0.000 C 
BRANCH  23  24
ATOM     24  C   UNL     1      -5.693 -13.159   6.080  1.00  0.00    -0.000 C 
BRANCH  24  25
ATOM     25  C   UNL     1      -4.273 -13.149   5.489  1.00  0.00    -0.003 C 
ATOM     26  C   UNL     1      -3.394 -14.282   6.019  1.00  0.00     0.004 C 
ENDBRANCH  24  25
ENDBRANCH  23  24
ENDBRANCH  22  23
ENDBRANCH  21  22
ENDBRANCH  20  21
ENDBRANCH  19  20
ENDBRANCH  18  19
ENDBRANCH  17  18
ENDBRANCH  16  17
ENDBRANCH  15  16
ENDBRANCH   1  15
TORSDOF 22
ENDMDL
MODEL 5
REMARK VINA RESULT:    -4.124      1.283      2.285
REMARK INTER + INTRA:         -12.135
REMARK INTER:                  -9.298
REMARK INTRA:                  -2.837
REMARK UNBOUND:                -2.706
REMARK SMILES CCCCCCCCCCCCCCCCCCCCCCCC(=O)[O-]
REMARK SMILES IDX 13 1 14 2 15 3 16 4 17 5 18 6 19 7 20 8 21 9 22 10 23 11
REMARK SMILES IDX 24 12 25 13 26 14 12 15 11 16 10 17 9 18 8 19 7 20 6 21 5 22
REMARK SMILES IDX 4 23 3 24 2 25 1 26
REMARK H PARENT
REMARK Flexibility Score: inf
ROOT
ATOM      1  C   UNL     1      -3.162 -10.207   6.921  1.00  0.00     0.000 C 
ENDROOT
BRANCH   1   2
ATOM      2  C   UNL     1      -3.710 -10.751   8.251  1.00  0.00     0.000 C 
BRANCH   2   3
ATOM      3  C   UNL     1      -4.538 -12.030   8.067  1.00  0.00     0.000 C 
BRANCH   3   4
ATOM      4  C   UNL     1      -4.639 -12.413   6.586  1.00  0.00     0.000 C 
BRANCH   4   5
ATOM      5  C   UNL     1      -6.103 -12.445   6.123  1.00  0.00     0.000 C 
BRANCH   5   6
ATOM      6  C   UNL     1      -7.091 -12.508   7.301  1.00  0.00     0.000 C 
BRANCH   6   7
ATOM      7  C   UNL     1      -8.419 -11.798   6.986  1.00  0.00     0.000 C 
BRANCH   7   8
ATOM      8  C   UNL     1      -8.297 -10.778   5.840  1.00  0.00     0.000 C 
BRANCH   8   9
ATOM      9  C   UNL     1      -9.616 -10.100   5.427  1.00  0.00     0.000 C 
BRANCH   9  10
ATOM     10  C   UNL     1      -9.696  -9.807   3.920  1.00  0.00     0.006 C 
BRANCH  10  11
ATOM     11  C   UNL     1      -9.335 -11.048   3.099  1.00  0.00     0.053 C 
BRANCH  11  12
ATOM     12  C   UNL     1     -10.452 -11.417   2.173  1.00  0.00     0.041 C 
ATOM     13  O   UNL     1     -10.201 -11.893   1.034  1.00  0.00    -0.550 OA
ATOM     14  O   UNL     1     -11.772 -11.234   2.568  1.00  0.00    -0.550 OA
ENDBRANCH  11  12
ENDBRANCH  10  11
ENDBRANCH   9  10
ENDBRANCH   8   9
ENDBRANCH   7   8
ENDBRANCH   6   7
ENDBRANCH   5   6
ENDBRANCH   4   5
ENDBRANCH   3   4
ENDBRANCH   2   3
ENDBRANCH   1   2
BRANCH   1  15
ATOM     15  C   UNL     1      -2.852  -8.700   6.984  1.00  0.00     0.000 C 
BRANCH  15  16
ATOM     16  C   UNL     1      -1.448  -8.364   6.458  1.00  0.00     0.000 C 
BRANCH  16  17
ATOM     17  C   UNL     1      -0.379  -8.403   7.563  1.00  0.00     0.000 C 
BRANCH  17  18
ATOM     18  C   UNL     1       1.013  -8.767   7.025  1.00  0.00    -0.000 C 
BRANCH  18  19
ATOM     19  C   UNL     1       1.255 -10.288   6.981  1.00  0.00    -0.000 C 
BRANCH  19  20
ATOM     20  C   UNL     1       0.409 -11.042   8.028  1.00  0.00    -0.000 C 
BRANCH  20  21
ATOM     21  C   UNL     1      -0.232 -12.331   7.486  1.00  0.00    -0.000 C 
BRANCH  21  22
ATOM     22  C   UNL     1      -0.415 -12.312   5.963  1.00  0.00    -0.000 C 
BRANCH  22  23
ATOM     23  C   UNL     1       0.199 -13.564   5.319  1.00  0.00    -0.000 C 
BRANCH  23  24
ATOM     24  C   UNL     1       1.295 -14.209   6.187  1.00  0.00    -0.000 C 
BRANCH  24  25
ATOM     25  C   UNL     1       2.728 -14.055   5.647  1.00  0.00    -0.003 C 
ATOM     26  C   UNL     1       3.600 -13.146   6.514  1.00  0.00     0.004 C 
ENDBRANCH  24  25
ENDBRANCH  23  24
ENDBRANCH  22  23
ENDBRANCH  21  22
ENDBRANCH  20  21
ENDBRANCH  19  20
ENDBRANCH  18  19
ENDBRANCH  17  18
ENDBRANCH  16  17
ENDBRANCH  15  16
ENDBRANCH   1  15
TORSDOF 22
ENDMDL
MODEL 6
REMARK VINA RESULT:    -4.106      2.039      3.817
REMARK INTER + INTRA:         -12.092
REMARK INTER:                  -8.411
REMARK INTRA:                  -3.681
REMARK UNBOUND:                -2.706
REMARK SMILES CCCCCCCCCCCCCCCCCCCCCCCC(=O)[O-]
REMARK SMILES IDX 13 1 14 2 15 3 16 4 17 5 18 6 19 7 20 8 21 9 22 10 23 11
REMARK SMILES IDX 24 12 25 13 26 14 12 15 11 16 10 17 9 18 8 19 7 20 6 21 5 22
REMARK SMILES IDX 4 23 3 24 2 25 1 26
REMARK H PARENT
REMARK Flexibility Score: inf
ROOT
ATOM      1  C   UNL     1      -0.454  -9.251   6.533  1.00  0.00     0.000 C 
ENDROOT
BRANCH   1   2
ATOM      2  C   UNL     1      -1.603  -8.233   6.472  1.00  0.00     0.000 C 
BRANCH   2   3
ATOM      3  C   UNL     1      -2.851  -8.707   7.230  1.00  0.00     0.000 C 
BRANCH   3   4
ATOM      4  C   UNL     1      -2.785 -10.213   7.510  1.00  0.00     0.000 C 
BRANCH   4   5
ATOM      5  C   UNL     1      -3.661 -10.589   8.714  1.00  0.00     0.000 C 
BRANCH   5   6
ATOM      6  C   UNL     1      -4.758 -11.605   8.349  1.00  0.00     0.000 C 
BRANCH   6   7
ATOM      7  C   UNL     1      -4.833 -11.861   6.834  1.00  0.00     0.000 C 
BRANCH   7   8
ATOM      8  C   UNL     1      -6.127 -12.579   6.410  1.00  0.00     0.000 C 
BRANCH   8   9
ATOM      9  C   UNL     1      -7.430 -11.854   6.789  1.00  0.00     0.000 C 
BRANCH   9  10
ATOM     10  C   UNL     1      -8.122 -11.191   5.587  1.00  0.00     0.006 C 
BRANCH  10  11
ATOM     11  C   UNL     1      -9.307 -10.333   6.039  1.00  0.00     0.053 C 
BRANCH  11  12
ATOM     12  C   UNL     1      -9.805  -9.480   4.915  1.00  0.00     0.041 C 
ATOM     13  O   UNL     1      -9.571  -9.804   3.720  1.00  0.00    -0.550 OA
ATOM     14  O   UNL     1     -10.528  -8.323   5.186  1.00  0.00    -0.550 OA
ENDBRANCH  11  12
ENDBRANCH  10  11
ENDBRANCH   9  10
ENDBRANCH   8   9
ENDBRANCH   7   8
ENDBRANCH   6   7
ENDBRANCH   5   6
ENDBRANCH   4   5
ENDBRANCH   3   4
ENDBRANCH   2   3
ENDBRANCH   1   2
BRANCH   1  15
ATOM     15  C   UNL     1       0.727  -8.757   7.389  1.00  0.00     0.000 C 
BRANCH  15  16
ATOM     16  C   UNL     1       0.452  -8.874   8.897  1.00  0.00     0.000 C 
BRANCH  16  17
ATOM     17  C   UNL     1       0.684 -10.297   9.430  1.00  0.00     0.000 C 
BRANCH  17  18
ATOM     18  C   UNL     1      -0.277 -10.664  10.571  1.00  0.00    -0.000 C 
BRANCH  18  19
ATOM     19  C   UNL     1      -0.880 -12.072  10.411  1.00  0.00    -0.000 C 
BRANCH  19  20
ATOM     20  C   UNL     1      -0.532 -12.702   9.047  1.00  0.00    -0.000 C 
BRANCH  20  21
ATOM     21  C   UNL     1      -1.606 -13.673   8.527  1.00  0.00    -0.000 C 
BRANCH  21  22
ATOM     22  C   UNL     1      -1.393 -14.066   7.059  1.00  0.00    -0.000 C 
BRANCH  22  23
ATOM     23  C   UNL     1      -0.712 -12.931   6.279  1.00  0.00    -0.000 C 
BRANCH  23  24
ATOM     24  C   UNL     1       0.398 -13.432   5.337  1.00  0.00    -0.000 C 
BRANCH  24  25
ATOM     25  C   UNL     1       1.751 -13.711   6.017  1.00  0.00    -0.003 C 
ATOM     26  C   UNL     1       2.286 -12.512   6.800  1.00  0.00     0.004 C 
ENDBRANCH  24  25
ENDBRANCH  23  24
ENDBRANCH  22  23
ENDBRANCH  21  22
ENDBRANCH  20  21
ENDBRANCH  19  20
ENDBRANCH  18  19
ENDBRANCH  17  18
ENDBRANCH  16  17
ENDBRANCH  15  16
ENDBRANCH   1  15
TORSDOF 22
ENDMDL
MODEL 7
REMARK VINA RESULT:    -4.083      1.716      2.769
REMARK INTER + INTRA:         -12.039
REMARK INTER:                  -9.134
REMARK INTRA:                  -2.906
REMARK UNBOUND:                -2.706
REMARK SMILES CCCCCCCCCCCCCCCCCCCCCCCC(=O)[O-]
REMARK SMILES IDX 13 1 14 2 15 3 16 4 17 5 18 6 19 7 20 8 21 9 22 10 23 11
REMARK SMILES IDX 24 12 25 13 26 14 12 15 11 16 10 17 9 18 8 19 7 20 6 21 5 22
REMARK SMILES IDX 4 23 3 24 2 25 1 26
REMARK H PARENT
REMARK Flexibility Score: inf
ROOT
ATOM      1  C   UNL     1      -2.838  -8.898   6.881  1.00  0.00     0.000 C 
ENDROOT
BRANCH   1   2
ATOM      2  C   UNL     1      -2.906  -9.528   8.282  1.00  0.00     0.000 C 
BRANCH   2   3
ATOM      3  C   UNL     1      -3.627 -10.883   8.284  1.00  0.00     0.000 C 
BRANCH   3   4
ATOM      4  C   UNL     1      -4.095 -11.259   6.874  1.00  0.00     0.000 C 
BRANCH   4   5
ATOM      5  C   UNL     1      -4.495 -12.741   6.802  1.00  0.00     0.000 C 
BRANCH   5   6
ATOM      6  C   UNL     1      -5.921 -12.940   6.261  1.00  0.00     0.000 C 
BRANCH   6   7
ATOM      7  C   UNL     1      -6.844 -11.758   6.603  1.00  0.00     0.000 C 
BRANCH   7   8
ATOM      8  C   UNL     1      -8.267 -11.924   6.039  1.00  0.00     0.000 C 
BRANCH   8   9
ATOM      9  C   UNL     1      -9.107 -10.636   5.998  1.00  0.00     0.000 C 
BRANCH   9  10
ATOM     10  C   UNL     1      -8.901  -9.823   4.710  1.00  0.00     0.006 C 
BRANCH  10  11
ATOM     11  C   UNL     1      -9.941 -10.198   3.651  1.00  0.00     0.053 C 
BRANCH  11  12
ATOM     12  C   UNL     1     -11.327 -10.084   4.203  1.00  0.00     0.041 C 
ATOM     13  O   UNL     1     -11.795  -8.957   4.516  1.00  0.00    -0.550 OA
ATOM     14  O   UNL     1     -12.104 -11.224   4.375  1.00  0.00    -0.550 OA
ENDBRANCH  11  12
ENDBRANCH  10  11
ENDBRANCH   9  10
ENDBRANCH   8   9
ENDBRANCH   7   8
ENDBRANCH   6   7
ENDBRANCH   5   6
ENDBRANCH   4   5
ENDBRANCH   3   4
ENDBRANCH   2   3
ENDBRANCH   1   2
BRANCH   1  15
ATOM     15  C   UNL     1      -1.555  -8.075   6.667  1.00  0.00     0.000 C 
BRANCH  15  16
ATOM     16  C   UNL     1      -0.435  -8.461   7.646  1.00  0.00     0.000 C 
BRANCH  16  17
ATOM     17  C   UNL     1       0.880  -8.812   6.930  1.00  0.00     0.000 C 
BRANCH  17  18
ATOM     18  C   UNL     1       1.272 -10.287   7.104  1.00  0.00    -0.000 C 
BRANCH  18  19
ATOM     19  C   UNL     1       0.273 -11.069   7.977  1.00  0.00    -0.000 C 
BRANCH  19  20
ATOM     20  C   UNL     1      -0.448 -12.178   7.184  1.00  0.00    -0.000 C 
BRANCH  20  21
ATOM     21  C   UNL     1      -0.663 -11.831   5.700  1.00  0.00    -0.000 C 
BRANCH  21  22
ATOM     22  C   UNL     1      -0.632 -13.066   4.790  1.00  0.00    -0.000 C 
BRANCH  22  23
ATOM     23  C   UNL     1      -0.862 -14.351   5.598  1.00  0.00    -0.000 C 
BRANCH  23  24
ATOM     24  C   UNL     1       0.445 -15.096   5.926  1.00  0.00    -0.000 C 
BRANCH  24  25
ATOM     25  C   UNL     1       1.642 -14.736   5.028  1.00  0.00    -0.003 C 
ATOM     26  C   UNL     1       2.786 -14.071   5.793  1.00  0.00     0.004 C 
ENDBRANCH  24  25
ENDBRANCH  23  24
ENDBRANCH  22  23
ENDBRANCH  21  22
ENDBRANCH  20  21
ENDBRANCH  19  20
ENDBRANCH  18  19
ENDBRANCH  17  18
ENDBRANCH  16  17
ENDBRANCH  15  16
ENDBRANCH   1  15
TORSDOF 22
ENDMDL
MODEL 8
REMARK VINA RESULT:    -4.080      4.717      8.185
REMARK INTER + INTRA:         -12.033
REMARK INTER:                  -8.011
REMARK INTRA:                  -4.022
REMARK UNBOUND:                -2.706
REMARK SMILES CCCCCCCCCCCCCCCCCCCCCCCC(=O)[O-]
REMARK SMILES IDX 13 1 14 2 15 3 16 4 17 5 18 6 19 7 20 8 21 9 22 10 23 11
REMARK SMILES IDX 24 12 25 13 26 14 12 15 11 16 10 17 9 18 8 19 7 20 6 21 5 22
REMARK SMILES IDX 4 23 3 24 2 25 1 26
REMARK H PARENT
REMARK Flexibility Score: inf
ROOT
ATOM      1  C   UNL     1       0.380  -8.746   8.664  1.00  0.00     0.000 C 
ENDROOT
BRANCH   1   2
ATOM      2  C   UNL     1       0.694  -8.748   7.160  1.00  0.00     0.000 C 
BRANCH   2   3
ATOM      3  C   UNL     1      -0.562  -8.568   6.296  1.00  0.00     0.000 C 
BRANCH   3   4
ATOM      4  C   UNL     1      -1.804  -8.354   7.169  1.00  0.00     0.000 C 
BRANCH   4   5
ATOM      5  C   UNL     1      -2.844  -9.458   6.929  1.00  0.00     0.000 C 
BRANCH   5   6
ATOM      6  C   UNL     1      -2.234 -10.707   6.268  1.00  0.00     0.000 C 
BRANCH   6   7
ATOM      7  C   UNL     1      -1.944 -11.821   7.288  1.00  0.00     0.000 C 
BRANCH   7   8
ATOM      8  C   UNL     1      -1.251 -13.044   6.660  1.00  0.00     0.000 C 
BRANCH   8   9
ATOM      9  C   UNL     1      -0.200 -12.718   5.585  1.00  0.00     0.000 C 
BRANCH   9  10
ATOM     10  C   UNL     1       1.180 -13.322   5.889  1.00  0.00     0.006 C 
BRANCH  10  11
ATOM     11  C   UNL     1       1.981 -12.417   6.830  1.00  0.00     0.053 C 
BRANCH  11  12
ATOM     12  C   UNL     1       3.423 -12.817   6.852  1.00  0.00     0.041 C 
ATOM     13  O   UNL     1       4.325 -11.946   6.723  1.00  0.00    -0.550 OA
ATOM     14  O   UNL     1       3.773 -14.152   7.013  1.00  0.00    -0.550 OA
ENDBRANCH  11  12
ENDBRANCH  10  11
ENDBRANCH   9  10
ENDBRANCH   8   9
ENDBRANCH   7   8
ENDBRANCH   6   7
ENDBRANCH   5   6
ENDBRANCH   4   5
ENDBRANCH   3   4
ENDBRANCH   2   3
ENDBRANCH   1   2
BRANCH   1  15
ATOM     15  C   UNL     1       0.731 -10.083   9.342  1.00  0.00     0.000 C 
BRANCH  15  16
ATOM     16  C   UNL     1      -0.389 -10.588  10.266  1.00  0.00     0.000 C 
BRANCH  16  17
ATOM     17  C   UNL     1      -1.436  -9.504  10.570  1.00  0.00     0.000 C 
BRANCH  17  18
ATOM     18  C   UNL     1      -2.867 -10.061  10.614  1.00  0.00    -0.000 C 
BRANCH  18  19
ATOM     19  C   UNL     1      -2.911 -11.561  10.959  1.00  0.00    -0.000 C 
BRANCH  19  20
ATOM     20  C   UNL     1      -4.093 -12.281  10.277  1.00  0.00    -0.000 C 
BRANCH  20  21
ATOM     21  C   UNL     1      -4.969 -11.348   9.422  1.00  0.00    -0.000 C 
BRANCH  21  22
ATOM     22  C   UNL     1      -5.995 -12.109   8.573  1.00  0.00    -0.000 C 
BRANCH  22  23
ATOM     23  C   UNL     1      -5.633 -12.041   7.081  1.00  0.00    -0.000 C 
BRANCH  23  24
ATOM     24  C   UNL     1      -6.863 -12.129   6.160  1.00  0.00    -0.000 C 
BRANCH  24  25
ATOM     25  C   UNL     1      -8.104 -11.367   6.658  1.00  0.00    -0.003 C 
ATOM     26  C   UNL     1      -8.953 -10.796   5.521  1.00  0.00     0.004 C 
ENDBRANCH  24  25
ENDBRANCH  23  24
ENDBRANCH  22  23
ENDBRANCH  21  22
ENDBRANCH  20  21
ENDBRANCH  19  20
ENDBRANCH  18  19
ENDBRANCH  17  18
ENDBRANCH  16  17
ENDBRANCH  15  16
ENDBRANCH   1  15
TORSDOF 22
ENDMDL
MODEL 9
REMARK VINA RESULT:    -4.028      4.413      8.851
REMARK INTER + INTRA:         -11.914
REMARK INTER:                  -8.942
REMARK INTRA:                  -2.972
REMARK UNBOUND:                -2.706
REMARK SMILES CCCCCCCCCCCCCCCCCCCCCCCC(=O)[O-]
REMARK SMILES IDX 13 1 14 2 15 3 16 4 17 5 18 6 19 7 20 8 21 9 22 10 23 11
REMARK SMILES IDX 24 12 25 13 26 14 12 15 11 16 10 17 9 18 8 19 7 20 6 21 5 22
REMARK SMILES IDX 4 23 3 24 2 25 1 26
REMARK H PARENT
REMARK Flexibility Score: inf
ROOT
ATOM      1  C   UNL     1      -1.494  -8.101   6.492  1.00  0.00     0.000 C 
ENDROOT
BRANCH   1   2
ATOM      2  C   UNL     1      -0.389  -9.165   6.397  1.00  0.00     0.000 C 
BRANCH   2   3
ATOM      3  C   UNL     1       0.845  -8.810   7.240  1.00  0.00     0.000 C 
BRANCH   3   4
ATOM      4  C   UNL     1       0.492  -8.749   8.731  1.00  0.00     0.000 C 
BRANCH   4   5
ATOM      5  C   UNL     1       0.504 -10.151   9.358  1.00  0.00     0.000 C 
BRANCH   5   6
ATOM      6  C   UNL     1      -0.891 -10.596   9.829  1.00  0.00     0.000 C 
BRANCH   6   7
ATOM      7  C   UNL     1      -1.186 -12.063   9.471  1.00  0.00     0.000 C 
BRANCH   7   8
ATOM      8  C   UNL     1      -0.125 -12.678   8.540  1.00  0.00     0.000 C 
BRANCH   8   9
ATOM      9  C   UNL     1      -0.563 -12.846   7.074  1.00  0.00     0.000 C 
BRANCH   9  10
ATOM     10  C   UNL     1       0.620 -12.892   6.094  1.00  0.00     0.006 C 
BRANCH  10  11
ATOM     11  C   UNL     1       1.783 -13.702   6.673  1.00  0.00     0.053 C 
BRANCH  11  12
ATOM     12  C   UNL     1       3.055 -12.915   6.625  1.00  0.00     0.041 C 
ATOM     13  O   UNL     1       3.098 -11.748   7.099  1.00  0.00    -0.550 OA
ATOM     14  O   UNL     1       4.195 -13.468   6.054  1.00  0.00    -0.550 OA
ENDBRANCH  11  12
ENDBRANCH  10  11
ENDBRANCH   9  10
ENDBRANCH   8   9
ENDBRANCH   7   8
ENDBRANCH   6   7
ENDBRANCH   5   6
ENDBRANCH   4   5
ENDBRANCH   3   4
ENDBRANCH   2   3
ENDBRANCH   1   2
BRANCH   1  15
ATOM     15  C   UNL     1      -2.845  -8.693   6.932  1.00  0.00     0.000 C 
BRANCH  15  16
ATOM     16  C   UNL     1      -2.925 -10.212   6.710  1.00  0.00     0.000 C 
BRANCH  16  17
ATOM     17  C   UNL     1      -3.947 -10.890   7.637  1.00  0.00     0.000 C 
BRANCH  17  18
ATOM     18  C   UNL     1      -4.380 -12.274   7.127  1.00  0.00    -0.000 C 
BRANCH  18  19
ATOM     19  C   UNL     1      -5.868 -12.567   7.393  1.00  0.00    -0.000 C 
BRANCH  19  20
ATOM     20  C   UNL     1      -6.772 -12.075   6.244  1.00  0.00    -0.000 C 
BRANCH  20  21
ATOM     21  C   UNL     1      -8.091 -11.446   6.727  1.00  0.00    -0.000 C 
BRANCH  21  22
ATOM     22  C   UNL     1      -9.175 -11.430   5.642  1.00  0.00    -0.000 C 
BRANCH  22  23
ATOM     23  C   UNL     1      -9.022 -10.203   4.730  1.00  0.00    -0.000 C 
BRANCH  23  24
ATOM     24  C   UNL     1      -9.903 -10.280   3.469  1.00  0.00    -0.000 C 
BRANCH  24  25
ATOM     25  C   UNL     1      -9.250 -10.976   2.261  1.00  0.00    -0.003 C 
ATOM     26  C   UNL     1     -10.252 -11.744   1.399  1.00  0.00     0.004 C 
ENDBRANCH  24  25
ENDBRANCH  23  24
ENDBRANCH  22  23
ENDBRANCH  21  22
ENDBRANCH  20  21
ENDBRANCH  19  20
ENDBRANCH  18  19
ENDBRANCH  17  18
ENDBRANCH  16  17
ENDBRANCH  15  16
ENDBRANCH   1  15
TORSDOF 22
ENDMDL
