MODEL 1
REMARK VINA RESULT:    -3.741      0.000      0.000
REMARK INTER + INTRA:          -4.814
REMARK INTER:                  -4.615
REMARK INTRA:                  -0.199
REMARK UNBOUND:                -0.199
REMARK SMILES C=CC[C@@H](C)C(=O)CC
REMARK SMILES IDX 4 1 5 2 6 3 7 4 8 5 9 6 3 7 2 8 1 9
REMARK H PARENT
REMARK Flexibility Score: inf
ROOT
ATOM      1  C   UNL     1      14.221  65.923 -29.056  1.00  0.00     0.057 C 
ATOM      2  C   UNL     1      14.913  65.013 -28.037  1.00  0.00     0.016 C 
ENDROOT
BRANCH   1   3
ATOM      3  C   UNL     1      14.987  67.225 -29.187  1.00  0.00     0.135 C 
ATOM      4  O   UNL     1      16.189  67.246 -28.961  1.00  0.00    -0.299 OA
BRANCH   3   5
ATOM      5  C   UNL     1      14.290  68.504 -29.570  1.00  0.00     0.072 C 
ATOM      6  C   UNL     1      15.081  69.720 -29.100  1.00  0.00     0.012 C 
ENDBRANCH   3   5
ENDBRANCH   1   3
BRANCH   1   7
ATOM      7  C   UNL     1      14.089  65.210 -30.415  1.00  0.00     0.038 C 
BRANCH   7   8
ATOM      8  C   UNL     1      12.653  64.875 -30.724  1.00  0.00    -0.034 C 
ATOM      9  C   UNL     1      11.961  65.530 -31.659  1.00  0.00     0.004 C 
ENDBRANCH   7   8
ENDBRANCH   1   7
TORSDOF 4
ENDMDL
MODEL 2
REMARK VINA RESULT:    -3.458      1.875      3.094
REMARK INTER + INTRA:          -4.465
REMARK INTER:                  -3.992
REMARK INTRA:                  -0.474
REMARK UNBOUND:                -0.199
REMARK SMILES C=CC[C@@H](C)C(=O)CC
REMARK SMILES IDX 4 1 5 2 6 3 7 4 8 5 9 6 3 7 2 8 1 9
REMARK H PARENT
REMARK Flexibility Score: inf
ROOT
ATOM      1  C   UNL     1      15.346  68.329 -28.404  1.00  0.00     0.057 C 
ATOM      2  C   UNL     1      15.096  69.415 -29.454  1.00  0.00     0.016 C 
ENDROOT
BRANCH   1   3
ATOM      3  C   UNL     1      14.106  68.139 -27.553  1.00  0.00     0.135 C 
ATOM      4  O   UNL     1      14.110  67.313 -26.651  1.00  0.00    -0.299 OA
BRANCH   3   5
ATOM      5  C   UNL     1      12.854  68.937 -27.812  1.00  0.00     0.072 C 
ATOM      6  C   UNL     1      11.752  68.053 -28.386  1.00  0.00     0.012 C 
ENDBRANCH   3   5
ENDBRANCH   1   3
BRANCH   1   7
ATOM      7  C   UNL     1      15.768  67.010 -29.081  1.00  0.00     0.038 C 
BRANCH   7   8
ATOM      8  C   UNL     1      14.686  66.489 -29.990  1.00  0.00    -0.034 C 
ATOM      9  C   UNL     1      14.313  65.206 -29.980  1.00  0.00     0.004 C 
ENDBRANCH   7   8
ENDBRANCH   1   7
TORSDOF 4
ENDMDL
MODEL 3
REMARK VINA RESULT:    -3.457      1.640      3.712
REMARK INTER + INTRA:          -4.465
REMARK INTER:                  -4.078
REMARK INTRA:                  -0.387
REMARK UNBOUND:                -0.199
REMARK SMILES C=CC[C@@H](C)C(=O)CC
REMARK SMILES IDX 4 1 5 2 6 3 7 4 8 5 9 6 3 7 2 8 1 9
REMARK H PARENT
REMARK Flexibility Score: inf
ROOT
ATOM      1  C   UNL     1      14.310  68.445 -29.132  1.00  0.00     0.057 C 
ATOM      2  C   UNL     1      15.218  69.654 -29.377  1.00  0.00     0.016 C 
ENDROOT
BRANCH   1   3
ATOM      3  C   UNL     1      15.101  67.164 -29.305  1.00  0.00     0.135 C 
ATOM      4  O   UNL     1      16.296  67.149 -29.042  1.00  0.00    -0.299 OA
BRANCH   3   5
ATOM      5  C   UNL     1      14.447  65.908 -29.820  1.00  0.00     0.072 C 
ATOM      6  C   UNL     1      13.135  66.226 -30.530  1.00  0.00     0.012 C 
ENDBRANCH   3   5
ENDBRANCH   1   3
BRANCH   1   7
ATOM      7  C   UNL     1      13.671  68.525 -27.732  1.00  0.00     0.038 C 
BRANCH   7   8
ATOM      8  C   UNL     1      12.399  69.332 -27.754  1.00  0.00    -0.034 C 
ATOM      9  C   UNL     1      11.359  68.990 -28.519  1.00  0.00     0.004 C 
ENDBRANCH   7   8
ENDBRANCH   1   7
TORSDOF 4
ENDMDL
MODEL 4
REMARK VINA RESULT:    -3.443      1.012      2.532
REMARK INTER + INTRA:          -4.447
REMARK INTER:                  -4.096
REMARK INTRA:                  -0.351
REMARK UNBOUND:                -0.199
REMARK SMILES C=CC[C@@H](C)C(=O)CC
REMARK SMILES IDX 4 1 5 2 6 3 7 4 8 5 9 6 3 7 2 8 1 9
REMARK H PARENT
REMARK Flexibility Score: inf
ROOT
ATOM      1  C   UNL     1      14.611  65.845 -29.811  1.00  0.00     0.057 C 
ATOM      2  C   UNL     1      13.224  66.035 -30.431  1.00  0.00     0.016 C 
ENDROOT
BRANCH   1   3
ATOM      3  C   UNL     1      15.183  67.189 -29.407  1.00  0.00     0.135 C 
ATOM      4  O   UNL     1      16.327  67.257 -28.977  1.00  0.00    -0.299 OA
BRANCH   3   5
ATOM      5  C   UNL     1      14.359  68.447 -29.503  1.00  0.00     0.072 C 
ATOM      6  C   UNL     1      15.116  69.642 -28.931  1.00  0.00     0.012 C 
ENDBRANCH   3   5
ENDBRANCH   1   3
BRANCH   1   7
ATOM      7  C   UNL     1      14.539  64.882 -28.610  1.00  0.00     0.038 C 
BRANCH   7   8
ATOM      8  C   UNL     1      13.576  65.380 -27.564  1.00  0.00    -0.034 C 
ATOM      9  C   UNL     1      13.975  65.689 -26.328  1.00  0.00     0.004 C 
ENDBRANCH   7   8
ENDBRANCH   1   7
TORSDOF 4
ENDMDL
MODEL 5
REMARK VINA RESULT:    -3.438     16.837     18.001
REMARK INTER + INTRA:          -4.441
REMARK INTER:                  -4.226
REMARK INTRA:                  -0.215
REMARK UNBOUND:                -0.199
REMARK SMILES C=CC[C@@H](C)C(=O)CC
REMARK SMILES IDX 4 1 5 2 6 3 7 4 8 5 9 6 3 7 2 8 1 9
REMARK H PARENT
REMARK Flexibility Score: inf
ROOT
ATOM      1  C   UNL     1       1.367  78.811 -30.256  1.00  0.00     0.057 C 
ATOM      2  C   UNL     1       2.753  79.386 -30.565  1.00  0.00     0.016 C 
ENDROOT
BRANCH   1   3
ATOM      3  C   UNL     1       1.488  77.707 -29.223  1.00  0.00     0.135 C 
ATOM      4  O   UNL     1       0.693  77.657 -28.294  1.00  0.00    -0.299 OA
BRANCH   3   5
ATOM      5  C   UNL     1       2.585  76.679 -29.307  1.00  0.00     0.072 C 
ATOM      6  C   UNL     1       2.059  75.361 -29.866  1.00  0.00     0.012 C 
ENDBRANCH   3   5
ENDBRANCH   1   3
BRANCH   1   7
ATOM      7  C   UNL     1       0.415  79.924 -29.778  1.00  0.00     0.038 C 
BRANCH   7   8
ATOM      8  C   UNL     1      -0.651  80.212 -30.802  1.00  0.00    -0.034 C 
ATOM      9  C   UNL     1      -0.570  79.754 -32.054  1.00  0.00     0.004 C 
ENDBRANCH   7   8
ENDBRANCH   1   7
TORSDOF 4
ENDMDL
MODEL 6
REMARK VINA RESULT:    -3.425      1.719      4.089
REMARK INTER + INTRA:          -4.425
REMARK INTER:                  -4.179
REMARK INTRA:                  -0.246
REMARK UNBOUND:                -0.199
REMARK SMILES C=CC[C@@H](C)C(=O)CC
REMARK SMILES IDX 4 1 5 2 6 3 7 4 8 5 9 6 3 7 2 8 1 9
REMARK H PARENT
REMARK Flexibility Score: inf
ROOT
ATOM      1  C   UNL     1      13.775  66.432 -29.958  1.00  0.00     0.057 C 
ATOM      2  C   UNL     1      14.970  65.874 -29.179  1.00  0.00     0.016 C 
ENDROOT
BRANCH   1   3
ATOM      3  C   UNL     1      12.500  65.748 -29.504  1.00  0.00     0.135 C 
ATOM      4  O   UNL     1      12.225  65.707 -28.312  1.00  0.00    -0.299 OA
BRANCH   3   5
ATOM      5  C   UNL     1      11.572  65.093 -30.494  1.00  0.00     0.072 C 
ATOM      6  C   UNL     1      11.944  65.471 -31.924  1.00  0.00     0.012 C 
ENDBRANCH   3   5
ENDBRANCH   1   3
BRANCH   1   7
ATOM      7  C   UNL     1      13.683  67.960 -29.784  1.00  0.00     0.038 C 
BRANCH   7   8
ATOM      8  C   UNL     1      14.984  68.536 -29.288  1.00  0.00    -0.034 C 
ATOM      9  C   UNL     1      15.141  69.845 -29.076  1.00  0.00     0.004 C 
ENDBRANCH   7   8
ENDBRANCH   1   7
TORSDOF 4
ENDMDL
MODEL 7
REMARK VINA RESULT:    -3.385     19.327     20.750
REMARK INTER + INTRA:          -4.375
REMARK INTER:                  -4.082
REMARK INTRA:                  -0.293
REMARK UNBOUND:                -0.199
REMARK SMILES C=CC[C@@H](C)C(=O)CC
REMARK SMILES IDX 4 1 5 2 6 3 7 4 8 5 9 6 3 7 2 8 1 9
REMARK H PARENT
REMARK Flexibility Score: inf
ROOT
ATOM      1  C   UNL     1       0.895  81.389 -29.390  1.00  0.00     0.057 C 
ATOM      2  C   UNL     1       2.242  80.791 -28.974  1.00  0.00     0.016 C 
ENDROOT
BRANCH   1   3
ATOM      3  C   UNL     1      -0.068  80.279 -29.761  1.00  0.00     0.135 C 
ATOM      4  O   UNL     1      -0.081  79.244 -29.108  1.00  0.00    -0.299 OA
BRANCH   3   5
ATOM      5  C   UNL     1      -0.998  80.415 -30.938  1.00  0.00     0.072 C 
ATOM      6  C   UNL     1      -0.435  79.706 -32.166  1.00  0.00     0.012 C 
ENDBRANCH   3   5
ENDBRANCH   1   3
BRANCH   1   7
ATOM      7  C   UNL     1       0.325  82.273 -28.263  1.00  0.00     0.038 C 
BRANCH   7   8
ATOM      8  C   UNL     1      -0.030  83.646 -28.769  1.00  0.00    -0.034 C 
ATOM      9  C   UNL     1      -1.121  83.867 -29.507  1.00  0.00     0.004 C 
ENDBRANCH   7   8
ENDBRANCH   1   7
TORSDOF 4
ENDMDL
MODEL 8
REMARK VINA RESULT:    -3.317     17.457     18.585
REMARK INTER + INTRA:          -4.292
REMARK INTER:                  -4.022
REMARK INTRA:                  -0.270
REMARK UNBOUND:                -0.199
REMARK SMILES C=CC[C@@H](C)C(=O)CC
REMARK SMILES IDX 4 1 5 2 6 3 7 4 8 5 9 6 3 7 2 8 1 9
REMARK H PARENT
REMARK Flexibility Score: inf
ROOT
ATOM      1  C   UNL     1       1.280  79.031 -30.238  1.00  0.00     0.057 C 
ATOM      2  C   UNL     1       2.707  79.476 -30.571  1.00  0.00     0.016 C 
ENDROOT
BRANCH   1   3
ATOM      3  C   UNL     1       1.274  78.253 -28.937  1.00  0.00     0.135 C 
ATOM      4  O   UNL     1       1.656  77.091 -28.924  1.00  0.00    -0.299 OA
BRANCH   3   5
ATOM      5  C   UNL     1       0.783  78.879 -27.657  1.00  0.00     0.072 C 
ATOM      6  C   UNL     1      -0.223  77.971 -26.956  1.00  0.00     0.012 C 
ENDBRANCH   3   5
ENDBRANCH   1   3
BRANCH   1   7
ATOM      7  C   UNL     1       0.338  80.249 -30.168  1.00  0.00     0.038 C 
BRANCH   7   8
ATOM      8  C   UNL     1      -0.732  80.177 -31.226  1.00  0.00    -0.034 C 
ATOM      9  C   UNL     1      -0.490  79.678 -32.441  1.00  0.00     0.004 C 
ENDBRANCH   7   8
ENDBRANCH   1   7
TORSDOF 4
ENDMDL
MODEL 9
REMARK VINA RESULT:    -3.283      1.803      2.143
REMARK INTER + INTRA:          -4.250
REMARK INTER:                  -3.940
REMARK INTRA:                  -0.310
REMARK UNBOUND:                -0.199
REMARK SMILES C=CC[C@@H](C)C(=O)CC
REMARK SMILES IDX 4 1 5 2 6 3 7 4 8 5 9 6 3 7 2 8 1 9
REMARK H PARENT
REMARK Flexibility Score: inf
ROOT
ATOM      1  C   UNL     1      14.462  66.564 -29.135  1.00  0.00     0.057 C 
ATOM      2  C   UNL     1      15.904  67.081 -29.122  1.00  0.00     0.016 C 
ENDROOT
BRANCH   1   3
ATOM      3  C   UNL     1      13.497  67.733 -29.154  1.00  0.00     0.135 C 
ATOM      4  O   UNL     1      13.504  68.509 -30.100  1.00  0.00    -0.299 OA
BRANCH   3   5
ATOM      5  C   UNL     1      12.539  67.972 -28.016  1.00  0.00     0.072 C 
ATOM      6  C   UNL     1      11.312  68.746 -28.487  1.00  0.00     0.012 C 
ENDBRANCH   3   5
ENDBRANCH   1   3
BRANCH   1   7
ATOM      7  C   UNL     1      14.234  65.628 -30.337  1.00  0.00     0.038 C 
BRANCH   7   8
ATOM      8  C   UNL     1      12.826  65.094 -30.359  1.00  0.00    -0.034 C 
ATOM      9  C   UNL     1      12.015  65.284 -31.403  1.00  0.00     0.004 C 
ENDBRANCH   7   8
ENDBRANCH   1   7
TORSDOF 4
ENDMDL
