MODEL 1
REMARK VINA RESULT:    -5.819      0.000      0.000
REMARK INTER + INTRA:         -14.852
REMARK INTER:                 -12.623
REMARK INTRA:                  -2.230
REMARK UNBOUND:                -2.230
REMARK SMILES CCCCCCCCCCCCCCCCCCCCCC(=O)[O-]
REMARK SMILES IDX 12 1 11 2 10 3 9 4 8 5 7 6 6 7 5 8 4 9 3 10 2 11 1 12 13 13
REMARK SMILES IDX 14 14 15 15 16 16 17 17 18 18 19 19 20 20 21 21 22 22 23 23
REMARK SMILES IDX 24 24
REMARK H PARENT
REMARK Flexibility Score: inf
ROOT
ATOM      1  C   UNL     1     -29.865   0.605  26.925  1.00  0.00     0.000 C 
ENDROOT
BRANCH   1   2
ATOM      2  C   UNL     1     -28.785  -0.496  26.886  1.00  0.00     0.000 C 
BRANCH   2   3
ATOM      3  C   UNL     1     -28.205  -0.798  25.492  1.00  0.00     0.000 C 
BRANCH   3   4
ATOM      4  C   UNL     1     -27.493   0.388  24.814  1.00  0.00    -0.000 C 
BRANCH   4   5
ATOM      5  C   UNL     1     -26.722   0.000  23.535  1.00  0.00    -0.000 C 
BRANCH   5   6
ATOM      6  C   UNL     1     -27.617  -0.016  22.286  1.00  0.00    -0.000 C 
BRANCH   6   7
ATOM      7  C   UNL     1     -27.540  -1.371  21.573  1.00  0.00    -0.000 C 
BRANCH   7   8
ATOM      8  C   UNL     1     -28.747  -1.578  20.649  1.00  0.00    -0.000 C 
BRANCH   8   9
ATOM      9  C   UNL     1     -30.042  -1.098  21.323  1.00  0.00    -0.000 C 
BRANCH   9  10
ATOM     10  C   UNL     1     -30.430  -1.955  22.539  1.00  0.00    -0.000 C 
BRANCH  10  11
ATOM     11  C   UNL     1     -31.228  -1.166  23.588  1.00  0.00    -0.003 C 
ATOM     12  C   UNL     1     -31.226   0.326  23.269  1.00  0.00     0.004 C 
ENDBRANCH  10  11
ENDBRANCH   9  10
ENDBRANCH   8   9
ENDBRANCH   7   8
ENDBRANCH   6   7
ENDBRANCH   5   6
ENDBRANCH   4   5
ENDBRANCH   3   4
ENDBRANCH   2   3
ENDBRANCH   1   2
BRANCH   1  13
ATOM     13  C   UNL     1     -30.121   1.230  28.309  1.00  0.00     0.000 C 
BRANCH  13  14
ATOM     14  C   UNL     1     -29.149   0.720  29.385  1.00  0.00     0.000 C 
BRANCH  14  15
ATOM     15  C   UNL     1     -29.380   1.377  30.758  1.00  0.00     0.000 C 
BRANCH  15  16
ATOM     16  C   UNL     1     -28.744   0.606  31.935  1.00  0.00     0.000 C 
BRANCH  16  17
ATOM     17  C   UNL     1     -27.904   1.522  32.843  1.00  0.00     0.000 C 
BRANCH  17  18
ATOM     18  C   UNL     1     -28.672   2.008  34.085  1.00  0.00     0.000 C 
BRANCH  18  19
ATOM     19  C   UNL     1     -29.045   3.501  34.080  1.00  0.00     0.000 C 
BRANCH  19  20
ATOM     20  C   UNL     1     -30.424   3.774  33.456  1.00  0.00     0.006 C 
BRANCH  20  21
ATOM     21  C   UNL     1     -31.533   2.945  34.118  1.00  0.00     0.053 C 
BRANCH  21  22
ATOM     22  C   UNL     1     -32.166   1.992  33.151  1.00  0.00     0.041 C 
ATOM     23  O   UNL     1     -32.766   2.425  32.132  1.00  0.00    -0.550 OA
ATOM     24  O   UNL     1     -32.066   0.622  33.360  1.00  0.00    -0.550 OA
ENDBRANCH  21  22
ENDBRANCH  20  21
ENDBRANCH  19  20
ENDBRANCH  18  19
ENDBRANCH  17  18
ENDBRANCH  16  17
ENDBRANCH  15  16
ENDBRANCH  14  15
ENDBRANCH  13  14
ENDBRANCH   1  13
TORSDOF 20
ENDMDL
MODEL 2
REMARK VINA RESULT:    -5.812      2.973      9.965
REMARK INTER + INTRA:         -14.836
REMARK INTER:                 -12.723
REMARK INTRA:                  -2.114
REMARK UNBOUND:                -2.230
REMARK SMILES CCCCCCCCCCCCCCCCCCCCCC(=O)[O-]
REMARK SMILES IDX 12 1 11 2 10 3 9 4 8 5 7 6 6 7 5 8 4 9 3 10 2 11 1 12 13 13
REMARK SMILES IDX 14 14 15 15 16 16 17 17 18 18 19 19 20 20 21 21 22 22 23 23
REMARK SMILES IDX 24 24
REMARK H PARENT
REMARK Flexibility Score: inf
ROOT
ATOM      1  C   UNL     1     -28.200   0.381  26.810  1.00  0.00     0.000 C 
ENDROOT
BRANCH   1   2
ATOM      2  C   UNL     1     -29.685   0.801  26.858  1.00  0.00     0.000 C 
BRANCH   2   3
ATOM      3  C   UNL     1     -30.201   1.235  28.242  1.00  0.00     0.000 C 
BRANCH   3   4
ATOM      4  C   UNL     1     -29.216   1.000  29.404  1.00  0.00    -0.000 C 
BRANCH   4   5
ATOM      5  C   UNL     1     -29.763   1.438  30.779  1.00  0.00    -0.000 C 
BRANCH   5   6
ATOM      6  C   UNL     1     -30.535   2.764  30.716  1.00  0.00    -0.000 C 
BRANCH   6   7
ATOM      7  C   UNL     1     -31.340   2.993  32.000  1.00  0.00    -0.000 C 
BRANCH   7   8
ATOM      8  C   UNL     1     -30.564   2.510  33.232  1.00  0.00    -0.000 C 
BRANCH   8   9
ATOM      9  C   UNL     1     -30.010   3.699  34.032  1.00  0.00    -0.000 C 
BRANCH   9  10
ATOM     10  C   UNL     1     -28.480   3.820  33.930  1.00  0.00    -0.000 C 
BRANCH  10  11
ATOM     11  C   UNL     1     -27.787   2.455  33.803  1.00  0.00    -0.003 C 
ATOM     12  C   UNL     1     -26.757   2.467  32.677  1.00  0.00     0.004 C 
ENDBRANCH  10  11
ENDBRANCH   9  10
ENDBRANCH   8   9
ENDBRANCH   7   8
ENDBRANCH   6   7
ENDBRANCH   5   6
ENDBRANCH   4   5
ENDBRANCH   3   4
ENDBRANCH   2   3
ENDBRANCH   1   2
BRANCH   1  13
ATOM     13  C   UNL     1     -27.587   0.287  25.401  1.00  0.00     0.000 C 
BRANCH  13  14
ATOM     14  C   UNL     1     -27.378  -1.162  24.933  1.00  0.00     0.000 C 
BRANCH  14  15
ATOM     15  C   UNL     1     -26.621  -1.255  23.597  1.00  0.00     0.000 C 
BRANCH  15  16
ATOM     16  C   UNL     1     -27.234  -0.394  22.470  1.00  0.00     0.000 C 
BRANCH  16  17
ATOM     17  C   UNL     1     -27.478  -1.207  21.186  1.00  0.00     0.000 C 
BRANCH  17  18
ATOM     18  C   UNL     1     -28.592  -2.258  21.341  1.00  0.00     0.000 C 
BRANCH  18  19
ATOM     19  C   UNL     1     -29.960  -1.703  21.778  1.00  0.00     0.000 C 
BRANCH  19  20
ATOM     20  C   UNL     1     -30.387  -2.188  23.173  1.00  0.00     0.006 C 
BRANCH  20  21
ATOM     21  C   UNL     1     -30.991  -1.059  24.019  1.00  0.00     0.053 C 
BRANCH  21  22
ATOM     22  C   UNL     1     -31.100   0.217  23.243  1.00  0.00     0.041 C 
ATOM     23  O   UNL     1     -30.159   1.054  23.262  1.00  0.00    -0.550 OA
ATOM     24  O   UNL     1     -32.230   0.470  22.475  1.00  0.00    -0.550 OA
ENDBRANCH  21  22
ENDBRANCH  20  21
ENDBRANCH  19  20
ENDBRANCH  18  19
ENDBRANCH  17  18
ENDBRANCH  16  17
ENDBRANCH  15  16
ENDBRANCH  14  15
ENDBRANCH  13  14
ENDBRANCH   1  13
TORSDOF 20
ENDMDL
MODEL 3
REMARK VINA RESULT:    -5.763      1.851      3.394
REMARK INTER + INTRA:         -14.731
REMARK INTER:                 -12.452
REMARK INTRA:                  -2.279
REMARK UNBOUND:                -2.230
REMARK SMILES CCCCCCCCCCCCCCCCCCCCCC(=O)[O-]
REMARK SMILES IDX 12 1 11 2 10 3 9 4 8 5 7 6 6 7 5 8 4 9 3 10 2 11 1 12 13 13
REMARK SMILES IDX 14 14 15 15 16 16 17 17 18 18 19 19 20 20 21 21 22 22 23 23
REMARK SMILES IDX 24 24
REMARK H PARENT
REMARK Flexibility Score: inf
ROOT
ATOM      1  C   UNL     1     -29.643   0.966  26.184  1.00  0.00     0.000 C 
ENDROOT
BRANCH   1   2
ATOM      2  C   UNL     1     -30.500   0.325  25.072  1.00  0.00     0.000 C 
BRANCH   2   3
ATOM      3  C   UNL     1     -30.626  -1.207  25.141  1.00  0.00     0.000 C 
BRANCH   3   4
ATOM      4  C   UNL     1     -31.321  -1.857  23.929  1.00  0.00    -0.000 C 
BRANCH   4   5
ATOM      5  C   UNL     1     -30.395  -2.041  22.708  1.00  0.00    -0.000 C 
BRANCH   5   6
ATOM      6  C   UNL     1     -30.221  -0.748  21.897  1.00  0.00    -0.000 C 
BRANCH   6   7
ATOM      7  C   UNL     1     -29.140  -0.916  20.823  1.00  0.00    -0.000 C 
BRANCH   7   8
ATOM      8  C   UNL     1     -27.793  -0.358  21.302  1.00  0.00    -0.000 C 
BRANCH   8   9
ATOM      9  C   UNL     1     -27.987   0.590  22.495  1.00  0.00    -0.000 C 
BRANCH   9  10
ATOM     10  C   UNL     1     -26.907   0.414  23.575  1.00  0.00    -0.000 C 
BRANCH  10  11
ATOM     11  C   UNL     1     -26.309  -1.001  23.587  1.00  0.00    -0.003 C 
ATOM     12  C   UNL     1     -27.139  -1.940  24.458  1.00  0.00     0.004 C 
ENDBRANCH  10  11
ENDBRANCH   9  10
ENDBRANCH   8   9
ENDBRANCH   7   8
ENDBRANCH   6   7
ENDBRANCH   5   6
ENDBRANCH   4   5
ENDBRANCH   3   4
ENDBRANCH   2   3
ENDBRANCH   1   2
BRANCH   1  13
ATOM     13  C   UNL     1     -28.797  -0.017  27.013  1.00  0.00     0.000 C 
BRANCH  13  14
ATOM     14  C   UNL     1     -28.709   0.371  28.498  1.00  0.00     0.000 C 
BRANCH  14  15
ATOM     15  C   UNL     1     -29.909   1.212  28.967  1.00  0.00     0.000 C 
BRANCH  15  16
ATOM     16  C   UNL     1     -29.970   1.417  30.496  1.00  0.00     0.000 C 
BRANCH  16  17
ATOM     17  C   UNL     1     -30.508   2.807  30.876  1.00  0.00     0.000 C 
BRANCH  17  18
ATOM     18  C   UNL     1     -31.549   2.762  32.009  1.00  0.00     0.000 C 
BRANCH  18  19
ATOM     19  C   UNL     1     -31.082   3.351  33.351  1.00  0.00     0.000 C 
BRANCH  19  20
ATOM     20  C   UNL     1     -29.962   2.527  34.011  1.00  0.00     0.006 C 
BRANCH  20  21
ATOM     21  C   UNL     1     -28.603   3.236  33.940  1.00  0.00     0.053 C 
BRANCH  21  22
ATOM     22  C   UNL     1     -27.564   2.380  33.283  1.00  0.00     0.041 C 
ATOM     23  O   UNL     1     -26.444   2.866  32.973  1.00  0.00    -0.550 OA
ATOM     24  O   UNL     1     -27.822   1.037  33.040  1.00  0.00    -0.550 OA
ENDBRANCH  21  22
ENDBRANCH  20  21
ENDBRANCH  19  20
ENDBRANCH  18  19
ENDBRANCH  17  18
ENDBRANCH  16  17
ENDBRANCH  15  16
ENDBRANCH  14  15
ENDBRANCH  13  14
ENDBRANCH   1  13
TORSDOF 20
ENDMDL
MODEL 4
REMARK VINA RESULT:    -5.750      1.842      2.708
REMARK INTER + INTRA:         -14.703
REMARK INTER:                 -12.530
REMARK INTRA:                  -2.173
REMARK UNBOUND:                -2.230
REMARK SMILES CCCCCCCCCCCCCCCCCCCCCC(=O)[O-]
REMARK SMILES IDX 12 1 11 2 10 3 9 4 8 5 7 6 6 7 5 8 4 9 3 10 2 11 1 12 13 13
REMARK SMILES IDX 14 14 15 15 16 16 17 17 18 18 19 19 20 20 21 21 22 22 23 23
REMARK SMILES IDX 24 24
REMARK H PARENT
REMARK Flexibility Score: inf
ROOT
ATOM      1  C   UNL     1     -27.934  -0.254  26.153  1.00  0.00     0.000 C 
ENDROOT
BRANCH   1   2
ATOM      2  C   UNL     1     -28.609  -1.411  25.387  1.00  0.00     0.000 C 
BRANCH   2   3
ATOM      3  C   UNL     1     -27.693  -2.177  24.414  1.00  0.00     0.000 C 
BRANCH   3   4
ATOM      4  C   UNL     1     -26.646  -1.309  23.691  1.00  0.00    -0.000 C 
BRANCH   4   5
ATOM      5  C   UNL     1     -27.197  -0.577  22.449  1.00  0.00    -0.000 C 
BRANCH   5   6
ATOM      6  C   UNL     1     -27.729  -1.542  21.379  1.00  0.00    -0.000 C 
BRANCH   6   7
ATOM      7  C   UNL     1     -28.697  -0.828  20.428  1.00  0.00    -0.000 C 
BRANCH   7   8
ATOM      8  C   UNL     1     -30.117  -1.395  20.556  1.00  0.00    -0.000 C 
BRANCH   8   9
ATOM      9  C   UNL     1     -30.511  -1.558  22.032  1.00  0.00    -0.000 C 
BRANCH   9  10
ATOM     10  C   UNL     1     -31.365  -0.388  22.549  1.00  0.00    -0.000 C 
BRANCH  10  11
ATOM     11  C   UNL     1     -30.633   0.458  23.602  1.00  0.00    -0.003 C 
ATOM     12  C   UNL     1     -29.855   1.595  22.946  1.00  0.00     0.004 C 
ENDBRANCH  10  11
ENDBRANCH   9  10
ENDBRANCH   8   9
ENDBRANCH   7   8
ENDBRANCH   6   7
ENDBRANCH   5   6
ENDBRANCH   4   5
ENDBRANCH   3   4
ENDBRANCH   2   3
ENDBRANCH   1   2
BRANCH   1  13
ATOM     13  C   UNL     1     -28.602   0.132  27.486  1.00  0.00     0.000 C 
BRANCH  13  14
ATOM     14  C   UNL     1     -29.980   0.785  27.299  1.00  0.00     0.000 C 
BRANCH  14  15
ATOM     15  C   UNL     1     -30.440   1.574  28.538  1.00  0.00     0.000 C 
BRANCH  15  16
ATOM     16  C   UNL     1     -29.655   1.232  29.823  1.00  0.00     0.000 C 
BRANCH  16  17
ATOM     17  C   UNL     1     -30.484   1.485  31.095  1.00  0.00     0.000 C 
BRANCH  17  18
ATOM     18  C   UNL     1     -30.646   2.981  31.421  1.00  0.00     0.000 C 
BRANCH  18  19
ATOM     19  C   UNL     1     -31.121   3.291  32.852  1.00  0.00     0.000 C 
BRANCH  19  20
ATOM     20  C   UNL     1     -30.012   3.120  33.903  1.00  0.00     0.006 C 
BRANCH  20  21
ATOM     21  C   UNL     1     -28.683   3.737  33.448  1.00  0.00     0.053 C 
BRANCH  21  22
ATOM     22  C   UNL     1     -27.613   2.699  33.297  1.00  0.00     0.041 C 
ATOM     23  O   UNL     1     -26.419   3.044  33.087  1.00  0.00    -0.550 OA
ATOM     24  O   UNL     1     -27.928   1.352  33.419  1.00  0.00    -0.550 OA
ENDBRANCH  21  22
ENDBRANCH  20  21
ENDBRANCH  19  20
ENDBRANCH  18  19
ENDBRANCH  17  18
ENDBRANCH  16  17
ENDBRANCH  15  16
ENDBRANCH  14  15
ENDBRANCH  13  14
ENDBRANCH   1  13
TORSDOF 20
ENDMDL
MODEL 5
REMARK VINA RESULT:    -5.740      4.042     10.335
REMARK INTER + INTRA:         -14.681
REMARK INTER:                 -12.354
REMARK INTRA:                  -2.326
REMARK UNBOUND:                -2.230
REMARK SMILES CCCCCCCCCCCCCCCCCCCCCC(=O)[O-]
REMARK SMILES IDX 12 1 11 2 10 3 9 4 8 5 7 6 6 7 5 8 4 9 3 10 2 11 1 12 13 13
REMARK SMILES IDX 14 14 15 15 16 16 17 17 18 18 19 19 20 20 21 21 22 22 23 23
REMARK SMILES IDX 24 24
REMARK H PARENT
REMARK Flexibility Score: inf
ROOT
ATOM      1  C   UNL     1     -30.553  -0.038  26.780  1.00  0.00     0.000 C 
ENDROOT
BRANCH   1   2
ATOM      2  C   UNL     1     -29.880   1.102  27.574  1.00  0.00     0.000 C 
BRANCH   2   3
ATOM      3  C   UNL     1     -29.155   0.667  28.860  1.00  0.00     0.000 C 
BRANCH   3   4
ATOM      4  C   UNL     1     -29.565   1.439  30.129  1.00  0.00    -0.000 C 
BRANCH   4   5
ATOM      5  C   UNL     1     -29.086   0.779  31.439  1.00  0.00    -0.000 C 
BRANCH   5   6
ATOM      6  C   UNL     1     -28.142   1.683  32.247  1.00  0.00    -0.000 C 
BRANCH   6   7
ATOM      7  C   UNL     1     -28.570   3.152  32.148  1.00  0.00    -0.000 C 
BRANCH   7   8
ATOM      8  C   UNL     1     -28.920   3.721  33.529  1.00  0.00    -0.000 C 
BRANCH   8   9
ATOM      9  C   UNL     1     -30.356   3.347  33.927  1.00  0.00    -0.000 C 
BRANCH   9  10
ATOM     10  C   UNL     1     -31.331   3.389  32.738  1.00  0.00    -0.000 C 
BRANCH  10  11
ATOM     11  C   UNL     1     -32.276   2.179  32.706  1.00  0.00    -0.003 C 
ATOM     12  C   UNL     1     -31.908   1.167  33.787  1.00  0.00     0.004 C 
ENDBRANCH  10  11
ENDBRANCH   9  10
ENDBRANCH   8   9
ENDBRANCH   7   8
ENDBRANCH   6   7
ENDBRANCH   5   6
ENDBRANCH   4   5
ENDBRANCH   3   4
ENDBRANCH   2   3
ENDBRANCH   1   2
BRANCH   1  13
ATOM     13  C   UNL     1     -29.765  -0.544  25.558  1.00  0.00     0.000 C 
BRANCH  13  14
ATOM     14  C   UNL     1     -30.669  -0.899  24.366  1.00  0.00     0.000 C 
BRANCH  14  15
ATOM     15  C   UNL     1     -30.700   0.201  23.291  1.00  0.00     0.000 C 
BRANCH  15  16
ATOM     16  C   UNL     1     -29.643   1.309  23.500  1.00  0.00     0.000 C 
BRANCH  16  17
ATOM     17  C   UNL     1     -28.432   1.139  22.566  1.00  0.00     0.000 C 
BRANCH  17  18
ATOM     18  C   UNL     1     -27.201   0.548  23.277  1.00  0.00     0.000 C 
BRANCH  18  19
ATOM     19  C   UNL     1     -26.860  -0.904  22.895  1.00  0.00     0.000 C 
BRANCH  19  20
ATOM     20  C   UNL     1     -27.349  -1.286  21.488  1.00  0.00     0.006 C 
BRANCH  20  21
ATOM     21  C   UNL     1     -28.548  -2.242  21.532  1.00  0.00     0.053 C 
BRANCH  21  22
ATOM     22  C   UNL     1     -29.409  -2.109  20.313  1.00  0.00     0.041 C 
ATOM     23  O   UNL     1     -30.504  -1.489  20.373  1.00  0.00    -0.550 OA
ATOM     24  O   UNL     1     -28.987  -2.645  19.103  1.00  0.00    -0.550 OA
ENDBRANCH  21  22
ENDBRANCH  20  21
ENDBRANCH  19  20
ENDBRANCH  18  19
ENDBRANCH  17  18
ENDBRANCH  16  17
ENDBRANCH  15  16
ENDBRANCH  14  15
ENDBRANCH  13  14
ENDBRANCH   1  13
TORSDOF 20
ENDMDL
MODEL 6
REMARK VINA RESULT:    -5.724      2.790      9.895
REMARK INTER + INTRA:         -14.647
REMARK INTER:                 -12.239
REMARK INTRA:                  -2.409
REMARK UNBOUND:                -2.230
REMARK SMILES CCCCCCCCCCCCCCCCCCCCCC(=O)[O-]
REMARK SMILES IDX 12 1 11 2 10 3 9 4 8 5 7 6 6 7 5 8 4 9 3 10 2 11 1 12 13 13
REMARK SMILES IDX 14 14 15 15 16 16 17 17 18 18 19 19 20 20 21 21 22 22 23 23
REMARK SMILES IDX 24 24
REMARK H PARENT
REMARK Flexibility Score: inf
ROOT
ATOM      1  C   UNL     1     -30.051   1.086  27.967  1.00  0.00     0.000 C 
ENDROOT
BRANCH   1   2
ATOM      2  C   UNL     1     -30.270   1.482  29.443  1.00  0.00     0.000 C 
BRANCH   2   3
ATOM      3  C   UNL     1     -29.001   1.499  30.314  1.00  0.00     0.000 C 
BRANCH   3   4
ATOM      4  C   UNL     1     -29.052   0.586  31.553  1.00  0.00    -0.000 C 
BRANCH   4   5
ATOM      5  C   UNL     1     -27.883   0.806  32.536  1.00  0.00    -0.000 C 
BRANCH   5   6
ATOM      6  C   UNL     1     -28.295   1.616  33.775  1.00  0.00    -0.000 C 
BRANCH   6   7
ATOM      7  C   UNL     1     -27.767   3.053  33.692  1.00  0.00    -0.000 C 
BRANCH   7   8
ATOM      8  C   UNL     1     -28.918   4.067  33.728  1.00  0.00    -0.000 C 
BRANCH   8   9
ATOM      9  C   UNL     1     -30.258   3.365  33.993  1.00  0.00    -0.000 C 
BRANCH   9  10
ATOM     10  C   UNL     1     -31.157   3.314  32.746  1.00  0.00    -0.000 C 
BRANCH  10  11
ATOM     11  C   UNL     1     -32.414   2.457  32.959  1.00  0.00    -0.003 C 
ATOM     12  C   UNL     1     -32.050   1.067  33.472  1.00  0.00     0.004 C 
ENDBRANCH  10  11
ENDBRANCH   9  10
ENDBRANCH   8   9
ENDBRANCH   7   8
ENDBRANCH   6   7
ENDBRANCH   5   6
ENDBRANCH   4   5
ENDBRANCH   3   4
ENDBRANCH   2   3
ENDBRANCH   1   2
BRANCH   1  13
ATOM     13  C   UNL     1     -28.781   0.262  27.688  1.00  0.00     0.000 C 
BRANCH  13  14
ATOM     14  C   UNL     1     -28.946  -0.715  26.513  1.00  0.00     0.000 C 
BRANCH  14  15
ATOM     15  C   UNL     1     -27.820  -0.591  25.471  1.00  0.00     0.000 C 
BRANCH  15  16
ATOM     16  C   UNL     1     -27.953   0.642  24.550  1.00  0.00     0.000 C 
BRANCH  16  17
ATOM     17  C   UNL     1     -27.088   0.517  23.284  1.00  0.00     0.000 C 
BRANCH  17  18
ATOM     18  C   UNL     1     -27.354  -0.779  22.497  1.00  0.00     0.000 C 
BRANCH  18  19
ATOM     19  C   UNL     1     -28.088  -0.592  21.157  1.00  0.00     0.000 C 
BRANCH  19  20
ATOM     20  C   UNL     1     -29.542  -1.093  21.194  1.00  0.00     0.006 C 
BRANCH  20  21
ATOM     21  C   UNL     1     -29.830  -1.942  22.440  1.00  0.00     0.053 C 
BRANCH  21  22
ATOM     22  C   UNL     1     -30.861  -1.304  23.319  1.00  0.00     0.041 C 
ATOM     23  O   UNL     1     -31.209  -0.108  23.126  1.00  0.00    -0.550 OA
ATOM     24  O   UNL     1     -31.461  -2.039  24.334  1.00  0.00    -0.550 OA
ENDBRANCH  21  22
ENDBRANCH  20  21
ENDBRANCH  19  20
ENDBRANCH  18  19
ENDBRANCH  17  18
ENDBRANCH  16  17
ENDBRANCH  15  16
ENDBRANCH  14  15
ENDBRANCH  13  14
ENDBRANCH   1  13
TORSDOF 20
ENDMDL
MODEL 7
REMARK VINA RESULT:    -5.711      6.991     12.571
REMARK INTER + INTRA:         -14.618
REMARK INTER:                 -11.579
REMARK INTRA:                  -3.039
REMARK UNBOUND:                -2.230
REMARK SMILES CCCCCCCCCCCCCCCCCCCCCC(=O)[O-]
REMARK SMILES IDX 12 1 11 2 10 3 9 4 8 5 7 6 6 7 5 8 4 9 3 10 2 11 1 12 13 13
REMARK SMILES IDX 14 14 15 15 16 16 17 17 18 18 19 19 20 20 21 21 22 22 23 23
REMARK SMILES IDX 24 24
REMARK H PARENT
REMARK Flexibility Score: inf
ROOT
ATOM      1  C   UNL     1     -27.695   0.577  22.443  1.00  0.00     0.000 C 
ENDROOT
BRANCH   1   2
ATOM      2  C   UNL     1     -29.013   1.358  22.252  1.00  0.00     0.000 C 
BRANCH   2   3
ATOM      3  C   UNL     1     -29.996   1.286  23.434  1.00  0.00     0.000 C 
BRANCH   3   4
ATOM      4  C   UNL     1     -31.402   0.766  23.078  1.00  0.00    -0.000 C 
BRANCH   4   5
ATOM      5  C   UNL     1     -31.436  -0.735  22.721  1.00  0.00    -0.000 C 
BRANCH   5   6
ATOM      6  C   UNL     1     -31.129  -1.638  23.925  1.00  0.00    -0.000 C 
BRANCH   6   7
ATOM      7  C   UNL     1     -30.131  -2.738  23.547  1.00  0.00    -0.000 C 
BRANCH   7   8
ATOM      8  C   UNL     1     -28.740  -2.444  24.124  1.00  0.00    -0.000 C 
BRANCH   8   9
ATOM      9  C   UNL     1     -28.846  -1.615  25.413  1.00  0.00    -0.000 C 
BRANCH   9  10
ATOM     10  C   UNL     1     -27.616  -0.723  25.647  1.00  0.00    -0.000 C 
BRANCH  10  11
ATOM     11  C   UNL     1     -27.970   0.604  26.334  1.00  0.00    -0.003 C 
ATOM     12  C   UNL     1     -29.275   0.486  27.115  1.00  0.00     0.004 C 
ENDBRANCH  10  11
ENDBRANCH   9  10
ENDBRANCH   8   9
ENDBRANCH   7   8
ENDBRANCH   6   7
ENDBRANCH   5   6
ENDBRANCH   4   5
ENDBRANCH   3   4
ENDBRANCH   2   3
ENDBRANCH   1   2
BRANCH   1  13
ATOM     13  C   UNL     1     -27.371  -0.449  21.341  1.00  0.00     0.000 C 
BRANCH  13  14
ATOM     14  C   UNL     1     -28.560  -0.718  20.404  1.00  0.00     0.000 C 
BRANCH  14  15
ATOM     15  C   UNL     1     -28.849  -2.219  20.224  1.00  0.00     0.000 C 
BRANCH  15  16
ATOM     16  C   UNL     1     -29.226  -2.614  18.779  1.00  0.00     0.000 C 
BRANCH  16  17
ATOM     17  C   UNL     1     -28.155  -2.184  17.761  1.00  0.00     0.000 C 
BRANCH  17  18
ATOM     18  C   UNL     1     -28.592  -2.397  16.300  1.00  0.00     0.000 C 
BRANCH  18  19
ATOM     19  C   UNL     1     -28.792  -3.864  15.883  1.00  0.00     0.000 C 
BRANCH  19  20
ATOM     20  C   UNL     1     -28.076  -4.218  14.569  1.00  0.00     0.006 C 
BRANCH  20  21
ATOM     21  C   UNL     1     -27.424  -2.991  13.917  1.00  0.00     0.053 C 
BRANCH  21  22
ATOM     22  C   UNL     1     -25.932  -3.022  14.045  1.00  0.00     0.041 C 
ATOM     23  O   UNL     1     -25.293  -1.965  14.293  1.00  0.00    -0.550 OA
ATOM     24  O   UNL     1     -25.248  -4.225  13.920  1.00  0.00    -0.550 OA
ENDBRANCH  21  22
ENDBRANCH  20  21
ENDBRANCH  19  20
ENDBRANCH  18  19
ENDBRANCH  17  18
ENDBRANCH  16  17
ENDBRANCH  15  16
ENDBRANCH  14  15
ENDBRANCH  13  14
ENDBRANCH   1  13
TORSDOF 20
ENDMDL
MODEL 8
REMARK VINA RESULT:    -5.684      3.483     10.150
REMARK INTER + INTRA:         -14.559
REMARK INTER:                 -12.108
REMARK INTRA:                  -2.451
REMARK UNBOUND:                -2.230
REMARK SMILES CCCCCCCCCCCCCCCCCCCCCC(=O)[O-]
REMARK SMILES IDX 12 1 11 2 10 3 9 4 8 5 7 6 6 7 5 8 4 9 3 10 2 11 1 12 13 13
REMARK SMILES IDX 14 14 15 15 16 16 17 17 18 18 19 19 20 20 21 21 22 22 23 23
REMARK SMILES IDX 24 24
REMARK H PARENT
REMARK Flexibility Score: inf
ROOT
ATOM      1  C   UNL     1     -27.990   0.404  27.007  1.00  0.00     0.000 C 
ENDROOT
BRANCH   1   2
ATOM      2  C   UNL     1     -28.864   0.092  28.240  1.00  0.00     0.000 C 
BRANCH   2   3
ATOM      3  C   UNL     1     -29.931   1.150  28.574  1.00  0.00     0.000 C 
BRANCH   3   4
ATOM      4  C   UNL     1     -29.940   1.623  30.040  1.00  0.00    -0.000 C 
BRANCH   4   5
ATOM      5  C   UNL     1     -29.062   0.764  30.974  1.00  0.00    -0.000 C 
BRANCH   5   6
ATOM      6  C   UNL     1     -28.328   1.601  32.033  1.00  0.00    -0.000 C 
BRANCH   6   7
ATOM      7  C   UNL     1     -28.868   3.036  32.069  1.00  0.00    -0.000 C 
BRANCH   7   8
ATOM      8  C   UNL     1     -29.028   3.530  33.513  1.00  0.00    -0.000 C 
BRANCH   8   9
ATOM      9  C   UNL     1     -30.499   3.469  33.952  1.00  0.00    -0.000 C 
BRANCH   9  10
ATOM     10  C   UNL     1     -31.468   3.356  32.764  1.00  0.00    -0.000 C 
BRANCH  10  11
ATOM     11  C   UNL     1     -32.469   2.202  32.926  1.00  0.00    -0.003 C 
ATOM     12  C   UNL     1     -31.796   0.973  33.529  1.00  0.00     0.004 C 
ENDBRANCH  10  11
ENDBRANCH   9  10
ENDBRANCH   8   9
ENDBRANCH   7   8
ENDBRANCH   6   7
ENDBRANCH   5   6
ENDBRANCH   4   5
ENDBRANCH   3   4
ENDBRANCH   2   3
ENDBRANCH   1   2
BRANCH   1  13
ATOM     13  C   UNL     1     -28.491  -0.189  25.677  1.00  0.00     0.000 C 
BRANCH  13  14
ATOM     14  C   UNL     1     -29.410   0.768  24.901  1.00  0.00     0.000 C 
BRANCH  14  15
ATOM     15  C   UNL     1     -30.735   0.110  24.476  1.00  0.00     0.000 C 
BRANCH  15  16
ATOM     16  C   UNL     1     -30.733  -1.430  24.591  1.00  0.00     0.000 C 
BRANCH  16  17
ATOM     17  C   UNL     1     -30.794  -2.115  23.214  1.00  0.00     0.000 C 
BRANCH  17  18
ATOM     18  C   UNL     1     -30.985  -1.121  22.054  1.00  0.00     0.000 C 
BRANCH  18  19
ATOM     19  C   UNL     1     -30.144  -1.411  20.798  1.00  0.00     0.000 C 
BRANCH  19  20
ATOM     20  C   UNL     1     -28.854  -0.577  20.733  1.00  0.00     0.006 C 
BRANCH  20  21
ATOM     21  C   UNL     1     -27.636  -1.354  21.251  1.00  0.00     0.053 C 
BRANCH  21  22
ATOM     22  C   UNL     1     -26.958  -0.637  22.378  1.00  0.00     0.041 C 
ATOM     23  O   UNL     1     -27.086   0.609  22.506  1.00  0.00    -0.550 OA
ATOM     24  O   UNL     1     -26.210  -1.351  23.306  1.00  0.00    -0.550 OA
ENDBRANCH  21  22
ENDBRANCH  20  21
ENDBRANCH  19  20
ENDBRANCH  18  19
ENDBRANCH  17  18
ENDBRANCH  16  17
ENDBRANCH  15  16
ENDBRANCH  14  15
ENDBRANCH  13  14
ENDBRANCH   1  13
TORSDOF 20
ENDMDL
MODEL 9
REMARK VINA RESULT:    -5.609      0.951      2.455
REMARK INTER + INTRA:         -14.396
REMARK INTER:                 -12.067
REMARK INTRA:                  -2.329
REMARK UNBOUND:                -2.230
REMARK SMILES CCCCCCCCCCCCCCCCCCCCCC(=O)[O-]
REMARK SMILES IDX 12 1 11 2 10 3 9 4 8 5 7 6 6 7 5 8 4 9 3 10 2 11 1 12 13 13
REMARK SMILES IDX 14 14 15 15 16 16 17 17 18 18 19 19 20 20 21 21 22 22 23 23
REMARK SMILES IDX 24 24
REMARK H PARENT
REMARK Flexibility Score: inf
ROOT
ATOM      1  C   UNL     1     -30.616   0.076  26.037  1.00  0.00     0.000 C 
ENDROOT
BRANCH   1   2
ATOM      2  C   UNL     1     -30.114  -1.211  25.349  1.00  0.00     0.000 C 
BRANCH   2   3
ATOM      3  C   UNL     1     -30.980  -1.710  24.178  1.00  0.00     0.000 C 
BRANCH   3   4
ATOM      4  C   UNL     1     -31.365  -0.630  23.149  1.00  0.00    -0.000 C 
BRANCH   4   5
ATOM      5  C   UNL     1     -30.797  -0.885  21.738  1.00  0.00    -0.000 C 
BRANCH   5   6
ATOM      6  C   UNL     1     -29.710  -1.971  21.724  1.00  0.00    -0.000 C 
BRANCH   6   7
ATOM      7  C   UNL     1     -28.633  -1.657  20.679  1.00  0.00    -0.000 C 
BRANCH   7   8
ATOM      8  C   UNL     1     -27.283  -1.366  21.347  1.00  0.00    -0.000 C 
BRANCH   8   9
ATOM      9  C   UNL     1     -27.373  -1.555  22.869  1.00  0.00    -0.000 C 
BRANCH   9  10
ATOM     10  C   UNL     1     -26.857  -0.334  23.649  1.00  0.00    -0.000 C 
BRANCH  10  11
ATOM     11  C   UNL     1     -27.145   0.992  22.930  1.00  0.00    -0.003 C 
ATOM     12  C   UNL     1     -28.572   1.462  23.197  1.00  0.00     0.004 C 
ENDBRANCH  10  11
ENDBRANCH   9  10
ENDBRANCH   8   9
ENDBRANCH   7   8
ENDBRANCH   6   7
ENDBRANCH   5   6
ENDBRANCH   4   5
ENDBRANCH   3   4
ENDBRANCH   2   3
ENDBRANCH   1   2
BRANCH   1  13
ATOM     13  C   UNL     1     -29.571   0.816  26.893  1.00  0.00     0.000 C 
BRANCH  13  14
ATOM     14  C   UNL     1     -30.070   1.127  28.313  1.00  0.00     0.000 C 
BRANCH  14  15
ATOM     15  C   UNL     1     -29.045   0.759  29.400  1.00  0.00     0.000 C 
BRANCH  15  16
ATOM     16  C   UNL     1     -29.463   1.187  30.824  1.00  0.00     0.000 C 
BRANCH  16  17
ATOM     17  C   UNL     1     -28.348   1.963  31.548  1.00  0.00     0.000 C 
BRANCH  17  18
ATOM     18  C   UNL     1     -28.147   1.508  33.005  1.00  0.00     0.000 C 
BRANCH  18  19
ATOM     19  C   UNL     1     -29.349   1.747  33.937  1.00  0.00     0.000 C 
BRANCH  19  20
ATOM     20  C   UNL     1     -29.847   3.202  33.913  1.00  0.00     0.006 C 
BRANCH  20  21
ATOM     21  C   UNL     1     -31.364   3.298  34.122  1.00  0.00     0.053 C 
BRANCH  21  22
ATOM     22  C   UNL     1     -32.118   2.552  33.064  1.00  0.00     0.041 C 
ATOM     23  O   UNL     1     -32.207   3.021  31.898  1.00  0.00    -0.550 OA
ATOM     24  O   UNL     1     -32.698   1.324  33.357  1.00  0.00    -0.550 OA
ENDBRANCH  21  22
ENDBRANCH  20  21
ENDBRANCH  19  20
ENDBRANCH  18  19
ENDBRANCH  17  18
ENDBRANCH  16  17
ENDBRANCH  15  16
ENDBRANCH  14  15
ENDBRANCH  13  14
ENDBRANCH   1  13
TORSDOF 20
ENDMDL
