MODEL 1
REMARK VINA RESULT:    -3.879      0.000      0.000
REMARK INTER + INTRA:          -4.773
REMARK INTER:                  -4.446
REMARK INTRA:                  -0.327
REMARK UNBOUND:                -0.327
REMARK SMILES COC(=O)c1ccccc1O
REMARK SMILES IDX 5 1 6 2 7 3 8 4 9 5 10 6 3 7 4 8 2 9 1 10 11 11
REMARK H PARENT 11 12
REMARK Flexibility Score: inf
ROOT
ATOM      1  C   UNL     1      41.380 185.333  32.340  1.00  0.00     0.101 A 
ATOM      2  C   UNL     1      40.257 185.401  31.490  1.00  0.00     0.019 A 
ATOM      3  C   UNL     1      39.461 186.548  31.449  1.00  0.00     0.001 A 
ATOM      4  C   UNL     1      39.770 187.643  32.254  1.00  0.00     0.004 A 
ATOM      5  C   UNL     1      40.876 187.596  33.101  1.00  0.00     0.047 A 
ATOM      6  C   UNL     1      41.686 186.450  33.153  1.00  0.00     0.130 A 
ENDROOT
BRANCH   1   7
ATOM      7  C   UNL     1      42.209 184.100  32.362  1.00  0.00     0.341 C 
ATOM      8  O   UNL     1      41.659 182.977  32.536  1.00  0.00    -0.246 OA
BRANCH   7   9
ATOM      9  O   UNL     1      43.595 184.172  32.190  1.00  0.00    -0.465 OA
ATOM     10  C   UNL     1      44.511 183.466  33.018  1.00  0.00     0.282 C 
ENDBRANCH   7   9
ENDBRANCH   1   7
BRANCH   6  11
ATOM     11  O   UNL     1      42.785 186.431  34.010  1.00  0.00    -0.507 OA
ATOM     12  H   UNL     1      43.124 185.570  34.424  1.00  0.00     0.293 HD
ENDBRANCH   6  11
TORSDOF 3
ENDMDL
MODEL 2
REMARK VINA RESULT:    -3.801      2.101      3.954
REMARK INTER + INTRA:          -4.683
REMARK INTER:                  -4.418
REMARK INTRA:                  -0.265
REMARK UNBOUND:                -0.327
REMARK SMILES COC(=O)c1ccccc1O
REMARK SMILES IDX 5 1 6 2 7 3 8 4 9 5 10 6 3 7 4 8 2 9 1 10 11 11
REMARK H PARENT 11 12
REMARK Flexibility Score: inf
ROOT
ATOM      1  C   UNL     1      41.269 185.504  32.243  1.00  0.00     0.101 A 
ATOM      2  C   UNL     1      41.689 184.173  32.047  1.00  0.00     0.019 A 
ATOM      3  C   UNL     1      42.601 183.576  32.920  1.00  0.00     0.001 A 
ATOM      4  C   UNL     1      43.109 184.295  34.000  1.00  0.00     0.004 A 
ATOM      5  C   UNL     1      42.706 185.613  34.212  1.00  0.00     0.047 A 
ATOM      6  C   UNL     1      41.789 186.226  33.343  1.00  0.00     0.130 A 
ENDROOT
BRANCH   1   7
ATOM      7  C   UNL     1      40.296 186.113  31.298  1.00  0.00     0.341 C 
ATOM      8  O   UNL     1      40.241 185.704  30.105  1.00  0.00    -0.246 OA
BRANCH   7   9
ATOM      9  O   UNL     1      39.441 187.136  31.719  1.00  0.00    -0.465 OA
ATOM     10  C   UNL     1      38.340 187.588  30.940  1.00  0.00     0.282 C 
ENDBRANCH   7   9
ENDBRANCH   1   7
BRANCH   6  11
ATOM     11  O   UNL     1      41.404 187.545  33.579  1.00  0.00    -0.507 OA
ATOM     12  H   UNL     1      41.446 188.252  32.853  1.00  0.00     0.293 HD
ENDBRANCH   6  11
TORSDOF 3
ENDMDL
MODEL 3
REMARK VINA RESULT:    -3.799     21.721     22.793
REMARK INTER + INTRA:          -4.682
REMARK INTER:                  -4.378
REMARK INTRA:                  -0.304
REMARK UNBOUND:                -0.327
REMARK SMILES COC(=O)c1ccccc1O
REMARK SMILES IDX 5 1 6 2 7 3 8 4 9 5 10 6 3 7 4 8 2 9 1 10 11 11
REMARK H PARENT 11 12
REMARK Flexibility Score: inf
ROOT
ATOM      1  C   UNL     1      33.152 170.805  17.457  1.00  0.00     0.101 A 
ATOM      2  C   UNL     1      32.366 171.457  16.486  1.00  0.00     0.019 A 
ATOM      3  C   UNL     1      32.869 171.702  15.206  1.00  0.00     0.001 A 
ATOM      4  C   UNL     1      34.163 171.302  14.875  1.00  0.00     0.004 A 
ATOM      5  C   UNL     1      34.956 170.655  15.821  1.00  0.00     0.047 A 
ATOM      6  C   UNL     1      34.464 170.402  17.111  1.00  0.00     0.130 A 
ENDROOT
BRANCH   1   7
ATOM      7  C   UNL     1      32.589 170.557  18.810  1.00  0.00     0.341 C 
ATOM      8  O   UNL     1      31.744 171.359  19.295  1.00  0.00    -0.246 OA
BRANCH   7   9
ATOM      9  O   UNL     1      32.989 169.441  19.553  1.00  0.00    -0.465 OA
ATOM     10  C   UNL     1      33.161 169.478  20.964  1.00  0.00     0.282 C 
ENDBRANCH   7   9
ENDBRANCH   1   7
BRANCH   6  11
ATOM     11  O   UNL     1      35.280 169.753  18.037  1.00  0.00    -0.507 OA
ATOM     12  H   UNL     1      35.837 170.267  18.710  1.00  0.00     0.293 HD
ENDBRANCH   6  11
TORSDOF 3
ENDMDL
MODEL 4
REMARK VINA RESULT:    -3.766      1.570      2.313
REMARK INTER + INTRA:          -4.643
REMARK INTER:                  -4.393
REMARK INTRA:                  -0.251
REMARK UNBOUND:                -0.327
REMARK SMILES COC(=O)c1ccccc1O
REMARK SMILES IDX 5 1 6 2 7 3 8 4 9 5 10 6 3 7 4 8 2 9 1 10 11 11
REMARK H PARENT 11 12
REMARK Flexibility Score: inf
ROOT
ATOM      1  C   UNL     1      40.889 185.318  32.618  1.00  0.00     0.101 A 
ATOM      2  C   UNL     1      39.838 184.898  33.458  1.00  0.00     0.019 A 
ATOM      3  C   UNL     1      38.506 185.035  33.060  1.00  0.00     0.001 A 
ATOM      4  C   UNL     1      38.201 185.594  31.819  1.00  0.00     0.004 A 
ATOM      5  C   UNL     1      39.226 186.016  30.974  1.00  0.00     0.047 A 
ATOM      6  C   UNL     1      40.569 185.883  31.361  1.00  0.00     0.130 A 
ENDROOT
BRANCH   1   7
ATOM      7  C   UNL     1      42.296 185.159  33.069  1.00  0.00     0.341 C 
ATOM      8  O   UNL     1      42.691 185.747  34.113  1.00  0.00    -0.246 OA
BRANCH   7   9
ATOM      9  O   UNL     1      43.189 184.361  32.345  1.00  0.00    -0.465 OA
ATOM     10  C   UNL     1      44.196 183.575  32.967  1.00  0.00     0.282 C 
ENDBRANCH   7   9
ENDBRANCH   1   7
BRANCH   6  11
ATOM     11  O   UNL     1      41.573 186.314  30.494  1.00  0.00    -0.507 OA
ATOM     12  H   UNL     1      42.550 186.309  30.766  1.00  0.00     0.293 HD
ENDBRANCH   6  11
TORSDOF 3
ENDMDL
MODEL 5
REMARK VINA RESULT:    -3.700      1.401      2.025
REMARK INTER + INTRA:          -4.568
REMARK INTER:                  -4.295
REMARK INTRA:                  -0.273
REMARK UNBOUND:                -0.327
REMARK SMILES COC(=O)c1ccccc1O
REMARK SMILES IDX 5 1 6 2 7 3 8 4 9 5 10 6 3 7 4 8 2 9 1 10 11 11
REMARK H PARENT 11 12
REMARK Flexibility Score: inf
ROOT
ATOM      1  C   UNL     1      40.981 185.441  32.197  1.00  0.00     0.101 A 
ATOM      2  C   UNL     1      40.867 185.809  30.841  1.00  0.00     0.019 A 
ATOM      3  C   UNL     1      39.621 186.108  30.285  1.00  0.00     0.001 A 
ATOM      4  C   UNL     1      38.471 186.044  31.070  1.00  0.00     0.004 A 
ATOM      5  C   UNL     1      38.563 185.682  32.413  1.00  0.00     0.047 A 
ATOM      6  C   UNL     1      39.808 185.380  32.986  1.00  0.00     0.130 A 
ENDROOT
BRANCH   1   7
ATOM      7  C   UNL     1      42.320 185.129  32.761  1.00  0.00     0.341 C 
ATOM      8  O   UNL     1      42.734 185.753  33.777  1.00  0.00    -0.246 OA
BRANCH   7   9
ATOM      9  O   UNL     1      43.128 184.148  32.176  1.00  0.00    -0.465 OA
ATOM     10  C   UNL     1      44.301 183.643  32.801  1.00  0.00     0.282 C 
ENDBRANCH   7   9
ENDBRANCH   1   7
BRANCH   6  11
ATOM     11  O   UNL     1      39.870 185.021  34.332  1.00  0.00    -0.507 OA
ATOM     12  H   UNL     1      40.611 184.430  34.693  1.00  0.00     0.293 HD
ENDBRANCH   6  11
TORSDOF 3
ENDMDL
MODEL 6
REMARK VINA RESULT:    -3.697     21.769     22.848
REMARK INTER + INTRA:          -4.565
REMARK INTER:                  -4.235
REMARK INTRA:                  -0.330
REMARK UNBOUND:                -0.327
REMARK SMILES COC(=O)c1ccccc1O
REMARK SMILES IDX 5 1 6 2 7 3 8 4 9 5 10 6 3 7 4 8 2 9 1 10 11 11
REMARK H PARENT 11 12
REMARK Flexibility Score: inf
ROOT
ATOM      1  C   UNL     1      32.986 170.876  17.486  1.00  0.00     0.101 A 
ATOM      2  C   UNL     1      33.081 171.562  16.259  1.00  0.00     0.019 A 
ATOM      3  C   UNL     1      34.196 171.398  15.433  1.00  0.00     0.001 A 
ATOM      4  C   UNL     1      35.233 170.550  15.818  1.00  0.00     0.004 A 
ATOM      5  C   UNL     1      35.158 169.862  17.028  1.00  0.00     0.047 A 
ATOM      6  C   UNL     1      34.044 170.016  17.868  1.00  0.00     0.130 A 
ENDROOT
BRANCH   1   7
ATOM      7  C   UNL     1      31.788 171.069  18.344  1.00  0.00     0.341 C 
ATOM      8  O   UNL     1      30.636 171.047  17.827  1.00  0.00    -0.246 OA
BRANCH   7   9
ATOM      9  O   UNL     1      31.924 171.276  19.721  1.00  0.00    -0.465 OA
ATOM     10  C   UNL     1      31.089 170.642  20.680  1.00  0.00     0.282 C 
ENDBRANCH   7   9
ENDBRANCH   1   7
BRANCH   6  11
ATOM     11  O   UNL     1      33.997 169.316  19.073  1.00  0.00    -0.507 OA
ATOM     12  H   UNL     1      33.379 169.593  19.828  1.00  0.00     0.293 HD
ENDBRANCH   6  11
TORSDOF 3
ENDMDL
MODEL 7
REMARK VINA RESULT:    -3.682      2.955      4.583
REMARK INTER + INTRA:          -4.547
REMARK INTER:                  -4.281
REMARK INTRA:                  -0.266
REMARK UNBOUND:                -0.327
REMARK SMILES COC(=O)c1ccccc1O
REMARK SMILES IDX 5 1 6 2 7 3 8 4 9 5 10 6 3 7 4 8 2 9 1 10 11 11
REMARK H PARENT 11 12
REMARK Flexibility Score: inf
ROOT
ATOM      1  C   UNL     1      39.395 186.037  31.951  1.00  0.00     0.101 A 
ATOM      2  C   UNL     1      39.518 186.486  33.281  1.00  0.00     0.019 A 
ATOM      3  C   UNL     1      40.776 186.714  33.845  1.00  0.00     0.001 A 
ATOM      4  C   UNL     1      41.929 186.497  33.092  1.00  0.00     0.004 A 
ATOM      5  C   UNL     1      41.829 186.053  31.774  1.00  0.00     0.047 A 
ATOM      6  C   UNL     1      40.572 185.820  31.195  1.00  0.00     0.130 A 
ENDROOT
BRANCH   1   7
ATOM      7  C   UNL     1      38.044 185.804  31.379  1.00  0.00     0.341 C 
ATOM      8  O   UNL     1      37.805 186.125  30.181  1.00  0.00    -0.246 OA
BRANCH   7   9
ATOM      9  O   UNL     1      37.031 185.230  32.155  1.00  0.00    -0.465 OA
ATOM     10  C   UNL     1      35.891 184.598  31.587  1.00  0.00     0.282 C 
ENDBRANCH   7   9
ENDBRANCH   1   7
BRANCH   6  11
ATOM     11  O   UNL     1      40.501 185.376  29.875  1.00  0.00    -0.507 OA
ATOM     12  H   UNL     1      40.505 184.388  29.644  1.00  0.00     0.293 HD
ENDBRANCH   6  11
TORSDOF 3
ENDMDL
MODEL 8
REMARK VINA RESULT:    -3.671      2.152      4.461
REMARK INTER + INTRA:          -4.535
REMARK INTER:                  -4.200
REMARK INTRA:                  -0.335
REMARK UNBOUND:                -0.327
REMARK SMILES COC(=O)c1ccccc1O
REMARK SMILES IDX 5 1 6 2 7 3 8 4 9 5 10 6 3 7 4 8 2 9 1 10 11 11
REMARK H PARENT 11 12
REMARK Flexibility Score: inf
ROOT
ATOM      1  C   UNL     1      41.239 186.383  32.807  1.00  0.00     0.101 A 
ATOM      2  C   UNL     1      41.854 186.342  34.074  1.00  0.00     0.019 A 
ATOM      3  C   UNL     1      42.754 185.325  34.399  1.00  0.00     0.001 A 
ATOM      4  C   UNL     1      43.054 184.332  33.467  1.00  0.00     0.004 A 
ATOM      5  C   UNL     1      42.456 184.355  32.207  1.00  0.00     0.047 A 
ATOM      6  C   UNL     1      41.550 185.372  31.867  1.00  0.00     0.130 A 
ENDROOT
BRANCH   1   7
ATOM      7  C   UNL     1      40.285 187.478  32.490  1.00  0.00     0.341 C 
ATOM      8  O   UNL     1      40.492 188.640  32.940  1.00  0.00    -0.246 OA
BRANCH   7   9
ATOM      9  O   UNL     1      39.160 187.234  31.696  1.00  0.00    -0.465 OA
ATOM     10  C   UNL     1      38.009 186.554  32.182  1.00  0.00     0.282 C 
ENDBRANCH   7   9
ENDBRANCH   1   7
BRANCH   6  11
ATOM     11  O   UNL     1      40.967 185.369  30.600  1.00  0.00    -0.507 OA
ATOM     12  H   UNL     1      41.362 184.838  29.832  1.00  0.00     0.293 HD
ENDBRANCH   6  11
TORSDOF 3
ENDMDL
MODEL 9
REMARK VINA RESULT:    -3.640      1.353      1.887
REMARK INTER + INTRA:          -4.499
REMARK INTER:                  -4.250
REMARK INTRA:                  -0.249
REMARK UNBOUND:                -0.327
REMARK SMILES COC(=O)c1ccccc1O
REMARK SMILES IDX 5 1 6 2 7 3 8 4 9 5 10 6 3 7 4 8 2 9 1 10 11 11
REMARK H PARENT 11 12
REMARK Flexibility Score: inf
ROOT
ATOM      1  C   UNL     1      41.574 185.279  33.076  1.00  0.00     0.101 A 
ATOM      2  C   UNL     1      41.181 185.386  34.426  1.00  0.00     0.019 A 
ATOM      3  C   UNL     1      40.597 186.559  34.909  1.00  0.00     0.001 A 
ATOM      4  C   UNL     1      40.395 187.643  34.056  1.00  0.00     0.004 A 
ATOM      5  C   UNL     1      40.777 187.558  32.718  1.00  0.00     0.047 A 
ATOM      6  C   UNL     1      41.365 186.385  32.218  1.00  0.00     0.130 A 
ENDROOT
BRANCH   1   7
ATOM      7  C   UNL     1      42.193 184.019  32.590  1.00  0.00     0.341 C 
ATOM      8  O   UNL     1      41.512 182.956  32.561  1.00  0.00    -0.246 OA
BRANCH   7   9
ATOM      9  O   UNL     1      43.525 183.998  32.164  1.00  0.00    -0.465 OA
ATOM     10  C   UNL     1      44.590 183.548  32.991  1.00  0.00     0.282 C 
ENDBRANCH   7   9
ENDBRANCH   1   7
BRANCH   6  11
ATOM     11  O   UNL     1      41.736 186.328  30.875  1.00  0.00    -0.507 OA
ATOM     12  H   UNL     1      41.067 186.110  30.145  1.00  0.00     0.293 HD
ENDBRANCH   6  11
TORSDOF 3
ENDMDL
