MODEL 1
REMARK VINA RESULT:    -7.342      0.000      0.000
REMARK INTER + INTRA:         -11.540
REMARK INTER:                 -10.562
REMARK INTRA:                  -0.978
REMARK UNBOUND:                -0.978
REMARK SMILES O=c1c(O[C@H]2O[C@@H](CO)[C@@H](O)[C@@H](O)[C@H]2O)c(-c2ccc(O)cc2)oc2cc(O)cc(O)c12
REMARK SMILES IDX 4 1 3 2 16 3 24 4 2 5 25 6 1 7 32 8 26 9 30 10 27 11 29 12
REMARK SMILES IDX 17 13 18 14 19 15 20 16 23 17 22 18 21 19 31 21 28 23 5 25
REMARK SMILES IDX 14 26 6 27 12 28 7 29 10 30 15 31 13 33 8 35 9 36 11 38
REMARK H PARENT 21 20 31 22 28 24 15 32 13 34 9 37 11 39
REMARK Flexibility Score: inf
ROOT
ATOM      1  O   UNL     1      54.096   4.525  81.673  1.00  0.00    -0.454 OA
ENDROOT
BRANCH   1   2
ATOM      2  C   UNL     1      54.882   5.290  80.786  1.00  0.00     0.214 A 
ATOM      3  C   UNL     1      54.492   5.356  79.436  1.00  0.00     0.180 A 
ATOM      4  O   UNL     1      55.246   5.999  78.554  1.00  0.00    -0.452 OA
ATOM      5  C   UNL     1      56.057   5.971  81.179  1.00  0.00     0.239 A 
ATOM      6  C   UNL     1      56.355   6.649  78.878  1.00  0.00     0.146 A 
ATOM      7  O   UNL     1      56.445   5.897  82.372  1.00  0.00    -0.285 OA
ATOM      8  C   UNL     1      56.798   6.709  80.224  1.00  0.00     0.111 A 
ATOM      9  C   UNL     1      57.085   7.271  77.861  1.00  0.00     0.094 A 
ATOM     10  C   UNL     1      57.970   7.468  80.520  1.00  0.00     0.134 A 
ATOM     11  C   UNL     1      58.262   7.955  78.152  1.00  0.00     0.123 A 
ATOM     12  C   UNL     1      58.700   8.048  79.474  1.00  0.00     0.093 A 
BRANCH   3  13
ATOM     13  C   UNL     1      53.279   4.673  78.942  1.00  0.00     0.021 A 
ATOM     14  C   UNL     1      52.038   5.332  78.905  1.00  0.00     0.016 A 
ATOM     15  C   UNL     1      50.901   4.671  78.431  1.00  0.00     0.047 A 
ATOM     16  C   UNL     1      50.993   3.353  77.973  1.00  0.00     0.115 A 
ATOM     17  C   UNL     1      53.370   3.357  78.460  1.00  0.00     0.016 A 
ATOM     18  C   UNL     1      52.232   2.699  77.985  1.00  0.00     0.047 A 
BRANCH  16  19
ATOM     19  O   UNL     1      49.852   2.705  77.506  1.00  0.00    -0.508 OA
ATOM     20  H   UNL     1      49.763   2.422  76.538  1.00  0.00     0.293 HD
ENDBRANCH  16  19
ENDBRANCH   3  13
BRANCH  10  21
ATOM     21  O   UNL     1      58.440   7.708  81.815  1.00  0.00    -0.507 OA
ATOM     22  H   UNL     1      58.976   7.051  82.361  1.00  0.00     0.293 HD
ENDBRANCH  10  21
BRANCH  11  23
ATOM     23  O   UNL     1      58.985   8.547  77.119  1.00  0.00    -0.508 OA
ATOM     24  H   UNL     1      58.621   8.591  76.175  1.00  0.00     0.293 HD
ENDBRANCH  11  23
ENDBRANCH   1   2
BRANCH   1  25
ATOM     25  C   UNL     1      53.999   4.705  83.089  1.00  0.00     0.339 C 
ATOM     26  C   UNL     1      54.496   3.448  83.829  1.00  0.00     0.214 C 
ATOM     27  O   UNL     1      52.689   5.084  83.492  1.00  0.00    -0.332 OA
ATOM     28  C   UNL     1      53.524   2.279  83.647  1.00  0.00     0.180 C 
ATOM     29  C   UNL     1      51.707   4.066  83.330  1.00  0.00     0.179 C 
ATOM     30  C   UNL     1      52.100   2.732  84.018  1.00  0.00     0.177 C 
BRANCH  26  31
ATOM     31  O   UNL     1      55.770   3.078  83.368  1.00  0.00    -0.384 OA
ATOM     32  H   UNL     1      56.145   2.446  84.036  1.00  0.00     0.211 HD
ENDBRANCH  26  31
BRANCH  28  33
ATOM     33  O   UNL     1      53.582   1.800  82.328  1.00  0.00    -0.387 OA
ATOM     34  H   UNL     1      52.676   1.465  82.099  1.00  0.00     0.211 HD
ENDBRANCH  28  33
BRANCH  29  35
ATOM     35  C   UNL     1      51.240   3.940  81.865  1.00  0.00     0.191 C 
BRANCH  35  36
ATOM     36  O   UNL     1      49.842   4.020  81.795  1.00  0.00    -0.394 OA
ATOM     37  H   UNL     1      49.557   4.557  82.579  1.00  0.00     0.210 HD
ENDBRANCH  35  36
ENDBRANCH  29  35
BRANCH  30  38
ATOM     38  O   UNL     1      51.163   1.728  83.721  1.00  0.00    -0.387 OA
ATOM     39  H   UNL     1      50.427   2.163  83.216  1.00  0.00     0.211 HD
ENDBRANCH  30  38
ENDBRANCH   1  25
TORSDOF 11
ENDMDL
MODEL 2
REMARK VINA RESULT:    -7.120      1.987      6.715
REMARK INTER + INTRA:         -11.220
REMARK INTER:                  -9.629
REMARK INTRA:                  -1.590
REMARK UNBOUND:                -0.978
REMARK SMILES O=c1c(O[C@H]2O[C@@H](CO)[C@@H](O)[C@@H](O)[C@H]2O)c(-c2ccc(O)cc2)oc2cc(O)cc(O)c12
REMARK SMILES IDX 4 1 3 2 16 3 24 4 2 5 25 6 1 7 32 8 26 9 30 10 27 11 29 12
REMARK SMILES IDX 17 13 18 14 19 15 20 16 23 17 22 18 21 19 31 21 28 23 5 25
REMARK SMILES IDX 14 26 6 27 12 28 7 29 10 30 15 31 13 33 8 35 9 36 11 38
REMARK H PARENT 21 20 31 22 28 24 15 32 13 34 9 37 11 39
REMARK Flexibility Score: inf
ROOT
ATOM      1  O   UNL     1      56.073   5.887  80.088  1.00  0.00    -0.454 OA
ENDROOT
BRANCH   1   2
ATOM      2  C   UNL     1      54.968   5.246  80.687  1.00  0.00     0.214 A 
ATOM      3  C   UNL     1      53.686   5.500  80.165  1.00  0.00     0.180 A 
ATOM      4  O   UNL     1      52.613   4.981  80.746  1.00  0.00    -0.452 OA
ATOM      5  C   UNL     1      55.079   4.384  81.801  1.00  0.00     0.239 A 
ATOM      6  C   UNL     1      52.671   4.169  81.793  1.00  0.00     0.146 A 
ATOM      7  O   UNL     1      56.209   4.171  82.307  1.00  0.00    -0.285 OA
ATOM      8  C   UNL     1      53.918   3.788  82.351  1.00  0.00     0.111 A 
ATOM      9  C   UNL     1      51.474   3.701  82.340  1.00  0.00     0.094 A 
ATOM     10  C   UNL     1      53.920   2.870  83.444  1.00  0.00     0.134 A 
ATOM     11  C   UNL     1      51.486   2.856  83.447  1.00  0.00     0.123 A 
ATOM     12  C   UNL     1      52.704   2.448  83.995  1.00  0.00     0.093 A 
BRANCH   3  13
ATOM     13  C   UNL     1      53.482   6.389  79.003  1.00  0.00     0.021 A 
ATOM     14  C   UNL     1      53.684   5.929  77.691  1.00  0.00     0.016 A 
ATOM     15  C   UNL     1      53.482   6.784  76.603  1.00  0.00     0.047 A 
ATOM     16  C   UNL     1      53.058   8.100  76.811  1.00  0.00     0.115 A 
ATOM     17  C   UNL     1      53.034   7.705  79.205  1.00  0.00     0.016 A 
ATOM     18  C   UNL     1      52.831   8.558  78.116  1.00  0.00     0.047 A 
BRANCH  16  19
ATOM     19  O   UNL     1      52.863   8.942  75.719  1.00  0.00    -0.508 OA
ATOM     20  H   UNL     1      53.356   9.822  75.634  1.00  0.00     0.293 HD
ENDBRANCH  16  19
ENDBRANCH   3  13
BRANCH  10  21
ATOM     21  O   UNL     1      55.079   2.322  84.003  1.00  0.00    -0.507 OA
ATOM     22  H   UNL     1      55.827   1.901  83.474  1.00  0.00     0.293 HD
ENDBRANCH  10  21
BRANCH  11  23
ATOM     23  O   UNL     1      50.279   2.419  83.991  1.00  0.00    -0.508 OA
ATOM     24  H   UNL     1      50.203   1.525  84.462  1.00  0.00     0.293 HD
ENDBRANCH  11  23
ENDBRANCH   1   2
BRANCH   1  25
ATOM     25  C   UNL     1      56.966   5.315  79.129  1.00  0.00     0.339 C 
ATOM     26  C   UNL     1      58.402   5.266  79.688  1.00  0.00     0.214 C 
ATOM     27  O   UNL     1      56.901   5.978  77.873  1.00  0.00    -0.332 OA
ATOM     28  C   UNL     1      59.001   6.671  79.796  1.00  0.00     0.180 C 
ATOM     29  C   UNL     1      57.409   7.308  77.883  1.00  0.00     0.179 C 
ATOM     30  C   UNL     1      58.851   7.398  78.447  1.00  0.00     0.177 C 
BRANCH  26  31
ATOM     31  O   UNL     1      58.417   4.649  80.949  1.00  0.00    -0.384 OA
ATOM     32  H   UNL     1      58.873   5.275  81.570  1.00  0.00     0.211 HD
ENDBRANCH  26  31
BRANCH  28  33
ATOM     33  O   UNL     1      58.380   7.385  80.834  1.00  0.00    -0.387 OA
ATOM     34  H   UNL     1      57.726   6.772  81.260  1.00  0.00     0.211 HD
ENDBRANCH  28  33
BRANCH  29  35
ATOM     35  C   UNL     1      56.401   8.308  78.486  1.00  0.00     0.191 C 
BRANCH  35  36
ATOM     36  O   UNL     1      56.330   9.460  77.690  1.00  0.00    -0.394 OA
ATOM     37  H   UNL     1      56.835  10.163  78.175  1.00  0.00     0.210 HD
ENDBRANCH  35  36
ENDBRANCH  29  35
BRANCH  30  38
ATOM     38  O   UNL     1      59.256   8.739  78.555  1.00  0.00    -0.387 OA
ATOM     39  H   UNL     1      58.466   9.253  78.867  1.00  0.00     0.211 HD
ENDBRANCH  30  38
ENDBRANCH   1  25
TORSDOF 11
ENDMDL
MODEL 3
REMARK VINA RESULT:    -7.112      2.040      6.731
REMARK INTER + INTRA:         -11.209
REMARK INTER:                  -9.842
REMARK INTRA:                  -1.367
REMARK UNBOUND:                -0.978
REMARK SMILES O=c1c(O[C@H]2O[C@@H](CO)[C@@H](O)[C@@H](O)[C@H]2O)c(-c2ccc(O)cc2)oc2cc(O)cc(O)c12
REMARK SMILES IDX 4 1 3 2 16 3 24 4 2 5 25 6 1 7 32 8 26 9 30 10 27 11 29 12
REMARK SMILES IDX 17 13 18 14 19 15 20 16 23 17 22 18 21 19 31 21 28 23 5 25
REMARK SMILES IDX 14 26 6 27 12 28 7 29 10 30 15 31 13 33 8 35 9 36 11 38
REMARK H PARENT 21 20 31 22 28 24 15 32 13 34 9 37 11 39
REMARK Flexibility Score: inf
ROOT
ATOM      1  O   UNL     1      55.853   6.353  80.157  1.00  0.00    -0.454 OA
ENDROOT
BRANCH   1   2
ATOM      2  C   UNL     1      54.799   5.607  80.725  1.00  0.00     0.214 A 
ATOM      3  C   UNL     1      53.521   5.711  80.146  1.00  0.00     0.180 A 
ATOM      4  O   UNL     1      52.487   5.088  80.695  1.00  0.00    -0.452 OA
ATOM      5  C   UNL     1      54.956   4.781  81.860  1.00  0.00     0.239 A 
ATOM      6  C   UNL     1      52.588   4.305  81.761  1.00  0.00     0.146 A 
ATOM      7  O   UNL     1      56.080   4.701  82.416  1.00  0.00    -0.285 OA
ATOM      8  C   UNL     1      53.844   4.072  82.377  1.00  0.00     0.111 A 
ATOM      9  C   UNL     1      51.426   3.720  82.270  1.00  0.00     0.094 A 
ATOM     10  C   UNL     1      53.899   3.179  83.489  1.00  0.00     0.134 A 
ATOM     11  C   UNL     1      51.482   2.900  83.394  1.00  0.00     0.123 A 
ATOM     12  C   UNL     1      52.713   2.637  83.999  1.00  0.00     0.093 A 
BRANCH   3  13
ATOM     13  C   UNL     1      53.271   6.552  78.958  1.00  0.00     0.021 A 
ATOM     14  C   UNL     1      53.832   6.233  77.710  1.00  0.00     0.016 A 
ATOM     15  C   UNL     1      53.581   7.039  76.595  1.00  0.00     0.047 A 
ATOM     16  C   UNL     1      52.755   8.160  76.710  1.00  0.00     0.115 A 
ATOM     17  C   UNL     1      52.423   7.667  79.062  1.00  0.00     0.016 A 
ATOM     18  C   UNL     1      52.172   8.471  77.946  1.00  0.00     0.047 A 
BRANCH  16  19
ATOM     19  O   UNL     1      52.515   8.957  75.592  1.00  0.00    -0.508 OA
ATOM     20  H   UNL     1      53.078   9.774  75.394  1.00  0.00     0.293 HD
ENDBRANCH  16  19
ENDBRANCH   3  13
BRANCH  10  21
ATOM     21  O   UNL     1      55.085   2.770  84.105  1.00  0.00    -0.507 OA
ATOM     22  H   UNL     1      55.135   2.152  84.901  1.00  0.00     0.293 HD
ENDBRANCH  10  21
BRANCH  11  23
ATOM     23  O   UNL     1      50.308   2.345  83.898  1.00  0.00    -0.508 OA
ATOM     24  H   UNL     1      50.123   2.311  84.894  1.00  0.00     0.293 HD
ENDBRANCH  11  23
ENDBRANCH   1   2
BRANCH   1  25
ATOM     25  C   UNL     1      56.498   7.488  80.741  1.00  0.00     0.339 C 
ATOM     26  C   UNL     1      56.723   8.587  79.684  1.00  0.00     0.214 C 
ATOM     27  O   UNL     1      57.700   7.135  81.415  1.00  0.00    -0.332 OA
ATOM     28  C   UNL     1      57.795   8.170  78.674  1.00  0.00     0.180 C 
ATOM     29  C   UNL     1      58.749   6.703  80.555  1.00  0.00     0.179 C 
ATOM     30  C   UNL     1      59.061   7.720  79.426  1.00  0.00     0.177 C 
BRANCH  26  31
ATOM     31  O   UNL     1      55.525   8.872  79.009  1.00  0.00    -0.384 OA
ATOM     32  H   UNL     1      55.537   9.842  78.799  1.00  0.00     0.211 HD
ENDBRANCH  26  31
BRANCH  28  33
ATOM     33  O   UNL     1      57.307   7.152  77.839  1.00  0.00    -0.387 OA
ATOM     34  H   UNL     1      57.934   7.075  77.074  1.00  0.00     0.211 HD
ENDBRANCH  28  33
BRANCH  29  35
ATOM     35  C   UNL     1      58.555   5.244  80.093  1.00  0.00     0.191 C 
BRANCH  35  36
ATOM     36  O   UNL     1      58.622   4.378  81.192  1.00  0.00    -0.394 OA
ATOM     37  H   UNL     1      58.837   4.944  81.979  1.00  0.00     0.210 HD
ENDBRANCH  35  36
ENDBRANCH  29  35
BRANCH  30  38
ATOM     38  O   UNL     1      60.010   7.192  78.535  1.00  0.00    -0.387 OA
ATOM     39  H   UNL     1      60.461   7.965  78.103  1.00  0.00     0.211 HD
ENDBRANCH  30  38
ENDBRANCH   1  25
TORSDOF 11
ENDMDL
MODEL 4
REMARK VINA RESULT:    -6.648      2.078      6.526
REMARK INTER + INTRA:         -10.541
REMARK INTER:                  -9.077
REMARK INTRA:                  -1.464
REMARK UNBOUND:                -0.978
REMARK SMILES O=c1c(O[C@H]2O[C@@H](CO)[C@@H](O)[C@@H](O)[C@H]2O)c(-c2ccc(O)cc2)oc2cc(O)cc(O)c12
REMARK SMILES IDX 4 1 3 2 16 3 24 4 2 5 25 6 1 7 32 8 26 9 30 10 27 11 29 12
REMARK SMILES IDX 17 13 18 14 19 15 20 16 23 17 22 18 21 19 31 21 28 23 5 25
REMARK SMILES IDX 14 26 6 27 12 28 7 29 10 30 15 31 13 33 8 35 9 36 11 38
REMARK H PARENT 21 20 31 22 28 24 15 32 13 34 9 37 11 39
REMARK Flexibility Score: inf
ROOT
ATOM      1  O   UNL     1      54.571   6.389  81.526  1.00  0.00    -0.454 OA
ENDROOT
BRANCH   1   2
ATOM      2  C   UNL     1      53.855   5.624  80.581  1.00  0.00     0.214 A 
ATOM      3  C   UNL     1      54.474   5.332  79.352  1.00  0.00     0.180 A 
ATOM      4  O   UNL     1      53.808   4.683  78.407  1.00  0.00    -0.452 OA
ATOM      5  C   UNL     1      52.538   5.159  80.796  1.00  0.00     0.239 A 
ATOM      6  C   UNL     1      52.572   4.230  78.564  1.00  0.00     0.146 A 
ATOM      7  O   UNL     1      51.951   5.439  81.871  1.00  0.00    -0.285 OA
ATOM      8  C   UNL     1      51.883   4.405  79.791  1.00  0.00     0.111 A 
ATOM      9  C   UNL     1      51.957   3.582  77.490  1.00  0.00     0.094 A 
ATOM     10  C   UNL     1      50.574   3.850  79.920  1.00  0.00     0.134 A 
ATOM     11  C   UNL     1      50.655   3.101  77.605  1.00  0.00     0.123 A 
ATOM     12  C   UNL     1      49.970   3.240  78.814  1.00  0.00     0.093 A 
BRANCH   3  13
ATOM     13  C   UNL     1      55.848   5.781  79.047  1.00  0.00     0.021 A 
ATOM     14  C   UNL     1      56.083   6.945  78.297  1.00  0.00     0.016 A 
ATOM     15  C   UNL     1      57.391   7.356  78.021  1.00  0.00     0.047 A 
ATOM     16  C   UNL     1      58.476   6.621  78.506  1.00  0.00     0.115 A 
ATOM     17  C   UNL     1      56.942   5.058  79.551  1.00  0.00     0.016 A 
ATOM     18  C   UNL     1      58.249   5.472  79.276  1.00  0.00     0.047 A 
BRANCH  16  19
ATOM     19  O   UNL     1      59.774   7.040  78.222  1.00  0.00    -0.508 OA
ATOM     20  H   UNL     1      60.552   6.392  78.222  1.00  0.00     0.293 HD
ENDBRANCH  16  19
ENDBRANCH   3  13
BRANCH  10  21
ATOM     21  O   UNL     1      49.840   3.846  81.111  1.00  0.00    -0.507 OA
ATOM     22  H   UNL     1      48.903   3.486  81.205  1.00  0.00     0.293 HD
ENDBRANCH  10  21
BRANCH  11  23
ATOM     23  O   UNL     1      50.054   2.478  76.514  1.00  0.00    -0.508 OA
ATOM     24  H   UNL     1      49.046   2.443  76.413  1.00  0.00     0.293 HD
ENDBRANCH  11  23
ENDBRANCH   1   2
BRANCH   1  25
ATOM     25  C   UNL     1      55.252   5.889  82.679  1.00  0.00     0.339 C 
ATOM     26  C   UNL     1      54.616   6.445  83.968  1.00  0.00     0.214 C 
ATOM     27  O   UNL     1      56.652   6.133  82.623  1.00  0.00    -0.332 OA
ATOM     28  C   UNL     1      54.901   7.941  84.125  1.00  0.00     0.180 C 
ATOM     29  C   UNL     1      57.014   7.506  82.730  1.00  0.00     0.179 C 
ATOM     30  C   UNL     1      56.414   8.192  83.985  1.00  0.00     0.177 C 
BRANCH  26  31
ATOM     31  O   UNL     1      53.228   6.228  83.963  1.00  0.00    -0.384 OA
ATOM     32  H   UNL     1      52.885   6.543  84.840  1.00  0.00     0.211 HD
ENDBRANCH  26  31
BRANCH  28  33
ATOM     33  O   UNL     1      54.171   8.677  83.177  1.00  0.00    -0.387 OA
ATOM     34  H   UNL     1      53.210   8.565  83.399  1.00  0.00     0.211 HD
ENDBRANCH  28  33
BRANCH  29  35
ATOM     35  C   UNL     1      56.808   8.264  81.402  1.00  0.00     0.191 C 
BRANCH  35  36
ATOM     36  O   UNL     1      57.783   9.261  81.260  1.00  0.00    -0.394 OA
ATOM     37  H   UNL     1      58.467   8.893  80.644  1.00  0.00     0.210 HD
ENDBRANCH  35  36
ENDBRANCH  29  35
BRANCH  30  38
ATOM     38  O   UNL     1      56.693   9.569  83.976  1.00  0.00    -0.387 OA
ATOM     39  H   UNL     1      57.495   9.703  84.547  1.00  0.00     0.211 HD
ENDBRANCH  30  38
ENDBRANCH   1  25
TORSDOF 11
ENDMDL
MODEL 5
REMARK VINA RESULT:    -6.430      1.747      6.355
REMARK INTER + INTRA:         -10.227
REMARK INTER:                  -8.718
REMARK INTRA:                  -1.509
REMARK UNBOUND:                -0.978
REMARK SMILES O=c1c(O[C@H]2O[C@@H](CO)[C@@H](O)[C@@H](O)[C@H]2O)c(-c2ccc(O)cc2)oc2cc(O)cc(O)c12
REMARK SMILES IDX 4 1 3 2 16 3 24 4 2 5 25 6 1 7 32 8 26 9 30 10 27 11 29 12
REMARK SMILES IDX 17 13 18 14 19 15 20 16 23 17 22 18 21 19 31 21 28 23 5 25
REMARK SMILES IDX 14 26 6 27 12 28 7 29 10 30 15 31 13 33 8 35 9 36 11 38
REMARK H PARENT 21 20 31 22 28 24 15 32 13 34 9 37 11 39
REMARK Flexibility Score: inf
ROOT
ATOM      1  O   UNL     1      55.722   5.829  81.511  1.00  0.00    -0.454 OA
ENDROOT
BRANCH   1   2
ATOM      2  C   UNL     1      54.605   5.453  80.736  1.00  0.00     0.214 A 
ATOM      3  C   UNL     1      54.577   5.827  79.380  1.00  0.00     0.180 A 
ATOM      4  O   UNL     1      53.511   5.561  78.637  1.00  0.00    -0.452 OA
ATOM      5  C   UNL     1      53.501   4.743  81.259  1.00  0.00     0.239 A 
ATOM      6  C   UNL     1      52.454   4.900  79.086  1.00  0.00     0.146 A 
ATOM      7  O   UNL     1      53.486   4.430  82.476  1.00  0.00    -0.285 OA
ATOM      8  C   UNL     1      52.411   4.412  80.417  1.00  0.00     0.111 A 
ATOM      9  C   UNL     1      51.375   4.700  78.220  1.00  0.00     0.094 A 
ATOM     10  C   UNL     1      51.268   3.662  80.828  1.00  0.00     0.134 A 
ATOM     11  C   UNL     1      50.238   4.021  78.651  1.00  0.00     0.123 A 
ATOM     12  C   UNL     1      50.188   3.510  79.950  1.00  0.00     0.093 A 
BRANCH   3  13
ATOM     13  C   UNL     1      55.690   6.570  78.755  1.00  0.00     0.021 A 
ATOM     14  C   UNL     1      56.924   5.950  78.497  1.00  0.00     0.016 A 
ATOM     15  C   UNL     1      57.965   6.669  77.901  1.00  0.00     0.047 A 
ATOM     16  C   UNL     1      57.780   8.006  77.541  1.00  0.00     0.115 A 
ATOM     17  C   UNL     1      55.502   7.908  78.371  1.00  0.00     0.016 A 
ATOM     18  C   UNL     1      56.544   8.624  77.773  1.00  0.00     0.047 A 
BRANCH  16  19
ATOM     19  O   UNL     1      58.826   8.712  76.950  1.00  0.00    -0.508 OA
ATOM     20  H   UNL     1      59.789   8.418  77.057  1.00  0.00     0.293 HD
ENDBRANCH  16  19
ENDBRANCH   3  13
BRANCH  10  21
ATOM     21  O   UNL     1      51.157   3.024  82.068  1.00  0.00    -0.507 OA
ATOM     22  H   UNL     1      50.306   2.960  82.605  1.00  0.00     0.293 HD
ENDBRANCH  10  21
BRANCH  11  23
ATOM     23  O   UNL     1      49.166   3.853  77.778  1.00  0.00    -0.508 OA
ATOM     24  H   UNL     1      49.087   3.033  77.189  1.00  0.00     0.293 HD
ENDBRANCH  11  23
ENDBRANCH   1   2
BRANCH   1  25
ATOM     25  C   UNL     1      55.704   6.657  82.677  1.00  0.00     0.339 C 
ATOM     26  C   UNL     1      56.823   7.715  82.607  1.00  0.00     0.214 C 
ATOM     27  O   UNL     1      55.758   5.896  83.877  1.00  0.00    -0.332 OA
ATOM     28  C   UNL     1      58.203   7.070  82.766  1.00  0.00     0.180 C 
ATOM     29  C   UNL     1      56.998   5.233  84.096  1.00  0.00     0.179 C 
ATOM     30  C   UNL     1      58.216   6.191  84.030  1.00  0.00     0.177 C 
BRANCH  26  31
ATOM     31  O   UNL     1      56.766   8.411  81.388  1.00  0.00    -0.384 OA
ATOM     32  H   UNL     1      55.923   8.138  80.941  1.00  0.00     0.211 HD
ENDBRANCH  26  31
BRANCH  28  33
ATOM     33  O   UNL     1      58.526   6.325  81.621  1.00  0.00    -0.387 OA
ATOM     34  H   UNL     1      58.051   5.457  81.694  1.00  0.00     0.211 HD
ENDBRANCH  28  33
BRANCH  29  35
ATOM     35  C   UNL     1      57.124   3.948  83.252  1.00  0.00     0.191 C 
BRANCH  35  36
ATOM     36  O   UNL     1      55.922   3.229  83.285  1.00  0.00    -0.394 OA
ATOM     37  H   UNL     1      55.372   3.642  84.000  1.00  0.00     0.210 HD
ENDBRANCH  35  36
ENDBRANCH  29  35
BRANCH  30  38
ATOM     38  O   UNL     1      59.418   5.470  84.125  1.00  0.00    -0.387 OA
ATOM     39  H   UNL     1      59.406   4.794  83.397  1.00  0.00     0.211 HD
ENDBRANCH  30  38
ENDBRANCH   1  25
TORSDOF 11
ENDMDL
MODEL 6
REMARK VINA RESULT:    -6.415      3.152      5.595
REMARK INTER + INTRA:         -10.205
REMARK INTER:                  -8.758
REMARK INTRA:                  -1.447
REMARK UNBOUND:                -0.978
REMARK SMILES O=c1c(O[C@H]2O[C@@H](CO)[C@@H](O)[C@@H](O)[C@H]2O)c(-c2ccc(O)cc2)oc2cc(O)cc(O)c12
REMARK SMILES IDX 4 1 3 2 16 3 24 4 2 5 25 6 1 7 32 8 26 9 30 10 27 11 29 12
REMARK SMILES IDX 17 13 18 14 19 15 20 16 23 17 22 18 21 19 31 21 28 23 5 25
REMARK SMILES IDX 14 26 6 27 12 28 7 29 10 30 15 31 13 33 8 35 9 36 11 38
REMARK H PARENT 21 20 31 22 28 24 15 32 13 34 9 37 11 39
REMARK Flexibility Score: inf
ROOT
ATOM      1  O   UNL     1      55.514   6.624  79.074  1.00  0.00    -0.454 OA
ENDROOT
BRANCH   1   2
ATOM      2  C   UNL     1      54.637   7.432  78.322  1.00  0.00     0.214 A 
ATOM      3  C   UNL     1      53.260   7.148  78.372  1.00  0.00     0.180 A 
ATOM      4  O   UNL     1      52.409   7.833  77.620  1.00  0.00    -0.452 OA
ATOM      5  C   UNL     1      55.073   8.496  77.500  1.00  0.00     0.239 A 
ATOM      6  C   UNL     1      52.773   8.836  76.833  1.00  0.00     0.146 A 
ATOM      7  O   UNL     1      56.301   8.745  77.410  1.00  0.00    -0.285 OA
ATOM      8  C   UNL     1      54.127   9.254  76.766  1.00  0.00     0.111 A 
ATOM      9  C   UNL     1      51.794   9.471  76.065  1.00  0.00     0.094 A 
ATOM     10  C   UNL     1      54.452  10.374  75.942  1.00  0.00     0.134 A 
ATOM     11  C   UNL     1      52.133  10.522  75.216  1.00  0.00     0.123 A 
ATOM     12  C   UNL     1      53.456  10.965  75.155  1.00  0.00     0.093 A 
BRANCH   3  13
ATOM     13  C   UNL     1      52.721   6.054  79.205  1.00  0.00     0.021 A 
ATOM     14  C   UNL     1      52.852   6.073  80.604  1.00  0.00     0.016 A 
ATOM     15  C   UNL     1      52.332   5.031  81.377  1.00  0.00     0.047 A 
ATOM     16  C   UNL     1      51.661   3.968  80.765  1.00  0.00     0.115 A 
ATOM     17  C   UNL     1      52.026   4.995  78.597  1.00  0.00     0.016 A 
ATOM     18  C   UNL     1      51.506   3.954  79.373  1.00  0.00     0.047 A 
BRANCH  16  19
ATOM     19  O   UNL     1      51.150   2.934  81.547  1.00  0.00    -0.508 OA
ATOM     20  H   UNL     1      50.539   3.117  82.333  1.00  0.00     0.293 HD
ENDBRANCH  16  19
ENDBRANCH   3  13
BRANCH  10  21
ATOM     21  O   UNL     1      55.721  10.959  75.883  1.00  0.00    -0.507 OA
ATOM     22  H   UNL     1      56.257  11.248  76.686  1.00  0.00     0.293 HD
ENDBRANCH  10  21
BRANCH  11  23
ATOM     23  O   UNL     1      51.144  11.125  74.441  1.00  0.00    -0.508 OA
ATOM     24  H   UNL     1      50.416  11.691  74.860  1.00  0.00     0.293 HD
ENDBRANCH  11  23
ENDBRANCH   1   2
BRANCH   1  25
ATOM     25  C   UNL     1      56.556   5.793  78.554  1.00  0.00     0.339 C 
ATOM     26  C   UNL     1      56.486   4.384  79.175  1.00  0.00     0.214 C 
ATOM     27  O   UNL     1      57.840   6.385  78.706  1.00  0.00    -0.332 OA
ATOM     28  C   UNL     1      56.887   4.411  80.653  1.00  0.00     0.180 C 
ATOM     29  C   UNL     1      58.286   6.481  80.055  1.00  0.00     0.179 C 
ATOM     30  C   UNL     1      58.245   5.123  80.803  1.00  0.00     0.177 C 
BRANCH  26  31
ATOM     31  O   UNL     1      55.192   3.855  79.048  1.00  0.00    -0.384 OA
ATOM     32  H   UNL     1      54.751   4.348  78.308  1.00  0.00     0.211 HD
ENDBRANCH  26  31
BRANCH  28  33
ATOM     33  O   UNL     1      55.891   5.043  81.415  1.00  0.00    -0.387 OA
ATOM     34  H   UNL     1      55.290   5.511  80.779  1.00  0.00     0.211 HD
ENDBRANCH  28  33
BRANCH  29  35
ATOM     35  C   UNL     1      57.631   7.664  80.798  1.00  0.00     0.191 C 
BRANCH  35  36
ATOM     36  O   UNL     1      57.575   8.787  79.962  1.00  0.00    -0.394 OA
ATOM     37  H   UNL     1      56.795   9.319  80.265  1.00  0.00     0.210 HD
ENDBRANCH  35  36
ENDBRANCH  29  35
BRANCH  30  38
ATOM     38  O   UNL     1      58.570   5.296  82.158  1.00  0.00    -0.387 OA
ATOM     39  H   UNL     1      57.776   5.700  82.596  1.00  0.00     0.211 HD
ENDBRANCH  30  38
ENDBRANCH   1  25
TORSDOF 11
ENDMDL
MODEL 7
REMARK VINA RESULT:    -6.387      2.593      7.195
REMARK INTER + INTRA:         -10.166
REMARK INTER:                  -9.034
REMARK INTRA:                  -1.131
REMARK UNBOUND:                -0.978
REMARK SMILES O=c1c(O[C@H]2O[C@@H](CO)[C@@H](O)[C@@H](O)[C@H]2O)c(-c2ccc(O)cc2)oc2cc(O)cc(O)c12
REMARK SMILES IDX 4 1 3 2 16 3 24 4 2 5 25 6 1 7 32 8 26 9 30 10 27 11 29 12
REMARK SMILES IDX 17 13 18 14 19 15 20 16 23 17 22 18 21 19 31 21 28 23 5 25
REMARK SMILES IDX 14 26 6 27 12 28 7 29 10 30 15 31 13 33 8 35 9 36 11 38
REMARK H PARENT 21 20 31 22 28 24 15 32 13 34 9 37 11 39
REMARK Flexibility Score: inf
ROOT
ATOM      1  O   UNL     1      53.818   6.845  79.167  1.00  0.00    -0.454 OA
ENDROOT
BRANCH   1   2
ATOM      2  C   UNL     1      53.859   5.802  80.116  1.00  0.00     0.214 A 
ATOM      3  C   UNL     1      55.115   5.305  80.508  1.00  0.00     0.180 A 
ATOM      4  O   UNL     1      55.196   4.274  81.338  1.00  0.00    -0.452 OA
ATOM      5  C   UNL     1      52.701   5.212  80.673  1.00  0.00     0.239 A 
ATOM      6  C   UNL     1      54.138   3.689  81.882  1.00  0.00     0.146 A 
ATOM      7  O   UNL     1      51.567   5.614  80.310  1.00  0.00    -0.285 OA
ATOM      8  C   UNL     1      52.828   4.160  81.613  1.00  0.00     0.111 A 
ATOM      9  C   UNL     1      54.341   2.592  82.723  1.00  0.00     0.094 A 
ATOM     10  C   UNL     1      51.730   3.525  82.268  1.00  0.00     0.134 A 
ATOM     11  C   UNL     1      53.258   1.940  83.308  1.00  0.00     0.123 A 
ATOM     12  C   UNL     1      51.962   2.404  83.076  1.00  0.00     0.093 A 
BRANCH   3  13
ATOM     13  C   UNL     1      56.374   5.865  79.975  1.00  0.00     0.021 A 
ATOM     14  C   UNL     1      57.268   6.564  80.803  1.00  0.00     0.016 A 
ATOM     15  C   UNL     1      58.456   7.084  80.281  1.00  0.00     0.047 A 
ATOM     16  C   UNL     1      58.774   6.896  78.933  1.00  0.00     0.115 A 
ATOM     17  C   UNL     1      56.709   5.659  78.626  1.00  0.00     0.016 A 
ATOM     18  C   UNL     1      57.899   6.178  78.106  1.00  0.00     0.047 A 
BRANCH  16  19
ATOM     19  O   UNL     1      59.960   7.421  78.425  1.00  0.00    -0.508 OA
ATOM     20  H   UNL     1      60.316   7.143  77.519  1.00  0.00     0.293 HD
ENDBRANCH  16  19
ENDBRANCH   3  13
BRANCH  10  21
ATOM     21  O   UNL     1      50.406   3.968  82.185  1.00  0.00    -0.507 OA
ATOM     22  H   UNL     1      49.723   3.615  81.533  1.00  0.00     0.293 HD
ENDBRANCH  10  21
BRANCH  11  23
ATOM     23  O   UNL     1      53.483   0.834  84.125  1.00  0.00    -0.508 OA
ATOM     24  H   UNL     1      54.075   0.067  83.827  1.00  0.00     0.293 HD
ENDBRANCH  11  23
ENDBRANCH   1   2
BRANCH   1  25
ATOM     25  C   UNL     1      54.307   8.176  79.350  1.00  0.00     0.339 C 
ATOM     26  C   UNL     1      53.268   9.038  80.093  1.00  0.00     0.214 C 
ATOM     27  O   UNL     1      54.721   8.769  78.125  1.00  0.00    -0.332 OA
ATOM     28  C   UNL     1      52.053   9.326  79.206  1.00  0.00     0.180 C 
ATOM     29  C   UNL     1      53.658   9.046  77.219  1.00  0.00     0.179 C 
ATOM     30  C   UNL     1      52.528   9.897  77.857  1.00  0.00     0.177 C 
BRANCH  26  31
ATOM     31  O   UNL     1      52.850   8.397  81.271  1.00  0.00    -0.384 OA
ATOM     32  H   UNL     1      51.863   8.301  81.211  1.00  0.00     0.211 HD
ENDBRANCH  26  31
BRANCH  28  33
ATOM     33  O   UNL     1      51.293   8.159  79.029  1.00  0.00    -0.387 OA
ATOM     34  H   UNL     1      50.383   8.348  79.377  1.00  0.00     0.211 HD
ENDBRANCH  28  33
BRANCH  29  35
ATOM     35  C   UNL     1      53.189   7.781  76.472  1.00  0.00     0.191 C 
BRANCH  35  36
ATOM     36  O   UNL     1      54.288   6.964  76.170  1.00  0.00    -0.394 OA
ATOM     37  H   UNL     1      55.094   7.528  76.296  1.00  0.00     0.210 HD
ENDBRANCH  35  36
ENDBRANCH  29  35
BRANCH  30  38
ATOM     38  O   UNL     1      51.450  10.033  76.966  1.00  0.00    -0.387 OA
ATOM     39  H   UNL     1      51.201  10.995  76.961  1.00  0.00     0.211 HD
ENDBRANCH  30  38
ENDBRANCH   1  25
TORSDOF 11
ENDMDL
MODEL 8
REMARK VINA RESULT:    -6.374      2.984      5.590
REMARK INTER + INTRA:         -10.148
REMARK INTER:                  -9.145
REMARK INTRA:                  -1.003
REMARK UNBOUND:                -0.978
REMARK SMILES O=c1c(O[C@H]2O[C@@H](CO)[C@@H](O)[C@@H](O)[C@H]2O)c(-c2ccc(O)cc2)oc2cc(O)cc(O)c12
REMARK SMILES IDX 4 1 3 2 16 3 24 4 2 5 25 6 1 7 32 8 26 9 30 10 27 11 29 12
REMARK SMILES IDX 17 13 18 14 19 15 20 16 23 17 22 18 21 19 31 21 28 23 5 25
REMARK SMILES IDX 14 26 6 27 12 28 7 29 10 30 15 31 13 33 8 35 9 36 11 38
REMARK H PARENT 21 20 31 22 28 24 15 32 13 34 9 37 11 39
REMARK Flexibility Score: inf
ROOT
ATOM      1  O   UNL     1      53.812   7.821  79.011  1.00  0.00    -0.454 OA
ENDROOT
BRANCH   1   2
ATOM      2  C   UNL     1      54.687   6.952  79.697  1.00  0.00     0.214 A 
ATOM      3  C   UNL     1      54.300   5.610  79.864  1.00  0.00     0.180 A 
ATOM      4  O   UNL     1      55.056   4.780  80.570  1.00  0.00    -0.452 OA
ATOM      5  C   UNL     1      55.919   7.369  80.250  1.00  0.00     0.239 A 
ATOM      6  C   UNL     1      56.217   5.128  81.107  1.00  0.00     0.146 A 
ATOM      7  O   UNL     1      56.269   8.571  80.146  1.00  0.00    -0.285 OA
ATOM      8  C   UNL     1      56.736   6.436  80.935  1.00  0.00     0.111 A 
ATOM      9  C   UNL     1      56.918   4.177  81.853  1.00  0.00     0.094 A 
ATOM     10  C   UNL     1      58.016   6.738  81.492  1.00  0.00     0.134 A 
ATOM     11  C   UNL     1      58.136   4.501  82.446  1.00  0.00     0.123 A 
ATOM     12  C   UNL     1      58.676   5.776  82.266  1.00  0.00     0.093 A 
BRANCH   3  13
ATOM     13  C   UNL     1      53.028   5.094  79.318  1.00  0.00     0.021 A 
ATOM     14  C   UNL     1      52.977   4.467  78.061  1.00  0.00     0.016 A 
ATOM     15  C   UNL     1      51.765   3.981  77.562  1.00  0.00     0.047 A 
ATOM     16  C   UNL     1      50.595   4.098  78.319  1.00  0.00     0.115 A 
ATOM     17  C   UNL     1      51.854   5.188  80.083  1.00  0.00     0.016 A 
ATOM     18  C   UNL     1      50.643   4.700  79.584  1.00  0.00     0.047 A 
BRANCH  16  19
ATOM     19  O   UNL     1      49.393   3.612  77.809  1.00  0.00    -0.508 OA
ATOM     20  H   UNL     1      48.808   2.983  78.344  1.00  0.00     0.293 HD
ENDBRANCH  16  19
ENDBRANCH   3  13
BRANCH  10  21
ATOM     21  O   UNL     1      58.691   7.945  81.291  1.00  0.00    -0.507 OA
ATOM     22  H   UNL     1      58.577   8.539  80.485  1.00  0.00     0.293 HD
ENDBRANCH  10  21
BRANCH  11  23
ATOM     23  O   UNL     1      58.806   3.544  83.205  1.00  0.00    -0.508 OA
ATOM     24  H   UNL     1      59.534   3.803  83.861  1.00  0.00     0.293 HD
ENDBRANCH  11  23
ENDBRANCH   1   2
BRANCH   1  25
ATOM     25  C   UNL     1      54.018   9.215  78.771  1.00  0.00     0.339 C 
ATOM     26  C   UNL     1      52.816  10.036  79.278  1.00  0.00     0.214 C 
ATOM     27  O   UNL     1      54.318   9.487  77.408  1.00  0.00    -0.332 OA
ATOM     28  C   UNL     1      51.580   9.801  78.405  1.00  0.00     0.180 C 
ATOM     29  C   UNL     1      53.233   9.267  76.513  1.00  0.00     0.179 C 
ATOM     30  C   UNL     1      51.946  10.027  76.927  1.00  0.00     0.177 C 
BRANCH  26  31
ATOM     31  O   UNL     1      52.522   9.704  80.611  1.00  0.00    -0.384 OA
ATOM     32  H   UNL     1      53.391   9.589  81.077  1.00  0.00     0.211 HD
ENDBRANCH  26  31
BRANCH  28  33
ATOM     33  O   UNL     1      51.075   8.508  78.616  1.00  0.00    -0.387 OA
ATOM     34  H   UNL     1      51.851   7.917  78.798  1.00  0.00     0.211 HD
ENDBRANCH  28  33
BRANCH  29  35
ATOM     35  C   UNL     1      53.041   7.770  76.194  1.00  0.00     0.191 C 
BRANCH  35  36
ATOM     36  O   UNL     1      54.283   7.123  76.149  1.00  0.00    -0.394 OA
ATOM     37  H   UNL     1      54.090   6.150  76.190  1.00  0.00     0.210 HD
ENDBRANCH  35  36
ENDBRANCH  29  35
BRANCH  30  38
ATOM     38  O   UNL     1      50.874   9.677  76.088  1.00  0.00    -0.387 OA
ATOM     39  H   UNL     1      50.171   9.284  76.669  1.00  0.00     0.211 HD
ENDBRANCH  30  38
ENDBRANCH   1  25
TORSDOF 11
ENDMDL
MODEL 9
REMARK VINA RESULT:    -6.289      2.552      7.397
REMARK INTER + INTRA:         -10.024
REMARK INTER:                  -8.897
REMARK INTRA:                  -1.127
REMARK UNBOUND:                -0.978
REMARK SMILES O=c1c(O[C@H]2O[C@@H](CO)[C@@H](O)[C@@H](O)[C@H]2O)c(-c2ccc(O)cc2)oc2cc(O)cc(O)c12
REMARK SMILES IDX 4 1 3 2 16 3 24 4 2 5 25 6 1 7 32 8 26 9 30 10 27 11 29 12
REMARK SMILES IDX 17 13 18 14 19 15 20 16 23 17 22 18 21 19 31 21 28 23 5 25
REMARK SMILES IDX 14 26 6 27 12 28 7 29 10 30 15 31 13 33 8 35 9 36 11 38
REMARK H PARENT 21 20 31 22 28 24 15 32 13 34 9 37 11 39
REMARK Flexibility Score: inf
ROOT
ATOM      1  O   UNL     1      53.896   6.807  79.182  1.00  0.00    -0.454 OA
ENDROOT
BRANCH   1   2
ATOM      2  C   UNL     1      53.838   5.769  80.136  1.00  0.00     0.214 A 
ATOM      3  C   UNL     1      55.048   5.244  80.625  1.00  0.00     0.180 A 
ATOM      4  O   UNL     1      55.039   4.216  81.463  1.00  0.00    -0.452 OA
ATOM      5  C   UNL     1      52.627   5.212  80.604  1.00  0.00     0.239 A 
ATOM      6  C   UNL     1      53.927   3.661  81.927  1.00  0.00     0.146 A 
ATOM      7  O   UNL     1      51.534   5.639  80.153  1.00  0.00    -0.285 OA
ATOM      8  C   UNL     1      52.654   4.162  81.555  1.00  0.00     0.111 A 
ATOM      9  C   UNL     1      54.037   2.565  82.786  1.00  0.00     0.094 A 
ATOM     10  C   UNL     1      51.493   3.559  82.127  1.00  0.00     0.134 A 
ATOM     11  C   UNL     1      52.897   1.943  83.288  1.00  0.00     0.123 A 
ATOM     12  C   UNL     1      51.634   2.438  82.955  1.00  0.00     0.093 A 
BRANCH   3  13
ATOM     13  C   UNL     1      56.357   5.769  80.188  1.00  0.00     0.021 A 
ATOM     14  C   UNL     1      57.262   4.964  79.475  1.00  0.00     0.016 A 
ATOM     15  C   UNL     1      58.496   5.480  79.066  1.00  0.00     0.047 A 
ATOM     16  C   UNL     1      58.832   6.807  79.347  1.00  0.00     0.115 A 
ATOM     17  C   UNL     1      56.690   7.109  80.448  1.00  0.00     0.016 A 
ATOM     18  C   UNL     1      57.924   7.623  80.036  1.00  0.00     0.047 A 
BRANCH  16  19
ATOM     19  O   UNL     1      60.065   7.308  78.936  1.00  0.00    -0.508 OA
ATOM     20  H   UNL     1      60.213   7.639  77.991  1.00  0.00     0.293 HD
ENDBRANCH  16  19
ENDBRANCH   3  13
BRANCH  10  21
ATOM     21  O   UNL     1      50.191   4.034  81.940  1.00  0.00    -0.507 OA
ATOM     22  H   UNL     1      49.525   4.187  82.681  1.00  0.00     0.293 HD
ENDBRANCH  10  21
BRANCH  11  23
ATOM     23  O   UNL     1      53.030   0.837  84.124  1.00  0.00    -0.508 OA
ATOM     24  H   UNL     1      53.608   0.046  83.868  1.00  0.00     0.293 HD
ENDBRANCH  11  23
ENDBRANCH   1   2
BRANCH   1  25
ATOM     25  C   UNL     1      53.354   6.773  77.859  1.00  0.00     0.339 C 
ATOM     26  C   UNL     1      54.379   7.308  76.839  1.00  0.00     0.214 C 
ATOM     27  O   UNL     1      52.107   7.451  77.773  1.00  0.00    -0.332 OA
ATOM     28  C   UNL     1      54.582   8.817  77.000  1.00  0.00     0.180 C 
ATOM     29  C   UNL     1      52.192   8.862  77.941  1.00  0.00     0.179 C 
ATOM     30  C   UNL     1      53.214   9.523  76.979  1.00  0.00     0.177 C 
BRANCH  26  31
ATOM     31  O   UNL     1      55.610   6.648  76.989  1.00  0.00    -0.384 OA
ATOM     32  H   UNL     1      56.108   6.774  76.140  1.00  0.00     0.211 HD
ENDBRANCH  26  31
BRANCH  28  33
ATOM     33  O   UNL     1      55.281   9.090  78.187  1.00  0.00    -0.387 OA
ATOM     34  H   UNL     1      55.585  10.034  78.137  1.00  0.00     0.211 HD
ENDBRANCH  28  33
BRANCH  29  35
ATOM     35  C   UNL     1      52.329   9.261  79.425  1.00  0.00     0.191 C 
BRANCH  35  36
ATOM     36  O   UNL     1      51.824  10.552  79.626  1.00  0.00    -0.394 OA
ATOM     37  H   UNL     1      51.788  10.978  78.730  1.00  0.00     0.210 HD
ENDBRANCH  35  36
ENDBRANCH  29  35
BRANCH  30  38
ATOM     38  O   UNL     1      53.354  10.890  77.272  1.00  0.00    -0.387 OA
ATOM     39  H   UNL     1      54.256  11.009  77.669  1.00  0.00     0.211 HD
ENDBRANCH  30  38
ENDBRANCH   1  25
TORSDOF 11
ENDMDL
