MODEL 1
REMARK VINA RESULT:    -4.154      0.000      0.000
REMARK INTER + INTRA:          -5.767
REMARK INTER:                  -5.368
REMARK INTRA:                  -0.399
REMARK UNBOUND:                -0.399
REMARK SMILES CCO[C@H]1O[C@@H](CO)[C@H](O)[C@@H](O)[C@@H]1O
REMARK SMILES IDX 4 1 13 2 11 3 9 4 6 5 5 6 3 7 2 8 1 9 14 10 12 12 7 14 8 15
REMARK SMILES IDX 10 17
REMARK H PARENT 14 11 12 13 8 16 10 18
REMARK Flexibility Score: inf
ROOT
ATOM      1  C   UNL     1       7.635  -5.589  -1.796  1.00  0.00     0.281 C 
ATOM      2  C   UNL     1       8.879  -4.829  -1.269  1.00  0.00     0.202 C 
ATOM      3  C   UNL     1       8.539  -3.373  -0.874  1.00  0.00     0.179 C 
ATOM      4  C   UNL     1       7.429  -2.776  -1.771  1.00  0.00     0.177 C 
ATOM      5  C   UNL     1       6.210  -3.750  -1.908  1.00  0.00     0.178 C 
ATOM      6  O   UNL     1       6.455  -4.999  -1.278  1.00  0.00    -0.341 OA
ENDROOT
BRANCH   1   7
ATOM      7  O   UNL     1       7.714  -6.934  -1.363  1.00  0.00    -0.350 OA
BRANCH   7   8
ATOM      8  C   UNL     1       6.577  -7.654  -1.797  1.00  0.00     0.160 C 
ATOM      9  C   UNL     1       6.291  -8.775  -0.810  1.00  0.00     0.035 C 
ENDBRANCH   7   8
ENDBRANCH   1   7
BRANCH   2  10
ATOM     10  O   UNL     1       9.891  -4.826  -2.245  1.00  0.00    -0.385 OA
ATOM     11  H   UNL     1      10.721  -5.133  -1.796  1.00  0.00     0.211 HD
ENDBRANCH   2  10
BRANCH   3  12
ATOM     12  O   UNL     1       8.115  -3.354   0.467  1.00  0.00    -0.387 OA
ATOM     13  H   UNL     1       8.032  -4.300   0.759  1.00  0.00     0.211 HD
ENDBRANCH   3  12
BRANCH   5  14
ATOM     14  C   UNL     1       4.949  -3.139  -1.290  1.00  0.00     0.191 C 
BRANCH  14  15
ATOM     15  O   UNL     1       5.072  -3.105   0.104  1.00  0.00    -0.394 OA
ATOM     16  H   UNL     1       4.378  -3.721   0.457  1.00  0.00     0.210 HD
ENDBRANCH  14  15
ENDBRANCH   5  14
BRANCH   4  17
ATOM     17  O   UNL     1       7.942  -2.425  -3.033  1.00  0.00    -0.387 OA
ATOM     18  H   UNL     1       7.746  -1.466  -3.191  1.00  0.00     0.211 HD
ENDBRANCH   4  17
TORSDOF 7
ENDMDL
MODEL 2
REMARK VINA RESULT:    -3.765      1.477      3.989
REMARK INTER + INTRA:          -5.264
REMARK INTER:                  -5.005
REMARK INTRA:                  -0.259
REMARK UNBOUND:                -0.399
REMARK SMILES CCO[C@H]1O[C@@H](CO)[C@H](O)[C@@H](O)[C@@H]1O
REMARK SMILES IDX 4 1 13 2 11 3 9 4 6 5 5 6 3 7 2 8 1 9 14 10 12 12 7 14 8 15
REMARK SMILES IDX 10 17
REMARK H PARENT 14 11 12 13 8 16 10 18
REMARK Flexibility Score: inf
ROOT
ATOM      1  C   UNL     1       6.913  -4.259  -0.504  1.00  0.00     0.281 C 
ATOM      2  C   UNL     1       8.110  -3.283  -0.638  1.00  0.00     0.202 C 
ATOM      3  C   UNL     1       9.138  -3.775  -1.683  1.00  0.00     0.179 C 
ATOM      4  C   UNL     1       9.222  -5.319  -1.727  1.00  0.00     0.177 C 
ATOM      5  C   UNL     1       7.802  -5.973  -1.805  1.00  0.00     0.178 C 
ATOM      6  O   UNL     1       6.766  -5.008  -1.698  1.00  0.00    -0.341 OA
ENDROOT
BRANCH   1   7
ATOM      7  O   UNL     1       5.739  -3.502  -0.281  1.00  0.00    -0.350 OA
BRANCH   7   8
ATOM      8  C   UNL     1       5.417  -2.747  -1.432  1.00  0.00     0.160 C 
ATOM      9  C   UNL     1       3.909  -2.750  -1.625  1.00  0.00     0.035 C 
ENDBRANCH   7   8
ENDBRANCH   1   7
BRANCH   2  10
ATOM     10  O   UNL     1       8.743  -3.125   0.606  1.00  0.00    -0.385 OA
ATOM     11  H   UNL     1       8.235  -2.430   1.100  1.00  0.00     0.211 HD
ENDBRANCH   2  10
BRANCH   3  12
ATOM     12  O   UNL     1       8.765  -3.292  -2.950  1.00  0.00    -0.387 OA
ATOM     13  H   UNL     1       8.072  -2.595  -2.803  1.00  0.00     0.211 HD
ENDBRANCH   3  12
BRANCH   5  14
ATOM     14  C   UNL     1       7.620  -6.730  -3.124  1.00  0.00     0.191 C 
BRANCH  14  15
ATOM     15  O   UNL     1       8.019  -8.063  -2.966  1.00  0.00    -0.394 OA
ATOM     16  H   UNL     1       7.872  -8.282  -2.009  1.00  0.00     0.210 HD
ENDBRANCH  14  15
ENDBRANCH   5  14
BRANCH   4  17
ATOM     17  O   UNL     1       9.948  -5.810  -0.626  1.00  0.00    -0.387 OA
ATOM     18  H   UNL     1      10.610  -6.469  -0.961  1.00  0.00     0.211 HD
ENDBRANCH   4  17
TORSDOF 7
ENDMDL
MODEL 3
REMARK VINA RESULT:    -3.537      2.103      4.789
REMARK INTER + INTRA:          -4.969
REMARK INTER:                  -4.614
REMARK INTRA:                  -0.355
REMARK UNBOUND:                -0.399
REMARK SMILES CCO[C@H]1O[C@@H](CO)[C@H](O)[C@@H](O)[C@@H]1O
REMARK SMILES IDX 4 1 13 2 11 3 9 4 6 5 5 6 3 7 2 8 1 9 14 10 12 12 7 14 8 15
REMARK SMILES IDX 10 17
REMARK H PARENT 14 11 12 13 8 16 10 18
REMARK Flexibility Score: inf
ROOT
ATOM      1  C   UNL     1       8.714  -4.515  -2.814  1.00  0.00     0.281 C 
ATOM      2  C   UNL     1       8.442  -5.535  -1.679  1.00  0.00     0.202 C 
ATOM      3  C   UNL     1       9.749  -6.181  -1.161  1.00  0.00     0.179 C 
ATOM      4  C   UNL     1      10.798  -6.341  -2.287  1.00  0.00     0.177 C 
ATOM      5  C   UNL     1      10.968  -5.020  -3.111  1.00  0.00     0.178 C 
ATOM      6  O   UNL     1      10.039  -4.022  -2.713  1.00  0.00    -0.341 OA
ENDROOT
BRANCH   1   7
ATOM      7  O   UNL     1       7.805  -3.440  -2.679  1.00  0.00    -0.350 OA
BRANCH   7   8
ATOM      8  C   UNL     1       7.482  -3.240  -1.317  1.00  0.00     0.160 C 
ATOM      9  C   UNL     1       5.974  -3.113  -1.175  1.00  0.00     0.035 C 
ENDBRANCH   7   8
ENDBRANCH   1   7
BRANCH   2  10
ATOM     10  O   UNL     1       7.569  -6.538  -2.132  1.00  0.00    -0.385 OA
ATOM     11  H   UNL     1       7.035  -6.828  -1.347  1.00  0.00     0.211 HD
ENDBRANCH   2  10
BRANCH   3  12
ATOM     12  O   UNL     1      10.281  -5.375  -0.139  1.00  0.00    -0.387 OA
ATOM     13  H   UNL     1      10.085  -4.431  -0.382  1.00  0.00     0.211 HD
ENDBRANCH   3  12
BRANCH   5  14
ATOM     14  C   UNL     1      12.382  -4.453  -2.949  1.00  0.00     0.191 C 
BRANCH  14  15
ATOM     15  O   UNL     1      12.854  -4.716  -1.657  1.00  0.00    -0.394 OA
ATOM     16  H   UNL     1      12.193  -5.330  -1.242  1.00  0.00     0.210 HD
ENDBRANCH  14  15
ENDBRANCH   5  14
BRANCH   4  17
ATOM     17  O   UNL     1      10.470  -7.423  -3.125  1.00  0.00    -0.387 OA
ATOM     18  H   UNL     1      10.378  -7.079  -4.051  1.00  0.00     0.211 HD
ENDBRANCH   4  17
TORSDOF 7
ENDMDL
MODEL 4
REMARK VINA RESULT:    -3.525      1.757      2.240
REMARK INTER + INTRA:          -4.954
REMARK INTER:                  -4.523
REMARK INTRA:                  -0.431
REMARK UNBOUND:                -0.399
REMARK SMILES CCO[C@H]1O[C@@H](CO)[C@H](O)[C@@H](O)[C@@H]1O
REMARK SMILES IDX 4 1 13 2 11 3 9 4 6 5 5 6 3 7 2 8 1 9 14 10 12 12 7 14 8 15
REMARK SMILES IDX 10 17
REMARK H PARENT 14 11 12 13 8 16 10 18
REMARK Flexibility Score: inf
ROOT
ATOM      1  C   UNL     1       6.922  -4.394  -3.017  1.00  0.00     0.281 C 
ATOM      2  C   UNL     1       7.493  -3.585  -1.824  1.00  0.00     0.202 C 
ATOM      3  C   UNL     1       6.414  -2.695  -1.165  1.00  0.00     0.179 C 
ATOM      4  C   UNL     1       5.383  -2.178  -2.197  1.00  0.00     0.177 C 
ATOM      5  C   UNL     1       4.852  -3.332  -3.111  1.00  0.00     0.178 C 
ATOM      6  O   UNL     1       5.523  -4.559  -2.863  1.00  0.00    -0.341 OA
ENDROOT
BRANCH   1   7
ATOM      7  O   UNL     1       7.543  -5.666  -3.035  1.00  0.00    -0.350 OA
BRANCH   7   8
ATOM      8  C   UNL     1       7.400  -6.297  -1.779  1.00  0.00     0.160 C 
ATOM      9  C   UNL     1       8.600  -7.199  -1.534  1.00  0.00     0.035 C 
ENDBRANCH   7   8
ENDBRANCH   1   7
BRANCH   2  10
ATOM     10  O   UNL     1       8.564  -2.784  -2.254  1.00  0.00    -0.385 OA
ATOM     11  H   UNL     1       9.324  -2.971  -1.644  1.00  0.00     0.211 HD
ENDBRANCH   2  10
BRANCH   3  12
ATOM     12  O   UNL     1       5.749  -3.443  -0.177  1.00  0.00    -0.387 OA
ATOM     13  H   UNL     1       5.262  -2.797   0.399  1.00  0.00     0.211 HD
ENDBRANCH   3  12
BRANCH   5  14
ATOM     14  C   UNL     1       3.351  -3.553  -2.897  1.00  0.00     0.191 C 
BRANCH  14  15
ATOM     15  O   UNL     1       2.941  -2.917  -1.719  1.00  0.00    -0.394 OA
ATOM     16  H   UNL     1       3.179  -1.959  -1.826  1.00  0.00     0.210 HD
ENDBRANCH  14  15
ENDBRANCH   5  14
BRANCH   4  17
ATOM     17  O   UNL     1       5.928  -1.132  -2.964  1.00  0.00    -0.387 OA
ATOM     18  H   UNL     1       5.586  -1.219  -3.892  1.00  0.00     0.211 HD
ENDBRANCH   4  17
TORSDOF 7
ENDMDL
MODEL 5
REMARK VINA RESULT:    -3.495      1.896      3.691
REMARK INTER + INTRA:          -4.916
REMARK INTER:                  -5.099
REMARK INTRA:                   0.183
REMARK UNBOUND:                -0.399
REMARK SMILES CCO[C@H]1O[C@@H](CO)[C@H](O)[C@@H](O)[C@@H]1O
REMARK SMILES IDX 4 1 13 2 11 3 9 4 6 5 5 6 3 7 2 8 1 9 14 10 12 12 7 14 8 15
REMARK SMILES IDX 10 17
REMARK H PARENT 14 11 12 13 8 16 10 18
REMARK Flexibility Score: inf
ROOT
ATOM      1  C   UNL     1       9.258  -3.490  -2.304  1.00  0.00     0.281 C 
ATOM      2  C   UNL     1       8.989  -4.921  -1.772  1.00  0.00     0.202 C 
ATOM      3  C   UNL     1       7.475  -5.223  -1.675  1.00  0.00     0.179 C 
ATOM      4  C   UNL     1       6.656  -3.959  -1.321  1.00  0.00     0.177 C 
ATOM      5  C   UNL     1       7.054  -2.741  -2.222  1.00  0.00     0.178 C 
ATOM      6  O   UNL     1       8.153  -3.045  -3.070  1.00  0.00    -0.341 OA
ENDROOT
BRANCH   1   7
ATOM      7  O   UNL     1      10.411  -3.526  -3.124  1.00  0.00    -0.350 OA
BRANCH   7   8
ATOM      8  C   UNL     1      11.025  -4.797  -3.049  1.00  0.00     0.160 C 
ATOM      9  C   UNL     1      12.511  -4.618  -2.783  1.00  0.00     0.035 C 
ENDBRANCH   7   8
ENDBRANCH   1   7
BRANCH   2  10
ATOM     10  O   UNL     1       9.582  -5.085  -0.509  1.00  0.00    -0.385 OA
ATOM     11  H   UNL     1       9.707  -6.061  -0.376  1.00  0.00     0.211 HD
ENDBRANCH   2  10
BRANCH   3  12
ATOM     12  O   UNL     1       7.034  -5.734  -2.909  1.00  0.00    -0.387 OA
ATOM     13  H   UNL     1       6.635  -4.976  -3.412  1.00  0.00     0.211 HD
ENDBRANCH   3  12
BRANCH   5  14
ATOM     14  C   UNL     1       5.877  -2.301  -3.098  1.00  0.00     0.191 C 
BRANCH  14  15
ATOM     15  O   UNL     1       5.638  -0.933  -2.917  1.00  0.00    -0.394 OA
ATOM     16  H   UNL     1       4.676  -0.850  -2.685  1.00  0.00     0.210 HD
ENDBRANCH  14  15
ENDBRANCH   5  14
BRANCH   4  17
ATOM     17  O   UNL     1       6.789  -3.645   0.044  1.00  0.00    -0.387 OA
ATOM     18  H   UNL     1       7.734  -3.793   0.305  1.00  0.00     0.211 HD
ENDBRANCH   4  17
TORSDOF 7
ENDMDL
MODEL 6
REMARK VINA RESULT:    -3.445      1.130      3.379
REMARK INTER + INTRA:          -4.851
REMARK INTER:                  -4.541
REMARK INTRA:                  -0.310
REMARK UNBOUND:                -0.399
REMARK SMILES CCO[C@H]1O[C@@H](CO)[C@H](O)[C@@H](O)[C@@H]1O
REMARK SMILES IDX 4 1 13 2 11 3 9 4 6 5 5 6 3 7 2 8 1 9 14 10 12 12 7 14 8 15
REMARK SMILES IDX 10 17
REMARK H PARENT 14 11 12 13 8 16 10 18
REMARK Flexibility Score: inf
ROOT
ATOM      1  C   UNL     1       6.688  -5.247  -1.929  1.00  0.00     0.281 C 
ATOM      2  C   UNL     1       6.232  -3.776  -1.753  1.00  0.00     0.202 C 
ATOM      3  C   UNL     1       7.432  -2.801  -1.736  1.00  0.00     0.179 C 
ATOM      4  C   UNL     1       8.686  -3.441  -1.095  1.00  0.00     0.177 C 
ATOM      5  C   UNL     1       8.971  -4.865  -1.679  1.00  0.00     0.178 C 
ATOM      6  O   UNL     1       7.950  -5.288  -2.571  1.00  0.00    -0.341 OA
ENDROOT
BRANCH   1   7
ATOM      7  O   UNL     1       5.735  -5.921  -2.730  1.00  0.00    -0.350 OA
BRANCH   7   8
ATOM      8  C   UNL     1       6.187  -7.225  -3.035  1.00  0.00     0.160 C 
ATOM      9  C   UNL     1       6.322  -8.021  -1.747  1.00  0.00     0.035 C 
ENDBRANCH   7   8
ENDBRANCH   1   7
BRANCH   2  10
ATOM     10  O   UNL     1       5.497  -3.638  -0.563  1.00  0.00    -0.385 OA
ATOM     11  H   UNL     1       5.994  -2.994   0.006  1.00  0.00     0.211 HD
ENDBRANCH   2  10
BRANCH   3  12
ATOM     12  O   UNL     1       7.726  -2.421  -3.058  1.00  0.00    -0.387 OA
ATOM     13  H   UNL     1       7.115  -1.673  -3.289  1.00  0.00     0.211 HD
ENDBRANCH   3  12
BRANCH   5  14
ATOM     14  C   UNL     1      10.307  -4.892  -2.429  1.00  0.00     0.191 C 
BRANCH  14  15
ATOM     15  O   UNL     1      10.647  -3.597  -2.838  1.00  0.00    -0.394 OA
ATOM     16  H   UNL     1       9.987  -2.990  -2.410  1.00  0.00     0.210 HD
ENDBRANCH  14  15
ENDBRANCH   5  14
BRANCH   4  17
ATOM     17  O   UNL     1       8.563  -3.482   0.306  1.00  0.00    -0.387 OA
ATOM     18  H   UNL     1       7.925  -4.205   0.540  1.00  0.00     0.211 HD
ENDBRANCH   4  17
TORSDOF 7
ENDMDL
MODEL 7
REMARK VINA RESULT:    -3.415      1.945      4.190
REMARK INTER + INTRA:          -4.811
REMARK INTER:                  -4.643
REMARK INTRA:                  -0.169
REMARK UNBOUND:                -0.399
REMARK SMILES CCO[C@H]1O[C@@H](CO)[C@H](O)[C@@H](O)[C@@H]1O
REMARK SMILES IDX 4 1 13 2 11 3 9 4 6 5 5 6 3 7 2 8 1 9 14 10 12 12 7 14 8 15
REMARK SMILES IDX 10 17
REMARK H PARENT 14 11 12 13 8 16 10 18
REMARK Flexibility Score: inf
ROOT
ATOM      1  C   UNL     1       9.836  -4.601  -2.918  1.00  0.00     0.281 C 
ATOM      2  C   UNL     1       9.254  -3.363  -2.188  1.00  0.00     0.202 C 
ATOM      3  C   UNL     1       8.138  -3.754  -1.193  1.00  0.00     0.179 C 
ATOM      4  C   UNL     1       7.327  -4.976  -1.687  1.00  0.00     0.177 C 
ATOM      5  C   UNL     1       8.263  -6.140  -2.157  1.00  0.00     0.178 C 
ATOM      6  O   UNL     1       9.632  -5.762  -2.133  1.00  0.00    -0.341 OA
ENDROOT
BRANCH   1   7
ATOM      7  O   UNL     1      11.225  -4.401  -3.104  1.00  0.00    -0.350 OA
BRANCH   7   8
ATOM      8  C   UNL     1      11.953  -5.473  -2.540  1.00  0.00     0.160 C 
ATOM      9  C   UNL     1      13.318  -4.972  -2.098  1.00  0.00     0.035 C 
ENDBRANCH   7   8
ENDBRANCH   1   7
BRANCH   2  10
ATOM     10  O   UNL     1       8.748  -2.446  -3.125  1.00  0.00    -0.385 OA
ATOM     11  H   UNL     1       8.666  -1.574  -2.657  1.00  0.00     0.211 HD
ENDBRANCH   2  10
BRANCH   3  12
ATOM     12  O   UNL     1       8.723  -4.056   0.050  1.00  0.00    -0.387 OA
ATOM     13  H   UNL     1       8.687  -5.042   0.157  1.00  0.00     0.211 HD
ENDBRANCH   3  12
BRANCH   5  14
ATOM     14  C   UNL     1       8.089  -7.375  -1.268  1.00  0.00     0.191 C 
BRANCH  14  15
ATOM     15  O   UNL     1       8.164  -8.535  -2.049  1.00  0.00    -0.394 OA
ATOM     16  H   UNL     1       9.013  -8.983  -1.794  1.00  0.00     0.210 HD
ENDBRANCH  14  15
ENDBRANCH   5  14
BRANCH   4  17
ATOM     17  O   UNL     1       6.432  -4.601  -2.706  1.00  0.00    -0.387 OA
ATOM     18  H   UNL     1       5.562  -4.376  -2.286  1.00  0.00     0.211 HD
ENDBRANCH   4  17
TORSDOF 7
ENDMDL
MODEL 8
REMARK VINA RESULT:    -3.152      1.306      3.011
REMARK INTER + INTRA:          -4.472
REMARK INTER:                  -4.265
REMARK INTRA:                  -0.207
REMARK UNBOUND:                -0.399
REMARK SMILES CCO[C@H]1O[C@@H](CO)[C@H](O)[C@@H](O)[C@@H]1O
REMARK SMILES IDX 4 1 13 2 11 3 9 4 6 5 5 6 3 7 2 8 1 9 14 10 12 12 7 14 8 15
REMARK SMILES IDX 10 17
REMARK H PARENT 14 11 12 13 8 16 10 18
REMARK Flexibility Score: inf
ROOT
ATOM      1  C   UNL     1       6.844  -5.443  -2.083  1.00  0.00     0.281 C 
ATOM      2  C   UNL     1       5.893  -4.534  -2.904  1.00  0.00     0.202 C 
ATOM      3  C   UNL     1       5.952  -3.063  -2.429  1.00  0.00     0.179 C 
ATOM      4  C   UNL     1       6.212  -2.959  -0.907  1.00  0.00     0.177 C 
ATOM      5  C   UNL     1       7.404  -3.870  -0.460  1.00  0.00     0.178 C 
ATOM      6  O   UNL     1       7.892  -4.669  -1.528  1.00  0.00    -0.341 OA
ENDROOT
BRANCH   1   7
ATOM      7  O   UNL     1       7.391  -6.418  -2.950  1.00  0.00    -0.350 OA
BRANCH   7   8
ATOM      8  C   UNL     1       7.837  -7.536  -2.208  1.00  0.00     0.160 C 
ATOM      9  C   UNL     1       6.728  -7.986  -1.270  1.00  0.00     0.035 C 
ENDBRANCH   7   8
ENDBRANCH   1   7
BRANCH   2  10
ATOM     10  O   UNL     1       4.573  -5.005  -2.809  1.00  0.00    -0.385 OA
ATOM     11  H   UNL     1       4.241  -4.745  -1.910  1.00  0.00     0.211 HD
ENDBRANCH   2  10
BRANCH   3  12
ATOM     12  O   UNL     1       6.982  -2.402  -3.123  1.00  0.00    -0.387 OA
ATOM     13  H   UNL     1       6.939  -1.444  -2.864  1.00  0.00     0.211 HD
ENDBRANCH   3  12
BRANCH   5  14
ATOM     14  C   UNL     1       8.563  -3.028   0.081  1.00  0.00     0.191 C 
BRANCH  14  15
ATOM     15  O   UNL     1       8.799  -3.352   1.423  1.00  0.00    -0.394 OA
ATOM     16  H   UNL     1       8.087  -2.898   1.945  1.00  0.00     0.210 HD
ENDBRANCH  14  15
ENDBRANCH   5  14
BRANCH   4  17
ATOM     17  O   UNL     1       5.044  -3.258  -0.181  1.00  0.00    -0.387 OA
ATOM     18  H   UNL     1       4.280  -3.268  -0.814  1.00  0.00     0.211 HD
ENDBRANCH   4  17
TORSDOF 7
ENDMDL
MODEL 9
REMARK VINA RESULT:    -2.676      1.914      4.058
REMARK INTER + INTRA:          -3.857
REMARK INTER:                  -3.649
REMARK INTRA:                  -0.208
REMARK UNBOUND:                -0.399
REMARK SMILES CCO[C@H]1O[C@@H](CO)[C@H](O)[C@@H](O)[C@@H]1O
REMARK SMILES IDX 4 1 13 2 11 3 9 4 6 5 5 6 3 7 2 8 1 9 14 10 12 12 7 14 8 15
REMARK SMILES IDX 10 17
REMARK H PARENT 14 11 12 13 8 16 10 18
REMARK Flexibility Score: inf
ROOT
ATOM      1  C   UNL     1       7.175  -4.441  -2.944  1.00  0.00     0.281 C 
ATOM      2  C   UNL     1       7.162  -5.167  -1.574  1.00  0.00     0.202 C 
ATOM      3  C   UNL     1       8.561  -5.173  -0.914  1.00  0.00     0.179 C 
ATOM      4  C   UNL     1       9.694  -5.246  -1.965  1.00  0.00     0.177 C 
ATOM      5  C   UNL     1       9.485  -4.204  -3.115  1.00  0.00     0.178 C 
ATOM      6  O   UNL     1       8.248  -3.518  -2.991  1.00  0.00    -0.341 OA
ENDROOT
BRANCH   1   7
ATOM      7  O   UNL     1       5.952  -3.745  -3.095  1.00  0.00    -0.350 OA
BRANCH   7   8
ATOM      8  C   UNL     1       5.396  -3.455  -1.828  1.00  0.00     0.160 C 
ATOM      9  C   UNL     1       4.729  -2.090  -1.878  1.00  0.00     0.035 C 
ENDBRANCH   7   8
ENDBRANCH   1   7
BRANCH   2  10
ATOM     10  O   UNL     1       6.712  -6.488  -1.732  1.00  0.00    -0.385 OA
ATOM     11  H   UNL     1       5.754  -6.435  -1.986  1.00  0.00     0.211 HD
ENDBRANCH   2  10
BRANCH   3  12
ATOM     12  O   UNL     1       8.708  -4.000  -0.151  1.00  0.00    -0.387 OA
ATOM     13  H   UNL     1       9.556  -3.570  -0.439  1.00  0.00     0.211 HD
ENDBRANCH   3  12
BRANCH   5  14
ATOM     14  C   UNL     1      10.612  -3.167  -3.125  1.00  0.00     0.191 C 
BRANCH  14  15
ATOM     15  O   UNL     1      10.099  -1.905  -2.802  1.00  0.00    -0.394 OA
ATOM     16  H   UNL     1      10.799  -1.249  -3.058  1.00  0.00     0.210 HD
ENDBRANCH  14  15
ENDBRANCH   5  14
BRANCH   4  17
ATOM     17  O   UNL     1       9.814  -6.551  -2.478  1.00  0.00    -0.387 OA
ATOM     18  H   UNL     1       9.054  -7.089  -2.136  1.00  0.00     0.211 HD
ENDBRANCH   4  17
TORSDOF 7
ENDMDL
