MODEL 1
REMARK VINA RESULT:    -4.227      0.000      0.000
REMARK INTER + INTRA:          -5.888
REMARK INTER:                  -5.463
REMARK INTRA:                  -0.425
REMARK UNBOUND:                -0.425
REMARK SMILES CCCCCCC(=O)[O-]
REMARK SMILES IDX 5 1 6 2 7 3 8 4 9 5 4 6 3 7 2 8 1 9
REMARK H PARENT
REMARK Flexibility Score: inf
ROOT
ATOM      1  C   UNL     1     -10.000 -18.950  30.432  1.00  0.00     0.006 C 
ENDROOT
BRANCH   1   2
ATOM      2  C   UNL     1      -9.921 -17.937  31.581  1.00  0.00     0.053 C 
BRANCH   2   3
ATOM      3  C   UNL     1     -11.046 -18.108  32.555  1.00  0.00     0.041 C 
ATOM      4  O   UNL     1     -11.638 -17.100  33.022  1.00  0.00    -0.550 OA
ATOM      5  O   UNL     1     -11.421 -19.379  32.970  1.00  0.00    -0.550 OA
ENDBRANCH   2   3
ENDBRANCH   1   2
BRANCH   1   6
ATOM      6  C   UNL     1     -10.961 -18.495  29.320  1.00  0.00     0.000 C 
BRANCH   6   7
ATOM      7  C   UNL     1     -10.880 -16.984  29.041  1.00  0.00    -0.000 C 
BRANCH   7   8
ATOM      8  C   UNL     1     -12.215 -16.228  29.162  1.00  0.00    -0.003 C 
ATOM      9  C   UNL     1     -13.344 -17.093  29.719  1.00  0.00     0.004 C 
ENDBRANCH   7   8
ENDBRANCH   6   7
ENDBRANCH   1   6
TORSDOF 5
ENDMDL
MODEL 2
REMARK VINA RESULT:    -4.173      1.476      1.612
REMARK INTER + INTRA:          -5.819
REMARK INTER:                  -5.388
REMARK INTRA:                  -0.431
REMARK UNBOUND:                -0.425
REMARK SMILES CCCCCCC(=O)[O-]
REMARK SMILES IDX 5 1 6 2 7 3 8 4 9 5 4 6 3 7 2 8 1 9
REMARK H PARENT
REMARK Flexibility Score: inf
ROOT
ATOM      1  C   UNL     1     -10.160 -18.877  29.735  1.00  0.00     0.006 C 
ENDROOT
BRANCH   1   2
ATOM      2  C   UNL     1     -10.257 -18.811  31.264  1.00  0.00     0.053 C 
BRANCH   2   3
ATOM      3  C   UNL     1      -9.684 -17.537  31.806  1.00  0.00     0.041 C 
ATOM      4  O   UNL     1     -10.398 -16.503  31.878  1.00  0.00    -0.550 OA
ATOM      5  O   UNL     1      -8.354 -17.485  32.203  1.00  0.00    -0.550 OA
ENDBRANCH   2   3
ENDBRANCH   1   2
BRANCH   1   6
ATOM      6  C   UNL     1     -11.532 -18.710  29.057  1.00  0.00     0.000 C 
BRANCH   6   7
ATOM      7  C   UNL     1     -11.739 -17.304  28.466  1.00  0.00    -0.000 C 
BRANCH   7   8
ATOM      8  C   UNL     1     -12.784 -16.441  29.194  1.00  0.00    -0.003 C 
ATOM      9  C   UNL     1     -13.505 -17.191  30.313  1.00  0.00     0.004 C 
ENDBRANCH   7   8
ENDBRANCH   6   7
ENDBRANCH   1   6
TORSDOF 5
ENDMDL
MODEL 3
REMARK VINA RESULT:    -4.137      1.864      2.716
REMARK INTER + INTRA:          -5.771
REMARK INTER:                  -5.516
REMARK INTRA:                  -0.255
REMARK UNBOUND:                -0.425
REMARK SMILES CCCCCCC(=O)[O-]
REMARK SMILES IDX 5 1 6 2 7 3 8 4 9 5 4 6 3 7 2 8 1 9
REMARK H PARENT
REMARK Flexibility Score: inf
ROOT
ATOM      1  C   UNL     1     -12.393 -17.094  31.234  1.00  0.00     0.006 C 
ENDROOT
BRANCH   1   2
ATOM      2  C   UNL     1     -11.688 -18.377  31.693  1.00  0.00     0.053 C 
BRANCH   2   3
ATOM      3  C   UNL     1     -10.281 -18.454  31.185  1.00  0.00     0.041 C 
ATOM      4  O   UNL     1     -10.022 -19.093  30.132  1.00  0.00    -0.550 OA
ATOM      5  O   UNL     1      -9.251 -17.845  31.891  1.00  0.00    -0.550 OA
ENDBRANCH   2   3
ENDBRANCH   1   2
BRANCH   1   6
ATOM      6  C   UNL     1     -13.385 -17.354  30.087  1.00  0.00     0.000 C 
BRANCH   6   7
ATOM      7  C   UNL     1     -13.094 -16.502  28.839  1.00  0.00    -0.000 C 
BRANCH   7   8
ATOM      8  C   UNL     1     -11.926 -17.000  27.970  1.00  0.00    -0.003 C 
ATOM      9  C   UNL     1     -11.404 -15.938  27.004  1.00  0.00     0.004 C 
ENDBRANCH   7   8
ENDBRANCH   6   7
ENDBRANCH   1   6
TORSDOF 5
ENDMDL
MODEL 4
REMARK VINA RESULT:    -4.123      2.446      3.558
REMARK INTER + INTRA:          -5.754
REMARK INTER:                  -5.321
REMARK INTRA:                  -0.433
REMARK UNBOUND:                -0.425
REMARK SMILES CCCCCCC(=O)[O-]
REMARK SMILES IDX 5 1 6 2 7 3 8 4 9 5 4 6 3 7 2 8 1 9
REMARK H PARENT
REMARK Flexibility Score: inf
ROOT
ATOM      1  C   UNL     1     -10.297 -18.892  29.639  1.00  0.00     0.006 C 
ENDROOT
BRANCH   1   2
ATOM      2  C   UNL     1     -11.732 -18.562  29.207  1.00  0.00     0.053 C 
BRANCH   2   3
ATOM      3  C   UNL     1     -11.888 -17.117  28.845  1.00  0.00     0.041 C 
ATOM      4  O   UNL     1     -10.903 -16.462  28.414  1.00  0.00    -0.550 OA
ATOM      5  O   UNL     1     -13.113 -16.486  29.014  1.00  0.00    -0.550 OA
ENDBRANCH   2   3
ENDBRANCH   1   2
BRANCH   1   6
ATOM      6  C   UNL     1     -10.145 -18.928  31.170  1.00  0.00     0.000 C 
BRANCH   6   7
ATOM      7  C   UNL     1      -9.363 -17.723  31.722  1.00  0.00    -0.000 C 
BRANCH   7   8
ATOM      8  C   UNL     1     -10.224 -16.500  32.084  1.00  0.00    -0.003 C 
ATOM      9  C   UNL     1     -11.547 -16.876  32.751  1.00  0.00     0.004 C 
ENDBRANCH   7   8
ENDBRANCH   6   7
ENDBRANCH   1   6
TORSDOF 5
ENDMDL
MODEL 5
REMARK VINA RESULT:    -4.062      0.945      1.784
REMARK INTER + INTRA:          -5.675
REMARK INTER:                  -5.446
REMARK INTRA:                  -0.229
REMARK UNBOUND:                -0.425
REMARK SMILES CCCCCCC(=O)[O-]
REMARK SMILES IDX 5 1 6 2 7 3 8 4 9 5 4 6 3 7 2 8 1 9
REMARK H PARENT
REMARK Flexibility Score: inf
ROOT
ATOM      1  C   UNL     1     -10.514 -18.360  30.007  1.00  0.00     0.006 C 
ENDROOT
BRANCH   1   2
ATOM      2  C   UNL     1      -9.949 -18.553  31.420  1.00  0.00     0.053 C 
BRANCH   2   3
ATOM      3  C   UNL     1     -11.024 -18.521  32.462  1.00  0.00     0.041 C 
ATOM      4  O   UNL     1     -11.552 -19.592  32.862  1.00  0.00    -0.550 OA
ATOM      5  O   UNL     1     -11.466 -17.306  32.970  1.00  0.00    -0.550 OA
ENDBRANCH   2   3
ENDBRANCH   1   2
BRANCH   1   6
ATOM      6  C   UNL     1     -10.527 -16.880  29.584  1.00  0.00     0.000 C 
BRANCH   6   7
ATOM      7  C   UNL     1     -11.942 -16.276  29.566  1.00  0.00    -0.000 C 
BRANCH   7   8
ATOM      8  C   UNL     1     -12.665 -16.354  28.210  1.00  0.00    -0.003 C 
ATOM      9  C   UNL     1     -11.736 -16.107  27.022  1.00  0.00     0.004 C 
ENDBRANCH   7   8
ENDBRANCH   6   7
ENDBRANCH   1   6
TORSDOF 5
ENDMDL
MODEL 6
REMARK VINA RESULT:    -4.008      3.371      4.629
REMARK INTER + INTRA:          -5.604
REMARK INTER:                  -5.374
REMARK INTRA:                  -0.230
REMARK UNBOUND:                -0.425
REMARK SMILES CCCCCCC(=O)[O-]
REMARK SMILES IDX 5 1 6 2 7 3 8 4 9 5 4 6 3 7 2 8 1 9
REMARK H PARENT
REMARK Flexibility Score: inf
ROOT
ATOM      1  C   UNL     1     -11.544 -18.087  28.850  1.00  0.00     0.006 C 
ENDROOT
BRANCH   1   2
ATOM      2  C   UNL     1     -11.532 -16.555  28.770  1.00  0.00     0.053 C 
BRANCH   2   3
ATOM      3  C   UNL     1     -11.694 -16.068  27.363  1.00  0.00     0.041 C 
ATOM      4  O   UNL     1     -10.689 -15.694  26.703  1.00  0.00    -0.550 OA
ATOM      5  O   UNL     1     -12.957 -15.997  26.790  1.00  0.00    -0.550 OA
ENDBRANCH   2   3
ENDBRANCH   1   2
BRANCH   1   6
ATOM      6  C   UNL     1     -10.402 -18.633  29.724  1.00  0.00     0.000 C 
BRANCH   6   7
ATOM      7  C   UNL     1     -10.810 -18.816  31.196  1.00  0.00    -0.000 C 
BRANCH   7   8
ATOM      8  C   UNL     1     -10.300 -17.723  32.152  1.00  0.00    -0.003 C 
ATOM      9  C   UNL     1      -8.843 -17.340  31.900  1.00  0.00     0.004 C 
ENDBRANCH   7   8
ENDBRANCH   6   7
ENDBRANCH   1   6
TORSDOF 5
ENDMDL
MODEL 7
REMARK VINA RESULT:    -3.936      2.563      4.103
REMARK INTER + INTRA:          -5.512
REMARK INTER:                  -5.107
REMARK INTRA:                  -0.405
REMARK UNBOUND:                -0.425
REMARK SMILES CCCCCCC(=O)[O-]
REMARK SMILES IDX 5 1 6 2 7 3 8 4 9 5 4 6 3 7 2 8 1 9
REMARK H PARENT
REMARK Flexibility Score: inf
ROOT
ATOM      1  C   UNL     1     -12.327 -16.831  31.234  1.00  0.00     0.006 C 
ENDROOT
BRANCH   1   2
ATOM      2  C   UNL     1     -12.151 -16.111  29.891  1.00  0.00     0.053 C 
BRANCH   2   3
ATOM      3  C   UNL     1     -11.318 -16.909  28.934  1.00  0.00     0.041 C 
ATOM      4  O   UNL     1     -10.482 -16.333  28.189  1.00  0.00    -0.550 OA
ATOM      5  O   UNL     1     -11.487 -18.284  28.844  1.00  0.00    -0.550 OA
ENDBRANCH   2   3
ENDBRANCH   1   2
BRANCH   1   6
ATOM      6  C   UNL     1     -11.174 -16.536  32.208  1.00  0.00     0.000 C 
BRANCH   6   7
ATOM      7  C   UNL     1     -10.139 -17.673  32.274  1.00  0.00    -0.000 C 
BRANCH   7   8
ATOM      8  C   UNL     1      -8.692 -17.253  31.965  1.00  0.00    -0.003 C 
ATOM      9  C   UNL     1      -8.593 -15.867  31.330  1.00  0.00     0.004 C 
ENDBRANCH   7   8
ENDBRANCH   6   7
ENDBRANCH   1   6
TORSDOF 5
ENDMDL
MODEL 8
REMARK VINA RESULT:    -3.900      2.316      2.524
REMARK INTER + INTRA:          -5.465
REMARK INTER:                  -5.252
REMARK INTRA:                  -0.214
REMARK UNBOUND:                -0.425
REMARK SMILES CCCCCCC(=O)[O-]
REMARK SMILES IDX 5 1 6 2 7 3 8 4 9 5 4 6 3 7 2 8 1 9
REMARK H PARENT
REMARK Flexibility Score: inf
ROOT
ATOM      1  C   UNL     1      -9.933 -18.544  31.093  1.00  0.00     0.006 C 
ENDROOT
BRANCH   1   2
ATOM      2  C   UNL     1      -9.659 -17.411  32.091  1.00  0.00     0.053 C 
BRANCH   2   3
ATOM      3  C   UNL     1      -8.504 -16.559  31.664  1.00  0.00     0.041 C 
ATOM      4  O   UNL     1      -8.652 -15.699  30.756  1.00  0.00    -0.550 OA
ATOM      5  O   UNL     1      -7.256 -16.734  32.248  1.00  0.00    -0.550 OA
ENDBRANCH   2   3
ENDBRANCH   1   2
BRANCH   1   6
ATOM      6  C   UNL     1     -11.330 -18.433  30.456  1.00  0.00     0.000 C 
BRANCH   6   7
ATOM      7  C   UNL     1     -11.279 -18.268  28.927  1.00  0.00    -0.000 C 
BRANCH   7   8
ATOM      8  C   UNL     1     -11.736 -16.894  28.406  1.00  0.00    -0.003 C 
ATOM      9  C   UNL     1     -13.140 -16.515  28.873  1.00  0.00     0.004 C 
ENDBRANCH   7   8
ENDBRANCH   6   7
ENDBRANCH   1   6
TORSDOF 5
ENDMDL
MODEL 9
REMARK VINA RESULT:    -3.885      2.470      3.301
REMARK INTER + INTRA:          -5.446
REMARK INTER:                  -5.174
REMARK INTRA:                  -0.272
REMARK UNBOUND:                -0.425
REMARK SMILES CCCCCCC(=O)[O-]
REMARK SMILES IDX 5 1 6 2 7 3 8 4 9 5 4 6 3 7 2 8 1 9
REMARK H PARENT
REMARK Flexibility Score: inf
ROOT
ATOM      1  C   UNL     1     -12.169 -16.217  29.454  1.00  0.00     0.006 C 
ENDROOT
BRANCH   1   2
ATOM      2  C   UNL     1     -11.759 -17.109  30.632  1.00  0.00     0.053 C 
BRANCH   2   3
ATOM      3  C   UNL     1     -10.322 -17.523  30.545  1.00  0.00     0.041 C 
ATOM      4  O   UNL     1      -9.408 -16.660  30.625  1.00  0.00    -0.550 OA
ATOM      5  O   UNL     1      -9.992 -18.857  30.344  1.00  0.00    -0.550 OA
ENDBRANCH   2   3
ENDBRANCH   1   2
BRANCH   1   6
ATOM      6  C   UNL     1     -11.984 -16.920  28.098  1.00  0.00     0.000 C 
BRANCH   6   7
ATOM      7  C   UNL     1     -11.481 -15.972  26.995  1.00  0.00    -0.000 C 
BRANCH   7   8
ATOM      8  C   UNL     1      -9.979 -15.643  27.057  1.00  0.00    -0.003 C 
ATOM      9  C   UNL     1      -9.526 -14.702  25.942  1.00  0.00     0.004 C 
ENDBRANCH   7   8
ENDBRANCH   6   7
ENDBRANCH   1   6
TORSDOF 5
ENDMDL
