MODEL 1
REMARK VINA RESULT:    -4.625      0.000      0.000
REMARK INTER + INTRA:          -7.033
REMARK INTER:                  -7.058
REMARK INTRA:                   0.025
REMARK UNBOUND:                 0.025
REMARK SMILES CC1=CCC[C@H](C)C(=O)C[C@@H](C(C)C)C(=O)C1
REMARK SMILES IDX 8 1 9 2 6 3 7 4 5 5 4 6 3 7 2 8 1 9 10 11 11 12 15 13 16 14
REMARK SMILES IDX 17 15 12 17 13 18 14 19
REMARK H PARENT
REMARK Flexibility Score: 70.00
ROOT
ATOM      1  C   UNL     1      20.028  27.881 -15.904  1.00  0.00     0.136 C 
ATOM      2  O   UNL     1      19.972  26.717 -16.275  1.00  0.00    -0.299 OA
ENDROOT
BRANCH   1   3
ATOM      3  C   UNL     1      19.051  28.300 -14.821  1.00  0.00     0.053 C 
ATOM      4  C   UNL     1      17.625  27.730 -14.933  1.00  0.00     0.016 C 
BRANCH   3   5
ATOM      5  C   UNL     1      19.660  28.116 -13.412  1.00  0.00     0.015 C 
BRANCH   5   6
ATOM      6  C   UNL     1      20.737  29.153 -13.029  1.00  0.00     0.028 C 
BRANCH   6   7
ATOM      7  C   UNL     1      21.996  28.524 -12.469  1.00  0.00    -0.028 C 
ATOM      8  C   UNL     1      23.205  28.352 -13.073  1.00  0.00    -0.070 CG0
ATOM      9  C   UNL     1      24.276  27.676 -12.251  1.00  0.00     0.039 C 
ATOM     10  G   UNL     1      23.610  28.853 -14.458  1.00  0.00     0.000 G0
ENDBRANCH   6   7
ENDBRANCH   5   6
ENDBRANCH   3   5
ENDBRANCH   1   3
BRANCH   1  11
ATOM     11  C   UNL     1      21.144  28.745 -16.469  1.00  0.00     0.087 C 
BRANCH  11  12
ATOM     12  C   UNL     1      22.505  28.039 -16.757  1.00  0.00     0.066 C 
BRANCH  12  13
ATOM     13  C   UNL     1      23.438  27.840 -15.562  1.00  0.00     0.140 C 
ATOM     14  O   UNL     1      24.095  26.811 -15.511  1.00  0.00    -0.299 OA
BRANCH  13  15
ATOM     15  C   UNL     1      23.626  28.844 -14.456  1.00  0.00     0.106 CG0
ATOM     16  G   UNL     1      23.195  28.365 -13.070  1.00  0.00     0.000 G0
ENDBRANCH  13  15
ENDBRANCH  12  13
BRANCH  12  17
ATOM     17  C   UNL     1      23.292  28.712 -17.929  1.00  0.00    -0.006 C 
ATOM     18  C   UNL     1      24.334  27.772 -18.555  1.00  0.00     0.008 C 
ATOM     19  C   UNL     1      22.381  29.302 -19.019  1.00  0.00     0.008 C 
ENDBRANCH  12  17
ENDBRANCH  11  12
ENDBRANCH   1  11
TORSDOF 1
ENDMDL
MODEL 2
REMARK VINA RESULT:    -4.603      8.690     10.978
REMARK INTER + INTRA:          -7.000
REMARK INTER:                  -6.800
REMARK INTRA:                  -0.200
REMARK UNBOUND:                 0.025
REMARK SMILES CC1=CCC[C@H](C)C(=O)C[C@@H](C(C)C)C(=O)C1
REMARK SMILES IDX 8 1 9 2 6 3 7 4 5 5 4 6 3 7 2 8 1 9 10 11 11 12 15 13 16 14
REMARK SMILES IDX 17 15 12 17 13 18 14 19
REMARK H PARENT
REMARK Flexibility Score: 70.00
ROOT
ATOM      1  C   UNL     1      33.743  31.887 -15.466  1.00  0.00     0.136 C 
ATOM      2  O   UNL     1      33.757  33.108 -15.414  1.00  0.00    -0.299 OA
ENDROOT
BRANCH   1   3
ATOM      3  C   UNL     1      34.591  31.151 -14.445  1.00  0.00     0.053 C 
ATOM      4  C   UNL     1      36.035  31.656 -14.270  1.00  0.00     0.016 C 
BRANCH   3   5
ATOM      5  C   UNL     1      33.845  30.993 -13.101  1.00  0.00     0.015 C 
BRANCH   5   6
ATOM      6  C   UNL     1      32.782  29.873 -13.075  1.00  0.00     0.028 C 
BRANCH   6   7
ATOM      7  C   UNL     1      31.475  30.308 -12.446  1.00  0.00    -0.028 C 
ATOM      8  C   UNL     1      30.323  30.700 -13.057  1.00  0.00    -0.070 CG0
ATOM      9  C   UNL     1      29.179  31.087 -12.149  1.00  0.00     0.039 C 
ATOM     10  G   UNL     1      30.043  30.701 -14.559  1.00  0.00     0.000 G0
ENDBRANCH   6   7
ENDBRANCH   5   6
ENDBRANCH   3   5
ENDBRANCH   1   3
BRANCH   1  11
ATOM     11  C   UNL     1      32.786  31.237 -16.453  1.00  0.00     0.087 C 
BRANCH  11  12
ATOM     12  C   UNL     1      31.368  31.873 -16.584  1.00  0.00     0.066 C 
BRANCH  12  13
ATOM     13  C   UNL     1      30.522  31.924 -15.312  1.00  0.00     0.140 C 
ATOM     14  O   UNL     1      30.203  33.021 -14.877  1.00  0.00    -0.299 OA
BRANCH  13  15
ATOM     15  C   UNL     1      30.025  30.709 -14.574  1.00  0.00     0.106 CG0
ATOM     16  G   UNL     1      30.326  30.698 -13.076  1.00  0.00     0.000 G0
ENDBRANCH  13  15
ENDBRANCH  12  13
BRANCH  12  17
ATOM     17  C   UNL     1      30.533  31.239 -17.744  1.00  0.00    -0.006 C 
ATOM     18  C   UNL     1      29.291  32.072 -18.100  1.00  0.00     0.008 C 
ATOM     19  C   UNL     1      31.361  30.948 -19.007  1.00  0.00     0.008 C 
ENDBRANCH  12  17
ENDBRANCH  11  12
ENDBRANCH   1  11
TORSDOF 1
ENDMDL
MODEL 3
REMARK VINA RESULT:    -4.511      2.026      5.198
REMARK INTER + INTRA:          -6.859
REMARK INTER:                  -6.590
REMARK INTRA:                  -0.269
REMARK UNBOUND:                 0.025
REMARK SMILES CC1=CCC[C@H](C)C(=O)C[C@@H](C(C)C)C(=O)C1
REMARK SMILES IDX 8 1 9 2 6 3 7 4 5 5 4 6 3 7 2 8 1 9 10 11 11 12 15 13 16 14
REMARK SMILES IDX 17 15 12 17 13 18 14 19
REMARK H PARENT
REMARK Flexibility Score: 70.00
ROOT
ATOM      1  C   UNL     1      21.424  28.874 -12.500  1.00  0.00     0.136 C 
ATOM      2  O   UNL     1      21.584  28.158 -11.521  1.00  0.00    -0.299 OA
ENDROOT
BRANCH   1   3
ATOM      3  C   UNL     1      22.676  29.454 -13.132  1.00  0.00     0.053 C 
ATOM      4  C   UNL     1      23.310  30.657 -12.410  1.00  0.00     0.016 C 
BRANCH   3   5
ATOM      5  C   UNL     1      23.702  28.347 -13.465  1.00  0.00     0.015 C 
BRANCH   5   6
ATOM      6  C   UNL     1      23.356  27.489 -14.701  1.00  0.00     0.028 C 
BRANCH   6   7
ATOM      7  C   UNL     1      22.958  28.315 -15.906  1.00  0.00    -0.028 C 
ATOM      8  C   UNL     1      21.811  28.258 -16.638  1.00  0.00    -0.070 CG0
ATOM      9  C   UNL     1      21.707  29.216 -17.801  1.00  0.00     0.039 C 
ATOM     10  G   UNL     1      20.587  27.390 -16.348  1.00  0.00     0.000 G0
ENDBRANCH   6   7
ENDBRANCH   5   6
ENDBRANCH   3   5
ENDBRANCH   1   3
BRANCH   1  11
ATOM     11  C   UNL     1      20.014  29.003 -13.052  1.00  0.00     0.087 C 
BRANCH  11  12
ATOM     12  C   UNL     1      19.489  27.825 -13.929  1.00  0.00     0.066 C 
BRANCH  12  13
ATOM     13  C   UNL     1      19.552  28.020 -15.444  1.00  0.00     0.140 C 
ATOM     14  O   UNL     1      18.729  28.761 -15.962  1.00  0.00    -0.299 OA
BRANCH  13  15
ATOM     15  C   UNL     1      20.583  27.386 -16.340  1.00  0.00     0.106 CG0
ATOM     16  G   UNL     1      21.805  28.255 -16.631  1.00  0.00     0.000 G0
ENDBRANCH  13  15
ENDBRANCH  12  13
BRANCH  12  17
ATOM     17  C   UNL     1      18.050  27.369 -13.519  1.00  0.00    -0.006 C 
ATOM     18  C   UNL     1      17.467  26.321 -14.480  1.00  0.00     0.008 C 
ATOM     19  C   UNL     1      17.956  26.872 -12.066  1.00  0.00     0.008 C 
ENDBRANCH  12  17
ENDBRANCH  11  12
ENDBRANCH   1  11
TORSDOF 1
ENDMDL
MODEL 4
REMARK VINA RESULT:    -4.459      9.045     11.525
REMARK INTER + INTRA:          -6.779
REMARK INTER:                  -6.462
REMARK INTRA:                  -0.317
REMARK UNBOUND:                 0.025
REMARK SMILES CC1=CCC[C@H](C)C(=O)C[C@@H](C(C)C)C(=O)C1
REMARK SMILES IDX 8 1 9 2 6 3 7 4 5 5 4 6 3 7 2 8 1 9 10 11 11 12 15 13 16 14
REMARK SMILES IDX 17 15 12 17 13 18 14 19
REMARK H PARENT
REMARK Flexibility Score: 70.00
ROOT
ATOM      1  C   UNL     1      34.138  30.471 -11.297  1.00  0.00     0.136 C 
ATOM      2  O   UNL     1      34.884  31.434 -11.195  1.00  0.00    -0.299 OA
ENDROOT
BRANCH   1   3
ATOM      3  C   UNL     1      33.574  29.905 -10.006  1.00  0.00     0.053 C 
ATOM      4  C   UNL     1      33.829  30.732  -8.732  1.00  0.00     0.016 C 
BRANCH   3   5
ATOM      5  C   UNL     1      32.093  29.498 -10.170  1.00  0.00     0.015 C 
BRANCH   5   6
ATOM      6  C   UNL     1      31.110  30.675 -10.354  1.00  0.00     0.028 C 
BRANCH   6   7
ATOM      7  C   UNL     1      29.920  30.326 -11.223  1.00  0.00    -0.028 C 
ATOM      8  C   UNL     1      29.642  30.732 -12.493  1.00  0.00    -0.070 CG0
ATOM      9  C   UNL     1      28.359  30.215 -13.099  1.00  0.00     0.039 C 
ATOM     10  G   UNL     1      30.539  31.580 -13.394  1.00  0.00     0.000 G0
ENDBRANCH   6   7
ENDBRANCH   5   6
ENDBRANCH   3   5
ENDBRANCH   1   3
BRANCH   1  11
ATOM     11  C   UNL     1      33.755  30.025 -12.699  1.00  0.00     0.087 C 
BRANCH  11  12
ATOM     12  C   UNL     1      33.141  31.106 -13.640  1.00  0.00     0.066 C 
BRANCH  12  13
ATOM     13  C   UNL     1      31.682  30.905 -14.051  1.00  0.00     0.140 C 
ATOM     14  O   UNL     1      31.443  30.108 -14.947  1.00  0.00    -0.299 OA
BRANCH  13  15
ATOM     15  C   UNL     1      30.514  31.598 -13.403  1.00  0.00     0.106 CG0
ATOM     16  G   UNL     1      29.660  30.712 -12.497  1.00  0.00     0.000 G0
ENDBRANCH  13  15
ENDBRANCH  12  13
BRANCH  12  17
ATOM     17  C   UNL     1      34.014  31.357 -14.913  1.00  0.00    -0.006 C 
ATOM     18  C   UNL     1      33.565  32.599 -15.700  1.00  0.00     0.008 C 
ATOM     19  C   UNL     1      35.522  31.428 -14.617  1.00  0.00     0.008 C 
ENDBRANCH  12  17
ENDBRANCH  11  12
ENDBRANCH   1  11
TORSDOF 1
ENDMDL
MODEL 5
REMARK VINA RESULT:    -4.443      2.156      3.529
REMARK INTER + INTRA:          -6.755
REMARK INTER:                  -6.733
REMARK INTRA:                  -0.023
REMARK UNBOUND:                 0.025
REMARK SMILES CC1=CCC[C@H](C)C(=O)C[C@@H](C(C)C)C(=O)C1
REMARK SMILES IDX 8 1 9 2 6 3 7 4 5 5 4 6 3 7 2 8 1 9 10 11 11 12 15 13 16 14
REMARK SMILES IDX 17 15 12 17 13 18 14 19
REMARK H PARENT
REMARK Flexibility Score: 70.00
ROOT
ATOM      1  C   UNL     1      19.867  28.228 -11.748  1.00  0.00     0.136 C 
ATOM      2  O   UNL     1      19.207  27.199 -11.780  1.00  0.00    -0.299 OA
ENDROOT
BRANCH   1   3
ATOM      3  C   UNL     1      20.449  28.623 -10.403  1.00  0.00     0.053 C 
ATOM      4  C   UNL     1      20.052  27.742  -9.204  1.00  0.00     0.016 C 
BRANCH   3   5
ATOM      5  C   UNL     1      21.974  28.857 -10.496  1.00  0.00     0.015 C 
BRANCH   5   6
ATOM      6  C   UNL     1      22.789  27.644 -10.996  1.00  0.00     0.028 C 
BRANCH   6   7
ATOM      7  C   UNL     1      24.070  28.038 -11.700  1.00  0.00    -0.028 C 
ATOM      8  C   UNL     1      24.226  28.698 -12.882  1.00  0.00    -0.070 CG0
ATOM      9  C   UNL     1      25.647  28.941 -13.333  1.00  0.00     0.039 C 
ATOM     10  G   UNL     1      23.115  29.293 -13.746  1.00  0.00     0.000 G0
ENDBRANCH   6   7
ENDBRANCH   5   6
ENDBRANCH   3   5
ENDBRANCH   1   3
BRANCH   1  11
ATOM     11  C   UNL     1      20.141  28.927 -13.070  1.00  0.00     0.087 C 
BRANCH  11  12
ATOM     12  C   UNL     1      20.782  28.068 -14.203  1.00  0.00     0.066 C 
BRANCH  12  13
ATOM     13  C   UNL     1      22.256  28.332 -14.509  1.00  0.00     0.140 C 
ATOM     14  O   UNL     1      22.767  27.727 -15.440  1.00  0.00    -0.299 OA
BRANCH  13  15
ATOM     15  C   UNL     1      23.117  29.314 -13.759  1.00  0.00     0.106 CG0
ATOM     16  G   UNL     1      24.205  28.685 -12.890  1.00  0.00     0.000 G0
ENDBRANCH  13  15
ENDBRANCH  12  13
BRANCH  12  17
ATOM     17  C   UNL     1      19.955  28.116 -15.529  1.00  0.00    -0.006 C 
ATOM     18  C   UNL     1      19.993  26.783 -16.295  1.00  0.00     0.008 C 
ATOM     19  C   UNL     1      18.501  28.575 -15.329  1.00  0.00     0.008 C 
ENDBRANCH  12  17
ENDBRANCH  11  12
ENDBRANCH   1  11
TORSDOF 1
ENDMDL
MODEL 6
REMARK VINA RESULT:    -4.426     14.229     16.589
REMARK INTER + INTRA:          -6.729
REMARK INTER:                  -6.421
REMARK INTRA:                  -0.308
REMARK UNBOUND:                 0.025
REMARK SMILES CC1=CCC[C@H](C)C(=O)C[C@@H](C(C)C)C(=O)C1
REMARK SMILES IDX 8 1 9 2 6 3 7 4 5 5 4 6 3 7 2 8 1 9 10 11 11 12 15 13 16 14
REMARK SMILES IDX 17 15 12 17 13 18 14 19
REMARK H PARENT
REMARK Flexibility Score: 70.00
ROOT
ATOM      1  C   UNL     1      32.171  35.526 -21.259  1.00  0.00     0.136 C 
ATOM      2  O   UNL     1      31.075  35.010 -21.424  1.00  0.00    -0.299 OA
ENDROOT
BRANCH   1   3
ATOM      3  C   UNL     1      33.330  34.589 -20.974  1.00  0.00     0.053 C 
ATOM      4  C   UNL     1      33.056  33.087 -21.169  1.00  0.00     0.016 C 
BRANCH   3   5
ATOM      5  C   UNL     1      34.621  35.059 -21.681  1.00  0.00     0.015 C 
BRANCH   5   6
ATOM      6  C   UNL     1      34.630  34.870 -23.214  1.00  0.00     0.028 C 
BRANCH   6   7
ATOM      7  C   UNL     1      35.394  35.955 -23.943  1.00  0.00    -0.028 C 
ATOM      8  C   UNL     1      34.910  36.986 -24.689  1.00  0.00    -0.070 CG0
ATOM      9  C   UNL     1      35.934  37.910 -25.304  1.00  0.00     0.039 C 
ATOM     10  G   UNL     1      33.440  37.352 -24.891  1.00  0.00     0.000 G0
ENDBRANCH   6   7
ENDBRANCH   5   6
ENDBRANCH   3   5
ENDBRANCH   1   3
BRANCH   1  11
ATOM     11  C   UNL     1      32.282  37.026 -21.483  1.00  0.00     0.087 C 
BRANCH  11  12
ATOM     12  C   UNL     1      31.750  37.577 -22.842  1.00  0.00     0.066 C 
BRANCH  12  13
ATOM     13  C   UNL     1      32.793  38.147 -23.803  1.00  0.00     0.140 C 
ATOM     14  O   UNL     1      33.147  39.307 -23.646  1.00  0.00    -0.299 OA
BRANCH  13  15
ATOM     15  C   UNL     1      33.443  37.365 -24.913  1.00  0.00     0.106 CG0
ATOM     16  G   UNL     1      34.903  36.988 -24.668  1.00  0.00     0.000 G0
ENDBRANCH  13  15
ENDBRANCH  12  13
BRANCH  12  17
ATOM     17  C   UNL     1      30.590  38.609 -22.656  1.00  0.00    -0.006 C 
ATOM     18  C   UNL     1      29.868  38.929 -23.975  1.00  0.00     0.008 C 
ATOM     19  C   UNL     1      29.573  38.200 -21.576  1.00  0.00     0.008 C 
ENDBRANCH  12  17
ENDBRANCH  11  12
ENDBRANCH   1  11
TORSDOF 1
ENDMDL
MODEL 7
REMARK VINA RESULT:    -4.420      2.004      4.259
REMARK INTER + INTRA:          -6.720
REMARK INTER:                  -6.236
REMARK INTRA:                  -0.484
REMARK UNBOUND:                 0.025
REMARK SMILES CC1=CCC[C@H](C)C(=O)C[C@@H](C(C)C)C(=O)C1
REMARK SMILES IDX 8 1 9 2 6 3 7 4 5 5 4 6 3 7 2 8 1 9 10 11 11 12 15 13 16 14
REMARK SMILES IDX 17 15 12 17 13 18 14 19
REMARK H PARENT
REMARK Flexibility Score: 70.00
ROOT
ATOM      1  C   UNL     1      20.572  28.627 -12.963  1.00  0.00     0.136 C 
ATOM      2  O   UNL     1      20.010  29.518 -12.343  1.00  0.00    -0.299 OA
ENDROOT
BRANCH   1   3
ATOM      3  C   UNL     1      19.797  27.999 -14.107  1.00  0.00     0.053 C 
ATOM      4  C   UNL     1      18.271  28.202 -14.088  1.00  0.00     0.016 C 
BRANCH   3   5
ATOM      5  C   UNL     1      20.431  28.347 -15.473  1.00  0.00     0.015 C 
BRANCH   5   6
ATOM      6  C   UNL     1      21.377  27.269 -16.045  1.00  0.00     0.028 C 
BRANCH   6   7
ATOM      7  C   UNL     1      22.608  27.849 -16.710  1.00  0.00    -0.028 C 
ATOM      8  C   UNL     1      23.837  28.084 -16.172  1.00  0.00    -0.070 CG0
ATOM      9  C   UNL     1      24.870  28.686 -17.096  1.00  0.00     0.039 C 
ATOM     10  G   UNL     1      24.299  27.719 -14.763  1.00  0.00     0.000 G0
ENDBRANCH   6   7
ENDBRANCH   5   6
ENDBRANCH   3   5
ENDBRANCH   1   3
BRANCH   1  11
ATOM     11  C   UNL     1      22.020  28.332 -12.609  1.00  0.00     0.087 C 
BRANCH  11  12
ATOM     12  C   UNL     1      23.084  29.381 -13.055  1.00  0.00     0.066 C 
BRANCH  12  13
ATOM     13  C   UNL     1      24.322  28.838 -13.769  1.00  0.00     0.140 C 
ATOM     14  O   UNL     1      25.406  29.333 -13.497  1.00  0.00    -0.299 OA
BRANCH  13  15
ATOM     15  C   UNL     1      24.302  27.707 -14.763  1.00  0.00     0.106 CG0
ATOM     16  G   UNL     1      23.853  28.095 -16.171  1.00  0.00     0.000 G0
ENDBRANCH  13  15
ENDBRANCH  12  13
BRANCH  12  17
ATOM     17  C   UNL     1      23.524  30.322 -11.886  1.00  0.00    -0.006 C 
ATOM     18  C   UNL     1      22.759  31.655 -11.884  1.00  0.00     0.008 C 
ATOM     19  C   UNL     1      23.443  29.657 -10.501  1.00  0.00     0.008 C 
ENDBRANCH  12  17
ENDBRANCH  11  12
ENDBRANCH   1  11
TORSDOF 1
ENDMDL
MODEL 8
REMARK VINA RESULT:    -4.396      8.469     10.725
REMARK INTER + INTRA:          -6.684
REMARK INTER:                  -6.243
REMARK INTRA:                  -0.441
REMARK UNBOUND:                 0.025
REMARK SMILES CC1=CCC[C@H](C)C(=O)C[C@@H](C(C)C)C(=O)C1
REMARK SMILES IDX 8 1 9 2 6 3 7 4 5 5 4 6 3 7 2 8 1 9 10 11 11 12 15 13 16 14
REMARK SMILES IDX 17 15 12 17 13 18 14 19
REMARK H PARENT
REMARK Flexibility Score: 70.00
ROOT
ATOM      1  C   UNL     1      30.245  29.523 -13.368  1.00  0.00     0.136 C 
ATOM      2  O   UNL     1      29.918  28.976 -12.324  1.00  0.00    -0.299 OA
ENDROOT
BRANCH   1   3
ATOM      3  C   UNL     1      29.170  30.312 -14.091  1.00  0.00     0.053 C 
ATOM      4  C   UNL     1      27.718  29.857 -13.857  1.00  0.00     0.016 C 
BRANCH   3   5
ATOM      5  C   UNL     1      29.360  31.833 -13.895  1.00  0.00     0.015 C 
BRANCH   5   6
ATOM      6  C   UNL     1      29.503  32.646 -15.200  1.00  0.00     0.028 C 
BRANCH   6   7
ATOM      7  C   UNL     1      30.362  31.956 -16.239  1.00  0.00    -0.028 C 
ATOM      8  C   UNL     1      31.720  31.893 -16.319  1.00  0.00    -0.070 CG0
ATOM      9  C   UNL     1      32.290  31.128 -17.490  1.00  0.00     0.039 C 
ATOM     10  G   UNL     1      32.718  32.439 -15.299  1.00  0.00     0.000 G0
ENDBRANCH   6   7
ENDBRANCH   5   6
ENDBRANCH   3   5
ENDBRANCH   1   3
BRANCH   1  11
ATOM     11  C   UNL     1      31.713  29.462 -13.761  1.00  0.00     0.087 C 
BRANCH  11  12
ATOM     12  C   UNL     1      32.617  30.645 -13.297  1.00  0.00     0.066 C 
BRANCH  12  13
ATOM     13  C   UNL     1      33.366  31.403 -14.393  1.00  0.00     0.140 C 
ATOM     14  O   UNL     1      34.543  31.132 -14.578  1.00  0.00    -0.299 OA
BRANCH  13  15
ATOM     15  C   UNL     1      32.740  32.441 -15.287  1.00  0.00     0.106 CG0
ATOM     16  G   UNL     1      31.740  31.896 -16.305  1.00  0.00     0.000 G0
ENDBRANCH  13  15
ENDBRANCH  12  13
BRANCH  12  17
ATOM     17  C   UNL     1      33.619  30.226 -12.172  1.00  0.00    -0.006 C 
ATOM     18  C   UNL     1      33.138  30.637 -10.771  1.00  0.00     0.008 C 
ATOM     19  C   UNL     1      33.977  28.730 -12.196  1.00  0.00     0.008 C 
ENDBRANCH  12  17
ENDBRANCH  11  12
ENDBRANCH   1  11
TORSDOF 1
ENDMDL
MODEL 9
REMARK VINA RESULT:    -4.172     15.089     16.433
REMARK INTER + INTRA:          -6.342
REMARK INTER:                  -5.859
REMARK INTRA:                  -0.483
REMARK UNBOUND:                 0.025
REMARK SMILES CC1=CCC[C@H](C)C(=O)C[C@@H](C(C)C)C(=O)C1
REMARK SMILES IDX 8 1 9 2 6 3 7 4 5 5 4 6 3 7 2 8 1 9 10 11 11 12 15 13 16 14
REMARK SMILES IDX 17 15 12 17 13 18 14 19
REMARK H PARENT
REMARK Flexibility Score: 70.00
ROOT
ATOM      1  C   UNL     1      31.449  38.952 -23.355  1.00  0.00     0.136 C 
ATOM      2  O   UNL     1      32.593  39.367 -23.474  1.00  0.00    -0.299 OA
ENDROOT
BRANCH   1   3
ATOM      3  C   UNL     1      31.020  38.524 -21.964  1.00  0.00     0.053 C 
ATOM      4  C   UNL     1      29.516  38.267 -21.763  1.00  0.00     0.016 C 
BRANCH   3   5
ATOM      5  C   UNL     1      31.900  37.368 -21.435  1.00  0.00     0.015 C 
BRANCH   5   6
ATOM      6  C   UNL     1      31.934  36.112 -22.331  1.00  0.00     0.028 C 
BRANCH   6   7
ATOM      7  C   UNL     1      33.192  36.013 -23.169  1.00  0.00    -0.028 C 
ATOM      8  C   UNL     1      33.310  35.818 -24.512  1.00  0.00    -0.070 CG0
ATOM      9  C   UNL     1      34.715  35.755 -25.061  1.00  0.00     0.039 C 
ATOM     10  G   UNL     1      32.169  35.749 -25.525  1.00  0.00     0.000 G0
ENDBRANCH   6   7
ENDBRANCH   5   6
ENDBRANCH   3   5
ENDBRANCH   1   3
BRANCH   1  11
ATOM     11  C   UNL     1      30.544  39.031 -24.574  1.00  0.00     0.087 C 
BRANCH  11  12
ATOM     12  C   UNL     1      30.345  37.717 -25.391  1.00  0.00     0.066 C 
BRANCH  12  13
ATOM     13  C   UNL     1      31.606  37.075 -25.969  1.00  0.00     0.140 C 
ATOM     14  O   UNL     1      32.228  37.694 -26.820  1.00  0.00    -0.299 OA
BRANCH  13  15
ATOM     15  C   UNL     1      32.156  35.741 -25.536  1.00  0.00     0.106 CG0
ATOM     16  G   UNL     1      33.292  35.813 -24.517  1.00  0.00     0.000 G0
ENDBRANCH  13  15
ENDBRANCH  12  13
BRANCH  12  17
ATOM     17  C   UNL     1      29.272  37.870 -26.517  1.00  0.00    -0.006 C 
ATOM     18  C   UNL     1      28.867  36.520 -27.132  1.00  0.00     0.008 C 
ATOM     19  C   UNL     1      28.023  38.649 -26.071  1.00  0.00     0.008 C 
ENDBRANCH  12  17
ENDBRANCH  11  12
ENDBRANCH   1  11
TORSDOF 1
ENDMDL
