MODEL 1
REMARK VINA RESULT:    -4.082      0.000      0.000
REMARK INTER + INTRA:          -5.252
REMARK INTER:                  -4.917
REMARK INTRA:                  -0.335
REMARK UNBOUND:                -0.335
REMARK SMILES [NH3+][C@@H](Cc1cnc[nH]1)C(=O)[O-]
REMARK SMILES IDX 3 1 2 2 1 3 9 7 10 8 11 9 4 10 5 11 8 12 6 13 7 14
REMARK H PARENT 1 4 1 5 1 6 8 15
REMARK Flexibility Score: inf
ROOT
ATOM      1  C   UNL     1      15.277 -12.004  45.555  1.00  0.00     0.127 C 
ENDROOT
BRANCH   1   2
ATOM      2  C   UNL     1      16.117 -13.111  46.224  1.00  0.00     0.233 C 
BRANCH   2   3
ATOM      3  N   UNL     1      16.393 -12.770  47.624  1.00  0.00    -0.350 N 
ATOM      4  H   UNL     1      15.501 -12.623  48.153  1.00  0.00     0.345 HD
ATOM      5  H   UNL     1      16.934 -13.544  48.077  1.00  0.00     0.345 HD
ATOM      6  H   UNL     1      16.970 -11.898  47.672  1.00  0.00     0.345 HD
ENDBRANCH   2   3
BRANCH   2   7
ATOM      7  C   UNL     1      17.407 -13.338  45.479  1.00  0.00     0.099 C 
ATOM      8  O   UNL     1      18.512 -13.056  46.012  1.00  0.00    -0.544 OA
ATOM      9  O   UNL     1      17.380 -13.843  44.184  1.00  0.00    -0.544 OA
ENDBRANCH   2   7
ENDBRANCH   1   2
BRANCH   1  10
ATOM     10  C   UNL     1      14.183 -12.581  44.704  1.00  0.00     0.041 A 
ATOM     11  C   UNL     1      12.867 -12.751  45.068  1.00  0.00     0.134 A 
ATOM     12  N   UNL     1      14.360 -13.095  43.478  1.00  0.00    -0.348 N 
ATOM     13  N   UNL     1      12.208 -13.363  44.064  1.00  0.00    -0.245 NA
ATOM     14  C   UNL     1      13.148 -13.556  43.114  1.00  0.00     0.196 A 
ATOM     15  H   UNL     1      15.246 -13.144  42.926  1.00  0.00     0.167 HD
ENDBRANCH   1  10
TORSDOF 4
ENDMDL
MODEL 2
REMARK VINA RESULT:    -3.941      1.437      1.693
REMARK INTER + INTRA:          -5.082
REMARK INTER:                  -4.823
REMARK INTRA:                  -0.259
REMARK UNBOUND:                -0.335
REMARK SMILES [NH3+][C@@H](Cc1cnc[nH]1)C(=O)[O-]
REMARK SMILES IDX 3 1 2 2 1 3 9 7 10 8 11 9 4 10 5 11 8 12 6 13 7 14
REMARK H PARENT 1 4 1 5 1 6 8 15
REMARK Flexibility Score: inf
ROOT
ATOM      1  C   UNL     1      16.024 -12.380  45.228  1.00  0.00     0.127 C 
ENDROOT
BRANCH   1   2
ATOM      2  C   UNL     1      16.786 -13.233  46.263  1.00  0.00     0.233 C 
BRANCH   2   3
ATOM      3  N   UNL     1      16.426 -12.829  47.626  1.00  0.00    -0.350 N 
ATOM      4  H   UNL     1      16.681 -11.828  47.797  1.00  0.00     0.345 HD
ATOM      5  H   UNL     1      15.396 -12.948  47.771  1.00  0.00     0.345 HD
ATOM      6  H   UNL     1      16.924 -13.435  48.321  1.00  0.00     0.345 HD
ENDBRANCH   2   3
BRANCH   2   7
ATOM      7  C   UNL     1      18.277 -13.123  46.063  1.00  0.00     0.099 C 
ATOM      8  O   UNL     1      19.056 -13.123  47.052  1.00  0.00    -0.544 OA
ATOM      9  O   UNL     1      18.797 -13.001  44.780  1.00  0.00    -0.544 OA
ENDBRANCH   2   7
ENDBRANCH   1   2
BRANCH   1  10
ATOM     10  C   UNL     1      15.519 -13.217  44.088  1.00  0.00     0.041 A 
ATOM     11  C   UNL     1      14.236 -13.233  43.591  1.00  0.00     0.134 A 
ATOM     12  N   UNL     1      16.244 -14.143  43.441  1.00  0.00    -0.348 N 
ATOM     13  N   UNL     1      14.153 -14.163  42.617  1.00  0.00    -0.245 NA
ATOM     14  C   UNL     1      15.393 -14.694  42.555  1.00  0.00     0.196 A 
ATOM     15  H   UNL     1      17.245 -14.394  43.597  1.00  0.00     0.167 HD
ENDBRANCH   1  10
TORSDOF 4
ENDMDL
MODEL 3
REMARK VINA RESULT:    -3.905      2.942      4.539
REMARK INTER + INTRA:          -5.039
REMARK INTER:                  -4.917
REMARK INTRA:                  -0.122
REMARK UNBOUND:                -0.335
REMARK SMILES [NH3+][C@@H](Cc1cnc[nH]1)C(=O)[O-]
REMARK SMILES IDX 3 1 2 2 1 3 9 7 10 8 11 9 4 10 5 11 8 12 6 13 7 14
REMARK H PARENT 1 4 1 5 1 6 8 15
REMARK Flexibility Score: inf
ROOT
ATOM      1  C   UNL     1      15.297 -13.119  46.022  1.00  0.00     0.127 C 
ENDROOT
BRANCH   1   2
ATOM      2  C   UNL     1      14.474 -12.239  45.060  1.00  0.00     0.233 C 
BRANCH   2   3
ATOM      3  N   UNL     1      14.469 -10.845  45.516  1.00  0.00    -0.350 N 
ATOM      4  H   UNL     1      15.441 -10.521  45.731  1.00  0.00     0.345 HD
ATOM      5  H   UNL     1      14.061 -10.231  44.772  1.00  0.00     0.345 HD
ATOM      6  H   UNL     1      13.877 -10.753  46.374  1.00  0.00     0.345 HD
ENDBRANCH   2   3
BRANCH   2   7
ATOM      7  C   UNL     1      13.062 -12.752  44.932  1.00  0.00     0.099 C 
ATOM      8  O   UNL     1      12.249 -12.632  45.887  1.00  0.00    -0.544 OA
ATOM      9  O   UNL     1      12.655 -13.380  43.761  1.00  0.00    -0.544 OA
ENDBRANCH   2   7
ENDBRANCH   1   2
BRANCH   1  10
ATOM     10  C   UNL     1      16.728 -13.230  45.580  1.00  0.00     0.041 A 
ATOM     11  C   UNL     1      17.192 -13.897  44.469  1.00  0.00     0.134 A 
ATOM     12  N   UNL     1      17.778 -12.756  46.268  1.00  0.00    -0.348 N 
ATOM     13  N   UNL     1      18.539 -13.832  44.448  1.00  0.00    -0.245 NA
ATOM     14  C   UNL     1      18.858 -13.130  45.556  1.00  0.00     0.196 A 
ATOM     15  H   UNL     1      17.766 -12.223  47.167  1.00  0.00     0.167 HD
ENDBRANCH   1  10
TORSDOF 4
ENDMDL
MODEL 4
REMARK VINA RESULT:    -3.899      2.995      4.087
REMARK INTER + INTRA:          -5.031
REMARK INTER:                  -4.759
REMARK INTRA:                  -0.273
REMARK UNBOUND:                -0.335
REMARK SMILES [NH3+][C@@H](Cc1cnc[nH]1)C(=O)[O-]
REMARK SMILES IDX 3 1 2 2 1 3 9 7 10 8 11 9 4 10 5 11 8 12 6 13 7 14
REMARK H PARENT 1 4 1 5 1 6 8 15
REMARK Flexibility Score: inf
ROOT
ATOM      1  C   UNL     1      15.414 -13.215  45.600  1.00  0.00     0.127 C 
ENDROOT
BRANCH   1   2
ATOM      2  C   UNL     1      14.438 -12.224  44.935  1.00  0.00     0.233 C 
BRANCH   2   3
ATOM      3  N   UNL     1      14.449 -10.938  45.642  1.00  0.00    -0.350 N 
ATOM      4  H   UNL     1      15.106 -10.266  45.179  1.00  0.00     0.345 HD
ATOM      5  H   UNL     1      13.487 -10.528  45.645  1.00  0.00     0.345 HD
ATOM      6  H   UNL     1      14.746 -11.081  46.635  1.00  0.00     0.345 HD
ENDBRANCH   2   3
BRANCH   2   7
ATOM      7  C   UNL     1      13.039 -12.785  44.896  1.00  0.00     0.099 C 
ATOM      8  O   UNL     1      12.276 -12.668  45.890  1.00  0.00    -0.544 OA
ATOM      9  O   UNL     1      12.592 -13.455  43.763  1.00  0.00    -0.544 OA
ENDBRANCH   2   7
ENDBRANCH   1   2
BRANCH   1  10
ATOM     10  C   UNL     1      16.182 -14.003  44.578  1.00  0.00     0.041 A 
ATOM     11  C   UNL     1      17.551 -14.088  44.471  1.00  0.00     0.134 A 
ATOM     12  N   UNL     1      15.627 -14.678  43.560  1.00  0.00    -0.348 N 
ATOM     13  N   UNL     1      17.862 -14.830  43.388  1.00  0.00    -0.245 NA
ATOM     14  C   UNL     1      16.666 -15.171  42.861  1.00  0.00     0.196 A 
ATOM     15  H   UNL     1      14.611 -14.788  43.344  1.00  0.00     0.167 HD
ENDBRANCH   1  10
TORSDOF 4
ENDMDL
MODEL 5
REMARK VINA RESULT:    -3.883      2.924      4.473
REMARK INTER + INTRA:          -5.013
REMARK INTER:                  -4.844
REMARK INTRA:                  -0.169
REMARK UNBOUND:                -0.335
REMARK SMILES [NH3+][C@@H](Cc1cnc[nH]1)C(=O)[O-]
REMARK SMILES IDX 3 1 2 2 1 3 9 7 10 8 11 9 4 10 5 11 8 12 6 13 7 14
REMARK H PARENT 1 4 1 5 1 6 8 15
REMARK Flexibility Score: inf
ROOT
ATOM      1  C   UNL     1      14.377 -13.085  43.088  1.00  0.00     0.127 C 
ENDROOT
BRANCH   1   2
ATOM      2  C   UNL     1      13.169 -13.575  43.912  1.00  0.00     0.233 C 
BRANCH   2   3
ATOM      3  N   UNL     1      11.950 -13.558  43.095  1.00  0.00    -0.350 N 
ATOM      4  H   UNL     1      11.756 -12.593  42.737  1.00  0.00     0.345 HD
ATOM      5  H   UNL     1      12.060 -14.208  42.282  1.00  0.00     0.345 HD
ATOM      6  H   UNL     1      11.135 -13.885  43.665  1.00  0.00     0.345 HD
ENDBRANCH   2   3
BRANCH   2   7
ATOM      7  C   UNL     1      12.979 -12.733  45.148  1.00  0.00     0.099 C 
ATOM      8  O   UNL     1      12.047 -12.985  45.957  1.00  0.00    -0.544 OA
ATOM      9  O   UNL     1      13.825 -11.657  45.391  1.00  0.00    -0.544 OA
ENDBRANCH   2   7
ENDBRANCH   1   2
BRANCH   1  10
ATOM     10  C   UNL     1      15.570 -13.978  43.275  1.00  0.00     0.041 A 
ATOM     11  C   UNL     1      16.387 -14.031  44.382  1.00  0.00     0.134 A 
ATOM     12  N   UNL     1      16.061 -14.802  42.338  1.00  0.00    -0.348 N 
ATOM     13  N   UNL     1      17.390 -14.901  44.147  1.00  0.00    -0.245 NA
ATOM     14  C   UNL     1      17.157 -15.350  42.895  1.00  0.00     0.196 A 
ATOM     15  H   UNL     1      15.686 -14.974  41.378  1.00  0.00     0.167 HD
ENDBRANCH   1  10
TORSDOF 4
ENDMDL
MODEL 6
REMARK VINA RESULT:    -3.816      3.561      4.606
REMARK INTER + INTRA:          -4.932
REMARK INTER:                  -4.695
REMARK INTRA:                  -0.237
REMARK UNBOUND:                -0.335
REMARK SMILES [NH3+][C@@H](Cc1cnc[nH]1)C(=O)[O-]
REMARK SMILES IDX 3 1 2 2 1 3 9 7 10 8 11 9 4 10 5 11 8 12 6 13 7 14
REMARK H PARENT 1 4 1 5 1 6 8 15
REMARK Flexibility Score: inf
ROOT
ATOM      1  C   UNL     1      14.152 -13.582  42.499  1.00  0.00     0.127 C 
ENDROOT
BRANCH   1   2
ATOM      2  C   UNL     1      14.421 -15.098  42.414  1.00  0.00     0.233 C 
BRANCH   2   3
ATOM      3  N   UNL     1      15.658 -15.359  41.670  1.00  0.00    -0.350 N 
ATOM      4  H   UNL     1      15.972 -14.501  41.158  1.00  0.00     0.345 HD
ATOM      5  H   UNL     1      16.413 -15.657  42.331  1.00  0.00     0.345 HD
ATOM      6  H   UNL     1      15.504 -16.133  40.982  1.00  0.00     0.345 HD
ENDBRANCH   2   3
BRANCH   2   7
ATOM      7  C   UNL     1      13.264 -15.819  41.771  1.00  0.00     0.099 C 
ATOM      8  O   UNL     1      13.338 -17.050  41.518  1.00  0.00    -0.544 OA
ATOM      9  O   UNL     1      12.111 -15.118  41.435  1.00  0.00    -0.544 OA
ENDBRANCH   2   7
ENDBRANCH   1   2
BRANCH   1  10
ATOM     10  C   UNL     1      13.421 -13.221  43.760  1.00  0.00     0.041 A 
ATOM     11  C   UNL     1      13.989 -12.841  44.954  1.00  0.00     0.134 A 
ATOM     12  N   UNL     1      12.092 -13.302  43.921  1.00  0.00    -0.348 N 
ATOM     13  N   UNL     1      13.014 -12.669  45.870  1.00  0.00    -0.245 NA
ATOM     14  C   UNL     1      11.875 -12.957  45.204  1.00  0.00     0.196 A 
ATOM     15  H   UNL     1      11.378 -13.584  43.213  1.00  0.00     0.167 HD
ENDBRANCH   1  10
TORSDOF 4
ENDMDL
MODEL 7
REMARK VINA RESULT:    -3.804      3.332      4.902
REMARK INTER + INTRA:          -4.918
REMARK INTER:                  -4.767
REMARK INTRA:                  -0.151
REMARK UNBOUND:                -0.335
REMARK SMILES [NH3+][C@@H](Cc1cnc[nH]1)C(=O)[O-]
REMARK SMILES IDX 3 1 2 2 1 3 9 7 10 8 11 9 4 10 5 11 8 12 6 13 7 14
REMARK H PARENT 1 4 1 5 1 6 8 15
REMARK Flexibility Score: inf
ROOT
ATOM      1  C   UNL     1      14.857 -13.570  42.584  1.00  0.00     0.127 C 
ENDROOT
BRANCH   1   2
ATOM      2  C   UNL     1      14.097 -14.911  42.534  1.00  0.00     0.233 C 
BRANCH   2   3
ATOM      3  N   UNL     1      14.805 -15.872  41.681  1.00  0.00    -0.350 N 
ATOM      4  H   UNL     1      14.966 -16.772  42.190  1.00  0.00     0.345 HD
ATOM      5  H   UNL     1      14.241 -16.063  40.820  1.00  0.00     0.345 HD
ATOM      6  H   UNL     1      15.726 -15.474  41.384  1.00  0.00     0.345 HD
ENDBRANCH   2   3
BRANCH   2   7
ATOM      7  C   UNL     1      12.686 -14.716  42.041  1.00  0.00     0.099 C 
ATOM      8  O   UNL     1      11.875 -15.679  42.026  1.00  0.00    -0.544 OA
ATOM      9  O   UNL     1      12.279 -13.470  41.579  1.00  0.00    -0.544 OA
ENDBRANCH   2   7
ENDBRANCH   1   2
BRANCH   1  10
ATOM     10  C   UNL     1      15.238 -13.203  43.989  1.00  0.00     0.041 A 
ATOM     11  C   UNL     1      15.980 -13.967  44.861  1.00  0.00     0.134 A 
ATOM     12  N   UNL     1      14.829 -12.096  44.626  1.00  0.00    -0.348 N 
ATOM     13  N   UNL     1      16.050 -13.333  46.050  1.00  0.00    -0.245 NA
ATOM     14  C   UNL     1      15.339 -12.200  45.868  1.00  0.00     0.196 A 
ATOM     15  H   UNL     1      14.232 -11.325  44.250  1.00  0.00     0.167 HD
ENDBRANCH   1  10
TORSDOF 4
ENDMDL
MODEL 8
REMARK VINA RESULT:    -3.740      1.909      2.606
REMARK INTER + INTRA:          -4.840
REMARK INTER:                  -4.529
REMARK INTRA:                  -0.311
REMARK UNBOUND:                -0.335
REMARK SMILES [NH3+][C@@H](Cc1cnc[nH]1)C(=O)[O-]
REMARK SMILES IDX 3 1 2 2 1 3 9 7 10 8 11 9 4 10 5 11 8 12 6 13 7 14
REMARK H PARENT 1 4 1 5 1 6 8 15
REMARK Flexibility Score: inf
ROOT
ATOM      1  C   UNL     1      14.456 -12.768  42.998  1.00  0.00     0.127 C 
ENDROOT
BRANCH   1   2
ATOM      2  C   UNL     1      14.761 -12.954  44.498  1.00  0.00     0.233 C 
BRANCH   2   3
ATOM      3  N   UNL     1      14.715 -11.664  45.196  1.00  0.00    -0.350 N 
ATOM      4  H   UNL     1      14.199 -11.751  46.103  1.00  0.00     0.345 HD
ATOM      5  H   UNL     1      15.689 -11.331  45.388  1.00  0.00     0.345 HD
ATOM      6  H   UNL     1      14.239 -10.951  44.596  1.00  0.00     0.345 HD
ENDBRANCH   2   3
BRANCH   2   7
ATOM      7  C   UNL     1      16.104 -13.609  44.701  1.00  0.00     0.099 C 
ATOM      8  O   UNL     1      16.237 -14.853  44.556  1.00  0.00    -0.544 OA
ATOM      9  O   UNL     1      17.201 -12.842  45.072  1.00  0.00    -0.544 OA
ENDBRANCH   2   7
ENDBRANCH   1   2
BRANCH   1  10
ATOM     10  C   UNL     1      13.627 -13.898  42.460  1.00  0.00     0.041 A 
ATOM     11  C   UNL     1      12.261 -13.902  42.293  1.00  0.00     0.134 A 
ATOM     12  N   UNL     1      14.104 -15.110  42.140  1.00  0.00    -0.348 N 
ATOM     13  N   UNL     1      11.875 -15.118  41.853  1.00  0.00    -0.245 NA
ATOM     14  C   UNL     1      13.023 -15.824  41.772  1.00  0.00     0.196 A 
ATOM     15  H   UNL     1      15.095 -15.438  42.179  1.00  0.00     0.167 HD
ENDBRANCH   1  10
TORSDOF 4
ENDMDL
MODEL 9
REMARK VINA RESULT:    -3.711      3.507      4.792
REMARK INTER + INTRA:          -4.806
REMARK INTER:                  -4.667
REMARK INTRA:                  -0.139
REMARK UNBOUND:                -0.335
REMARK SMILES [NH3+][C@@H](Cc1cnc[nH]1)C(=O)[O-]
REMARK SMILES IDX 3 1 2 2 1 3 9 7 10 8 11 9 4 10 5 11 8 12 6 13 7 14
REMARK H PARENT 1 4 1 5 1 6 8 15
REMARK Flexibility Score: inf
ROOT
ATOM      1  C   UNL     1      18.787 -13.390  48.096  1.00  0.00     0.127 C 
ENDROOT
BRANCH   1   2
ATOM      2  C   UNL     1      18.249 -13.272  49.536  1.00  0.00     0.233 C 
BRANCH   2   3
ATOM      3  N   UNL     1      18.643 -11.988  50.129  1.00  0.00    -0.350 N 
ATOM      4  H   UNL     1      18.942 -11.313  49.386  1.00  0.00     0.345 HD
ATOM      5  H   UNL     1      17.837 -11.579  50.656  1.00  0.00     0.345 HD
ATOM      6  H   UNL     1      19.432 -12.133  50.801  1.00  0.00     0.345 HD
ENDBRANCH   2   3
BRANCH   2   7
ATOM      7  C   UNL     1      18.738 -14.413  50.393  1.00  0.00     0.099 C 
ATOM      8  O   UNL     1      19.963 -14.700  50.437  1.00  0.00    -0.544 OA
ATOM      9  O   UNL     1      17.830 -15.168  51.125  1.00  0.00    -0.544 OA
ENDBRANCH   2   7
ENDBRANCH   1   2
BRANCH   1  10
ATOM     10  C   UNL     1      17.710 -13.135  47.082  1.00  0.00     0.041 A 
ATOM     11  C   UNL     1      17.855 -13.147  45.714  1.00  0.00     0.134 A 
ATOM     12  N   UNL     1      16.453 -12.772  47.379  1.00  0.00    -0.348 N 
ATOM     13  N   UNL     1      16.682 -12.803  45.144  1.00  0.00    -0.245 NA
ATOM     14  C   UNL     1      15.854 -12.584  46.188  1.00  0.00     0.196 A 
ATOM     15  H   UNL     1      16.030 -12.648  48.326  1.00  0.00     0.167 HD
ENDBRANCH   1  10
TORSDOF 4
ENDMDL
