MODEL 1
REMARK VINA RESULT:    -3.513      0.000      0.000
REMARK INTER + INTRA:          -4.157
REMARK INTER:                  -4.129
REMARK INTRA:                  -0.029
REMARK UNBOUND:                -0.029
REMARK SMILES CCCCC(=O)[O-]
REMARK SMILES IDX 4 1 5 2 6 3 7 4 3 5 2 6 1 7
REMARK H PARENT
REMARK Flexibility Score: inf
ROOT
ATOM      1  C   UNL     1      -7.436  26.123  58.592  1.00  0.00     0.053 C 
ENDROOT
BRANCH   1   2
ATOM      2  C   UNL     1      -7.722  24.918  57.749  1.00  0.00     0.041 C 
ATOM      3  O   UNL     1      -8.730  24.896  56.996  1.00  0.00    -0.550 OA
ATOM      4  O   UNL     1      -6.892  23.806  57.821  1.00  0.00    -0.550 OA
ENDBRANCH   1   2
BRANCH   1   5
ATOM      5  C   UNL     1      -8.080  26.018  59.984  1.00  0.00     0.006 C 
BRANCH   5   6
ATOM      6  C   UNL     1      -7.080  26.118  61.149  1.00  0.00    -0.003 C 
ATOM      7  C   UNL     1      -7.682  25.689  62.487  1.00  0.00     0.004 C 
ENDBRANCH   5   6
ENDBRANCH   1   5
TORSDOF 3
ENDMDL
MODEL 2
REMARK VINA RESULT:    -3.460      0.278      1.215
REMARK INTER + INTRA:          -4.095
REMARK INTER:                  -4.047
REMARK INTRA:                  -0.048
REMARK UNBOUND:                -0.029
REMARK SMILES CCCCC(=O)[O-]
REMARK SMILES IDX 4 1 5 2 6 3 7 4 3 5 2 6 1 7
REMARK H PARENT
REMARK Flexibility Score: inf
ROOT
ATOM      1  C   UNL     1      -7.544  26.148  58.545  1.00  0.00     0.053 C 
ENDROOT
BRANCH   1   2
ATOM      2  C   UNL     1      -7.553  24.840  57.816  1.00  0.00     0.041 C 
ATOM      3  O   UNL     1      -6.833  23.888  58.214  1.00  0.00    -0.550 OA
ATOM      4  O   UNL     1      -8.334  24.684  56.678  1.00  0.00    -0.550 OA
ENDBRANCH   1   2
BRANCH   1   5
ATOM      5  C   UNL     1      -8.122  26.020  59.964  1.00  0.00     0.006 C 
BRANCH   5   6
ATOM      6  C   UNL     1      -7.072  26.125  61.084  1.00  0.00    -0.003 C 
ATOM      7  C   UNL     1      -7.639  25.792  62.463  1.00  0.00     0.004 C 
ENDBRANCH   5   6
ENDBRANCH   1   5
TORSDOF 3
ENDMDL
MODEL 3
REMARK VINA RESULT:    -3.259      1.228      1.818
REMARK INTER + INTRA:          -3.859
REMARK INTER:                  -3.831
REMARK INTRA:                  -0.028
REMARK UNBOUND:                -0.029
REMARK SMILES CCCCC(=O)[O-]
REMARK SMILES IDX 4 1 5 2 6 3 7 4 3 5 2 6 1 7
REMARK H PARENT
REMARK Flexibility Score: inf
ROOT
ATOM      1  C   UNL     1      -6.880  24.829  57.848  1.00  0.00     0.053 C 
ENDROOT
BRANCH   1   2
ATOM      2  C   UNL     1      -7.459  24.616  56.483  1.00  0.00     0.041 C 
ATOM      3  O   UNL     1      -7.110  25.353  55.525  1.00  0.00    -0.550 OA
ATOM      4  O   UNL     1      -8.410  23.623  56.278  1.00  0.00    -0.550 OA
ENDBRANCH   1   2
BRANCH   1   5
ATOM      5  C   UNL     1      -7.296  26.184  58.444  1.00  0.00     0.006 C 
BRANCH   5   6
ATOM      6  C   UNL     1      -8.272  26.077  59.629  1.00  0.00    -0.003 C 
ATOM      7  C   UNL     1      -7.561  25.906  60.971  1.00  0.00     0.004 C 
ENDBRANCH   5   6
ENDBRANCH   1   5
TORSDOF 3
ENDMDL
MODEL 4
REMARK VINA RESULT:    -3.259      1.188      1.495
REMARK INTER + INTRA:          -3.859
REMARK INTER:                  -3.770
REMARK INTRA:                  -0.089
REMARK UNBOUND:                -0.029
REMARK SMILES CCCCC(=O)[O-]
REMARK SMILES IDX 4 1 5 2 6 3 7 4 3 5 2 6 1 7
REMARK H PARENT
REMARK Flexibility Score: inf
ROOT
ATOM      1  C   UNL     1      -7.406  25.945  58.505  1.00  0.00     0.053 C 
ENDROOT
BRANCH   1   2
ATOM      2  C   UNL     1      -6.398  24.837  58.480  1.00  0.00     0.041 C 
ATOM      3  O   UNL     1      -6.777  23.637  58.461  1.00  0.00    -0.550 OA
ATOM      4  O   UNL     1      -5.041  25.130  58.512  1.00  0.00    -0.550 OA
ENDBRANCH   1   2
BRANCH   1   5
ATOM      5  C   UNL     1      -8.151  26.015  59.847  1.00  0.00     0.006 C 
BRANCH   5   6
ATOM      6  C   UNL     1      -7.231  26.162  61.072  1.00  0.00    -0.003 C 
ATOM      7  C   UNL     1      -7.882  25.675  62.366  1.00  0.00     0.004 C 
ENDBRANCH   5   6
ENDBRANCH   1   5
TORSDOF 3
ENDMDL
MODEL 5
REMARK VINA RESULT:    -3.158      8.288      9.418
REMARK INTER + INTRA:          -3.741
REMARK INTER:                  -3.705
REMARK INTRA:                  -0.036
REMARK UNBOUND:                -0.029
REMARK SMILES CCCCC(=O)[O-]
REMARK SMILES IDX 4 1 5 2 6 3 7 4 3 5 2 6 1 7
REMARK H PARENT
REMARK Flexibility Score: inf
ROOT
ATOM      1  C   UNL     1      -7.028  32.857  54.121  1.00  0.00     0.053 C 
ENDROOT
BRANCH   1   2
ATOM      2  C   UNL     1      -7.294  31.632  54.940  1.00  0.00     0.041 C 
ATOM      3  O   UNL     1      -6.835  30.517  54.581  1.00  0.00    -0.550 OA
ATOM      4  O   UNL     1      -8.076  31.718  56.085  1.00  0.00    -0.550 OA
ENDBRANCH   1   2
BRANCH   1   5
ATOM      5  C   UNL     1      -5.583  32.897  53.598  1.00  0.00     0.006 C 
BRANCH   5   6
ATOM      6  C   UNL     1      -4.952  34.300  53.595  1.00  0.00    -0.003 C 
ATOM      7  C   UNL     1      -5.964  35.407  53.887  1.00  0.00     0.004 C 
ENDBRANCH   5   6
ENDBRANCH   1   5
TORSDOF 3
ENDMDL
MODEL 6
REMARK VINA RESULT:    -3.135      3.108      4.107
REMARK INTER + INTRA:          -3.713
REMARK INTER:                  -3.674
REMARK INTRA:                  -0.039
REMARK UNBOUND:                -0.029
REMARK SMILES CCCCC(=O)[O-]
REMARK SMILES IDX 4 1 5 2 6 3 7 4 3 5 2 6 1 7
REMARK H PARENT
REMARK Flexibility Score: inf
ROOT
ATOM      1  C   UNL     1      -7.364  25.771  60.886  1.00  0.00     0.053 C 
ENDROOT
BRANCH   1   2
ATOM      2  C   UNL     1      -8.083  25.797  62.200  1.00  0.00     0.041 C 
ATOM      3  O   UNL     1      -9.328  25.619  62.244  1.00  0.00    -0.550 OA
ATOM      4  O   UNL     1      -7.381  26.049  63.372  1.00  0.00    -0.550 OA
ENDBRANCH   1   2
BRANCH   1   5
ATOM      5  C   UNL     1      -8.284  26.166  59.719  1.00  0.00     0.006 C 
BRANCH   5   6
ATOM      6  C   UNL     1      -7.863  25.581  58.360  1.00  0.00    -0.003 C 
ATOM      7  C   UNL     1      -6.507  24.878  58.409  1.00  0.00     0.004 C 
ENDBRANCH   5   6
ENDBRANCH   1   5
TORSDOF 3
ENDMDL
MODEL 7
REMARK VINA RESULT:    -3.064      7.281      8.167
REMARK INTER + INTRA:          -3.629
REMARK INTER:                  -3.570
REMARK INTRA:                  -0.060
REMARK UNBOUND:                -0.029
REMARK SMILES CCCCC(=O)[O-]
REMARK SMILES IDX 4 1 5 2 6 3 7 4 3 5 2 6 1 7
REMARK H PARENT
REMARK Flexibility Score: inf
ROOT
ATOM      1  C   UNL     1      -6.023  30.989  54.864  1.00  0.00     0.053 C 
ENDROOT
BRANCH   1   2
ATOM      2  C   UNL     1      -7.332  31.709  54.759  1.00  0.00     0.041 C 
ATOM      3  O   UNL     1      -7.557  32.476  53.788  1.00  0.00    -0.550 OA
ATOM      4  O   UNL     1      -8.290  31.558  55.754  1.00  0.00    -0.550 OA
ENDBRANCH   1   2
BRANCH   1   5
ATOM      5  C   UNL     1      -5.361  31.194  56.236  1.00  0.00     0.006 C 
BRANCH   5   6
ATOM      6  C   UNL     1      -3.971  31.851  56.172  1.00  0.00    -0.003 C 
ATOM      7  C   UNL     1      -3.915  33.032  55.204  1.00  0.00     0.004 C 
ENDBRANCH   5   6
ENDBRANCH   1   5
TORSDOF 3
ENDMDL
MODEL 8
REMARK VINA RESULT:    -3.050      2.690      3.150
REMARK INTER + INTRA:          -3.613
REMARK INTER:                  -3.565
REMARK INTRA:                  -0.048
REMARK UNBOUND:                -0.029
REMARK SMILES CCCCC(=O)[O-]
REMARK SMILES IDX 4 1 5 2 6 3 7 4 3 5 2 6 1 7
REMARK H PARENT
REMARK Flexibility Score: inf
ROOT
ATOM      1  C   UNL     1      -6.977  24.799  57.929  1.00  0.00     0.053 C 
ENDROOT
BRANCH   1   2
ATOM      2  C   UNL     1      -7.510  24.579  56.547  1.00  0.00     0.041 C 
ATOM      3  O   UNL     1      -8.284  23.615  56.312  1.00  0.00    -0.550 OA
ATOM      4  O   UNL     1      -7.125  25.421  55.511  1.00  0.00    -0.550 OA
ENDBRANCH   1   2
BRANCH   1   5
ATOM      5  C   UNL     1      -5.469  24.512  58.017  1.00  0.00     0.006 C 
BRANCH   5   6
ATOM      6  C   UNL     1      -4.586  25.772  58.002  1.00  0.00    -0.003 C 
ATOM      7  C   UNL     1      -3.743  25.922  59.267  1.00  0.00     0.004 C 
ENDBRANCH   5   6
ENDBRANCH   1   5
TORSDOF 3
ENDMDL
MODEL 9
REMARK VINA RESULT:    -3.034      7.865      9.120
REMARK INTER + INTRA:          -3.595
REMARK INTER:                  -3.498
REMARK INTRA:                  -0.097
REMARK UNBOUND:                -0.029
REMARK SMILES CCCCC(=O)[O-]
REMARK SMILES IDX 4 1 5 2 6 3 7 4 3 5 2 6 1 7
REMARK H PARENT
REMARK Flexibility Score: inf
ROOT
ATOM      1  C   UNL     1      -5.859  31.462  55.236  1.00  0.00     0.053 C 
ENDROOT
BRANCH   1   2
ATOM      2  C   UNL     1      -7.270  31.829  54.895  1.00  0.00     0.041 C 
ATOM      3  O   UNL     1      -7.527  32.424  53.817  1.00  0.00    -0.550 OA
ATOM      4  O   UNL     1      -8.298  31.541  55.785  1.00  0.00    -0.550 OA
ENDBRANCH   1   2
BRANCH   1   5
ATOM      5  C   UNL     1      -4.856  32.521  54.752  1.00  0.00     0.006 C 
BRANCH   5   6
ATOM      6  C   UNL     1      -3.954  32.052  53.596  1.00  0.00    -0.003 C 
ATOM      7  C   UNL     1      -4.135  32.883  52.326  1.00  0.00     0.004 C 
ENDBRANCH   5   6
ENDBRANCH   1   5
TORSDOF 3
ENDMDL
