MODEL 1
REMARK VINA RESULT:    -2.509      0.000      0.000
REMARK INTER + INTRA:          -2.509
REMARK INTER:                  -2.509
REMARK INTRA:                   0.000
REMARK UNBOUND:                 0.000
REMARK SMILES CC(=O)[O-]
REMARK SMILES IDX 1 1 2 2 3 3 4 4
REMARK H PARENT
REMARK Flexibility Score: inf
ROOT
ATOM      1  C   UNL     1       8.152 -12.022  29.775  1.00  0.00     0.063 C 
ATOM      2  C   UNL     1       8.792 -12.721  28.624  1.00  0.00     0.038 C 
ATOM      3  O   UNL     1      10.036 -12.634  28.444  1.00  0.00    -0.550 OA
ATOM      4  O   UNL     1       8.028 -13.514  27.778  1.00  0.00    -0.550 OA
ENDROOT
TORSDOF 0
ENDMDL
MODEL 2
REMARK VINA RESULT:    -2.464      1.480      2.093
REMARK INTER + INTRA:          -2.464
REMARK INTER:                  -2.464
REMARK INTRA:                   0.000
REMARK UNBOUND:                 0.000
REMARK SMILES CC(=O)[O-]
REMARK SMILES IDX 1 1 2 2 3 3 4 4
REMARK H PARENT
REMARK Flexibility Score: inf
ROOT
ATOM      1  C   UNL     1      10.054 -12.997  29.090  1.00  0.00     0.063 C 
ATOM      2  C   UNL     1       8.596 -12.714  28.954  1.00  0.00     0.038 C 
ATOM      3  O   UNL     1       7.876 -13.445  28.223  1.00  0.00    -0.550 OA
ATOM      4  O   UNL     1       8.017 -11.676  29.673  1.00  0.00    -0.550 OA
ENDROOT
TORSDOF 0
ENDMDL
MODEL 3
REMARK VINA RESULT:    -2.387      1.529      1.898
REMARK INTER + INTRA:          -2.387
REMARK INTER:                  -2.387
REMARK INTRA:                   0.000
REMARK UNBOUND:                 0.000
REMARK SMILES CC(=O)[O-]
REMARK SMILES IDX 1 1 2 2 3 3 4 4
REMARK H PARENT
REMARK Flexibility Score: inf
ROOT
ATOM      1  C   UNL     1       9.191 -12.382  27.249  1.00  0.00     0.063 C 
ATOM      2  C   UNL     1       9.247 -12.518  28.732  1.00  0.00     0.038 C 
ATOM      3  O   UNL     1      10.208 -13.124  29.276  1.00  0.00    -0.550 OA
ATOM      4  O   UNL     1       8.267 -11.932  29.523  1.00  0.00    -0.550 OA
ENDROOT
TORSDOF 0
ENDMDL
MODEL 4
REMARK VINA RESULT:    -2.370      1.348      1.918
REMARK INTER + INTRA:          -2.370
REMARK INTER:                  -2.370
REMARK INTRA:                   0.000
REMARK UNBOUND:                 0.000
REMARK SMILES CC(=O)[O-]
REMARK SMILES IDX 1 1 2 2 3 3 4 4
REMARK H PARENT
REMARK Flexibility Score: inf
ROOT
ATOM      1  C   UNL     1      10.161 -13.117  29.170  1.00  0.00     0.063 C 
ATOM      2  C   UNL     1       8.977 -12.890  28.293  1.00  0.00     0.038 C 
ATOM      3  O   UNL     1       7.879 -13.446  28.558  1.00  0.00    -0.550 OA
ATOM      4  O   UNL     1       9.068 -12.025  27.210  1.00  0.00    -0.550 OA
ENDROOT
TORSDOF 0
ENDMDL
MODEL 5
REMARK VINA RESULT:    -2.366      1.433      2.135
REMARK INTER + INTRA:          -2.366
REMARK INTER:                  -2.366
REMARK INTRA:                   0.000
REMARK UNBOUND:                 0.000
REMARK SMILES CC(=O)[O-]
REMARK SMILES IDX 1 1 2 2 3 3 4 4
REMARK H PARENT
REMARK Flexibility Score: inf
ROOT
ATOM      1  C   UNL     1       8.251 -13.348  27.598  1.00  0.00     0.063 C 
ATOM      2  C   UNL     1       8.900 -12.615  28.723  1.00  0.00     0.038 C 
ATOM      3  O   UNL     1       8.242 -11.778  29.395  1.00  0.00    -0.550 OA
ATOM      4  O   UNL     1      10.217 -12.893  29.067  1.00  0.00    -0.550 OA
ENDROOT
TORSDOF 0
ENDMDL
MODEL 6
REMARK VINA RESULT:    -2.340     19.316     19.954
REMARK INTER + INTRA:          -2.340
REMARK INTER:                  -2.340
REMARK INTRA:                   0.000
REMARK UNBOUND:                 0.000
REMARK SMILES CC(=O)[O-]
REMARK SMILES IDX 1 1 2 2 3 3 4 4
REMARK H PARENT
REMARK Flexibility Score: inf
ROOT
ATOM      1  C   UNL     1      21.961  -0.731  38.125  1.00  0.00     0.063 C 
ATOM      2  C   UNL     1      22.361  -0.721  36.689  1.00  0.00     0.038 C 
ATOM      3  O   UNL     1      21.539  -1.073  35.801  1.00  0.00    -0.550 OA
ATOM      4  O   UNL     1      23.623  -0.274  36.320  1.00  0.00    -0.550 OA
ENDROOT
TORSDOF 0
ENDMDL
MODEL 7
REMARK VINA RESULT:    -2.324     19.758     20.174
REMARK INTER + INTRA:          -2.324
REMARK INTER:                  -2.324
REMARK INTRA:                   0.000
REMARK UNBOUND:                 0.000
REMARK SMILES CC(=O)[O-]
REMARK SMILES IDX 1 1 2 2 3 3 4 4
REMARK H PARENT
REMARK Flexibility Score: inf
ROOT
ATOM      1  C   UNL     1      21.283  -1.083  36.131  1.00  0.00     0.063 C 
ATOM      2  C   UNL     1      22.285  -0.395  36.994  1.00  0.00     0.038 C 
ATOM      3  O   UNL     1      21.947   0.050  38.123  1.00  0.00    -0.550 OA
ATOM      4  O   UNL     1      23.607  -0.291  36.581  1.00  0.00    -0.550 OA
ENDROOT
TORSDOF 0
ENDMDL
MODEL 8
REMARK VINA RESULT:    -2.293     10.157     10.791
REMARK INTER + INTRA:          -2.293
REMARK INTER:                  -2.293
REMARK INTRA:                   0.000
REMARK UNBOUND:                 0.000
REMARK SMILES CC(=O)[O-]
REMARK SMILES IDX 1 1 2 2 3 3 4 4
REMARK H PARENT
REMARK Flexibility Score: inf
ROOT
ATOM      1  C   UNL     1      13.486  -4.078  34.281  1.00  0.00     0.063 C 
ATOM      2  C   UNL     1      13.166  -5.347  34.995  1.00  0.00     0.038 C 
ATOM      3  O   UNL     1      12.721  -5.314  36.173  1.00  0.00    -0.550 OA
ATOM      4  O   UNL     1      13.308  -6.566  34.346  1.00  0.00    -0.550 OA
ENDROOT
TORSDOF 0
ENDMDL
MODEL 9
REMARK VINA RESULT:    -2.185      2.841      3.189
REMARK INTER + INTRA:          -2.185
REMARK INTER:                  -2.185
REMARK INTRA:                   0.000
REMARK UNBOUND:                 0.000
REMARK SMILES CC(=O)[O-]
REMARK SMILES IDX 1 1 2 2 3 3 4 4
REMARK H PARENT
REMARK Flexibility Score: inf
ROOT
ATOM      1  C   UNL     1       9.115 -12.301  27.374  1.00  0.00     0.063 C 
ATOM      2  C   UNL     1       9.168 -12.097  25.898  1.00  0.00     0.038 C 
ATOM      3  O   UNL     1       9.265 -13.088  25.126  1.00  0.00    -0.550 OA
ATOM      4  O   UNL     1       9.057 -10.819  25.367  1.00  0.00    -0.550 OA
ENDROOT
TORSDOF 0
ENDMDL
