MODEL 1
REMARK VINA RESULT:    -4.777      0.000      0.000
REMARK INTER + INTRA:         -14.249
REMARK INTER:                 -10.921
REMARK INTRA:                  -3.329
REMARK UNBOUND:                -3.329
REMARK SMILES CCCCCCCCCCCCCCCCCCCCCCCC(=O)[O-]
REMARK SMILES IDX 13 1 14 2 15 3 16 4 17 5 18 6 19 7 20 8 21 9 22 10 23 11
REMARK SMILES IDX 24 12 25 13 26 14 12 15 11 16 10 17 9 18 8 19 7 20 6 21 5 22
REMARK SMILES IDX 4 23 3 24 2 25 1 26
REMARK H PARENT
REMARK Flexibility Score: inf
ROOT
ATOM      1  C   UNL     1      35.002   5.634   8.137  1.00  0.00     0.000 C 
ENDROOT
BRANCH   1   2
ATOM      2  C   UNL     1      33.487   5.501   7.898  1.00  0.00     0.000 C 
BRANCH   2   3
ATOM      3  C   UNL     1      32.982   4.067   8.115  1.00  0.00     0.000 C 
BRANCH   3   4
ATOM      4  C   UNL     1      31.663   3.784   7.379  1.00  0.00     0.000 C 
BRANCH   4   5
ATOM      5  C   UNL     1      31.731   2.450   6.628  1.00  0.00     0.000 C 
BRANCH   5   6
ATOM      6  C   UNL     1      31.413   2.635   5.137  1.00  0.00     0.000 C 
BRANCH   6   7
ATOM      7  C   UNL     1      31.471   4.115   4.703  1.00  0.00     0.000 C 
BRANCH   7   8
ATOM      8  C   UNL     1      30.435   4.491   3.626  1.00  0.00     0.000 C 
BRANCH   8   9
ATOM      9  C   UNL     1      29.427   3.381   3.282  1.00  0.00     0.000 C 
BRANCH   9  10
ATOM     10  C   UNL     1      27.968   3.806   3.521  1.00  0.00     0.006 C 
BRANCH  10  11
ATOM     11  C   UNL     1      27.292   2.959   4.608  1.00  0.00     0.053 C 
BRANCH  11  12
ATOM     12  C   UNL     1      27.886   3.216   5.959  1.00  0.00     0.041 C 
ATOM     13  O   UNL     1      28.093   4.396   6.348  1.00  0.00    -0.550 OA
ATOM     14  O   UNL     1      28.246   2.150   6.774  1.00  0.00    -0.550 OA
ENDBRANCH  11  12
ENDBRANCH  10  11
ENDBRANCH   9  10
ENDBRANCH   8   9
ENDBRANCH   7   8
ENDBRANCH   6   7
ENDBRANCH   5   6
ENDBRANCH   4   5
ENDBRANCH   3   4
ENDBRANCH   2   3
ENDBRANCH   1   2
BRANCH   1  15
ATOM     15  C   UNL     1      35.501   4.741   9.285  1.00  0.00     0.000 C 
BRANCH  15  16
ATOM     16  C   UNL     1      36.555   5.440  10.163  1.00  0.00     0.000 C 
BRANCH  16  17
ATOM     17  C   UNL     1      35.944   6.074  11.425  1.00  0.00     0.000 C 
BRANCH  17  18
ATOM     18  C   UNL     1      35.723   7.589  11.275  1.00  0.00    -0.000 C 
BRANCH  18  19
ATOM     19  C   UNL     1      34.379   8.054  11.862  1.00  0.00    -0.000 C 
BRANCH  19  20
ATOM     20  C   UNL     1      33.178   7.312  11.251  1.00  0.00    -0.000 C 
BRANCH  20  21
ATOM     21  C   UNL     1      32.041   7.097  12.263  1.00  0.00    -0.000 C 
BRANCH  21  22
ATOM     22  C   UNL     1      31.611   5.626  12.366  1.00  0.00    -0.000 C 
BRANCH  22  23
ATOM     23  C   UNL     1      32.500   4.731  11.490  1.00  0.00    -0.000 C 
BRANCH  23  24
ATOM     24  C   UNL     1      33.134   3.566  12.271  1.00  0.00    -0.000 C 
BRANCH  24  25
ATOM     25  C   UNL     1      33.523   3.897  13.724  1.00  0.00    -0.003 C 
ATOM     26  C   UNL     1      33.784   2.651  14.571  1.00  0.00     0.004 C 
ENDBRANCH  24  25
ENDBRANCH  23  24
ENDBRANCH  22  23
ENDBRANCH  21  22
ENDBRANCH  20  21
ENDBRANCH  19  20
ENDBRANCH  18  19
ENDBRANCH  17  18
ENDBRANCH  16  17
ENDBRANCH  15  16
ENDBRANCH   1  15
TORSDOF 22
ENDMDL
MODEL 2
REMARK VINA RESULT:    -4.689      1.374      3.016
REMARK INTER + INTRA:         -14.049
REMARK INTER:                 -10.786
REMARK INTRA:                  -3.263
REMARK UNBOUND:                -3.329
REMARK SMILES CCCCCCCCCCCCCCCCCCCCCCCC(=O)[O-]
REMARK SMILES IDX 13 1 14 2 15 3 16 4 17 5 18 6 19 7 20 8 21 9 22 10 23 11
REMARK SMILES IDX 24 12 25 13 26 14 12 15 11 16 10 17 9 18 8 19 7 20 6 21 5 22
REMARK SMILES IDX 4 23 3 24 2 25 1 26
REMARK H PARENT
REMARK Flexibility Score: inf
ROOT
ATOM      1  C   UNL     1      35.200   6.808  10.119  1.00  0.00     0.000 C 
ENDROOT
BRANCH   1   2
ATOM      2  C   UNL     1      36.229   5.669  10.000  1.00  0.00     0.000 C 
BRANCH   2   3
ATOM      3  C   UNL     1      35.677   4.456   9.237  1.00  0.00     0.000 C 
BRANCH   3   4
ATOM      4  C   UNL     1      34.508   4.820   8.308  1.00  0.00     0.000 C 
BRANCH   4   5
ATOM      5  C   UNL     1      33.379   3.789   8.419  1.00  0.00     0.000 C 
BRANCH   5   6
ATOM      6  C   UNL     1      32.130   4.248   7.651  1.00  0.00     0.000 C 
BRANCH   6   7
ATOM      7  C   UNL     1      32.484   5.020   6.363  1.00  0.00     0.000 C 
BRANCH   7   8
ATOM      8  C   UNL     1      31.857   4.425   5.086  1.00  0.00     0.000 C 
BRANCH   8   9
ATOM      9  C   UNL     1      31.371   2.971   5.221  1.00  0.00     0.000 C 
BRANCH   9  10
ATOM     10  C   UNL     1      30.037   2.720   4.497  1.00  0.00     0.006 C 
BRANCH  10  11
ATOM     11  C   UNL     1      29.087   3.920   4.608  1.00  0.00     0.053 C 
BRANCH  11  12
ATOM     12  C   UNL     1      28.322   3.903   5.896  1.00  0.00     0.041 C 
ATOM     13  O   UNL     1      27.679   2.876   6.239  1.00  0.00    -0.550 OA
ATOM     14  O   UNL     1      28.290   5.035   6.700  1.00  0.00    -0.550 OA
ENDBRANCH  11  12
ENDBRANCH  10  11
ENDBRANCH   9  10
ENDBRANCH   8   9
ENDBRANCH   7   8
ENDBRANCH   6   7
ENDBRANCH   5   6
ENDBRANCH   4   5
ENDBRANCH   3   4
ENDBRANCH   2   3
ENDBRANCH   1   2
BRANCH   1  15
ATOM     15  C   UNL     1      35.438   7.695  11.353  1.00  0.00     0.000 C 
BRANCH  15  16
ATOM     16  C   UNL     1      34.125   8.170  12.002  1.00  0.00     0.000 C 
BRANCH  16  17
ATOM     17  C   UNL     1      32.880   7.648  11.264  1.00  0.00     0.000 C 
BRANCH  17  18
ATOM     18  C   UNL     1      31.699   7.385  12.215  1.00  0.00    -0.000 C 
BRANCH  18  19
ATOM     19  C   UNL     1      31.388   5.887  12.375  1.00  0.00    -0.000 C 
BRANCH  19  20
ATOM     20  C   UNL     1      32.216   5.005  11.424  1.00  0.00    -0.000 C 
BRANCH  20  21
ATOM     21  C   UNL     1      33.123   4.018  12.176  1.00  0.00    -0.000 C 
BRANCH  21  22
ATOM     22  C   UNL     1      32.937   4.087  13.700  1.00  0.00    -0.000 C 
BRANCH  22  23
ATOM     23  C   UNL     1      34.294   4.167  14.415  1.00  0.00    -0.000 C 
BRANCH  23  24
ATOM     24  C   UNL     1      35.081   5.443  14.068  1.00  0.00    -0.000 C 
BRANCH  24  25
ATOM     25  C   UNL     1      36.216   5.791  15.049  1.00  0.00    -0.003 C 
ATOM     26  C   UNL     1      36.188   4.941  16.320  1.00  0.00     0.004 C 
ENDBRANCH  24  25
ENDBRANCH  23  24
ENDBRANCH  22  23
ENDBRANCH  21  22
ENDBRANCH  20  21
ENDBRANCH  19  20
ENDBRANCH  18  19
ENDBRANCH  17  18
ENDBRANCH  16  17
ENDBRANCH  15  16
ENDBRANCH   1  15
TORSDOF 22
ENDMDL
MODEL 3
REMARK VINA RESULT:    -4.647      2.970      8.427
REMARK INTER + INTRA:         -13.953
REMARK INTER:                 -10.951
REMARK INTRA:                  -3.002
REMARK UNBOUND:                -3.329
REMARK SMILES CCCCCCCCCCCCCCCCCCCCCCCC(=O)[O-]
REMARK SMILES IDX 13 1 14 2 15 3 16 4 17 5 18 6 19 7 20 8 21 9 22 10 23 11
REMARK SMILES IDX 24 12 25 13 26 14 12 15 11 16 10 17 9 18 8 19 7 20 6 21 5 22
REMARK SMILES IDX 4 23 3 24 2 25 1 26
REMARK H PARENT
REMARK Flexibility Score: inf
ROOT
ATOM      1  C   UNL     1      34.780   4.183   9.583  1.00  0.00     0.000 C 
ENDROOT
BRANCH   1   2
ATOM      2  C   UNL     1      36.160   4.864   9.563  1.00  0.00     0.000 C 
BRANCH   2   3
ATOM      3  C   UNL     1      36.066   6.387   9.742  1.00  0.00     0.000 C 
BRANCH   3   4
ATOM      4  C   UNL     1      36.250   6.826  11.203  1.00  0.00     0.000 C 
BRANCH   4   5
ATOM      5  C   UNL     1      35.185   7.853  11.603  1.00  0.00     0.000 C 
BRANCH   5   6
ATOM      6  C   UNL     1      33.965   7.780  10.674  1.00  0.00     0.000 C 
BRANCH   6   7
ATOM      7  C   UNL     1      32.637   7.990  11.431  1.00  0.00     0.000 C 
BRANCH   7   8
ATOM      8  C   UNL     1      32.432   7.020  12.612  1.00  0.00     0.000 C 
BRANCH   8   9
ATOM      9  C   UNL     1      31.658   5.735  12.268  1.00  0.00     0.000 C 
BRANCH   9  10
ATOM     10  C   UNL     1      32.522   4.469  12.396  1.00  0.00     0.006 C 
BRANCH  10  11
ATOM     11  C   UNL     1      33.846   4.745  13.121  1.00  0.00     0.053 C 
BRANCH  11  12
ATOM     12  C   UNL     1      34.022   3.852  14.311  1.00  0.00     0.041 C 
ATOM     13  O   UNL     1      33.387   2.767  14.390  1.00  0.00    -0.550 OA
ATOM     14  O   UNL     1      34.859   4.236  15.350  1.00  0.00    -0.550 OA
ENDBRANCH  11  12
ENDBRANCH  10  11
ENDBRANCH   9  10
ENDBRANCH   8   9
ENDBRANCH   7   8
ENDBRANCH   6   7
ENDBRANCH   5   6
ENDBRANCH   4   5
ENDBRANCH   3   4
ENDBRANCH   2   3
ENDBRANCH   1   2
BRANCH   1  15
ATOM     15  C   UNL     1      33.862   4.669   8.449  1.00  0.00     0.000 C 
BRANCH  15  16
ATOM     16  C   UNL     1      32.494   3.962   8.451  1.00  0.00     0.000 C 
BRANCH  16  17
ATOM     17  C   UNL     1      31.945   3.737   7.031  1.00  0.00     0.000 C 
BRANCH  17  18
ATOM     18  C   UNL     1      32.289   4.892   6.076  1.00  0.00    -0.000 C 
BRANCH  18  19
ATOM     19  C   UNL     1      31.388   4.922   4.830  1.00  0.00    -0.000 C 
BRANCH  19  20
ATOM     20  C   UNL     1      30.959   3.516   4.376  1.00  0.00    -0.000 C 
BRANCH  20  21
ATOM     21  C   UNL     1      29.811   3.552   3.354  1.00  0.00    -0.000 C 
BRANCH  21  22
ATOM     22  C   UNL     1      28.871   2.343   3.478  1.00  0.00    -0.000 C 
BRANCH  22  23
ATOM     23  C   UNL     1      27.404   2.768   3.310  1.00  0.00    -0.000 C 
BRANCH  23  24
ATOM     24  C   UNL     1      27.042   4.012   4.141  1.00  0.00    -0.000 C 
BRANCH  24  25
ATOM     25  C   UNL     1      26.955   3.773   5.659  1.00  0.00    -0.003 C 
ATOM     26  C   UNL     1      27.986   4.579   6.451  1.00  0.00     0.004 C 
ENDBRANCH  24  25
ENDBRANCH  23  24
ENDBRANCH  22  23
ENDBRANCH  21  22
ENDBRANCH  20  21
ENDBRANCH  19  20
ENDBRANCH  18  19
ENDBRANCH  17  18
ENDBRANCH  16  17
ENDBRANCH  15  16
ENDBRANCH   1  15
TORSDOF 22
ENDMDL
MODEL 4
REMARK VINA RESULT:    -4.644      3.802      7.166
REMARK INTER + INTRA:         -13.946
REMARK INTER:                 -10.830
REMARK INTRA:                  -3.116
REMARK UNBOUND:                -3.329
REMARK SMILES CCCCCCCCCCCCCCCCCCCCCCCC(=O)[O-]
REMARK SMILES IDX 13 1 14 2 15 3 16 4 17 5 18 6 19 7 20 8 21 9 22 10 23 11
REMARK SMILES IDX 24 12 25 13 26 14 12 15 11 16 10 17 9 18 8 19 7 20 6 21 5 22
REMARK SMILES IDX 4 23 3 24 2 25 1 26
REMARK H PARENT
REMARK Flexibility Score: inf
ROOT
ATOM      1  C   UNL     1      32.448   3.489   9.590  1.00  0.00     0.000 C 
ENDROOT
BRANCH   1   2
ATOM      2  C   UNL     1      33.104   2.304  10.321  1.00  0.00     0.000 C 
BRANCH   2   3
ATOM      3  C   UNL     1      33.884   2.743  11.569  1.00  0.00     0.000 C 
BRANCH   3   4
ATOM      4  C   UNL     1      33.229   2.270  12.876  1.00  0.00     0.000 C 
BRANCH   4   5
ATOM      5  C   UNL     1      32.957   3.454  13.811  1.00  0.00     0.000 C 
BRANCH   5   6
ATOM      6  C   UNL     1      32.984   4.785  13.046  1.00  0.00     0.000 C 
BRANCH   6   7
ATOM      7  C   UNL     1      31.574   5.247  12.621  1.00  0.00     0.000 C 
BRANCH   7   8
ATOM      8  C   UNL     1      31.504   6.726  12.194  1.00  0.00     0.000 C 
BRANCH   8   9
ATOM      9  C   UNL     1      32.480   7.660  12.932  1.00  0.00     0.000 C 
BRANCH   9  10
ATOM     10  C   UNL     1      32.396   9.116  12.442  1.00  0.00     0.006 C 
BRANCH  10  11
ATOM     11  C   UNL     1      30.982   9.485  11.975  1.00  0.00     0.053 C 
BRANCH  11  12
ATOM     12  C   UNL     1      30.670  10.926  12.243  1.00  0.00     0.041 C 
ATOM     13  O   UNL     1      31.576  11.711  12.630  1.00  0.00    -0.550 OA
ATOM     14  O   UNL     1      29.370  11.394  12.100  1.00  0.00    -0.550 OA
ENDBRANCH  11  12
ENDBRANCH  10  11
ENDBRANCH   9  10
ENDBRANCH   8   9
ENDBRANCH   7   8
ENDBRANCH   6   7
ENDBRANCH   5   6
ENDBRANCH   4   5
ENDBRANCH   3   4
ENDBRANCH   2   3
ENDBRANCH   1   2
BRANCH   1  15
ATOM     15  C   UNL     1      32.110   3.168   8.124  1.00  0.00     0.000 C 
BRANCH  15  16
ATOM     16  C   UNL     1      32.556   4.279   7.157  1.00  0.00     0.000 C 
BRANCH  16  17
ATOM     17  C   UNL     1      33.679   5.153   7.741  1.00  0.00     0.000 C 
BRANCH  17  18
ATOM     18  C   UNL     1      33.658   6.588   7.187  1.00  0.00    -0.000 C 
BRANCH  18  19
ATOM     19  C   UNL     1      34.065   7.636   8.236  1.00  0.00    -0.000 C 
BRANCH  19  20
ATOM     20  C   UNL     1      33.878   7.134   9.678  1.00  0.00    -0.000 C 
BRANCH  20  21
ATOM     21  C   UNL     1      35.160   7.259  10.517  1.00  0.00    -0.000 C 
BRANCH  21  22
ATOM     22  C   UNL     1      35.745   5.893  10.910  1.00  0.00    -0.000 C 
BRANCH  22  23
ATOM     23  C   UNL     1      37.177   5.735  10.379  1.00  0.00    -0.000 C 
BRANCH  23  24
ATOM     24  C   UNL     1      37.991   7.038  10.451  1.00  0.00    -0.000 C 
BRANCH  24  25
ATOM     25  C   UNL     1      38.772   7.242  11.762  1.00  0.00    -0.003 C 
ATOM     26  C   UNL     1      40.203   6.708  11.696  1.00  0.00     0.004 C 
ENDBRANCH  24  25
ENDBRANCH  23  24
ENDBRANCH  22  23
ENDBRANCH  21  22
ENDBRANCH  20  21
ENDBRANCH  19  20
ENDBRANCH  18  19
ENDBRANCH  17  18
ENDBRANCH  16  17
ENDBRANCH  15  16
ENDBRANCH   1  15
TORSDOF 22
ENDMDL
MODEL 5
REMARK VINA RESULT:    -4.588      1.528      3.329
REMARK INTER + INTRA:         -13.818
REMARK INTER:                 -11.174
REMARK INTRA:                  -2.644
REMARK UNBOUND:                -3.329
REMARK SMILES CCCCCCCCCCCCCCCCCCCCCCCC(=O)[O-]
REMARK SMILES IDX 13 1 14 2 15 3 16 4 17 5 18 6 19 7 20 8 21 9 22 10 23 11
REMARK SMILES IDX 24 12 25 13 26 14 12 15 11 16 10 17 9 18 8 19 7 20 6 21 5 22
REMARK SMILES IDX 4 23 3 24 2 25 1 26
REMARK H PARENT
REMARK Flexibility Score: inf
ROOT
ATOM      1  C   UNL     1      35.044   7.505  10.052  1.00  0.00     0.000 C 
ENDROOT
BRANCH   1   2
ATOM      2  C   UNL     1      34.251   6.987   8.839  1.00  0.00     0.000 C 
BRANCH   2   3
ATOM      3  C   UNL     1      34.814   5.667   8.289  1.00  0.00     0.000 C 
BRANCH   3   4
ATOM      4  C   UNL     1      33.748   4.566   8.178  1.00  0.00     0.000 C 
BRANCH   4   5
ATOM      5  C   UNL     1      32.916   4.737   6.902  1.00  0.00     0.000 C 
BRANCH   5   6
ATOM      6  C   UNL     1      31.520   4.119   7.063  1.00  0.00     0.000 C 
BRANCH   6   7
ATOM      7  C   UNL     1      31.487   2.630   6.659  1.00  0.00     0.000 C 
BRANCH   7   8
ATOM      8  C   UNL     1      31.398   2.397   5.138  1.00  0.00     0.000 C 
BRANCH   8   9
ATOM      9  C   UNL     1      30.603   3.464   4.366  1.00  0.00     0.000 C 
BRANCH   9  10
ATOM     10  C   UNL     1      29.277   2.926   3.801  1.00  0.00     0.006 C 
BRANCH  10  11
ATOM     11  C   UNL     1      28.068   3.723   4.309  1.00  0.00     0.053 C 
BRANCH  11  12
ATOM     12  C   UNL     1      28.015   3.752   5.806  1.00  0.00     0.041 C 
ATOM     13  O   UNL     1      28.107   4.845   6.425  1.00  0.00    -0.550 OA
ATOM     14  O   UNL     1      27.902   2.566   6.520  1.00  0.00    -0.550 OA
ENDBRANCH  11  12
ENDBRANCH  10  11
ENDBRANCH   9  10
ENDBRANCH   8   9
ENDBRANCH   7   8
ENDBRANCH   6   7
ENDBRANCH   5   6
ENDBRANCH   4   5
ENDBRANCH   3   4
ENDBRANCH   2   3
ENDBRANCH   1   2
BRANCH   1  15
ATOM     15  C   UNL     1      36.370   6.754  10.259  1.00  0.00     0.000 C 
BRANCH  15  16
ATOM     16  C   UNL     1      36.509   6.181  11.682  1.00  0.00     0.000 C 
BRANCH  16  17
ATOM     17  C   UNL     1      35.355   6.608  12.605  1.00  0.00     0.000 C 
BRANCH  17  18
ATOM     18  C   UNL     1      35.055   5.565  13.695  1.00  0.00    -0.000 C 
BRANCH  18  19
ATOM     19  C   UNL     1      33.751   4.792  13.435  1.00  0.00    -0.000 C 
BRANCH  19  20
ATOM     20  C   UNL     1      33.463   4.604  11.936  1.00  0.00    -0.000 C 
BRANCH  20  21
ATOM     21  C   UNL     1      32.230   5.395  11.469  1.00  0.00    -0.000 C 
BRANCH  21  22
ATOM     22  C   UNL     1      31.820   6.492  12.464  1.00  0.00    -0.000 C 
BRANCH  22  23
ATOM     23  C   UNL     1      32.174   7.885  11.923  1.00  0.00    -0.000 C 
BRANCH  23  24
ATOM     24  C   UNL     1      31.371   9.012  12.594  1.00  0.00    -0.000 C 
BRANCH  24  25
ATOM     25  C   UNL     1      31.404  10.361  11.852  1.00  0.00    -0.003 C 
ATOM     26  C   UNL     1      30.255  11.289  12.248  1.00  0.00     0.004 C 
ENDBRANCH  24  25
ENDBRANCH  23  24
ENDBRANCH  22  23
ENDBRANCH  21  22
ENDBRANCH  20  21
ENDBRANCH  19  20
ENDBRANCH  18  19
ENDBRANCH  17  18
ENDBRANCH  16  17
ENDBRANCH  15  16
ENDBRANCH   1  15
TORSDOF 22
ENDMDL
MODEL 6
REMARK VINA RESULT:    -4.583      3.299      7.428
REMARK INTER + INTRA:         -13.805
REMARK INTER:                 -11.044
REMARK INTRA:                  -2.762
REMARK UNBOUND:                -3.329
REMARK SMILES CCCCCCCCCCCCCCCCCCCCCCCC(=O)[O-]
REMARK SMILES IDX 13 1 14 2 15 3 16 4 17 5 18 6 19 7 20 8 21 9 22 10 23 11
REMARK SMILES IDX 24 12 25 13 26 14 12 15 11 16 10 17 9 18 8 19 7 20 6 21 5 22
REMARK SMILES IDX 4 23 3 24 2 25 1 26
REMARK H PARENT
REMARK Flexibility Score: inf
ROOT
ATOM      1  C   UNL     1      32.630   3.086   8.888  1.00  0.00     0.000 C 
ENDROOT
BRANCH   1   2
ATOM      2  C   UNL     1      32.602   3.262  10.417  1.00  0.00     0.000 C 
BRANCH   2   3
ATOM      3  C   UNL     1      33.145   2.032  11.160  1.00  0.00     0.000 C 
BRANCH   3   4
ATOM      4  C   UNL     1      33.059   2.174  12.687  1.00  0.00     0.000 C 
BRANCH   4   5
ATOM      5  C   UNL     1      32.884   3.643  13.091  1.00  0.00     0.000 C 
BRANCH   5   6
ATOM      6  C   UNL     1      34.091   4.145  13.897  1.00  0.00     0.000 C 
BRANCH   6   7
ATOM      7  C   UNL     1      34.483   5.591  13.526  1.00  0.00     0.000 C 
BRANCH   7   8
ATOM      8  C   UNL     1      33.568   6.234  12.465  1.00  0.00     0.000 C 
BRANCH   8   9
ATOM      9  C   UNL     1      33.740   7.753  12.295  1.00  0.00     0.000 C 
BRANCH   9  10
ATOM     10  C   UNL     1      32.653   8.380  11.406  1.00  0.00     0.006 C 
BRANCH  10  11
ATOM     11  C   UNL     1      31.430   8.825  12.219  1.00  0.00     0.053 C 
BRANCH  11  12
ATOM     12  C   UNL     1      31.237  10.310  12.159  1.00  0.00     0.041 C 
ATOM     13  O   UNL     1      32.231  11.082  12.205  1.00  0.00    -0.550 OA
ATOM     14  O   UNL     1      29.956  10.842  12.089  1.00  0.00    -0.550 OA
ENDBRANCH  11  12
ENDBRANCH  10  11
ENDBRANCH   9  10
ENDBRANCH   8   9
ENDBRANCH   7   8
ENDBRANCH   6   7
ENDBRANCH   5   6
ENDBRANCH   4   5
ENDBRANCH   3   4
ENDBRANCH   2   3
ENDBRANCH   1   2
BRANCH   1  15
ATOM     15  C   UNL     1      31.808   1.875   8.415  1.00  0.00     0.000 C 
BRANCH  15  16
ATOM     16  C   UNL     1      30.867   2.218   7.246  1.00  0.00     0.000 C 
BRANCH  16  17
ATOM     17  C   UNL     1      31.598   2.921   6.088  1.00  0.00     0.000 C 
BRANCH  17  18
ATOM     18  C   UNL     1      31.283   4.425   6.020  1.00  0.00    -0.000 C 
BRANCH  18  19
ATOM     19  C   UNL     1      32.536   5.284   5.779  1.00  0.00    -0.000 C 
BRANCH  19  20
ATOM     20  C   UNL     1      33.506   5.264   6.972  1.00  0.00    -0.000 C 
BRANCH  20  21
ATOM     21  C   UNL     1      33.639   6.639   7.646  1.00  0.00    -0.000 C 
BRANCH  21  22
ATOM     22  C   UNL     1      34.610   6.623   8.837  1.00  0.00    -0.000 C 
BRANCH  22  23
ATOM     23  C   UNL     1      35.330   5.270   8.940  1.00  0.00    -0.000 C 
BRANCH  23  24
ATOM     24  C   UNL     1      36.419   5.251  10.028  1.00  0.00    -0.000 C 
BRANCH  24  25
ATOM     25  C   UNL     1      36.809   6.635  10.577  1.00  0.00    -0.003 C 
ATOM     26  C   UNL     1      38.267   6.709  11.032  1.00  0.00     0.004 C 
ENDBRANCH  24  25
ENDBRANCH  23  24
ENDBRANCH  22  23
ENDBRANCH  21  22
ENDBRANCH  20  21
ENDBRANCH  19  20
ENDBRANCH  18  19
ENDBRANCH  17  18
ENDBRANCH  16  17
ENDBRANCH  15  16
ENDBRANCH   1  15
TORSDOF 22
ENDMDL
MODEL 7
REMARK VINA RESULT:    -4.526      3.251      7.345
REMARK INTER + INTRA:         -13.677
REMARK INTER:                 -10.570
REMARK INTRA:                  -3.107
REMARK UNBOUND:                -3.329
REMARK SMILES CCCCCCCCCCCCCCCCCCCCCCCC(=O)[O-]
REMARK SMILES IDX 13 1 14 2 15 3 16 4 17 5 18 6 19 7 20 8 21 9 22 10 23 11
REMARK SMILES IDX 24 12 25 13 26 14 12 15 11 16 10 17 9 18 8 19 7 20 6 21 5 22
REMARK SMILES IDX 4 23 3 24 2 25 1 26
REMARK H PARENT
REMARK Flexibility Score: inf
ROOT
ATOM      1  C   UNL     1      33.626   6.515   7.357  1.00  0.00     0.000 C 
ENDROOT
BRANCH   1   2
ATOM      2  C   UNL     1      34.382   6.216   8.664  1.00  0.00     0.000 C 
BRANCH   2   3
ATOM      3  C   UNL     1      35.380   5.058   8.513  1.00  0.00     0.000 C 
BRANCH   3   4
ATOM      4  C   UNL     1      36.294   4.898   9.738  1.00  0.00     0.000 C 
BRANCH   4   5
ATOM      5  C   UNL     1      37.076   6.189  10.010  1.00  0.00     0.000 C 
BRANCH   5   6
ATOM      6  C   UNL     1      36.862   6.675  11.451  1.00  0.00     0.000 C 
BRANCH   6   7
ATOM      7  C   UNL     1      35.818   7.809  11.538  1.00  0.00     0.000 C 
BRANCH   7   8
ATOM      8  C   UNL     1      34.441   7.350  12.059  1.00  0.00     0.000 C 
BRANCH   8   9
ATOM      9  C   UNL     1      33.244   8.146  11.511  1.00  0.00     0.000 C 
BRANCH   9  10
ATOM     10  C   UNL     1      32.266   8.585  12.613  1.00  0.00     0.006 C 
BRANCH  10  11
ATOM     11  C   UNL     1      30.987   9.206  12.036  1.00  0.00     0.053 C 
BRANCH  11  12
ATOM     12  C   UNL     1      30.967  10.694  12.212  1.00  0.00     0.041 C 
ATOM     13  O   UNL     1      32.039  11.326  12.403  1.00  0.00    -0.550 OA
ATOM     14  O   UNL     1      29.758  11.378  12.201  1.00  0.00    -0.550 OA
ENDBRANCH  11  12
ENDBRANCH  10  11
ENDBRANCH   9  10
ENDBRANCH   8   9
ENDBRANCH   7   8
ENDBRANCH   6   7
ENDBRANCH   5   6
ENDBRANCH   4   5
ENDBRANCH   3   4
ENDBRANCH   2   3
ENDBRANCH   1   2
BRANCH   1  15
ATOM     15  C   UNL     1      33.060   5.247   6.696  1.00  0.00     0.000 C 
BRANCH  15  16
ATOM     16  C   UNL     1      32.347   5.542   5.364  1.00  0.00     0.000 C 
BRANCH  16  17
ATOM     17  C   UNL     1      31.027   4.764   5.217  1.00  0.00     0.000 C 
BRANCH  17  18
ATOM     18  C   UNL     1      31.247   3.245   5.114  1.00  0.00    -0.000 C 
BRANCH  18  19
ATOM     19  C   UNL     1      30.687   2.480   6.325  1.00  0.00    -0.000 C 
BRANCH  19  20
ATOM     20  C   UNL     1      31.794   1.875   7.206  1.00  0.00    -0.000 C 
BRANCH  20  21
ATOM     21  C   UNL     1      31.580   2.164   8.701  1.00  0.00    -0.000 C 
BRANCH  21  22
ATOM     22  C   UNL     1      32.853   2.678   9.392  1.00  0.00    -0.000 C 
BRANCH  22  23
ATOM     23  C   UNL     1      32.503   3.579  10.586  1.00  0.00    -0.000 C 
BRANCH  23  24
ATOM     24  C   UNL     1      33.553   3.519  11.710  1.00  0.00    -0.000 C 
BRANCH  24  25
ATOM     25  C   UNL     1      33.063   4.025  13.079  1.00  0.00    -0.003 C 
ATOM     26  C   UNL     1      31.844   4.942  12.977  1.00  0.00     0.004 C 
ENDBRANCH  24  25
ENDBRANCH  23  24
ENDBRANCH  22  23
ENDBRANCH  21  22
ENDBRANCH  20  21
ENDBRANCH  19  20
ENDBRANCH  18  19
ENDBRANCH  17  18
ENDBRANCH  16  17
ENDBRANCH  15  16
ENDBRANCH   1  15
TORSDOF 22
ENDMDL
MODEL 8
REMARK VINA RESULT:    -4.511      3.682      6.405
REMARK INTER + INTRA:         -13.641
REMARK INTER:                 -10.741
REMARK INTRA:                  -2.900
REMARK UNBOUND:                -3.329
REMARK SMILES CCCCCCCCCCCCCCCCCCCCCCCC(=O)[O-]
REMARK SMILES IDX 13 1 14 2 15 3 16 4 17 5 18 6 19 7 20 8 21 9 22 10 23 11
REMARK SMILES IDX 24 12 25 13 26 14 12 15 11 16 10 17 9 18 8 19 7 20 6 21 5 22
REMARK SMILES IDX 4 23 3 24 2 25 1 26
REMARK H PARENT
REMARK Flexibility Score: inf
ROOT
ATOM      1  C   UNL     1      33.410   3.261  10.682  1.00  0.00     0.000 C 
ENDROOT
BRANCH   1   2
ATOM      2  C   UNL     1      32.184   3.197   9.753  1.00  0.00     0.000 C 
BRANCH   2   3
ATOM      3  C   UNL     1      32.107   1.875   8.973  1.00  0.00     0.000 C 
BRANCH   3   4
ATOM      4  C   UNL     1      31.926   2.087   7.462  1.00  0.00     0.000 C 
BRANCH   4   5
ATOM      5  C   UNL     1      31.328   3.468   7.171  1.00  0.00     0.000 C 
BRANCH   5   6
ATOM      6  C   UNL     1      32.111   4.192   6.066  1.00  0.00     0.000 C 
BRANCH   6   7
ATOM      7  C   UNL     1      32.984   5.337   6.620  1.00  0.00     0.000 C 
BRANCH   7   8
ATOM      8  C   UNL     1      34.154   4.860   7.503  1.00  0.00     0.000 C 
BRANCH   8   9
ATOM      9  C   UNL     1      34.761   5.942   8.413  1.00  0.00     0.000 C 
BRANCH   9  10
ATOM     10  C   UNL     1      36.204   5.621   8.838  1.00  0.00     0.006 C 
BRANCH  10  11
ATOM     11  C   UNL     1      36.366   5.610  10.364  1.00  0.00     0.053 C 
BRANCH  11  12
ATOM     12  C   UNL     1      37.225   6.743  10.836  1.00  0.00     0.041 C 
ATOM     13  O   UNL     1      38.480   6.654  10.784  1.00  0.00    -0.550 OA
ATOM     14  O   UNL     1      36.639   7.883  11.370  1.00  0.00    -0.550 OA
ENDBRANCH  11  12
ENDBRANCH  10  11
ENDBRANCH   9  10
ENDBRANCH   8   9
ENDBRANCH   7   8
ENDBRANCH   6   7
ENDBRANCH   5   6
ENDBRANCH   4   5
ENDBRANCH   3   4
ENDBRANCH   2   3
ENDBRANCH   1   2
BRANCH   1  15
ATOM     15  C   UNL     1      33.612   1.967  11.487  1.00  0.00     0.000 C 
BRANCH  15  16
ATOM     16  C   UNL     1      33.015   2.052  12.903  1.00  0.00     0.000 C 
BRANCH  16  17
ATOM     17  C   UNL     1      32.754   3.501  13.348  1.00  0.00     0.000 C 
BRANCH  17  18
ATOM     18  C   UNL     1      33.975   4.134  14.039  1.00  0.00    -0.000 C 
BRANCH  18  19
ATOM     19  C   UNL     1      34.414   5.452  13.380  1.00  0.00    -0.000 C 
BRANCH  19  20
ATOM     20  C   UNL     1      33.223   6.353  13.007  1.00  0.00    -0.000 C 
BRANCH  20  21
ATOM     21  C   UNL     1      33.089   6.551  11.488  1.00  0.00    -0.000 C 
BRANCH  21  22
ATOM     22  C   UNL     1      33.236   8.021  11.068  1.00  0.00    -0.000 C 
BRANCH  22  23
ATOM     23  C   UNL     1      32.889   8.963  12.232  1.00  0.00    -0.000 C 
BRANCH  23  24
ATOM     24  C   UNL     1      31.415   9.404  12.228  1.00  0.00    -0.000 C 
BRANCH  24  25
ATOM     25  C   UNL     1      31.192  10.913  12.020  1.00  0.00    -0.003 C 
ATOM     26  C   UNL     1      29.726  11.325  12.157  1.00  0.00     0.004 C 
ENDBRANCH  24  25
ENDBRANCH  23  24
ENDBRANCH  22  23
ENDBRANCH  21  22
ENDBRANCH  20  21
ENDBRANCH  19  20
ENDBRANCH  18  19
ENDBRANCH  17  18
ENDBRANCH  16  17
ENDBRANCH  15  16
ENDBRANCH   1  15
TORSDOF 22
ENDMDL
MODEL 9
REMARK VINA RESULT:    -4.506      1.677      4.380
REMARK INTER + INTRA:         -13.631
REMARK INTER:                 -10.318
REMARK INTRA:                  -3.313
REMARK UNBOUND:                -3.329
REMARK SMILES CCCCCCCCCCCCCCCCCCCCCCCC(=O)[O-]
REMARK SMILES IDX 13 1 14 2 15 3 16 4 17 5 18 6 19 7 20 8 21 9 22 10 23 11
REMARK SMILES IDX 24 12 25 13 26 14 12 15 11 16 10 17 9 18 8 19 7 20 6 21 5 22
REMARK SMILES IDX 4 23 3 24 2 25 1 26
REMARK H PARENT
REMARK Flexibility Score: inf
ROOT
ATOM      1  C   UNL     1      36.206   6.388  11.913  1.00  0.00     0.000 C 
ENDROOT
BRANCH   1   2
ATOM      2  C   UNL     1      35.844   7.312  10.737  1.00  0.00     0.000 C 
BRANCH   2   3
ATOM      3  C   UNL     1      35.425   6.530   9.482  1.00  0.00     0.000 C 
BRANCH   3   4
ATOM      4  C   UNL     1      35.753   5.032   9.578  1.00  0.00     0.000 C 
BRANCH   4   5
ATOM      5  C   UNL     1      34.723   4.196   8.811  1.00  0.00     0.000 C 
BRANCH   5   6
ATOM      6  C   UNL     1      34.018   5.034   7.735  1.00  0.00     0.000 C 
BRANCH   6   7
ATOM      7  C   UNL     1      32.565   4.572   7.490  1.00  0.00     0.000 C 
BRANCH   7   8
ATOM      8  C   UNL     1      32.287   3.123   7.937  1.00  0.00     0.000 C 
BRANCH   8   9
ATOM      9  C   UNL     1      31.806   2.182   6.818  1.00  0.00     0.000 C 
BRANCH   9  10
ATOM     10  C   UNL     1      31.574   2.913   5.485  1.00  0.00     0.006 C 
BRANCH  10  11
ATOM     11  C   UNL     1      30.190   2.609   4.895  1.00  0.00     0.053 C 
BRANCH  11  12
ATOM     12  C   UNL     1      29.106   3.349   5.617  1.00  0.00     0.041 C 
ATOM     13  O   UNL     1      27.989   2.803   5.819  1.00  0.00    -0.550 OA
ATOM     14  O   UNL     1      29.318   4.657   6.035  1.00  0.00    -0.550 OA
ENDBRANCH  11  12
ENDBRANCH  10  11
ENDBRANCH   9  10
ENDBRANCH   8   9
ENDBRANCH   7   8
ENDBRANCH   6   7
ENDBRANCH   5   6
ENDBRANCH   4   5
ENDBRANCH   3   4
ENDBRANCH   2   3
ENDBRANCH   1   2
BRANCH   1  15
ATOM     15  C   UNL     1      35.198   6.479  13.071  1.00  0.00     0.000 C 
BRANCH  15  16
ATOM     16  C   UNL     1      35.491   5.465  14.192  1.00  0.00     0.000 C 
BRANCH  16  17
ATOM     17  C   UNL     1      34.277   4.578  14.516  1.00  0.00     0.000 C 
BRANCH  17  18
ATOM     18  C   UNL     1      33.736   3.843  13.278  1.00  0.00    -0.000 C 
BRANCH  18  19
ATOM     19  C   UNL     1      32.357   4.362  12.834  1.00  0.00    -0.000 C 
BRANCH  19  20
ATOM     20  C   UNL     1      32.356   4.871  11.382  1.00  0.00    -0.000 C 
BRANCH  20  21
ATOM     21  C   UNL     1      32.147   6.392  11.292  1.00  0.00    -0.000 C 
BRANCH  21  22
ATOM     22  C   UNL     1      31.639   6.998  12.610  1.00  0.00    -0.000 C 
BRANCH  22  23
ATOM     23  C   UNL     1      32.242   8.391  12.842  1.00  0.00    -0.000 C 
BRANCH  23  24
ATOM     24  C   UNL     1      31.728   9.442  11.842  1.00  0.00    -0.000 C 
BRANCH  24  25
ATOM     25  C   UNL     1      31.362  10.802  12.464  1.00  0.00    -0.003 C 
ATOM     26  C   UNL     1      29.958  11.274  12.084  1.00  0.00     0.004 C 
ENDBRANCH  24  25
ENDBRANCH  23  24
ENDBRANCH  22  23
ENDBRANCH  21  22
ENDBRANCH  20  21
ENDBRANCH  19  20
ENDBRANCH  18  19
ENDBRANCH  17  18
ENDBRANCH  16  17
ENDBRANCH  15  16
ENDBRANCH   1  15
TORSDOF 22
ENDMDL
