MODEL 1
REMARK VINA RESULT:    -7.110      0.000      0.000
REMARK INTER + INTRA:          -7.772
REMARK INTER:                  -7.734
REMARK INTRA:                  -0.039
REMARK UNBOUND:                -0.039
REMARK SMILES CC1(C)[C@@H]2CC=C(CO)[C@H]1C2
REMARK SMILES IDX 8 1 7 2 1 3 2 4 4 5 3 6 10 7 5 8 11 9 6 10 9 11
REMARK H PARENT 9 12
REMARK Flexibility Score: inf
ROOT
ATOM      1  C   UNL     1      20.271  19.917   5.956  1.00  0.00     0.187 C 
ENDROOT
BRANCH   1   2
ATOM      2  C   UNL     1      20.061  19.833   4.470  1.00  0.00    -0.045 C 
ATOM      3  C   UNL     1      20.247  17.269   3.005  1.00  0.00     0.012 C 
ATOM      4  C   UNL     1      19.076  18.262   2.764  1.00  0.00    -0.026 C 
ATOM      5  C   UNL     1      19.317  19.489   1.842  1.00  0.00    -0.000 C 
ATOM      6  C   UNL     1      17.828  17.447   2.339  1.00  0.00     0.012 C 
ATOM      7  C   UNL     1      18.752  19.301   3.870  1.00  0.00     0.023 C 
ATOM      8  C   UNL     1      20.754  20.071   2.074  1.00  0.00     0.031 C 
ATOM      9  C   UNL     1      18.383  20.304   2.760  1.00  0.00     0.013 C 
ATOM     10  C   UNL     1      21.025  20.227   3.584  1.00  0.00    -0.025 C 
ENDBRANCH   1   2
BRANCH   1  11
ATOM     11  O   UNL     1      21.391  19.162   6.331  1.00  0.00    -0.392 OA
ATOM     12  H   UNL     1      21.430  19.179   7.323  1.00  0.00     0.211 HD
ENDBRANCH   1  11
TORSDOF 2
ENDMDL
MODEL 2
REMARK VINA RESULT:    -6.958      2.162      3.693
REMARK INTER + INTRA:          -7.607
REMARK INTER:                  -7.584
REMARK INTRA:                  -0.023
REMARK UNBOUND:                -0.039
REMARK SMILES CC1(C)[C@@H]2CC=C(CO)[C@H]1C2
REMARK SMILES IDX 8 1 7 2 1 3 2 4 4 5 3 6 10 7 5 8 11 9 6 10 9 11
REMARK H PARENT 9 12
REMARK Flexibility Score: inf
ROOT
ATOM      1  C   UNL     1      18.466  16.810   2.495  1.00  0.00     0.187 C 
ENDROOT
BRANCH   1   2
ATOM      2  C   UNL     1      19.029  18.147   2.890  1.00  0.00    -0.045 C 
ATOM      3  C   UNL     1      18.879  19.149   5.669  1.00  0.00     0.012 C 
ATOM      4  C   UNL     1      20.194  19.228   4.845  1.00  0.00    -0.026 C 
ATOM      5  C   UNL     1      20.356  20.375   3.809  1.00  0.00    -0.000 C 
ATOM      6  C   UNL     1      21.390  19.154   5.828  1.00  0.00     0.012 C 
ATOM      7  C   UNL     1      20.365  18.269   3.637  1.00  0.00     0.023 C 
ATOM      8  C   UNL     1      18.997  20.644   3.076  1.00  0.00     0.031 C 
ATOM      9  C   UNL     1      21.129  19.391   2.908  1.00  0.00     0.013 C 
ATOM     10  C   UNL     1      18.379  19.314   2.602  1.00  0.00    -0.025 C 
ENDBRANCH   1   2
BRANCH   1  11
ATOM     11  O   UNL     1      17.121  16.941   2.122  1.00  0.00    -0.392 OA
ATOM     12  H   UNL     1      16.688  17.514   2.807  1.00  0.00     0.211 HD
ENDBRANCH   1  11
TORSDOF 2
ENDMDL
MODEL 3
REMARK VINA RESULT:    -6.560      2.124      3.614
REMARK INTER + INTRA:          -7.174
REMARK INTER:                  -7.125
REMARK INTRA:                  -0.049
REMARK UNBOUND:                -0.039
REMARK SMILES CC1(C)[C@@H]2CC=C(CO)[C@H]1C2
REMARK SMILES IDX 8 1 7 2 1 3 2 4 4 5 3 6 10 7 5 8 11 9 6 10 9 11
REMARK H PARENT 9 12
REMARK Flexibility Score: inf
ROOT
ATOM      1  C   UNL     1      19.654  16.523   3.366  1.00  0.00     0.187 C 
ENDROOT
BRANCH   1   2
ATOM      2  C   UNL     1      20.041  17.653   4.278  1.00  0.00    -0.045 C 
ATOM      3  C   UNL     1      21.299  20.129   3.257  1.00  0.00     0.012 C 
ATOM      4  C   UNL     1      20.124  20.172   4.273  1.00  0.00    -0.026 C 
ATOM      5  C   UNL     1      20.429  19.929   5.777  1.00  0.00    -0.000 C 
ATOM      6  C   UNL     1      19.329  21.482   4.041  1.00  0.00     0.012 C 
ATOM      7  C   UNL     1      19.197  18.933   4.380  1.00  0.00     0.023 C 
ATOM      8  C   UNL     1      21.517  18.811   5.938  1.00  0.00     0.031 C 
ATOM      9  C   UNL     1      19.070  19.209   5.890  1.00  0.00     0.013 C 
ATOM     10  C   UNL     1      21.161  17.595   5.060  1.00  0.00    -0.025 C 
ENDBRANCH   1   2
BRANCH   1  11
ATOM     11  O   UNL     1      18.582  16.906   2.547  1.00  0.00    -0.392 OA
ATOM     12  H   UNL     1      17.843  17.178   3.151  1.00  0.00     0.211 HD
ENDBRANCH   1  11
TORSDOF 2
ENDMDL
MODEL 4
REMARK VINA RESULT:    -6.243      1.177      1.834
REMARK INTER + INTRA:          -6.829
REMARK INTER:                  -6.807
REMARK INTRA:                  -0.023
REMARK UNBOUND:                -0.039
REMARK SMILES CC1(C)[C@@H]2CC=C(CO)[C@H]1C2
REMARK SMILES IDX 8 1 7 2 1 3 2 4 4 5 3 6 10 7 5 8 11 9 6 10 9 11
REMARK H PARENT 9 12
REMARK Flexibility Score: inf
ROOT
ATOM      1  C   UNL     1      20.973  17.754   5.504  1.00  0.00     0.187 C 
ENDROOT
BRANCH   1   2
ATOM      2  C   UNL     1      20.230  18.850   4.792  1.00  0.00    -0.045 C 
ATOM      3  C   UNL     1      20.902  19.656   2.025  1.00  0.00     0.012 C 
ATOM      4  C   UNL     1      19.431  19.423   2.472  1.00  0.00    -0.026 C 
ATOM      5  C   UNL     1      18.704  20.550   3.256  1.00  0.00    -0.000 C 
ATOM      6  C   UNL     1      18.619  18.949   1.239  1.00  0.00     0.012 C 
ATOM      7  C   UNL     1      19.171  18.542   3.722  1.00  0.00     0.023 C 
ATOM      8  C   UNL     1      19.690  21.238   4.262  1.00  0.00     0.031 C 
ATOM      9  C   UNL     1      17.979  19.455   4.065  1.00  0.00     0.013 C 
ATOM     10  C   UNL     1      20.460  20.169   5.063  1.00  0.00    -0.025 C 
ENDBRANCH   1   2
BRANCH   1  11
ATOM     11  O   UNL     1      22.006  18.295   6.282  1.00  0.00    -0.392 OA
ATOM     12  H   UNL     1      21.586  18.655   7.106  1.00  0.00     0.211 HD
ENDBRANCH   1  11
TORSDOF 2
ENDMDL
MODEL 5
REMARK VINA RESULT:    -6.208      1.544      2.876
REMARK INTER + INTRA:          -6.792
REMARK INTER:                  -6.733
REMARK INTRA:                  -0.058
REMARK UNBOUND:                -0.039
REMARK SMILES CC1(C)[C@@H]2CC=C(CO)[C@H]1C2
REMARK SMILES IDX 8 1 7 2 1 3 2 4 4 5 3 6 10 7 5 8 11 9 6 10 9 11
REMARK H PARENT 9 12
REMARK Flexibility Score: inf
ROOT
ATOM      1  C   UNL     1      22.124  17.493   5.813  1.00  0.00     0.187 C 
ENDROOT
BRANCH   1   2
ATOM      2  C   UNL     1      21.171  17.976   4.756  1.00  0.00    -0.045 C 
ATOM      3  C   UNL     1      18.687  19.435   5.435  1.00  0.00     0.012 C 
ATOM      4  C   UNL     1      19.640  19.927   4.309  1.00  0.00    -0.026 C 
ATOM      5  C   UNL     1      19.563  19.243   2.916  1.00  0.00    -0.000 C 
ATOM      6  C   UNL     1      19.520  21.469   4.212  1.00  0.00     0.012 C 
ATOM      7  C   UNL     1      21.116  19.452   4.333  1.00  0.00     0.023 C 
ATOM      8  C   UNL     1      19.332  17.701   3.078  1.00  0.00     0.031 C 
ATOM      9  C   UNL     1      21.089  19.426   2.793  1.00  0.00     0.013 C 
ATOM     10  C   UNL     1      20.309  17.125   4.121  1.00  0.00    -0.025 C 
ENDBRANCH   1   2
BRANCH   1  11
ATOM     11  O   UNL     1      22.374  18.513   6.742  1.00  0.00    -0.392 OA
ATOM     12  H   UNL     1      21.492  18.811   7.086  1.00  0.00     0.211 HD
ENDBRANCH   1  11
TORSDOF 2
ENDMDL
MODEL 6
REMARK VINA RESULT:    -5.912      1.511      2.594
REMARK INTER + INTRA:          -6.469
REMARK INTER:                  -6.435
REMARK INTRA:                  -0.034
REMARK UNBOUND:                -0.039
REMARK SMILES CC1(C)[C@@H]2CC=C(CO)[C@H]1C2
REMARK SMILES IDX 8 1 7 2 1 3 2 4 4 5 3 6 10 7 5 8 11 9 6 10 9 11
REMARK H PARENT 9 12
REMARK Flexibility Score: inf
ROOT
ATOM      1  C   UNL     1      19.877  16.611   4.206  1.00  0.00     0.187 C 
ENDROOT
BRANCH   1   2
ATOM      2  C   UNL     1      20.089  18.086   4.002  1.00  0.00    -0.045 C 
ATOM      3  C   UNL     1      18.713  19.584   1.853  1.00  0.00     0.012 C 
ATOM      4  C   UNL     1      18.785  20.127   3.308  1.00  0.00    -0.026 C 
ATOM      5  C   UNL     1      20.090  20.829   3.777  1.00  0.00    -0.000 C 
ATOM      6  C   UNL     1      17.528  20.996   3.564  1.00  0.00     0.012 C 
ATOM      7  C   UNL     1      19.049  19.120   4.458  1.00  0.00     0.023 C 
ATOM      8  C   UNL     1      21.345  20.095   3.190  1.00  0.00     0.031 C 
ATOM      9  C   UNL     1      19.863  20.216   5.174  1.00  0.00     0.013 C 
ATOM     10  C   UNL     1      21.216  18.574   3.403  1.00  0.00    -0.025 C 
ENDBRANCH   1   2
BRANCH   1  11
ATOM     11  O   UNL     1      20.279  16.238   5.496  1.00  0.00    -0.392 OA
ATOM     12  H   UNL     1      21.163  16.661   5.655  1.00  0.00     0.211 HD
ENDBRANCH   1  11
TORSDOF 2
ENDMDL
MODEL 7
REMARK VINA RESULT:    -5.702     14.143     15.376
REMARK INTER + INTRA:          -6.240
REMARK INTER:                  -6.218
REMARK INTRA:                  -0.022
REMARK UNBOUND:                -0.039
REMARK SMILES CC1(C)[C@@H]2CC=C(CO)[C@H]1C2
REMARK SMILES IDX 8 1 7 2 1 3 2 4 4 5 3 6 10 7 5 8 11 9 6 10 9 11
REMARK H PARENT 9 12
REMARK Flexibility Score: inf
ROOT
ATOM      1  C   UNL     1      25.531  10.514  16.918  1.00  0.00     0.187 C 
ENDROOT
BRANCH   1   2
ATOM      2  C   UNL     1      24.637  10.238  15.741  1.00  0.00    -0.045 C 
ATOM      3  C   UNL     1      25.387  11.024  12.989  1.00  0.00     0.012 C 
ATOM      4  C   UNL     1      24.821   9.612  13.307  1.00  0.00    -0.026 C 
ATOM      5  C   UNL     1      23.285   9.446  13.479  1.00  0.00    -0.000 C 
ATOM      6  C   UNL     1      25.407   8.610  12.280  1.00  0.00     0.012 C 
ATOM      7  C   UNL     1      24.924   9.088  14.764  1.00  0.00     0.023 C 
ATOM      8  C   UNL     1      22.685  10.680  14.236  1.00  0.00     0.031 C 
ATOM      9  C   UNL     1      23.566   8.387  14.564  1.00  0.00     0.013 C 
ATOM     10  C   UNL     1      23.529  10.997  15.486  1.00  0.00    -0.025 C 
ENDBRANCH   1   2
BRANCH   1  11
ATOM     11  O   UNL     1      24.798  11.112  17.953  1.00  0.00    -0.392 OA
ATOM     12  H   UNL     1      25.284  11.939  18.208  1.00  0.00     0.211 HD
ENDBRANCH   1  11
TORSDOF 2
ENDMDL
MODEL 8
REMARK VINA RESULT:    -5.460      7.682      9.134
REMARK INTER + INTRA:          -5.977
REMARK INTER:                  -5.922
REMARK INTRA:                  -0.055
REMARK UNBOUND:                -0.039
REMARK SMILES CC1(C)[C@@H]2CC=C(CO)[C@H]1C2
REMARK SMILES IDX 8 1 7 2 1 3 2 4 4 5 3 6 10 7 5 8 11 9 6 10 9 11
REMARK H PARENT 9 12
REMARK Flexibility Score: inf
ROOT
ATOM      1  C   UNL     1      16.969  13.033   6.796  1.00  0.00     0.187 C 
ENDROOT
BRANCH   1   2
ATOM      2  C   UNL     1      18.038  12.084   6.333  1.00  0.00    -0.045 C 
ATOM      3  C   UNL     1      19.952  10.840   8.216  1.00  0.00     0.012 C 
ATOM      4  C   UNL     1      19.224  10.006   7.125  1.00  0.00    -0.026 C 
ATOM      5  C   UNL     1      19.768  10.048   5.669  1.00  0.00    -0.000 C 
ATOM      6  C   UNL     1      19.063   8.557   7.648  1.00  0.00     0.012 C 
ATOM      7  C   UNL     1      17.907  10.566   6.526  1.00  0.00     0.023 C 
ATOM      8  C   UNL     1      20.247  11.496   5.308  1.00  0.00     0.031 C 
ATOM      9  C   UNL     1      18.312   9.954   5.171  1.00  0.00     0.013 C 
ATOM     10  C   UNL     1      19.176  12.526   5.717  1.00  0.00    -0.025 C 
ENDBRANCH   1   2
BRANCH   1  11
ATOM     11  O   UNL     1      16.210  12.447   7.818  1.00  0.00    -0.392 OA
ATOM     12  H   UNL     1      16.793  11.777   8.261  1.00  0.00     0.211 HD
ENDBRANCH   1  11
TORSDOF 2
ENDMDL
MODEL 9
REMARK VINA RESULT:    -5.456      1.917      3.439
REMARK INTER + INTRA:          -5.973
REMARK INTER:                  -5.922
REMARK INTRA:                  -0.050
REMARK UNBOUND:                -0.039
REMARK SMILES CC1(C)[C@@H]2CC=C(CO)[C@H]1C2
REMARK SMILES IDX 8 1 7 2 1 3 2 4 4 5 3 6 10 7 5 8 11 9 6 10 9 11
REMARK H PARENT 9 12
REMARK Flexibility Score: inf
ROOT
ATOM      1  C   UNL     1      20.422  20.222   1.472  1.00  0.00     0.187 C 
ENDROOT
BRANCH   1   2
ATOM      2  C   UNL     1      19.907  19.909   2.850  1.00  0.00    -0.045 C 
ATOM      3  C   UNL     1      20.189  17.221   4.054  1.00  0.00     0.012 C 
ATOM      4  C   UNL     1      20.529  18.511   4.852  1.00  0.00    -0.026 C 
ATOM      5  C   UNL     1      19.366  19.324   5.484  1.00  0.00    -0.000 C 
ATOM      6  C   UNL     1      21.633  18.167   5.884  1.00  0.00     0.012 C 
ATOM      7  C   UNL     1      20.849  19.805   4.058  1.00  0.00     0.023 C 
ATOM      8  C   UNL     1      18.129  19.345   4.522  1.00  0.00     0.031 C 
ATOM      9  C   UNL     1      20.158  20.611   5.175  1.00  0.00     0.013 C 
ATOM     10  C   UNL     1      18.577  19.704   3.091  1.00  0.00    -0.025 C 
ENDBRANCH   1   2
BRANCH   1  11
ATOM     11  O   UNL     1      21.817  20.089   1.435  1.00  0.00    -0.392 OA
ATOM     12  H   UNL     1      22.015  19.292   0.878  1.00  0.00     0.211 HD
ENDBRANCH   1  11
TORSDOF 2
ENDMDL
