MODEL 1
REMARK VINA RESULT:    -4.746      0.000      0.000
REMARK INTER + INTRA:          -5.147
REMARK INTER:                  -5.023
REMARK INTRA:                  -0.124
REMARK UNBOUND:                -0.124
REMARK SMILES C=C(C)[C@H]1CC=C(C)CC1
REMARK SMILES IDX 8 1 7 2 6 3 5 4 4 5 10 6 9 7 2 8 1 9 3 10
REMARK H PARENT
REMARK Flexibility Score: inf
ROOT
ATOM      1  C   UNL     1     -57.125 -46.710  20.628  1.00  0.00     0.039 C 
ATOM      2  C   UNL     1     -55.833 -47.196  21.227  1.00  0.00    -0.077 C 
ATOM      3  C   UNL     1     -55.533 -48.511  21.159  1.00  0.00    -0.027 C 
ATOM      4  C   UNL     1     -54.290 -49.103  21.776  1.00  0.00     0.035 C 
ATOM      5  C   UNL     1     -53.182 -48.052  21.975  1.00  0.00     0.018 C 
ATOM      6  C   UNL     1     -53.765 -46.803  22.654  1.00  0.00     0.013 C 
ATOM      7  C   UNL     1     -54.851 -46.177  21.771  1.00  0.00     0.031 C 
ENDROOT
BRANCH   5   8
ATOM      8  C   UNL     1     -52.004 -48.622  22.754  1.00  0.00    -0.077 C 
ATOM      9  C   UNL     1     -51.931 -48.513  24.091  1.00  0.00     0.008 C 
ATOM     10  C   UNL     1     -50.884 -49.321  22.026  1.00  0.00     0.039 C 
ENDBRANCH   5   8
TORSDOF 1
ENDMDL
MODEL 2
REMARK VINA RESULT:    -4.742     12.226     14.825
REMARK INTER + INTRA:          -5.144
REMARK INTER:                  -5.020
REMARK INTRA:                  -0.124
REMARK UNBOUND:                -0.124
REMARK SMILES C=C(C)[C@H]1CC=C(C)CC1
REMARK SMILES IDX 8 1 7 2 6 3 5 4 4 5 10 6 9 7 2 8 1 9 3 10
REMARK H PARENT
REMARK Flexibility Score: inf
ROOT
ATOM      1  C   UNL     1     -43.773 -49.651  27.045  1.00  0.00     0.039 C 
ATOM      2  C   UNL     1     -42.477 -49.041  27.505  1.00  0.00    -0.077 C 
ATOM      3  C   UNL     1     -41.921 -49.475  28.657  1.00  0.00    -0.027 C 
ATOM      4  C   UNL     1     -40.654 -48.890  29.229  1.00  0.00     0.035 C 
ATOM      5  C   UNL     1     -39.797 -48.195  28.155  1.00  0.00     0.018 C 
ATOM      6  C   UNL     1     -40.676 -47.256  27.315  1.00  0.00     0.013 C 
ATOM      7  C   UNL     1     -41.770 -48.054  26.597  1.00  0.00     0.031 C 
ENDROOT
BRANCH   5   8
ATOM      8  C   UNL     1     -38.613 -47.462  28.771  1.00  0.00    -0.077 C 
ATOM      9  C   UNL     1     -38.748 -46.233  29.297  1.00  0.00     0.008 C 
ATOM     10  C   UNL     1     -37.252 -48.109  28.794  1.00  0.00     0.039 C 
ENDBRANCH   5   8
TORSDOF 1
ENDMDL
MODEL 3
REMARK VINA RESULT:    -4.692     12.284     14.943
REMARK INTER + INTRA:          -5.091
REMARK INTER:                  -4.970
REMARK INTRA:                  -0.121
REMARK UNBOUND:                -0.124
REMARK SMILES C=C(C)[C@H]1CC=C(C)CC1
REMARK SMILES IDX 8 1 7 2 6 3 5 4 4 5 10 6 9 7 2 8 1 9 3 10
REMARK H PARENT
REMARK Flexibility Score: inf
ROOT
ATOM      1  C   UNL     1     -43.842 -49.967  27.558  1.00  0.00     0.039 C 
ATOM      2  C   UNL     1     -42.519 -49.335  27.893  1.00  0.00    -0.077 C 
ATOM      3  C   UNL     1     -41.900 -49.679  29.043  1.00  0.00    -0.027 C 
ATOM      4  C   UNL     1     -40.600 -49.062  29.493  1.00  0.00     0.035 C 
ATOM      5  C   UNL     1     -39.801 -48.466  28.319  1.00  0.00     0.018 C 
ATOM      6  C   UNL     1     -40.722 -47.590  27.456  1.00  0.00     0.013 C 
ATOM      7  C   UNL     1     -41.860 -48.433  26.868  1.00  0.00     0.031 C 
ENDROOT
BRANCH   5   8
ATOM      8  C   UNL     1     -38.580 -47.698  28.805  1.00  0.00    -0.077 C 
ATOM      9  C   UNL     1     -37.366 -48.272  28.856  1.00  0.00     0.008 C 
ATOM     10  C   UNL     1     -38.717 -46.263  29.247  1.00  0.00     0.039 C 
ENDBRANCH   5   8
TORSDOF 1
ENDMDL
MODEL 4
REMARK VINA RESULT:    -4.677      0.997      4.431
REMARK INTER + INTRA:          -5.074
REMARK INTER:                  -4.952
REMARK INTRA:                  -0.122
REMARK UNBOUND:                -0.124
REMARK SMILES C=C(C)[C@H]1CC=C(C)CC1
REMARK SMILES IDX 8 1 7 2 6 3 5 4 4 5 10 6 9 7 2 8 1 9 3 10
REMARK H PARENT
REMARK Flexibility Score: inf
ROOT
ATOM      1  C   UNL     1     -50.034 -49.651  22.313  1.00  0.00     0.039 C 
ATOM      2  C   UNL     1     -51.426 -49.141  22.055  1.00  0.00    -0.077 C 
ATOM      3  C   UNL     1     -52.024 -49.433  20.880  1.00  0.00    -0.027 C 
ATOM      4  C   UNL     1     -53.393 -48.924  20.506  1.00  0.00     0.035 C 
ATOM      5  C   UNL     1     -54.231 -48.546  21.741  1.00  0.00     0.018 C 
ATOM      6  C   UNL     1     -53.398 -47.664  22.685  1.00  0.00     0.013 C 
ATOM      7  C   UNL     1     -52.162 -48.429  23.173  1.00  0.00     0.031 C 
ENDROOT
BRANCH   5   8
ATOM      8  C   UNL     1     -55.539 -47.874  21.347  1.00  0.00    -0.077 C 
ATOM      9  C   UNL     1     -56.616 -48.594  20.991  1.00  0.00     0.008 C 
ATOM     10  C   UNL     1     -55.646 -46.370  21.344  1.00  0.00     0.039 C 
ENDBRANCH   5   8
TORSDOF 1
ENDMDL
MODEL 5
REMARK VINA RESULT:    -4.590      0.485      1.948
REMARK INTER + INTRA:          -4.983
REMARK INTER:                  -4.858
REMARK INTRA:                  -0.125
REMARK UNBOUND:                -0.124
REMARK SMILES C=C(C)[C@H]1CC=C(C)CC1
REMARK SMILES IDX 8 1 7 2 6 3 5 4 4 5 10 6 9 7 2 8 1 9 3 10
REMARK H PARENT
REMARK Flexibility Score: inf
ROOT
ATOM      1  C   UNL     1     -56.831 -46.433  20.627  1.00  0.00     0.039 C 
ATOM      2  C   UNL     1     -55.549 -47.022  21.149  1.00  0.00    -0.077 C 
ATOM      3  C   UNL     1     -54.802 -46.303  22.014  1.00  0.00    -0.027 C 
ATOM      4  C   UNL     1     -53.476 -46.782  22.551  1.00  0.00     0.035 C 
ATOM      5  C   UNL     1     -53.339 -48.314  22.478  1.00  0.00     0.018 C 
ATOM      6  C   UNL     1     -53.738 -48.807  21.079  1.00  0.00     0.013 C 
ATOM      7  C   UNL     1     -55.202 -48.454  20.790  1.00  0.00     0.031 C 
ENDROOT
BRANCH   5   8
ATOM      8  C   UNL     1     -51.936 -48.769  22.859  1.00  0.00    -0.077 C 
ATOM      9  C   UNL     1     -51.037 -49.120  21.925  1.00  0.00     0.008 C 
ATOM     10  C   UNL     1     -51.532 -48.838  24.310  1.00  0.00     0.039 C 
ENDBRANCH   5   8
TORSDOF 1
ENDMDL
MODEL 6
REMARK VINA RESULT:    -4.585      0.996      4.556
REMARK INTER + INTRA:          -4.977
REMARK INTER:                  -4.850
REMARK INTRA:                  -0.127
REMARK UNBOUND:                -0.124
REMARK SMILES C=C(C)[C@H]1CC=C(C)CC1
REMARK SMILES IDX 8 1 7 2 6 3 5 4 4 5 10 6 9 7 2 8 1 9 3 10
REMARK H PARENT
REMARK Flexibility Score: inf
ROOT
ATOM      1  C   UNL     1     -50.674 -47.542  23.738  1.00  0.00     0.039 C 
ATOM      2  C   UNL     1     -52.033 -47.570  23.093  1.00  0.00    -0.077 C 
ATOM      3  C   UNL     1     -52.786 -46.449  23.104  1.00  0.00    -0.027 C 
ATOM      4  C   UNL     1     -54.181 -46.391  22.533  1.00  0.00     0.035 C 
ATOM      5  C   UNL     1     -54.427 -47.493  21.486  1.00  0.00     0.018 C 
ATOM      6  C   UNL     1     -53.961 -48.849  22.039  1.00  0.00     0.013 C 
ATOM      7  C   UNL     1     -52.458 -48.813  22.336  1.00  0.00     0.031 C 
ENDROOT
BRANCH   5   8
ATOM      8  C   UNL     1     -55.885 -47.532  21.047  1.00  0.00    -0.077 C 
ATOM      9  C   UNL     1     -56.555 -48.693  20.949  1.00  0.00     0.008 C 
ATOM     10  C   UNL     1     -56.605 -46.254  20.704  1.00  0.00     0.039 C 
ENDBRANCH   5   8
TORSDOF 1
ENDMDL
MODEL 7
REMARK VINA RESULT:    -4.580      1.359      2.258
REMARK INTER + INTRA:          -4.973
REMARK INTER:                  -4.851
REMARK INTRA:                  -0.122
REMARK UNBOUND:                -0.124
REMARK SMILES C=C(C)[C@H]1CC=C(C)CC1
REMARK SMILES IDX 8 1 7 2 6 3 5 4 4 5 10 6 9 7 2 8 1 9 3 10
REMARK H PARENT
REMARK Flexibility Score: inf
ROOT
ATOM      1  C   UNL     1     -56.498 -48.463  20.685  1.00  0.00     0.039 C 
ATOM      2  C   UNL     1     -55.255 -48.028  21.411  1.00  0.00    -0.077 C 
ATOM      3  C   UNL     1     -55.134 -46.738  21.788  1.00  0.00    -0.027 C 
ATOM      4  C   UNL     1     -53.905 -46.193  22.473  1.00  0.00     0.035 C 
ATOM      5  C   UNL     1     -53.093 -47.297  23.175  1.00  0.00     0.018 C 
ATOM      6  C   UNL     1     -52.885 -48.480  22.216  1.00  0.00     0.013 C 
ATOM      7  C   UNL     1     -54.237 -49.078  21.812  1.00  0.00     0.031 C 
ENDROOT
BRANCH   5   8
ATOM      8  C   UNL     1     -51.771 -46.764  23.711  1.00  0.00    -0.077 C 
ATOM      9  C   UNL     1     -51.461 -46.845  25.016  1.00  0.00     0.008 C 
ATOM     10  C   UNL     1     -50.778 -46.125  22.774  1.00  0.00     0.039 C 
ENDBRANCH   5   8
TORSDOF 1
ENDMDL
MODEL 8
REMARK VINA RESULT:    -4.558     11.992     14.835
REMARK INTER + INTRA:          -4.949
REMARK INTER:                  -4.825
REMARK INTRA:                  -0.124
REMARK UNBOUND:                -0.124
REMARK SMILES C=C(C)[C@H]1CC=C(C)CC1
REMARK SMILES IDX 8 1 7 2 6 3 5 4 4 5 10 6 9 7 2 8 1 9 3 10
REMARK H PARENT
REMARK Flexibility Score: inf
ROOT
ATOM      1  C   UNL     1     -37.926 -46.528  29.249  1.00  0.00     0.039 C 
ATOM      2  C   UNL     1     -39.115 -47.156  28.575  1.00  0.00    -0.077 C 
ATOM      3  C   UNL     1     -39.188 -48.502  28.493  1.00  0.00    -0.027 C 
ATOM      4  C   UNL     1     -40.311 -49.223  27.790  1.00  0.00     0.035 C 
ATOM      5  C   UNL     1     -41.582 -48.360  27.686  1.00  0.00     0.018 C 
ATOM      6  C   UNL     1     -41.220 -46.962  27.159  1.00  0.00     0.013 C 
ATOM      7  C   UNL     1     -40.257 -46.264  28.127  1.00  0.00     0.031 C 
ENDROOT
BRANCH   5   8
ATOM      8  C   UNL     1     -42.645 -49.030  26.826  1.00  0.00    -0.077 C 
ATOM      9  C   UNL     1     -42.704 -48.825  25.500  1.00  0.00     0.008 C 
ATOM     10  C   UNL     1     -43.665 -49.941  27.460  1.00  0.00     0.039 C 
ENDBRANCH   5   8
TORSDOF 1
ENDMDL
MODEL 9
REMARK VINA RESULT:    -4.497     11.761     14.246
REMARK INTER + INTRA:          -4.885
REMARK INTER:                  -4.755
REMARK INTRA:                  -0.130
REMARK UNBOUND:                -0.124
REMARK SMILES C=C(C)[C@H]1CC=C(C)CC1
REMARK SMILES IDX 8 1 7 2 6 3 5 4 4 5 10 6 9 7 2 8 1 9 3 10
REMARK H PARENT
REMARK Flexibility Score: inf
ROOT
ATOM      1  C   UNL     1     -43.326 -47.288  24.717  1.00  0.00     0.039 C 
ATOM      2  C   UNL     1     -42.336 -47.291  25.849  1.00  0.00    -0.077 C 
ATOM      3  C   UNL     1     -41.870 -48.471  26.310  1.00  0.00    -0.027 C 
ATOM      4  C   UNL     1     -40.918 -48.582  27.475  1.00  0.00     0.035 C 
ATOM      5  C   UNL     1     -40.126 -47.281  27.704  1.00  0.00     0.018 C 
ATOM      6  C   UNL     1     -41.086 -46.081  27.705  1.00  0.00     0.013 C 
ATOM      7  C   UNL     1     -41.793 -45.966  26.349  1.00  0.00     0.031 C 
ENDROOT
BRANCH   5   8
ATOM      8  C   UNL     1     -39.301 -47.346  28.982  1.00  0.00    -0.077 C 
ATOM      9  C   UNL     1     -39.419 -48.373  29.840  1.00  0.00     0.008 C 
ATOM     10  C   UNL     1     -38.329 -46.242  29.311  1.00  0.00     0.039 C 
ENDBRANCH   5   8
TORSDOF 1
ENDMDL
