MODEL 1
REMARK VINA RESULT:    -3.075      0.000      0.000
REMARK INTER + INTRA:          -3.917
REMARK INTER:                  -3.704
REMARK INTRA:                  -0.213
REMARK UNBOUND:                -0.213
REMARK SMILES OCC(O)CO
REMARK SMILES IDX 3 1 5 2 6 3 2 5 1 6 4 8
REMARK H PARENT 6 4 1 7 4 9
REMARK Flexibility Score: inf
ROOT
ATOM      1  C   UNL     1       7.297  19.169  19.978  1.00  0.00     0.165 C 
ENDROOT
BRANCH   1   2
ATOM      2  C   UNL     1       7.909  17.913  19.337  1.00  0.00     0.190 C 
BRANCH   2   3
ATOM      3  O   UNL     1       6.917  17.088  18.788  1.00  0.00    -0.394 OA
ATOM      4  H   UNL     1       7.259  16.157  18.842  1.00  0.00     0.210 HD
ENDBRANCH   2   3
ENDBRANCH   1   2
BRANCH   1   5
ATOM      5  C   UNL     1       6.775  18.889  21.396  1.00  0.00     0.190 C 
BRANCH   5   6
ATOM      6  O   UNL     1       6.239  17.597  21.472  1.00  0.00    -0.394 OA
ATOM      7  H   UNL     1       5.503  17.565  20.806  1.00  0.00     0.210 HD
ENDBRANCH   5   6
ENDBRANCH   1   5
BRANCH   1   8
ATOM      8  O   UNL     1       6.237  19.610  19.170  1.00  0.00    -0.388 OA
ATOM      9  H   UNL     1       5.467  19.782  19.772  1.00  0.00     0.211 HD
ENDBRANCH   1   8
TORSDOF 5
ENDMDL
MODEL 2
REMARK VINA RESULT:    -3.015     13.568     14.784
REMARK INTER + INTRA:          -3.844
REMARK INTER:                  -3.620
REMARK INTRA:                  -0.224
REMARK UNBOUND:                -0.213
REMARK SMILES OCC(O)CO
REMARK SMILES IDX 3 1 5 2 6 3 2 5 1 6 4 8
REMARK H PARENT 6 4 1 7 4 9
REMARK Flexibility Score: inf
ROOT
ATOM      1  C   UNL     1       5.998   7.250  10.444  1.00  0.00     0.165 C 
ENDROOT
BRANCH   1   2
ATOM      2  C   UNL     1       5.381   7.599  11.808  1.00  0.00     0.190 C 
BRANCH   2   3
ATOM      3  O   UNL     1       6.216   7.200  12.860  1.00  0.00    -0.394 OA
ATOM      4  H   UNL     1       6.595   8.029  13.252  1.00  0.00     0.210 HD
ENDBRANCH   2   3
ENDBRANCH   1   2
BRANCH   1   5
ATOM      5  C   UNL     1       6.252   5.741  10.301  1.00  0.00     0.190 C 
BRANCH   5   6
ATOM      6  O   UNL     1       7.466   5.393  10.905  1.00  0.00    -0.394 OA
ATOM      7  H   UNL     1       7.687   4.483  10.574  1.00  0.00     0.210 HD
ENDBRANCH   5   6
ENDBRANCH   1   5
BRANCH   1   8
ATOM      8  O   UNL     1       7.214   7.941  10.315  1.00  0.00    -0.388 OA
ATOM      9  H   UNL     1       7.939   7.286  10.491  1.00  0.00     0.211 HD
ENDBRANCH   1   8
TORSDOF 5
ENDMDL
MODEL 3
REMARK VINA RESULT:    -3.014      1.281      2.560
REMARK INTER + INTRA:          -3.843
REMARK INTER:                  -3.840
REMARK INTRA:                  -0.002
REMARK UNBOUND:                -0.213
REMARK SMILES OCC(O)CO
REMARK SMILES IDX 3 1 5 2 6 3 2 5 1 6 4 8
REMARK H PARENT 6 4 1 7 4 9
REMARK Flexibility Score: inf
ROOT
ATOM      1  C   UNL     1       7.137  18.916  20.044  1.00  0.00     0.165 C 
ENDROOT
BRANCH   1   2
ATOM      2  C   UNL     1       8.184  19.889  20.610  1.00  0.00     0.190 C 
BRANCH   2   3
ATOM      3  O   UNL     1       8.137  21.125  19.950  1.00  0.00    -0.394 OA
ATOM      4  H   UNL     1       7.919  20.933  19.001  1.00  0.00     0.210 HD
ENDBRANCH   2   3
ENDBRANCH   1   2
BRANCH   1   5
ATOM      5  C   UNL     1       7.791  17.761  19.268  1.00  0.00     0.190 C 
BRANCH   5   6
ATOM      6  O   UNL     1       6.823  16.828  18.877  1.00  0.00    -0.394 OA
ATOM      7  H   UNL     1       6.975  16.022  19.435  1.00  0.00     0.210 HD
ENDBRANCH   5   6
ENDBRANCH   1   5
BRANCH   1   8
ATOM      8  O   UNL     1       6.284  19.629  19.186  1.00  0.00    -0.388 OA
ATOM      9  H   UNL     1       6.205  20.547  19.555  1.00  0.00     0.211 HD
ENDBRANCH   1   8
TORSDOF 5
ENDMDL
MODEL 4
REMARK VINA RESULT:    -2.982      0.659      2.535
REMARK INTER + INTRA:          -3.805
REMARK INTER:                  -3.582
REMARK INTRA:                  -0.222
REMARK UNBOUND:                -0.213
REMARK SMILES OCC(O)CO
REMARK SMILES IDX 3 1 5 2 6 3 2 5 1 6 4 8
REMARK H PARENT 6 4 1 7 4 9
REMARK Flexibility Score: inf
ROOT
ATOM      1  C   UNL     1       7.421  18.092  20.571  1.00  0.00     0.165 C 
ENDROOT
BRANCH   1   2
ATOM      2  C   UNL     1       6.982  19.542  20.308  1.00  0.00     0.190 C 
BRANCH   2   3
ATOM      3  O   UNL     1       6.230  19.639  19.129  1.00  0.00    -0.394 OA
ATOM      4  H   UNL     1       6.579  18.944  18.511  1.00  0.00     0.210 HD
ENDBRANCH   2   3
ENDBRANCH   1   2
BRANCH   1   5
ATOM      5  C   UNL     1       7.846  17.381  19.277  1.00  0.00     0.190 C 
BRANCH   5   6
ATOM      6  O   UNL     1       6.748  16.739  18.690  1.00  0.00    -0.394 OA
ATOM      7  H   UNL     1       6.277  17.431  18.157  1.00  0.00     0.210 HD
ENDBRANCH   5   6
ENDBRANCH   1   5
BRANCH   1   8
ATOM      8  O   UNL     1       6.347  17.399  21.152  1.00  0.00    -0.388 OA
ATOM      9  H   UNL     1       6.159  16.617  20.570  1.00  0.00     0.211 HD
ENDBRANCH   1   8
TORSDOF 5
ENDMDL
MODEL 5
REMARK VINA RESULT:    -2.938     13.746     14.650
REMARK INTER + INTRA:          -3.751
REMARK INTER:                  -3.533
REMARK INTRA:                  -0.219
REMARK UNBOUND:                -0.213
REMARK SMILES OCC(O)CO
REMARK SMILES IDX 3 1 5 2 6 3 2 5 1 6 4 8
REMARK H PARENT 6 4 1 7 4 9
REMARK Flexibility Score: inf
ROOT
ATOM      1  C   UNL     1       5.765   7.180  11.171  1.00  0.00     0.165 C 
ENDROOT
BRANCH   1   2
ATOM      2  C   UNL     1       6.221   5.915  10.426  1.00  0.00     0.190 C 
BRANCH   2   3
ATOM      3  O   UNL     1       7.421   5.419  10.955  1.00  0.00    -0.394 OA
ATOM      4  H   UNL     1       7.208   4.542  11.369  1.00  0.00     0.210 HD
ENDBRANCH   2   3
ENDBRANCH   1   2
BRANCH   1   5
ATOM      5  C   UNL     1       6.313   8.457  10.516  1.00  0.00     0.190 C 
BRANCH   5   6
ATOM      6  O   UNL     1       7.697   8.353  10.328  1.00  0.00    -0.394 OA
ATOM      7  H   UNL     1       7.838   7.555   9.754  1.00  0.00     0.210 HD
ENDBRANCH   5   6
ENDBRANCH   1   5
BRANCH   1   8
ATOM      8  O   UNL     1       6.220   7.105  12.498  1.00  0.00    -0.388 OA
ATOM      9  H   UNL     1       5.977   7.962  12.935  1.00  0.00     0.211 HD
ENDBRANCH   1   8
TORSDOF 5
ENDMDL
MODEL 6
REMARK VINA RESULT:    -2.900     12.327     13.367
REMARK INTER + INTRA:          -3.706
REMARK INTER:                  -3.485
REMARK INTRA:                  -0.221
REMARK UNBOUND:                -0.213
REMARK SMILES OCC(O)CO
REMARK SMILES IDX 3 1 5 2 6 3 2 5 1 6 4 8
REMARK H PARENT 6 4 1 7 4 9
REMARK Flexibility Score: inf
ROOT
ATOM      1  C   UNL     1       7.191   9.793  10.869  1.00  0.00     0.165 C 
ENDROOT
BRANCH   1   2
ATOM      2  C   UNL     1       6.579   8.624  10.079  1.00  0.00     0.190 C 
BRANCH   2   3
ATOM      3  O   UNL     1       7.027   7.390  10.569  1.00  0.00    -0.394 OA
ATOM      4  H   UNL     1       7.916   7.226  10.159  1.00  0.00     0.210 HD
ENDBRANCH   2   3
ENDBRANCH   1   2
BRANCH   1   5
ATOM      5  C   UNL     1       8.588  10.163  10.348  1.00  0.00     0.190 C 
BRANCH   5   6
ATOM      6  O   UNL     1       9.366   9.010  10.179  1.00  0.00    -0.394 OA
ATOM      7  H   UNL     1       8.859   8.271  10.604  1.00  0.00     0.210 HD
ENDBRANCH   5   6
ENDBRANCH   1   5
BRANCH   1   8
ATOM      8  O   UNL     1       7.280   9.419  12.220  1.00  0.00    -0.388 OA
ATOM      9  H   UNL     1       8.243   9.440  12.462  1.00  0.00     0.211 HD
ENDBRANCH   1   8
TORSDOF 5
ENDMDL
MODEL 7
REMARK VINA RESULT:    -2.892      1.373      1.914
REMARK INTER + INTRA:          -3.696
REMARK INTER:                  -3.502
REMARK INTRA:                  -0.195
REMARK UNBOUND:                -0.213
REMARK SMILES OCC(O)CO
REMARK SMILES IDX 3 1 5 2 6 3 2 5 1 6 4 8
REMARK H PARENT 6 4 1 7 4 9
REMARK Flexibility Score: inf
ROOT
ATOM      1  C   UNL     1       8.067  18.504  20.242  1.00  0.00     0.165 C 
ENDROOT
BRANCH   1   2
ATOM      2  C   UNL     1       7.413  17.122  20.078  1.00  0.00     0.190 C 
BRANCH   2   3
ATOM      3  O   UNL     1       6.853  16.973  18.802  1.00  0.00    -0.394 OA
ATOM      4  H   UNL     1       6.363  17.814  18.606  1.00  0.00     0.210 HD
ENDBRANCH   2   3
ENDBRANCH   1   2
BRANCH   1   5
ATOM      5  C   UNL     1       7.020  19.628  20.297  1.00  0.00     0.190 C 
BRANCH   5   6
ATOM      6  O   UNL     1       6.242  19.626  19.132  1.00  0.00    -0.394 OA
ATOM      7  H   UNL     1       6.285  20.549  18.770  1.00  0.00     0.210 HD
ENDBRANCH   5   6
ENDBRANCH   1   5
BRANCH   1   8
ATOM      8  O   UNL     1       8.927  18.721  19.154  1.00  0.00    -0.388 OA
ATOM      9  H   UNL     1       9.387  17.860  18.973  1.00  0.00     0.211 HD
ENDBRANCH   1   8
TORSDOF 5
ENDMDL
MODEL 8
REMARK VINA RESULT:    -2.854      1.435      2.786
REMARK INTER + INTRA:          -3.651
REMARK INTER:                  -3.487
REMARK INTRA:                  -0.163
REMARK UNBOUND:                -0.213
REMARK SMILES OCC(O)CO
REMARK SMILES IDX 3 1 5 2 6 3 2 5 1 6 4 8
REMARK H PARENT 6 4 1 7 4 9
REMARK Flexibility Score: inf
ROOT
ATOM      1  C   UNL     1       7.614  17.822  19.889  1.00  0.00     0.165 C 
ENDROOT
BRANCH   1   2
ATOM      2  C   UNL     1       6.971  19.163  20.279  1.00  0.00     0.190 C 
BRANCH   2   3
ATOM      3  O   UNL     1       6.276  19.726  19.199  1.00  0.00    -0.394 OA
ATOM      4  H   UNL     1       6.953  20.182  18.633  1.00  0.00     0.210 HD
ENDBRANCH   2   3
ENDBRANCH   1   2
BRANCH   1   5
ATOM      5  C   UNL     1       9.013  18.015  19.284  1.00  0.00     0.190 C 
BRANCH   5   6
ATOM      6  O   UNL     1       9.445  19.335  19.468  1.00  0.00    -0.394 OA
ATOM      7  H   UNL     1       9.721  19.405  20.418  1.00  0.00     0.210 HD
ENDBRANCH   5   6
ENDBRANCH   1   5
BRANCH   1   8
ATOM      8  O   UNL     1       6.785  17.186  18.950  1.00  0.00    -0.388 OA
ATOM      9  H   UNL     1       5.861  17.510  19.115  1.00  0.00     0.211 HD
ENDBRANCH   1   8
TORSDOF 5
ENDMDL
MODEL 9
REMARK VINA RESULT:    -2.810     11.956     13.187
REMARK INTER + INTRA:          -3.597
REMARK INTER:                  -3.388
REMARK INTRA:                  -0.209
REMARK UNBOUND:                -0.213
REMARK SMILES OCC(O)CO
REMARK SMILES IDX 3 1 5 2 6 3 2 5 1 6 4 8
REMARK H PARENT 6 4 1 7 4 9
REMARK Flexibility Score: inf
ROOT
ATOM      1  C   UNL     1       6.886   9.049  10.286  1.00  0.00     0.165 C 
ENDROOT
BRANCH   1   2
ATOM      2  C   UNL     1       8.201   9.775   9.960  1.00  0.00     0.190 C 
BRANCH   2   3
ATOM      3  O   UNL     1       9.312   8.981  10.278  1.00  0.00    -0.394 OA
ATOM      4  H   UNL     1      10.038   9.245   9.656  1.00  0.00     0.210 HD
ENDBRANCH   2   3
ENDBRANCH   1   2
BRANCH   1   5
ATOM      5  C   UNL     1       6.335   9.456  11.661  1.00  0.00     0.190 C 
BRANCH   5   6
ATOM      6  O   UNL     1       7.384   9.805  12.522  1.00  0.00    -0.394 OA
ATOM      7  H   UNL     1       7.563  10.768  12.361  1.00  0.00     0.210 HD
ENDBRANCH   5   6
ENDBRANCH   1   5
BRANCH   1   8
ATOM      8  O   UNL     1       7.124   7.665  10.269  1.00  0.00    -0.388 OA
ATOM      9  H   UNL     1       8.082   7.535  10.496  1.00  0.00     0.211 HD
ENDBRANCH   1   8
TORSDOF 5
ENDMDL
