MODEL 1
REMARK VINA RESULT:    -3.769      0.000      0.000
REMARK INTER + INTRA:          -6.187
REMARK INTER:                  -5.752
REMARK INTRA:                  -0.435
REMARK UNBOUND:                -0.435
REMARK SMILES O=C([O-])CCCCCCCCC(=O)[O-]
REMARK SMILES IDX 7 1 6 2 5 3 4 4 2 5 1 6 3 7 8 8 9 9 10 10 11 11 12 12 13 13
REMARK SMILES IDX 14 14
REMARK H PARENT
REMARK Flexibility Score: inf
ROOT
ATOM      1  C   UNL     1      20.892   4.580  24.769  1.00  0.00     0.000 C 
ENDROOT
BRANCH   1   2
ATOM      2  C   UNL     1      21.606   3.589  23.838  1.00  0.00     0.000 C 
BRANCH   2   3
ATOM      3  C   UNL     1      22.815   2.915  24.507  1.00  0.00     0.006 C 
BRANCH   3   4
ATOM      4  C   UNL     1      22.839   3.120  26.027  1.00  0.00     0.053 C 
BRANCH   4   5
ATOM      5  C   UNL     1      24.067   3.872  26.433  1.00  0.00     0.041 C 
ATOM      6  O   UNL     1      25.209   3.405  26.182  1.00  0.00    -0.550 OA
ATOM      7  O   UNL     1      23.951   5.114  27.044  1.00  0.00    -0.550 OA
ENDBRANCH   4   5
ENDBRANCH   3   4
ENDBRANCH   2   3
ENDBRANCH   1   2
BRANCH   1   8
ATOM      8  C   UNL     1      19.369   4.418  24.678  1.00  0.00     0.000 C 
BRANCH   8   9
ATOM      9  C   UNL     1      18.715   5.675  24.093  1.00  0.00     0.000 C 
BRANCH   9  10
ATOM     10  C   UNL     1      19.756   6.783  23.871  1.00  0.00     0.006 C 
BRANCH  10  11
ATOM     11  C   UNL     1      19.105   8.132  23.538  1.00  0.00     0.053 C 
BRANCH  11  12
ATOM     12  C   UNL     1      20.097   9.101  22.970  1.00  0.00     0.041 C 
ATOM     13  O   UNL     1      21.082   9.478  23.657  1.00  0.00    -0.550 OA
ATOM     14  O   UNL     1      19.913   9.614  21.692  1.00  0.00    -0.550 OA
ENDBRANCH  11  12
ENDBRANCH  10  11
ENDBRANCH   9  10
ENDBRANCH   8   9
ENDBRANCH   1   8
TORSDOF 9
ENDMDL
MODEL 2
REMARK VINA RESULT:    -3.756      1.383      2.233
REMARK INTER + INTRA:          -6.167
REMARK INTER:                  -5.438
REMARK INTRA:                  -0.728
REMARK UNBOUND:                -0.435
REMARK SMILES O=C([O-])CCCCCCCCC(=O)[O-]
REMARK SMILES IDX 7 1 6 2 5 3 4 4 2 5 1 6 3 7 8 8 9 9 10 10 11 11 12 12 13 13
REMARK SMILES IDX 14 14
REMARK H PARENT
REMARK Flexibility Score: inf
ROOT
ATOM      1  C   UNL     1      21.546   1.926  23.957  1.00  0.00     0.000 C 
ENDROOT
BRANCH   1   2
ATOM      2  C   UNL     1      20.916   1.628  25.327  1.00  0.00     0.000 C 
BRANCH   2   3
ATOM      3  C   UNL     1      21.955   1.585  26.459  1.00  0.00     0.006 C 
BRANCH   3   4
ATOM      4  C   UNL     1      21.980   2.876  27.288  1.00  0.00     0.053 C 
BRANCH   4   5
ATOM      5  C   UNL     1      23.292   3.575  27.126  1.00  0.00     0.041 C 
ATOM      6  O   UNL     1      23.718   4.341  28.031  1.00  0.00    -0.550 OA
ATOM      7  O   UNL     1      24.068   3.345  25.998  1.00  0.00    -0.550 OA
ENDBRANCH   4   5
ENDBRANCH   3   4
ENDBRANCH   2   3
ENDBRANCH   1   2
BRANCH   1   8
ATOM      8  C   UNL     1      21.438   3.418  23.617  1.00  0.00     0.000 C 
BRANCH   8   9
ATOM      9  C   UNL     1      20.198   4.043  24.268  1.00  0.00     0.000 C 
BRANCH   9  10
ATOM     10  C   UNL     1      20.442   5.522  24.608  1.00  0.00     0.006 C 
BRANCH  10  11
ATOM     11  C   UNL     1      19.466   6.454  23.879  1.00  0.00     0.053 C 
BRANCH  11  12
ATOM     12  C   UNL     1      20.006   7.847  23.769  1.00  0.00     0.041 C 
ATOM     13  O   UNL     1      19.765   8.542  22.747  1.00  0.00    -0.550 OA
ATOM     14  O   UNL     1      20.805   8.364  24.780  1.00  0.00    -0.550 OA
ENDBRANCH  11  12
ENDBRANCH  10  11
ENDBRANCH   9  10
ENDBRANCH   8   9
ENDBRANCH   1   8
TORSDOF 9
ENDMDL
MODEL 3
REMARK VINA RESULT:    -3.755      2.523      6.737
REMARK INTER + INTRA:          -6.166
REMARK INTER:                  -5.638
REMARK INTRA:                  -0.528
REMARK UNBOUND:                -0.435
REMARK SMILES O=C([O-])CCCCCCCCC(=O)[O-]
REMARK SMILES IDX 7 1 6 2 5 3 4 4 2 5 1 6 3 7 8 8 9 9 10 10 11 11 12 12 13 13
REMARK SMILES IDX 14 14
REMARK H PARENT
REMARK Flexibility Score: inf
ROOT
ATOM      1  C   UNL     1      19.253   4.967  24.370  1.00  0.00     0.000 C 
ENDROOT
BRANCH   1   2
ATOM      2  C   UNL     1      18.888   6.414  24.005  1.00  0.00     0.000 C 
BRANCH   2   3
ATOM      3  C   UNL     1      20.124   7.310  23.829  1.00  0.00     0.006 C 
BRANCH   3   4
ATOM      4  C   UNL     1      19.806   8.799  24.014  1.00  0.00     0.053 C 
BRANCH   4   5
ATOM      5  C   UNL     1      19.318   9.392  22.731  1.00  0.00     0.041 C 
ATOM      6  O   UNL     1      18.164   9.891  22.661  1.00  0.00    -0.550 OA
ATOM      7  O   UNL     1      20.155   9.438  21.624  1.00  0.00    -0.550 OA
ENDBRANCH   4   5
ENDBRANCH   3   4
ENDBRANCH   2   3
ENDBRANCH   1   2
BRANCH   1   8
ATOM      8  C   UNL     1      20.774   4.792  24.462  1.00  0.00     0.000 C 
BRANCH   8   9
ATOM      9  C   UNL     1      21.244   3.602  23.618  1.00  0.00     0.000 C 
BRANCH   9  10
ATOM     10  C   UNL     1      21.886   2.521  24.501  1.00  0.00     0.006 C 
BRANCH  10  11
ATOM     11  C   UNL     1      20.947   1.332  24.739  1.00  0.00     0.053 C 
BRANCH  11  12
ATOM     12  C   UNL     1      20.115   1.520  25.971  1.00  0.00     0.041 C 
ATOM     13  O   UNL     1      20.651   1.491  27.109  1.00  0.00    -0.550 OA
ATOM     14  O   UNL     1      18.741   1.693  25.861  1.00  0.00    -0.550 OA
ENDBRANCH  11  12
ENDBRANCH  10  11
ENDBRANCH   9  10
ENDBRANCH   8   9
ENDBRANCH   1   8
TORSDOF 9
ENDMDL
MODEL 4
REMARK VINA RESULT:    -3.720      1.839      6.616
REMARK INTER + INTRA:          -6.112
REMARK INTER:                  -5.574
REMARK INTRA:                  -0.538
REMARK UNBOUND:                -0.435
REMARK SMILES O=C([O-])CCCCCCCCC(=O)[O-]
REMARK SMILES IDX 7 1 6 2 5 3 4 4 2 5 1 6 3 7 8 8 9 9 10 10 11 11 12 12 13 13
REMARK SMILES IDX 14 14
REMARK H PARENT
REMARK Flexibility Score: inf
ROOT
ATOM      1  C   UNL     1      17.925   6.394  23.695  1.00  0.00     0.000 C 
ENDROOT
BRANCH   1   2
ATOM      2  C   UNL     1      17.045   7.637  23.898  1.00  0.00     0.000 C 
BRANCH   2   3
ATOM      3  C   UNL     1      17.867   8.907  24.169  1.00  0.00     0.006 C 
BRANCH   3   4
ATOM      4  C   UNL     1      18.249   9.649  22.882  1.00  0.00     0.053 C 
BRANCH   4   5
ATOM      5  C   UNL     1      19.698   9.445  22.572  1.00  0.00     0.041 C 
ATOM      6  O   UNL     1      20.108   9.517  21.384  1.00  0.00    -0.550 OA
ATOM      7  O   UNL     1      20.604   9.223  23.601  1.00  0.00    -0.550 OA
ENDBRANCH   4   5
ENDBRANCH   3   4
ENDBRANCH   2   3
ENDBRANCH   1   2
BRANCH   1   8
ATOM      8  C   UNL     1      18.969   6.273  24.813  1.00  0.00     0.000 C 
BRANCH   8   9
ATOM      9  C   UNL     1      20.249   5.603  24.301  1.00  0.00     0.000 C 
BRANCH   9  10
ATOM     10  C   UNL     1      20.124   4.072  24.347  1.00  0.00     0.006 C 
BRANCH  10  11
ATOM     11  C   UNL     1      21.302   3.373  23.656  1.00  0.00     0.053 C 
BRANCH  11  12
ATOM     12  C   UNL     1      21.868   2.274  24.503  1.00  0.00     0.041 C 
ATOM     13  O   UNL     1      21.543   1.076  24.289  1.00  0.00    -0.550 OA
ATOM     14  O   UNL     1      22.729   2.577  25.550  1.00  0.00    -0.550 OA
ENDBRANCH  11  12
ENDBRANCH  10  11
ENDBRANCH   9  10
ENDBRANCH   8   9
ENDBRANCH   1   8
TORSDOF 9
ENDMDL
MODEL 5
REMARK VINA RESULT:    -3.719      1.815      5.765
REMARK INTER + INTRA:          -6.110
REMARK INTER:                  -5.393
REMARK INTRA:                  -0.717
REMARK UNBOUND:                -0.435
REMARK SMILES O=C([O-])CCCCCCCCC(=O)[O-]
REMARK SMILES IDX 7 1 6 2 5 3 4 4 2 5 1 6 3 7 8 8 9 9 10 10 11 11 12 12 13 13
REMARK SMILES IDX 14 14
REMARK H PARENT
REMARK Flexibility Score: inf
ROOT
ATOM      1  C   UNL     1      21.854   2.149  24.320  1.00  0.00     0.000 C 
ENDROOT
BRANCH   1   2
ATOM      2  C   UNL     1      21.290   3.373  23.583  1.00  0.00     0.000 C 
BRANCH   2   3
ATOM      3  C   UNL     1      20.814   4.475  24.542  1.00  0.00     0.006 C 
BRANCH   3   4
ATOM      4  C   UNL     1      19.322   4.792  24.384  1.00  0.00     0.053 C 
BRANCH   4   5
ATOM      5  C   UNL     1      19.133   6.211  23.952  1.00  0.00     0.041 C 
ATOM      6  O   UNL     1      20.119   6.894  23.567  1.00  0.00    -0.550 OA
ATOM      7  O   UNL     1      17.860   6.767  23.926  1.00  0.00    -0.550 OA
ENDBRANCH   4   5
ENDBRANCH   3   4
ENDBRANCH   2   3
ENDBRANCH   1   2
BRANCH   1   8
ATOM      8  C   UNL     1      20.764   1.460  25.151  1.00  0.00     0.000 C 
BRANCH   8   9
ATOM      9  C   UNL     1      20.894   1.816  26.636  1.00  0.00     0.000 C 
BRANCH   9  10
ATOM     10  C   UNL     1      22.369   1.981  27.034  1.00  0.00     0.006 C 
BRANCH  10  11
ATOM     11  C   UNL     1      22.650   3.350  27.668  1.00  0.00     0.053 C 
BRANCH  11  12
ATOM     12  C   UNL     1      23.771   4.063  26.974  1.00  0.00     0.041 C 
ATOM     13  O   UNL     1      23.879   5.314  27.064  1.00  0.00    -0.550 OA
ATOM     14  O   UNL     1      24.675   3.348  26.199  1.00  0.00    -0.550 OA
ENDBRANCH  11  12
ENDBRANCH  10  11
ENDBRANCH   9  10
ENDBRANCH   8   9
ENDBRANCH   1   8
TORSDOF 9
ENDMDL
MODEL 6
REMARK VINA RESULT:    -3.712      1.972      3.394
REMARK INTER + INTRA:          -6.099
REMARK INTER:                  -5.162
REMARK INTRA:                  -0.937
REMARK UNBOUND:                -0.435
REMARK SMILES O=C([O-])CCCCCCCCC(=O)[O-]
REMARK SMILES IDX 7 1 6 2 5 3 4 4 2 5 1 6 3 7 8 8 9 9 10 10 11 11 12 12 13 13
REMARK SMILES IDX 14 14
REMARK H PARENT
REMARK Flexibility Score: inf
ROOT
ATOM      1  C   UNL     1      21.308   1.483  26.443  1.00  0.00     0.000 C 
ENDROOT
BRANCH   1   2
ATOM      2  C   UNL     1      20.857   2.524  27.478  1.00  0.00     0.000 C 
BRANCH   2   3
ATOM      3  C   UNL     1      21.923   3.601  27.738  1.00  0.00     0.006 C 
BRANCH   3   4
ATOM      4  C   UNL     1      23.351   3.044  27.680  1.00  0.00     0.053 C 
BRANCH   4   5
ATOM      5  C   UNL     1      24.260   4.011  26.988  1.00  0.00     0.041 C 
ATOM      6  O   UNL     1      24.010   5.245  27.014  1.00  0.00    -0.550 OA
ATOM      7  O   UNL     1      25.409   3.554  26.356  1.00  0.00    -0.550 OA
ENDBRANCH   4   5
ENDBRANCH   3   4
ENDBRANCH   2   3
ENDBRANCH   1   2
BRANCH   1   8
ATOM      8  C   UNL     1      20.616   1.716  25.094  1.00  0.00     0.000 C 
BRANCH   8   9
ATOM      9  C   UNL     1      21.610   2.232  24.047  1.00  0.00     0.000 C 
BRANCH   9  10
ATOM     10  C   UNL     1      21.645   3.768  24.032  1.00  0.00     0.006 C 
BRANCH  10  11
ATOM     11  C   UNL     1      20.239   4.381  24.076  1.00  0.00     0.053 C 
BRANCH  11  12
ATOM     12  C   UNL     1      20.276   5.827  24.464  1.00  0.00     0.041 C 
ATOM     13  O   UNL     1      19.767   6.699  23.712  1.00  0.00    -0.550 OA
ATOM     14  O   UNL     1      20.903   6.215  25.641  1.00  0.00    -0.550 OA
ENDBRANCH  11  12
ENDBRANCH  10  11
ENDBRANCH   9  10
ENDBRANCH   8   9
ENDBRANCH   1   8
TORSDOF 9
ENDMDL
MODEL 7
REMARK VINA RESULT:    -3.710      1.953      2.838
REMARK INTER + INTRA:          -6.096
REMARK INTER:                  -5.531
REMARK INTRA:                  -0.565
REMARK UNBOUND:                -0.435
REMARK SMILES O=C([O-])CCCCCCCCC(=O)[O-]
REMARK SMILES IDX 7 1 6 2 5 3 4 4 2 5 1 6 3 7 8 8 9 9 10 10 11 11 12 12 13 13
REMARK SMILES IDX 14 14
REMARK H PARENT
REMARK Flexibility Score: inf
ROOT
ATOM      1  C   UNL     1      18.625   6.103  24.022  1.00  0.00     0.000 C 
ENDROOT
BRANCH   1   2
ATOM      2  C   UNL     1      20.088   5.638  24.049  1.00  0.00     0.000 C 
BRANCH   2   3
ATOM      3  C   UNL     1      20.241   4.193  24.549  1.00  0.00     0.006 C 
BRANCH   3   4
ATOM      4  C   UNL     1      21.257   3.388  23.729  1.00  0.00     0.053 C 
BRANCH   4   5
ATOM      5  C   UNL     1      21.719   2.192  24.500  1.00  0.00     0.041 C 
ATOM      6  O   UNL     1      22.473   2.333  25.499  1.00  0.00    -0.550 OA
ATOM      7  O   UNL     1      21.278   0.923  24.145  1.00  0.00    -0.550 OA
ENDBRANCH   4   5
ENDBRANCH   3   4
ENDBRANCH   2   3
ENDBRANCH   1   2
BRANCH   1   8
ATOM      8  C   UNL     1      18.257   6.833  25.321  1.00  0.00     0.000 C 
BRANCH   8   9
ATOM      9  C   UNL     1      17.546   8.158  25.026  1.00  0.00     0.000 C 
BRANCH   9  10
ATOM     10  C   UNL     1      17.565   8.470  23.522  1.00  0.00     0.006 C 
BRANCH  10  11
ATOM     11  C   UNL     1      18.343   9.754  23.205  1.00  0.00     0.053 C 
BRANCH  11  12
ATOM     12  C   UNL     1      19.719   9.457  22.690  1.00  0.00     0.041 C 
ATOM     13  O   UNL     1      20.637   9.131  23.487  1.00  0.00    -0.550 OA
ATOM     14  O   UNL     1      19.993   9.574  21.334  1.00  0.00    -0.550 OA
ENDBRANCH  11  12
ENDBRANCH  10  11
ENDBRANCH   9  10
ENDBRANCH   8   9
ENDBRANCH   1   8
TORSDOF 9
ENDMDL
MODEL 8
REMARK VINA RESULT:    -3.693      2.580      2.871
REMARK INTER + INTRA:          -6.070
REMARK INTER:                  -5.543
REMARK INTRA:                  -0.527
REMARK UNBOUND:                -0.435
REMARK SMILES O=C([O-])CCCCCCCCC(=O)[O-]
REMARK SMILES IDX 7 1 6 2 5 3 4 4 2 5 1 6 3 7 8 8 9 9 10 10 11 11 12 12 13 13
REMARK SMILES IDX 14 14
REMARK H PARENT
REMARK Flexibility Score: inf
ROOT
ATOM      1  C   UNL     1      20.898   4.687  24.323  1.00  0.00     0.000 C 
ENDROOT
BRANCH   1   2
ATOM      2  C   UNL     1      21.325   3.425  23.559  1.00  0.00     0.000 C 
BRANCH   2   3
ATOM      3  C   UNL     1      21.811   2.304  24.492  1.00  0.00     0.006 C 
BRANCH   3   4
ATOM      4  C   UNL     1      20.765   1.197  24.681  1.00  0.00     0.053 C 
BRANCH   4   5
ATOM      5  C   UNL     1      19.847   1.534  25.812  1.00  0.00     0.041 C 
ATOM      6  O   UNL     1      18.629   1.219  25.756  1.00  0.00    -0.550 OA
ATOM      7  O   UNL     1      20.344   2.155  26.951  1.00  0.00    -0.550 OA
ENDBRANCH   4   5
ENDBRANCH   3   4
ENDBRANCH   2   3
ENDBRANCH   1   2
BRANCH   1   8
ATOM      8  C   UNL     1      19.375   4.868  24.275  1.00  0.00     0.000 C 
BRANCH   8   9
ATOM      9  C   UNL     1      19.004   6.289  23.833  1.00  0.00     0.000 C 
BRANCH   9  10
ATOM     10  C   UNL     1      20.182   7.254  24.038  1.00  0.00     0.006 C 
BRANCH  10  11
ATOM     11  C   UNL     1      19.716   8.697  24.268  1.00  0.00     0.053 C 
BRANCH  11  12
ATOM     12  C   UNL     1      19.465   9.413  22.976  1.00  0.00     0.041 C 
ATOM     13  O   UNL     1      20.356   9.447  22.086  1.00  0.00    -0.550 OA
ATOM     14  O   UNL     1      18.260  10.071  22.769  1.00  0.00    -0.550 OA
ENDBRANCH  11  12
ENDBRANCH  10  11
ENDBRANCH   9  10
ENDBRANCH   8   9
ENDBRANCH   1   8
TORSDOF 9
ENDMDL
MODEL 9
REMARK VINA RESULT:    -3.631      2.068      5.832
REMARK INTER + INTRA:          -5.976
REMARK INTER:                  -5.168
REMARK INTRA:                  -0.808
REMARK UNBOUND:                -0.435
REMARK SMILES O=C([O-])CCCCCCCCC(=O)[O-]
REMARK SMILES IDX 7 1 6 2 5 3 4 4 2 5 1 6 3 7 8 8 9 9 10 10 11 11 12 12 13 13
REMARK SMILES IDX 14 14
REMARK H PARENT
REMARK Flexibility Score: inf
ROOT
ATOM      1  C   UNL     1      18.997   2.741  25.484  1.00  0.00     0.000 C 
ENDROOT
BRANCH   1   2
ATOM      2  C   UNL     1      19.069   3.848  26.546  1.00  0.00     0.000 C 
BRANCH   2   3
ATOM      3  C   UNL     1      19.028   5.258  25.936  1.00  0.00     0.006 C 
BRANCH   3   4
ATOM      4  C   UNL     1      19.036   5.238  24.402  1.00  0.00     0.053 C 
BRANCH   4   5
ATOM      5  C   UNL     1      18.742   6.601  23.861  1.00  0.00     0.041 C 
ATOM      6  O   UNL     1      17.568   7.055  23.891  1.00  0.00    -0.550 OA
ATOM      7  O   UNL     1      19.772   7.390  23.367  1.00  0.00    -0.550 OA
ENDBRANCH   4   5
ENDBRANCH   3   4
ENDBRANCH   2   3
ENDBRANCH   1   2
BRANCH   1   8
ATOM      8  C   UNL     1      19.920   1.570  25.847  1.00  0.00     0.000 C 
BRANCH   8   9
ATOM      9  C   UNL     1      20.872   1.241  24.692  1.00  0.00     0.000 C 
BRANCH   9  10
ATOM     10  C   UNL     1      21.377   2.524  24.013  1.00  0.00     0.006 C 
BRANCH  10  11
ATOM     11  C   UNL     1      22.814   2.870  24.422  1.00  0.00     0.053 C 
BRANCH  11  12
ATOM     12  C   UNL     1      22.878   3.415  25.817  1.00  0.00     0.041 C 
ATOM     13  O   UNL     1      23.303   2.698  26.760  1.00  0.00    -0.550 OA
ATOM     14  O   UNL     1      22.436   4.706  26.078  1.00  0.00    -0.550 OA
ENDBRANCH  11  12
ENDBRANCH  10  11
ENDBRANCH   9  10
ENDBRANCH   8   9
ENDBRANCH   1   8
TORSDOF 9
ENDMDL
