MODEL 1
REMARK VINA RESULT:    -4.254      0.000      0.000
REMARK INTER + INTRA:          -5.544
REMARK INTER:                  -5.994
REMARK INTRA:                   0.450
REMARK UNBOUND:                 0.450
REMARK SMILES CC1=CCC(=C(C)C)C(=O)CC(C)=CCC1
REMARK SMILES IDX 12 1 14 2 13 3 15 4 16 5 2 6 1 7 3 8 11 10 9 11 10 12 5 13
REMARK SMILES IDX 6 14 7 15 8 16 4 17
REMARK H PARENT
REMARK Flexibility Score: 60.00
ROOT
ATOM      1  C   UNL     1       2.964  25.039  27.546  1.00  0.00    -0.070 C 
ATOM      2  C   UNL     1       2.448  23.887  28.037  1.00  0.00    -0.027 C 
ATOM      3  C   UNL     1       4.211  25.578  28.205  1.00  0.00     0.039 C 
ENDROOT
BRANCH   2   4
ATOM      4  C   UNL     1       1.161  23.228  27.603  1.00  0.00     0.032 C 
BRANCH   4   5
ATOM      5  C   UNL     1      -0.074  23.811  28.318  1.00  0.00     0.034 C 
BRANCH   5   6
ATOM      6  C   UNL     1      -1.147  24.248  27.340  1.00  0.00    -0.077 C 
ATOM      7  C   UNL     1      -1.959  23.184  26.646  1.00  0.00     0.039 C 
ATOM      8  C   UNL     1      -1.438  25.541  27.073  1.00  0.00    -0.023 CG0
ATOM      9  G   UNL     1      -0.764  26.742  27.692  1.00  0.00     0.000 G0
ENDBRANCH   5   6
ENDBRANCH   4   5
ENDBRANCH   2   4
BRANCH   1  10
ATOM     10  C   UNL     1       2.324  25.841  26.426  1.00  0.00     0.111 C 
BRANCH  10  11
ATOM     11  C   UNL     1       1.656  27.090  26.950  1.00  0.00     0.163 C 
ATOM     12  O   UNL     1       2.367  27.931  27.562  1.00  0.00    -0.294 OA
BRANCH  11  13
ATOM     13  C   UNL     1       0.204  27.368  26.716  1.00  0.00    -0.002 C 
ATOM     14  C   UNL     1      -0.218  28.186  25.704  1.00  0.00    -0.069 C 
ATOM     15  C   UNL     1      -1.688  28.430  25.451  1.00  0.00     0.039 C 
ATOM     16  C   UNL     1       0.764  28.913  24.812  1.00  0.00     0.039 C 
BRANCH  13  17
ATOM     17  C   UNL     1      -0.781  26.761  27.698  1.00  0.00     0.066 CG0
ATOM     18  G   UNL     1      -1.439  25.550  27.082  1.00  0.00     0.000 G0
ENDBRANCH  13  17
ENDBRANCH  11  13
ENDBRANCH  10  11
ENDBRANCH   1  10
TORSDOF 0
ENDMDL
MODEL 2
REMARK VINA RESULT:    -4.096      1.792      3.781
REMARK INTER + INTRA:          -5.322
REMARK INTER:                  -6.012
REMARK INTRA:                   0.690
REMARK UNBOUND:                 0.450
REMARK SMILES CC1=CCC(=C(C)C)C(=O)CC(C)=CCC1
REMARK SMILES IDX 12 1 14 2 13 3 15 4 16 5 2 6 1 7 3 8 11 10 9 11 10 12 5 13
REMARK SMILES IDX 6 14 7 15 8 16 4 17
REMARK H PARENT
REMARK Flexibility Score: 60.00
ROOT
ATOM      1  C   UNL     1      -0.844  24.157  27.471  1.00  0.00    -0.070 C 
ATOM      2  C   UNL     1       0.163  23.345  27.869  1.00  0.00    -0.027 C 
ATOM      3  C   UNL     1      -2.000  23.523  26.737  1.00  0.00     0.039 C 
ENDROOT
BRANCH   2   4
ATOM      4  C   UNL     1       1.455  23.777  28.520  1.00  0.00     0.032 C 
BRANCH   4   5
ATOM      5  C   UNL     1       2.593  23.984  27.503  1.00  0.00     0.034 C 
BRANCH   5   6
ATOM      6  C   UNL     1       3.090  25.416  27.485  1.00  0.00    -0.077 C 
ATOM      7  C   UNL     1       4.164  25.812  28.467  1.00  0.00     0.039 C 
ATOM      8  C   UNL     1       2.645  26.355  26.620  1.00  0.00    -0.023 CG0
ATOM      9  G   UNL     1       1.606  26.142  25.546  1.00  0.00     0.000 G0
ENDBRANCH   5   6
ENDBRANCH   4   5
ENDBRANCH   2   4
BRANCH   1  10
ATOM     10  C   UNL     1      -0.840  25.664  27.662  1.00  0.00     0.111 C 
BRANCH  10  11
ATOM     11  C   UNL     1      -0.843  26.392  26.340  1.00  0.00     0.163 C 
ATOM     12  O   UNL     1      -1.932  26.479  25.713  1.00  0.00    -0.294 OA
BRANCH  11  13
ATOM     13  C   UNL     1       0.388  27.045  25.794  1.00  0.00    -0.002 C 
ATOM     14  C   UNL     1       0.413  28.373  25.467  1.00  0.00    -0.069 C 
ATOM     15  C   UNL     1       1.672  29.034  24.952  1.00  0.00     0.039 C 
ATOM     16  C   UNL     1      -0.824  29.237  25.571  1.00  0.00     0.039 C 
BRANCH  13  17
ATOM     17  C   UNL     1       1.591  26.152  25.545  1.00  0.00     0.066 CG0
ATOM     18  G   UNL     1       2.622  26.371  26.626  1.00  0.00     0.000 G0
ENDBRANCH  13  17
ENDBRANCH  11  13
ENDBRANCH  10  11
ENDBRANCH   1  10
TORSDOF 0
ENDMDL
MODEL 3
REMARK VINA RESULT:    -4.010      1.947      3.771
REMARK INTER + INTRA:          -5.200
REMARK INTER:                  -5.753
REMARK INTRA:                   0.553
REMARK UNBOUND:                 0.450
REMARK SMILES CC1=CCC(=C(C)C)C(=O)CC(C)=CCC1
REMARK SMILES IDX 12 1 14 2 13 3 15 4 16 5 2 6 1 7 3 8 11 10 9 11 10 12 5 13
REMARK SMILES IDX 6 14 7 15 8 16 4 17
REMARK H PARENT
REMARK Flexibility Score: 60.00
ROOT
ATOM      1  C   UNL     1       1.549  23.927  27.930  1.00  0.00    -0.070 C 
ATOM      2  C   UNL     1       2.885  24.131  28.018  1.00  0.00    -0.027 C 
ATOM      3  C   UNL     1       1.082  22.562  27.486  1.00  0.00     0.039 C 
ENDROOT
BRANCH   2   4
ATOM      4  C   UNL     1       3.570  25.438  28.338  1.00  0.00     0.032 C 
BRANCH   4   5
ATOM      5  C   UNL     1       3.380  26.493  27.232  1.00  0.00     0.034 C 
BRANCH   5   6
ATOM      6  C   UNL     1       2.797  27.786  27.769  1.00  0.00    -0.077 C 
ATOM      7  C   UNL     1       3.514  28.479  28.900  1.00  0.00     0.039 C 
ATOM      8  C   UNL     1       1.683  28.370  27.274  1.00  0.00    -0.023 CG0
ATOM      9  G   UNL     1       0.851  27.850  26.126  1.00  0.00     0.000 G0
ENDBRANCH   5   6
ENDBRANCH   4   5
ENDBRANCH   2   4
BRANCH   1  10
ATOM     10  C   UNL     1       0.511  25.006  28.185  1.00  0.00     0.111 C 
BRANCH  10  11
ATOM     11  C   UNL     1      -0.055  25.548  26.895  1.00  0.00     0.163 C 
ATOM     12  O   UNL     1      -0.354  24.727  25.987  1.00  0.00    -0.294 OA
BRANCH  11  13
ATOM     13  C   UNL     1      -0.313  27.009  26.696  1.00  0.00    -0.002 C 
ATOM     14  C   UNL     1      -1.541  27.562  26.937  1.00  0.00    -0.069 C 
ATOM     15  C   UNL     1      -1.782  29.045  26.770  1.00  0.00     0.039 C 
ATOM     16  C   UNL     1      -2.724  26.714  27.347  1.00  0.00     0.039 C 
BRANCH  13  17
ATOM     17  C   UNL     1       0.829  27.841  26.141  1.00  0.00     0.066 CG0
ATOM     18  G   UNL     1       1.678  28.364  27.275  1.00  0.00     0.000 G0
ENDBRANCH  13  17
ENDBRANCH  11  13
ENDBRANCH  10  11
ENDBRANCH   1  10
TORSDOF 0
ENDMDL
MODEL 4
REMARK VINA RESULT:    -3.847      2.143      3.989
REMARK INTER + INTRA:          -4.971
REMARK INTER:                  -5.554
REMARK INTRA:                   0.583
REMARK UNBOUND:                 0.450
REMARK SMILES CC1=CCC(=C(C)C)C(=O)CC(C)=CCC1
REMARK SMILES IDX 12 1 14 2 13 3 15 4 16 5 2 6 1 7 3 8 11 10 9 11 10 12 5 13
REMARK SMILES IDX 6 14 7 15 8 16 4 17
REMARK H PARENT
REMARK Flexibility Score: 60.00
ROOT
ATOM      1  C   UNL     1      -0.813  23.948  29.387  1.00  0.00    -0.070 C 
ATOM      2  C   UNL     1       0.538  23.996  29.301  1.00  0.00    -0.027 C 
ATOM      3  C   UNL     1      -1.456  24.588  30.593  1.00  0.00     0.039 C 
ENDROOT
BRANCH   2   4
ATOM      4  C   UNL     1       1.390  23.335  28.244  1.00  0.00     0.032 C 
BRANCH   4   5
ATOM      5  C   UNL     1       1.971  24.343  27.235  1.00  0.00     0.034 C 
BRANCH   5   6
ATOM      6  C   UNL     1       1.669  25.779  27.621  1.00  0.00    -0.077 C 
ATOM      7  C   UNL     1       2.605  26.473  28.578  1.00  0.00     0.039 C 
ATOM      8  C   UNL     1       0.621  26.482  27.137  1.00  0.00    -0.023 CG0
ATOM      9  G   UNL     1      -0.400  25.975  26.148  1.00  0.00     0.000 G0
ENDBRANCH   5   6
ENDBRANCH   4   5
ENDBRANCH   2   4
BRANCH   1  10
ATOM     10  C   UNL     1      -1.699  23.235  28.380  1.00  0.00     0.111 C 
BRANCH  10  11
ATOM     11  C   UNL     1      -1.627  23.885  27.019  1.00  0.00     0.163 C 
ATOM     12  O   UNL     1      -1.638  23.139  26.004  1.00  0.00    -0.294 OA
BRANCH  11  13
ATOM     13  C   UNL     1      -1.597  25.372  26.853  1.00  0.00    -0.002 C 
ATOM     14  C   UNL     1      -2.632  26.164  27.269  1.00  0.00    -0.069 C 
ATOM     15  C   UNL     1      -2.576  27.669  27.133  1.00  0.00     0.039 C 
ATOM     16  C   UNL     1      -3.896  25.573  27.852  1.00  0.00     0.039 C 
BRANCH  13  17
ATOM     17  C   UNL     1      -0.397  25.962  26.134  1.00  0.00     0.066 CG0
ATOM     18  G   UNL     1       0.604  26.473  27.142  1.00  0.00     0.000 G0
ENDBRANCH  13  17
ENDBRANCH  11  13
ENDBRANCH  10  11
ENDBRANCH   1  10
TORSDOF 0
ENDMDL
MODEL 5
REMARK VINA RESULT:    -3.815      1.816      4.480
REMARK INTER + INTRA:          -4.926
REMARK INTER:                  -5.460
REMARK INTRA:                   0.534
REMARK UNBOUND:                 0.450
REMARK SMILES CC1=CCC(=C(C)C)C(=O)CC(C)=CCC1
REMARK SMILES IDX 12 1 14 2 13 3 15 4 16 5 2 6 1 7 3 8 11 10 9 11 10 12 5 13
REMARK SMILES IDX 6 14 7 15 8 16 4 17
REMARK H PARENT
REMARK Flexibility Score: 60.00
ROOT
ATOM      1  C   UNL     1      -1.858  24.039  27.755  1.00  0.00    -0.070 C 
ATOM      2  C   UNL     1      -2.855  24.909  27.469  1.00  0.00    -0.027 C 
ATOM      3  C   UNL     1      -2.214  22.816  28.564  1.00  0.00     0.039 C 
ENDROOT
BRANCH   2   4
ATOM      4  C   UNL     1      -2.708  26.239  26.769  1.00  0.00     0.032 C 
BRANCH   4   5
ATOM      5  C   UNL     1      -1.924  27.267  27.606  1.00  0.00     0.034 C 
BRANCH   5   6
ATOM      6  C   UNL     1      -0.787  27.895  26.824  1.00  0.00    -0.077 C 
ATOM      7  C   UNL     1      -1.107  28.567  25.512  1.00  0.00     0.039 C 
ATOM      8  C   UNL     1       0.497  27.910  27.247  1.00  0.00    -0.023 CG0
ATOM      9  G   UNL     1       1.005  27.324  28.542  1.00  0.00     0.000 G0
ENDBRANCH   5   6
ENDBRANCH   4   5
ENDBRANCH   2   4
BRANCH   1  10
ATOM     10  C   UNL     1      -0.406  24.260  27.366  1.00  0.00     0.111 C 
BRANCH  10  11
ATOM     11  C   UNL     1       0.398  24.815  28.516  1.00  0.00     0.163 C 
ATOM     12  O   UNL     1       0.210  24.326  29.662  1.00  0.00    -0.294 OA
BRANCH  11  13
ATOM     13  C   UNL     1       1.432  25.878  28.318  1.00  0.00    -0.002 C 
ATOM     14  C   UNL     1       2.731  25.572  28.017  1.00  0.00    -0.069 C 
ATOM     15  C   UNL     1       3.761  26.654  27.781  1.00  0.00     0.039 C 
ATOM     16  C   UNL     1       3.209  24.139  27.941  1.00  0.00     0.039 C 
BRANCH  13  17
ATOM     17  C   UNL     1       0.995  27.315  28.539  1.00  0.00     0.066 CG0
ATOM     18  G   UNL     1       0.501  27.906  27.241  1.00  0.00     0.000 G0
ENDBRANCH  13  17
ENDBRANCH  11  13
ENDBRANCH  10  11
ENDBRANCH   1  10
TORSDOF 0
ENDMDL
MODEL 6
REMARK VINA RESULT:    -3.688      1.623      3.879
REMARK INTER + INTRA:          -4.746
REMARK INTER:                  -5.417
REMARK INTRA:                   0.671
REMARK UNBOUND:                 0.450
REMARK SMILES CC1=CCC(=C(C)C)C(=O)CC(C)=CCC1
REMARK SMILES IDX 12 1 14 2 13 3 15 4 16 5 2 6 1 7 3 8 11 10 9 11 10 12 5 13
REMARK SMILES IDX 6 14 7 15 8 16 4 17
REMARK H PARENT
REMARK Flexibility Score: 60.00
ROOT
ATOM      1  C   UNL     1       2.508  25.085  27.176  1.00  0.00    -0.070 C 
ATOM      2  C   UNL     1       2.684  26.164  26.378  1.00  0.00    -0.027 C 
ATOM      3  C   UNL     1       3.656  24.689  28.073  1.00  0.00     0.039 C 
ENDROOT
BRANCH   2   4
ATOM      4  C   UNL     1       1.716  26.672  25.336  1.00  0.00     0.032 C 
BRANCH   4   5
ATOM      5  C   UNL     1       1.355  28.156  25.534  1.00  0.00     0.034 C 
BRANCH   5   6
ATOM      6  C   UNL     1       0.679  28.407  26.868  1.00  0.00    -0.077 C 
ATOM      7  C   UNL     1       1.171  29.555  27.714  1.00  0.00     0.039 C 
ATOM      8  C   UNL     1      -0.358  27.677  27.334  1.00  0.00    -0.023 CG0
ATOM      9  G   UNL     1      -1.010  26.517  26.621  1.00  0.00     0.000 G0
ENDBRANCH   5   6
ENDBRANCH   4   5
ENDBRANCH   2   4
BRANCH   1  10
ATOM     10  C   UNL     1       1.257  24.223  27.168  1.00  0.00     0.111 C 
BRANCH  10  11
ATOM     11  C   UNL     1       0.197  24.775  28.090  1.00  0.00     0.163 C 
ATOM     12  O   UNL     1       0.445  24.812  29.325  1.00  0.00    -0.294 OA
BRANCH  11  13
ATOM     13  C   UNL     1      -1.099  25.316  27.572  1.00  0.00    -0.002 C 
ATOM     14  C   UNL     1      -2.296  24.726  27.871  1.00  0.00    -0.069 C 
ATOM     15  C   UNL     1      -3.604  25.302  27.375  1.00  0.00     0.039 C 
ATOM     16  C   UNL     1      -2.370  23.451  28.681  1.00  0.00     0.039 C 
BRANCH  13  17
ATOM     17  C   UNL     1      -1.023  26.509  26.635  1.00  0.00     0.066 CG0
ATOM     18  G   UNL     1      -0.356  27.668  27.336  1.00  0.00     0.000 G0
ENDBRANCH  13  17
ENDBRANCH  11  13
ENDBRANCH  10  11
ENDBRANCH   1  10
TORSDOF 0
ENDMDL
MODEL 7
REMARK VINA RESULT:    -3.678      1.487      2.425
REMARK INTER + INTRA:          -4.732
REMARK INTER:                  -5.634
REMARK INTRA:                   0.901
REMARK UNBOUND:                 0.450
REMARK SMILES CC1=CCC(=C(C)C)C(=O)CC(C)=CCC1
REMARK SMILES IDX 12 1 14 2 13 3 15 4 16 5 2 6 1 7 3 8 11 10 9 11 10 12 5 13
REMARK SMILES IDX 6 14 7 15 8 16 4 17
REMARK H PARENT
REMARK Flexibility Score: 60.00
ROOT
ATOM      1  C   UNL     1       1.076  23.921  28.143  1.00  0.00    -0.070 C 
ATOM      2  C   UNL     1       0.184  23.043  27.627  1.00  0.00    -0.027 C 
ATOM      3  C   UNL     1       2.524  23.753  27.750  1.00  0.00     0.039 C 
ENDROOT
BRANCH   2   4
ATOM      4  C   UNL     1      -1.286  22.961  27.963  1.00  0.00     0.032 C 
BRANCH   4   5
ATOM      5  C   UNL     1      -2.164  23.766  26.986  1.00  0.00     0.034 C 
BRANCH   5   6
ATOM      6  C   UNL     1      -2.452  25.165  27.497  1.00  0.00    -0.077 C 
ATOM      7  C   UNL     1      -3.584  25.349  28.477  1.00  0.00     0.039 C 
ATOM      8  C   UNL     1      -1.736  26.256  27.145  1.00  0.00    -0.023 CG0
ATOM      9  G   UNL     1      -0.551  26.268  26.210  1.00  0.00     0.000 G0
ENDBRANCH   5   6
ENDBRANCH   4   5
ENDBRANCH   2   4
BRANCH   1  10
ATOM     10  C   UNL     1       0.711  25.011  29.136  1.00  0.00     0.111 C 
BRANCH  10  11
ATOM     11  C   UNL     1       0.659  26.368  28.477  1.00  0.00     0.163 C 
ATOM     12  O   UNL     1       0.605  27.386  29.217  1.00  0.00    -0.294 OA
BRANCH  11  13
ATOM     13  C   UNL     1       0.722  26.529  26.990  1.00  0.00    -0.002 C 
ATOM     14  C   UNL     1       1.861  26.951  26.360  1.00  0.00    -0.069 C 
ATOM     15  C   UNL     1       1.928  27.073  24.854  1.00  0.00     0.039 C 
ATOM     16  C   UNL     1       3.095  27.349  27.138  1.00  0.00     0.039 C 
BRANCH  13  17
ATOM     17  C   UNL     1      -0.557  26.275  26.214  1.00  0.00     0.066 CG0
ATOM     18  G   UNL     1      -1.736  26.273  27.156  1.00  0.00     0.000 G0
ENDBRANCH  13  17
ENDBRANCH  11  13
ENDBRANCH  10  11
ENDBRANCH   1  10
TORSDOF 0
ENDMDL
MODEL 8
REMARK VINA RESULT:    -3.626      2.113      4.318
REMARK INTER + INTRA:          -4.659
REMARK INTER:                  -5.234
REMARK INTRA:                   0.575
REMARK UNBOUND:                 0.450
REMARK SMILES CC1=CCC(=C(C)C)C(=O)CC(C)=CCC1
REMARK SMILES IDX 12 1 14 2 13 3 15 4 16 5 2 6 1 7 3 8 11 10 9 11 10 12 5 13
REMARK SMILES IDX 6 14 7 15 8 16 4 17
REMARK H PARENT
REMARK Flexibility Score: 60.00
ROOT
ATOM      1  C   UNL     1       0.847  24.034  26.934  1.00  0.00    -0.070 C 
ATOM      2  C   UNL     1       1.923  24.851  26.852  1.00  0.00    -0.027 C 
ATOM      3  C   UNL     1       1.054  22.671  27.548  1.00  0.00     0.039 C 
ENDROOT
BRANCH   2   4
ATOM      4  C   UNL     1       1.968  26.206  26.186  1.00  0.00     0.032 C 
BRANCH   4   5
ATOM      5  C   UNL     1       1.890  27.366  27.196  1.00  0.00     0.034 C 
BRANCH   5   6
ATOM      6  C   UNL     1       2.089  26.896  28.624  1.00  0.00    -0.077 C 
ATOM      7  C   UNL     1       3.498  26.672  29.113  1.00  0.00     0.039 C 
ATOM      8  C   UNL     1       1.077  26.690  29.496  1.00  0.00    -0.023 CG0
ATOM      9  G   UNL     1      -0.391  26.893  29.206  1.00  0.00     0.000 G0
ENDBRANCH   5   6
ENDBRANCH   4   5
ENDBRANCH   2   4
BRANCH   1  10
ATOM     10  C   UNL     1      -0.526  24.387  26.387  1.00  0.00     0.111 C 
BRANCH  10  11
ATOM     11  C   UNL     1      -1.166  25.505  27.174  1.00  0.00     0.163 C 
ATOM     12  O   UNL     1      -1.877  26.337  26.550  1.00  0.00    -0.294 OA
BRANCH  11  13
ATOM     13  C   UNL     1      -1.017  25.614  28.659  1.00  0.00    -0.002 C 
ATOM     14  C   UNL     1      -1.470  24.635  29.501  1.00  0.00    -0.069 C 
ATOM     15  C   UNL     1      -1.281  24.735  30.998  1.00  0.00     0.039 C 
ATOM     16  C   UNL     1      -2.211  23.424  28.980  1.00  0.00     0.039 C 
BRANCH  13  17
ATOM     17  C   UNL     1      -0.408  26.895  29.200  1.00  0.00     0.066 CG0
ATOM     18  G   UNL     1       1.062  26.687  29.474  1.00  0.00     0.000 G0
ENDBRANCH  13  17
ENDBRANCH  11  13
ENDBRANCH  10  11
ENDBRANCH   1  10
TORSDOF 0
ENDMDL
MODEL 9
REMARK VINA RESULT:    -3.520      1.801      2.294
REMARK INTER + INTRA:          -4.510
REMARK INTER:                  -5.366
REMARK INTRA:                   0.856
REMARK UNBOUND:                 0.450
REMARK SMILES CC1=CCC(=C(C)C)C(=O)CC(C)=CCC1
REMARK SMILES IDX 12 1 14 2 13 3 15 4 16 5 2 6 1 7 3 8 11 10 9 11 10 12 5 13
REMARK SMILES IDX 6 14 7 15 8 16 4 17
REMARK H PARENT
REMARK Flexibility Score: 60.00
ROOT
ATOM      1  C   UNL     1       3.373  25.606  27.903  1.00  0.00    -0.070 C 
ATOM      2  C   UNL     1       3.002  24.339  28.205  1.00  0.00    -0.027 C 
ATOM      3  C   UNL     1       4.423  26.249  28.776  1.00  0.00     0.039 C 
ENDROOT
BRANCH   2   4
ATOM      4  C   UNL     1       1.905  23.546  27.535  1.00  0.00     0.032 C 
BRANCH   4   5
ATOM      5  C   UNL     1       0.690  23.321  28.455  1.00  0.00     0.034 C 
BRANCH   5   6
ATOM      6  C   UNL     1      -0.490  24.192  28.067  1.00  0.00    -0.077 C 
ATOM      7  C   UNL     1      -1.563  23.594  27.192  1.00  0.00     0.039 C 
ATOM      8  C   UNL     1      -0.651  25.468  28.483  1.00  0.00    -0.023 CG0
ATOM      9  G   UNL     1       0.292  26.225  29.388  1.00  0.00     0.000 G0
ENDBRANCH   5   6
ENDBRANCH   4   5
ENDBRANCH   2   4
BRANCH   1  10
ATOM     10  C   UNL     1       2.749  26.426  26.787  1.00  0.00     0.111 C 
BRANCH  10  11
ATOM     11  C   UNL     1       1.389  26.950  27.178  1.00  0.00     0.163 C 
ATOM     12  O   UNL     1       0.516  27.063  26.277  1.00  0.00    -0.294 OA
BRANCH  11  13
ATOM     13  C   UNL     1       1.046  27.284  28.596  1.00  0.00    -0.002 C 
ATOM     14  C   UNL     1       1.450  28.454  29.177  1.00  0.00    -0.069 C 
ATOM     15  C   UNL     1       1.066  28.800  30.599  1.00  0.00     0.039 C 
ATOM     16  C   UNL     1       2.327  29.443  28.442  1.00  0.00     0.039 C 
BRANCH  13  17
ATOM     17  C   UNL     1       0.293  26.231  29.389  1.00  0.00     0.066 CG0
ATOM     18  G   UNL     1      -0.648  25.479  28.478  1.00  0.00     0.000 G0
ENDBRANCH  13  17
ENDBRANCH  11  13
ENDBRANCH  10  11
ENDBRANCH   1  10
TORSDOF 0
ENDMDL
