MODEL 1
REMARK VINA RESULT:    -4.194      0.000      0.000
REMARK INTER + INTRA:          -6.855
REMARK INTER:                  -6.156
REMARK INTRA:                  -0.699
REMARK UNBOUND:                -0.699
REMARK SMILES O=C([O-])CCCCCCCC(=O)[O-]
REMARK SMILES IDX 7 1 6 2 5 3 4 4 2 5 1 6 3 7 8 8 9 9 10 10 11 11 12 12 13 13
REMARK H PARENT
REMARK Flexibility Score: inf
ROOT
ATOM      1  C   UNL     1     -20.010 -31.356  20.054  1.00  0.00     0.000 C 
ENDROOT
BRANCH   1   2
ATOM      2  C   UNL     1     -19.654 -32.777  19.585  1.00  0.00     0.000 C 
BRANCH   2   3
ATOM      3  C   UNL     1     -18.636 -33.465  20.509  1.00  0.00     0.006 C 
BRANCH   3   4
ATOM      4  C   UNL     1     -18.143 -32.546  21.634  1.00  0.00     0.053 C 
BRANCH   4   5
ATOM      5  C   UNL     1     -16.653 -32.418  21.587  1.00  0.00     0.041 C 
ATOM      6  O   UNL     1     -16.077 -32.102  20.512  1.00  0.00    -0.550 OA
ATOM      7  O   UNL     1     -15.894 -32.698  22.717  1.00  0.00    -0.550 OA
ENDBRANCH   4   5
ENDBRANCH   3   4
ENDBRANCH   2   3
ENDBRANCH   1   2
BRANCH   1   8
ATOM      8  C   UNL     1     -19.777 -30.291  18.966  1.00  0.00     0.000 C 
BRANCH   8   9
ATOM      9  C   UNL     1     -18.314 -30.129  18.507  1.00  0.00     0.006 C 
BRANCH   9  10
ATOM     10  C   UNL     1     -17.500 -29.104  19.312  1.00  0.00     0.053 C 
BRANCH  10  11
ATOM     11  C   UNL     1     -17.610 -27.725  18.736  1.00  0.00     0.041 C 
ATOM     12  O   UNL     1     -18.444 -26.907  19.204  1.00  0.00    -0.550 OA
ATOM     13  O   UNL     1     -16.814 -27.357  17.659  1.00  0.00    -0.550 OA
ENDBRANCH  10  11
ENDBRANCH   9  10
ENDBRANCH   8   9
ENDBRANCH   1   8
TORSDOF 8
ENDMDL
MODEL 2
REMARK VINA RESULT:    -4.156      0.462      4.849
REMARK INTER + INTRA:          -6.798
REMARK INTER:                  -6.094
REMARK INTRA:                  -0.704
REMARK UNBOUND:                -0.699
REMARK SMILES O=C([O-])CCCCCCCC(=O)[O-]
REMARK SMILES IDX 7 1 6 2 5 3 4 4 2 5 1 6 3 7 8 8 9 9 10 10 11 11 12 12 13 13
REMARK H PARENT
REMARK Flexibility Score: inf
ROOT
ATOM      1  C   UNL     1     -20.031 -31.191  20.001  1.00  0.00     0.000 C 
ENDROOT
BRANCH   1   2
ATOM      2  C   UNL     1     -19.793 -30.114  18.929  1.00  0.00     0.000 C 
BRANCH   2   3
ATOM      3  C   UNL     1     -18.308 -29.971  18.557  1.00  0.00     0.006 C 
BRANCH   3   4
ATOM      4  C   UNL     1     -17.498 -29.228  19.627  1.00  0.00     0.053 C 
BRANCH   4   5
ATOM      5  C   UNL     1     -17.326 -27.792  19.247  1.00  0.00     0.041 C 
ATOM      6  O   UNL     1     -16.186 -27.347  18.948  1.00  0.00    -0.550 OA
ATOM      7  O   UNL     1     -18.415 -26.930  19.272  1.00  0.00    -0.550 OA
ENDBRANCH   4   5
ENDBRANCH   3   4
ENDBRANCH   2   3
ENDBRANCH   1   2
BRANCH   1   8
ATOM      8  C   UNL     1     -19.625 -32.601  19.533  1.00  0.00     0.000 C 
BRANCH   8   9
ATOM      9  C   UNL     1     -18.778 -33.409  20.537  1.00  0.00     0.006 C 
BRANCH   9  10
ATOM     10  C   UNL     1     -18.150 -32.572  21.662  1.00  0.00     0.053 C 
BRANCH  10  11
ATOM     11  C   UNL     1     -16.656 -32.534  21.564  1.00  0.00     0.041 C 
ATOM     12  O   UNL     1     -16.097 -32.396  20.444  1.00  0.00    -0.550 OA
ATOM     13  O   UNL     1     -15.880 -32.684  22.706  1.00  0.00    -0.550 OA
ENDBRANCH  10  11
ENDBRANCH   9  10
ENDBRANCH   8   9
ENDBRANCH   1   8
TORSDOF 8
ENDMDL
MODEL 3
REMARK VINA RESULT:    -4.048      2.675      3.576
REMARK INTER + INTRA:          -6.640
REMARK INTER:                  -5.974
REMARK INTRA:                  -0.666
REMARK UNBOUND:                -0.699
REMARK SMILES O=C([O-])CCCCCCCC(=O)[O-]
REMARK SMILES IDX 7 1 6 2 5 3 4 4 2 5 1 6 3 7 8 8 9 9 10 10 11 11 12 12 13 13
REMARK H PARENT
REMARK Flexibility Score: inf
ROOT
ATOM      1  C   UNL     1     -19.164 -31.896  20.461  1.00  0.00     0.000 C 
ENDROOT
BRANCH   1   2
ATOM      2  C   UNL     1     -19.248 -33.321  19.888  1.00  0.00     0.000 C 
BRANCH   2   3
ATOM      3  C   UNL     1     -18.397 -33.497  18.620  1.00  0.00     0.006 C 
BRANCH   3   4
ATOM      4  C   UNL     1     -19.247 -33.750  17.367  1.00  0.00     0.053 C 
BRANCH   4   5
ATOM      5  C   UNL     1     -18.667 -33.031  16.190  1.00  0.00     0.041 C 
ATOM      6  O   UNL     1     -17.666 -32.281  16.335  1.00  0.00    -0.550 OA
ATOM      7  O   UNL     1     -19.262 -33.150  14.940  1.00  0.00    -0.550 OA
ENDBRANCH   4   5
ENDBRANCH   3   4
ENDBRANCH   2   3
ENDBRANCH   1   2
BRANCH   1   8
ATOM      8  C   UNL     1     -20.299 -30.983  19.962  1.00  0.00     0.000 C 
BRANCH   8   9
ATOM      9  C   UNL     1     -19.909 -30.005  18.835  1.00  0.00     0.006 C 
BRANCH   9  10
ATOM     10  C   UNL     1     -18.396 -29.811  18.654  1.00  0.00     0.053 C 
BRANCH  10  11
ATOM     11  C   UNL     1     -17.920 -28.523  19.254  1.00  0.00     0.041 C 
ATOM     12  O   UNL     1     -18.538 -27.450  19.025  1.00  0.00    -0.550 OA
ATOM     13  O   UNL     1     -16.775 -28.504  20.040  1.00  0.00    -0.550 OA
ENDBRANCH  10  11
ENDBRANCH   9  10
ENDBRANCH   8   9
ENDBRANCH   1   8
TORSDOF 8
ENDMDL
MODEL 4
REMARK VINA RESULT:    -4.027      2.503      4.606
REMARK INTER + INTRA:          -6.610
REMARK INTER:                  -5.935
REMARK INTRA:                  -0.674
REMARK UNBOUND:                -0.699
REMARK SMILES O=C([O-])CCCCCCCC(=O)[O-]
REMARK SMILES IDX 7 1 6 2 5 3 4 4 2 5 1 6 3 7 8 8 9 9 10 10 11 11 12 12 13 13
REMARK H PARENT
REMARK Flexibility Score: inf
ROOT
ATOM      1  C   UNL     1     -19.186 -31.553  20.586  1.00  0.00     0.000 C 
ENDROOT
BRANCH   1   2
ATOM      2  C   UNL     1     -20.378 -30.882  19.883  1.00  0.00     0.000 C 
BRANCH   2   3
ATOM      3  C   UNL     1     -19.941 -29.777  18.907  1.00  0.00     0.006 C 
BRANCH   3   4
ATOM      4  C   UNL     1     -18.420 -29.734  18.705  1.00  0.00     0.053 C 
BRANCH   4   5
ATOM      5  C   UNL     1     -17.856 -28.465  19.264  1.00  0.00     0.041 C 
ATOM      6  O   UNL     1     -16.837 -28.496  20.002  1.00  0.00    -0.550 OA
ATOM      7  O   UNL     1     -18.486 -27.253  19.011  1.00  0.00    -0.550 OA
ENDBRANCH   4   5
ENDBRANCH   3   4
ENDBRANCH   2   3
ENDBRANCH   1   2
BRANCH   1   8
ATOM      8  C   UNL     1     -19.079 -33.058  20.278  1.00  0.00     0.000 C 
BRANCH   8   9
ATOM      9  C   UNL     1     -19.452 -33.463  18.837  1.00  0.00     0.006 C 
BRANCH   9  10
ATOM     10  C   UNL     1     -18.260 -33.567  17.874  1.00  0.00     0.053 C 
BRANCH  10  11
ATOM     11  C   UNL     1     -18.511 -32.838  16.590  1.00  0.00     0.041 C 
ATOM     12  O   UNL     1     -19.638 -32.907  16.032  1.00  0.00    -0.550 OA
ATOM     13  O   UNL     1     -17.491 -32.109  15.993  1.00  0.00    -0.550 OA
ENDBRANCH  10  11
ENDBRANCH   9  10
ENDBRANCH   8   9
ENDBRANCH   1   8
TORSDOF 8
ENDMDL
MODEL 5
REMARK VINA RESULT:    -3.946      2.029      2.707
REMARK INTER + INTRA:          -6.490
REMARK INTER:                  -5.940
REMARK INTRA:                  -0.550
REMARK UNBOUND:                -0.699
REMARK SMILES O=C([O-])CCCCCCCC(=O)[O-]
REMARK SMILES IDX 7 1 6 2 5 3 4 4 2 5 1 6 3 7 8 8 9 9 10 10 11 11 12 12 13 13
REMARK H PARENT
REMARK Flexibility Score: inf
ROOT
ATOM      1  C   UNL     1     -19.984 -30.015  18.917  1.00  0.00     0.000 C 
ENDROOT
BRANCH   1   2
ATOM      2  C   UNL     1     -20.421 -31.017  19.999  1.00  0.00     0.000 C 
BRANCH   2   3
ATOM      3  C   UNL     1     -19.329 -32.049  20.323  1.00  0.00     0.006 C 
BRANCH   3   4
ATOM      4  C   UNL     1     -19.478 -33.343  19.512  1.00  0.00     0.053 C 
BRANCH   4   5
ATOM      5  C   UNL     1     -18.428 -33.417  18.450  1.00  0.00     0.041 C 
ATOM      6  O   UNL     1     -18.648 -32.938  17.306  1.00  0.00    -0.550 OA
ATOM      7  O   UNL     1     -17.223 -34.059  18.706  1.00  0.00    -0.550 OA
ENDBRANCH   4   5
ENDBRANCH   3   4
ENDBRANCH   2   3
ENDBRANCH   1   2
BRANCH   1   8
ATOM      8  C   UNL     1     -18.506 -29.600  19.048  1.00  0.00     0.000 C 
BRANCH   8   9
ATOM      9  C   UNL     1     -17.805 -29.240  17.722  1.00  0.00     0.006 C 
BRANCH   9  10
ATOM     10  C   UNL     1     -17.325 -27.784  17.628  1.00  0.00     0.053 C 
BRANCH  10  11
ATOM     11  C   UNL     1     -16.305 -27.461  18.677  1.00  0.00     0.041 C 
ATOM     12  O   UNL     1     -15.111 -27.837  18.538  1.00  0.00    -0.550 OA
ATOM     13  O   UNL     1     -16.682 -26.775  19.824  1.00  0.00    -0.550 OA
ENDBRANCH  10  11
ENDBRANCH   9  10
ENDBRANCH   8   9
ENDBRANCH   1   8
TORSDOF 8
ENDMDL
MODEL 6
REMARK VINA RESULT:    -3.912      2.147      2.789
REMARK INTER + INTRA:          -6.441
REMARK INTER:                  -5.665
REMARK INTRA:                  -0.776
REMARK UNBOUND:                -0.699
REMARK SMILES O=C([O-])CCCCCCCC(=O)[O-]
REMARK SMILES IDX 7 1 6 2 5 3 4 4 2 5 1 6 3 7 8 8 9 9 10 10 11 11 12 12 13 13
REMARK H PARENT
REMARK Flexibility Score: inf
ROOT
ATOM      1  C   UNL     1     -16.474 -32.767  17.865  1.00  0.00     0.000 C 
ENDROOT
BRANCH   1   2
ATOM      2  C   UNL     1     -17.427 -33.740  18.579  1.00  0.00     0.000 C 
BRANCH   2   3
ATOM      3  C   UNL     1     -18.902 -33.329  18.439  1.00  0.00     0.006 C 
BRANCH   3   4
ATOM      4  C   UNL     1     -19.603 -33.171  19.795  1.00  0.00     0.053 C 
BRANCH   4   5
ATOM      5  C   UNL     1     -19.535 -31.748  20.254  1.00  0.00     0.041 C 
ATOM      6  O   UNL     1     -20.422 -30.926  19.903  1.00  0.00    -0.550 OA
ATOM      7  O   UNL     1     -18.465 -31.317  21.027  1.00  0.00    -0.550 OA
ENDBRANCH   4   5
ENDBRANCH   3   4
ENDBRANCH   2   3
ENDBRANCH   1   2
BRANCH   1   8
ATOM      8  C   UNL     1     -17.180 -31.489  17.376  1.00  0.00     0.000 C 
BRANCH   8   9
ATOM      9  C   UNL     1     -16.831 -30.206  18.157  1.00  0.00     0.006 C 
BRANCH   9  10
ATOM     10  C   UNL     1     -17.853 -29.068  18.007  1.00  0.00     0.053 C 
BRANCH  10  11
ATOM     11  C   UNL     1     -17.751 -28.073  19.121  1.00  0.00     0.041 C 
ATOM     12  O   UNL     1     -18.495 -27.057  19.134  1.00  0.00    -0.550 OA
ATOM     13  O   UNL     1     -16.812 -28.251  20.128  1.00  0.00    -0.550 OA
ENDBRANCH  10  11
ENDBRANCH   9  10
ENDBRANCH   8   9
ENDBRANCH   1   8
TORSDOF 8
ENDMDL
MODEL 7
REMARK VINA RESULT:    -3.869      2.147      4.618
REMARK INTER + INTRA:          -6.377
REMARK INTER:                  -5.482
REMARK INTRA:                  -0.894
REMARK UNBOUND:                -0.699
REMARK SMILES O=C([O-])CCCCCCCC(=O)[O-]
REMARK SMILES IDX 7 1 6 2 5 3 4 4 2 5 1 6 3 7 8 8 9 9 10 10 11 11 12 12 13 13
REMARK H PARENT
REMARK Flexibility Score: inf
ROOT
ATOM      1  C   UNL     1     -17.957 -31.860  16.842  1.00  0.00     0.000 C 
ENDROOT
BRANCH   1   2
ATOM      2  C   UNL     1     -16.601 -31.756  17.560  1.00  0.00     0.000 C 
BRANCH   2   3
ATOM      3  C   UNL     1     -16.437 -30.429  18.319  1.00  0.00     0.006 C 
BRANCH   3   4
ATOM      4  C   UNL     1     -17.575 -29.440  18.034  1.00  0.00     0.053 C 
BRANCH   4   5
ATOM      5  C   UNL     1     -17.641 -28.398  19.106  1.00  0.00     0.041 C 
ATOM      6  O   UNL     1     -16.904 -28.487  20.123  1.00  0.00    -0.550 OA
ATOM      7  O   UNL     1     -18.553 -27.355  19.007  1.00  0.00    -0.550 OA
ENDBRANCH   4   5
ENDBRANCH   3   4
ENDBRANCH   2   3
ENDBRANCH   1   2
BRANCH   1   8
ATOM      8  C   UNL     1     -18.869 -32.948  17.440  1.00  0.00     0.000 C 
BRANCH   8   9
ATOM      9  C   UNL     1     -18.407 -33.520  18.796  1.00  0.00     0.006 C 
BRANCH   9  10
ATOM     10  C   UNL     1     -19.366 -33.246  19.965  1.00  0.00     0.053 C 
BRANCH  10  11
ATOM     11  C   UNL     1     -19.376 -31.799  20.353  1.00  0.00     0.041 C 
ATOM     12  O   UNL     1     -18.457 -31.329  21.075  1.00  0.00    -0.550 OA
ATOM     13  O   UNL     1     -20.419 -30.978  19.946  1.00  0.00    -0.550 OA
ENDBRANCH  10  11
ENDBRANCH   9  10
ENDBRANCH   8   9
ENDBRANCH   1   8
TORSDOF 8
ENDMDL
MODEL 8
REMARK VINA RESULT:    -3.838      1.412      4.433
REMARK INTER + INTRA:          -6.332
REMARK INTER:                  -5.691
REMARK INTRA:                  -0.642
REMARK UNBOUND:                -0.699
REMARK SMILES O=C([O-])CCCCCCCC(=O)[O-]
REMARK SMILES IDX 7 1 6 2 5 3 4 4 2 5 1 6 3 7 8 8 9 9 10 10 11 11 12 12 13 13
REMARK H PARENT
REMARK Flexibility Score: inf
ROOT
ATOM      1  C   UNL     1     -19.603 -32.623  19.630  1.00  0.00     0.000 C 
ENDROOT
BRANCH   1   2
ATOM      2  C   UNL     1     -20.036 -31.204  20.034  1.00  0.00     0.000 C 
BRANCH   2   3
ATOM      3  C   UNL     1     -19.895 -30.195  18.883  1.00  0.00     0.006 C 
BRANCH   3   4
ATOM      4  C   UNL     1     -18.431 -29.888  18.541  1.00  0.00     0.053 C 
BRANCH   4   5
ATOM      5  C   UNL     1     -17.984 -28.641  19.236  1.00  0.00     0.041 C 
ATOM      6  O   UNL     1     -18.610 -27.562  19.068  1.00  0.00    -0.550 OA
ATOM      7  O   UNL     1     -16.844 -28.659  20.030  1.00  0.00    -0.550 OA
ENDBRANCH   4   5
ENDBRANCH   3   4
ENDBRANCH   2   3
ENDBRANCH   1   2
BRANCH   1   8
ATOM      8  C   UNL     1     -18.781 -33.332  20.723  1.00  0.00     0.000 C 
BRANCH   8   9
ATOM      9  C   UNL     1     -17.437 -33.925  20.254  1.00  0.00     0.006 C 
BRANCH   9  10
ATOM     10  C   UNL     1     -16.757 -33.147  19.117  1.00  0.00     0.053 C 
BRANCH  10  11
ATOM     11  C   UNL     1     -15.548 -32.401  19.593  1.00  0.00     0.041 C 
ATOM     12  O   UNL     1     -14.943 -32.773  20.633  1.00  0.00    -0.550 OA
ATOM     13  O   UNL     1     -15.110 -31.277  18.907  1.00  0.00    -0.550 OA
ENDBRANCH  10  11
ENDBRANCH   9  10
ENDBRANCH   8   9
ENDBRANCH   1   8
TORSDOF 8
ENDMDL
MODEL 9
REMARK VINA RESULT:    -3.829      1.919      2.252
REMARK INTER + INTRA:          -6.319
REMARK INTER:                  -5.488
REMARK INTRA:                  -0.831
REMARK UNBOUND:                -0.699
REMARK SMILES O=C([O-])CCCCCCCC(=O)[O-]
REMARK SMILES IDX 7 1 6 2 5 3 4 4 2 5 1 6 3 7 8 8 9 9 10 10 11 11 12 12 13 13
REMARK H PARENT
REMARK Flexibility Score: inf
ROOT
ATOM      1  C   UNL     1     -20.256 -31.207  19.999  1.00  0.00     0.000 C 
ENDROOT
BRANCH   1   2
ATOM      2  C   UNL     1     -19.628 -32.550  19.592  1.00  0.00     0.000 C 
BRANCH   2   3
ATOM      3  C   UNL     1     -18.870 -33.221  20.749  1.00  0.00     0.006 C 
BRANCH   3   4
ATOM      4  C   UNL     1     -17.454 -33.660  20.354  1.00  0.00     0.053 C 
BRANCH   4   5
ATOM      5  C   UNL     1     -16.434 -32.788  21.015  1.00  0.00     0.041 C 
ATOM      6  O   UNL     1     -16.749 -31.635  21.414  1.00  0.00    -0.550 OA
ATOM      7  O   UNL     1     -15.123 -33.226  21.145  1.00  0.00    -0.550 OA
ENDBRANCH   4   5
ENDBRANCH   3   4
ENDBRANCH   2   3
ENDBRANCH   1   2
BRANCH   1   8
ATOM      8  C   UNL     1     -19.961 -30.079  18.993  1.00  0.00     0.000 C 
BRANCH   8   9
ATOM      9  C   UNL     1     -18.530 -29.506  19.049  1.00  0.00     0.006 C 
BRANCH   9  10
ATOM     10  C   UNL     1     -17.727 -29.662  17.749  1.00  0.00     0.053 C 
BRANCH  10  11
ATOM     11  C   UNL     1     -16.691 -30.739  17.856  1.00  0.00     0.041 C 
ATOM     12  O   UNL     1     -16.923 -31.889  17.400  1.00  0.00    -0.550 OA
ATOM     13  O   UNL     1     -15.483 -30.480  18.489  1.00  0.00    -0.550 OA
ENDBRANCH  10  11
ENDBRANCH   9  10
ENDBRANCH   8   9
ENDBRANCH   1   8
TORSDOF 8
ENDMDL
