MODEL 1
REMARK VINA RESULT:    -7.142      0.000      0.000
REMARK INTER + INTRA:          -8.658
REMARK INTER:                  -8.395
REMARK INTRA:                  -0.263
REMARK UNBOUND:                -0.263
REMARK SMILES O=c1cc(-c2ccc(O)c(O)c2)oc2cc(O)cc(O)c12
REMARK SMILES IDX 4 1 3 2 2 3 1 4 21 5 19 6 18 7 16 8 15 9 14 10 13 11 5 12
REMARK SMILES IDX 6 13 7 14 8 15 12 16 10 17 9 18 11 20 20 22 17 24
REMARK H PARENT 9 19 11 21 20 23 17 25
REMARK Flexibility Score: inf
ROOT
ATOM      1  C   UNL     1      18.799  24.179  41.616  1.00  0.00     0.138 A 
ATOM      2  C   UNL     1      17.589  23.817  42.233  1.00  0.00     0.100 A 
ATOM      3  C   UNL     1      17.118  24.565  43.311  1.00  0.00     0.197 A 
ATOM      4  O   UNL     1      16.032  24.232  43.859  1.00  0.00    -0.289 OA
ATOM      5  C   UNL     1      17.861  25.672  43.769  1.00  0.00     0.107 A 
ATOM      6  C   UNL     1      17.454  26.483  44.853  1.00  0.00     0.134 A 
ATOM      7  C   UNL     1      18.255  27.566  45.249  1.00  0.00     0.093 A 
ATOM      8  C   UNL     1      19.450  27.849  44.586  1.00  0.00     0.123 A 
ATOM      9  C   UNL     1      19.858  27.049  43.513  1.00  0.00     0.094 A 
ATOM     10  C   UNL     1      19.074  25.968  43.101  1.00  0.00     0.146 A 
ATOM     11  O   UNL     1      19.481  25.224  42.078  1.00  0.00    -0.456 OA
ENDROOT
BRANCH   1  12
ATOM     12  C   UNL     1      19.350  23.418  40.466  1.00  0.00     0.021 A 
ATOM     13  C   UNL     1      20.327  22.419  40.639  1.00  0.00     0.016 A 
ATOM     14  C   UNL     1      20.819  21.711  39.539  1.00  0.00     0.051 A 
ATOM     15  C   UNL     1      20.343  21.980  38.253  1.00  0.00     0.157 A 
ATOM     16  C   UNL     1      18.865  23.674  39.170  1.00  0.00     0.062 A 
ATOM     17  C   UNL     1      19.361  22.965  38.066  1.00  0.00     0.158 A 
BRANCH  15  18
ATOM     18  O   UNL     1      20.856  21.258  37.176  1.00  0.00    -0.504 OA
ATOM     19  H   UNL     1      20.480  20.358  36.903  1.00  0.00     0.293 HD
ENDBRANCH  15  18
BRANCH  17  20
ATOM     20  O   UNL     1      18.878  23.237  36.787  1.00  0.00    -0.504 OA
ATOM     21  H   UNL     1      19.316  23.927  36.189  1.00  0.00     0.293 HD
ENDBRANCH  17  20
ENDBRANCH   1  12
BRANCH   6  22
ATOM     22  O   UNL     1      16.265  26.226  45.535  1.00  0.00    -0.507 OA
ATOM     23  H   UNL     1      16.040  25.301  45.885  1.00  0.00     0.293 HD
ENDBRANCH   6  22
BRANCH   8  24
ATOM     24  O   UNL     1      20.227  28.929  45.001  1.00  0.00    -0.508 OA
ATOM     25  H   UNL     1      19.841  29.668  45.575  1.00  0.00     0.293 HD
ENDBRANCH   8  24
TORSDOF 5
ENDMDL
MODEL 2
REMARK VINA RESULT:    -7.073      1.300      3.076
REMARK INTER + INTRA:          -8.576
REMARK INTER:                  -8.312
REMARK INTRA:                  -0.264
REMARK UNBOUND:                -0.263
REMARK SMILES O=c1cc(-c2ccc(O)c(O)c2)oc2cc(O)cc(O)c12
REMARK SMILES IDX 4 1 3 2 2 3 1 4 21 5 19 6 18 7 16 8 15 9 14 10 13 11 5 12
REMARK SMILES IDX 6 13 7 14 8 15 12 16 10 17 9 18 11 20 20 22 17 24
REMARK H PARENT 9 19 11 21 20 23 17 25
REMARK Flexibility Score: inf
ROOT
ATOM      1  C   UNL     1      19.306  25.051  40.794  1.00  0.00     0.138 A 
ATOM      2  C   UNL     1      20.336  26.005  40.839  1.00  0.00     0.100 A 
ATOM      3  C   UNL     1      20.431  26.862  41.936  1.00  0.00     0.197 A 
ATOM      4  O   UNL     1      21.358  27.716  41.967  1.00  0.00    -0.289 OA
ATOM      5  C   UNL     1      19.491  26.761  42.982  1.00  0.00     0.107 A 
ATOM      6  C   UNL     1      19.516  27.589  44.128  1.00  0.00     0.134 A 
ATOM      7  C   UNL     1      18.540  27.426  45.123  1.00  0.00     0.093 A 
ATOM      8  C   UNL     1      17.543  26.458  44.993  1.00  0.00     0.123 A 
ATOM      9  C   UNL     1      17.513  25.637  43.860  1.00  0.00     0.094 A 
ATOM     10  C   UNL     1      18.477  25.780  42.859  1.00  0.00     0.146 A 
ATOM     11  O   UNL     1      18.429  24.988  41.794  1.00  0.00    -0.456 OA
ENDROOT
BRANCH   1  12
ATOM     12  C   UNL     1      19.156  24.114  39.652  1.00  0.00     0.021 A 
ATOM     13  C   UNL     1      18.131  24.268  38.699  1.00  0.00     0.016 A 
ATOM     14  C   UNL     1      18.021  23.377  37.627  1.00  0.00     0.051 A 
ATOM     15  C   UNL     1      18.930  22.327  37.483  1.00  0.00     0.157 A 
ATOM     16  C   UNL     1      20.077  23.063  39.493  1.00  0.00     0.062 A 
ATOM     17  C   UNL     1      19.965  22.168  38.418  1.00  0.00     0.158 A 
BRANCH  15  18
ATOM     18  O   UNL     1      18.792  21.454  36.405  1.00  0.00    -0.504 OA
ATOM     19  H   UNL     1      18.042  20.774  36.355  1.00  0.00     0.293 HD
ENDBRANCH  15  18
BRANCH  17  20
ATOM     20  O   UNL     1      20.879  21.125  38.279  1.00  0.00    -0.504 OA
ATOM     21  H   UNL     1      21.208  20.824  37.370  1.00  0.00     0.293 HD
ENDBRANCH  17  20
ENDBRANCH   1  12
BRANCH   6  22
ATOM     22  O   UNL     1      20.500  28.565  44.287  1.00  0.00    -0.507 OA
ATOM     23  H   UNL     1      20.606  29.078  45.155  1.00  0.00     0.293 HD
ENDBRANCH   6  22
BRANCH   8  24
ATOM     24  O   UNL     1      16.585  26.319  45.996  1.00  0.00    -0.508 OA
ATOM     25  H   UNL     1      16.819  26.449  46.972  1.00  0.00     0.293 HD
ENDBRANCH   8  24
TORSDOF 5
ENDMDL
MODEL 3
REMARK VINA RESULT:    -6.952      1.674      7.323
REMARK INTER + INTRA:          -8.434
REMARK INTER:                  -8.168
REMARK INTRA:                  -0.266
REMARK UNBOUND:                -0.263
REMARK SMILES O=c1cc(-c2ccc(O)c(O)c2)oc2cc(O)cc(O)c12
REMARK SMILES IDX 4 1 3 2 2 3 1 4 21 5 19 6 18 7 16 8 15 9 14 10 13 11 5 12
REMARK SMILES IDX 6 13 7 14 8 15 12 16 10 17 9 18 11 20 20 22 17 24
REMARK H PARENT 9 19 11 21 20 23 17 25
REMARK Flexibility Score: inf
ROOT
ATOM      1  C   UNL     1      19.081  25.306  40.677  1.00  0.00     0.138 A 
ATOM      2  C   UNL     1      18.919  26.262  39.660  1.00  0.00     0.100 A 
ATOM      3  C   UNL     1      19.146  25.899  38.333  1.00  0.00     0.197 A 
ATOM      4  O   UNL     1      19.000  26.764  37.428  1.00  0.00    -0.289 OA
ATOM      5  C   UNL     1      19.537  24.578  38.030  1.00  0.00     0.107 A 
ATOM      6  C   UNL     1      19.786  24.127  36.713  1.00  0.00     0.134 A 
ATOM      7  C   UNL     1      20.176  22.797  36.497  1.00  0.00     0.093 A 
ATOM      8  C   UNL     1      20.324  21.914  37.568  1.00  0.00     0.123 A 
ATOM      9  C   UNL     1      20.080  22.355  38.873  1.00  0.00     0.094 A 
ATOM     10  C   UNL     1      19.688  23.675  39.110  1.00  0.00     0.146 A 
ATOM     11  O   UNL     1      19.460  24.071  40.358  1.00  0.00    -0.456 OA
ENDROOT
BRANCH   1  12
ATOM     12  C   UNL     1      18.855  25.638  42.107  1.00  0.00     0.021 A 
ATOM     13  C   UNL     1      17.921  24.935  42.891  1.00  0.00     0.016 A 
ATOM     14  C   UNL     1      17.737  25.262  44.237  1.00  0.00     0.051 A 
ATOM     15  C   UNL     1      18.483  26.286  44.825  1.00  0.00     0.157 A 
ATOM     16  C   UNL     1      19.613  26.659  42.709  1.00  0.00     0.062 A 
ATOM     17  C   UNL     1      19.427  26.988  44.059  1.00  0.00     0.158 A 
BRANCH  15  18
ATOM     18  O   UNL     1      18.275  26.590  46.170  1.00  0.00    -0.504 OA
ATOM     19  H   UNL     1      17.351  26.771  46.544  1.00  0.00     0.293 HD
ENDBRANCH  15  18
BRANCH  17  20
ATOM     20  O   UNL     1      20.178  28.009  44.640  1.00  0.00    -0.504 OA
ATOM     21  H   UNL     1      19.749  28.722  45.217  1.00  0.00     0.293 HD
ENDBRANCH  17  20
ENDBRANCH   1  12
BRANCH   6  22
ATOM     22  O   UNL     1      19.647  24.985  35.622  1.00  0.00    -0.507 OA
ATOM     23  H   UNL     1      18.886  25.652  35.562  1.00  0.00     0.293 HD
ENDBRANCH   6  22
BRANCH   8  24
ATOM     24  O   UNL     1      20.714  20.598  37.326  1.00  0.00    -0.508 OA
ATOM     25  H   UNL     1      21.641  20.268  37.566  1.00  0.00     0.293 HD
ENDBRANCH   8  24
TORSDOF 5
ENDMDL
MODEL 4
REMARK VINA RESULT:    -6.810      1.388      2.054
REMARK INTER + INTRA:          -8.267
REMARK INTER:                  -8.005
REMARK INTRA:                  -0.263
REMARK UNBOUND:                -0.263
REMARK SMILES O=c1cc(-c2ccc(O)c(O)c2)oc2cc(O)cc(O)c12
REMARK SMILES IDX 4 1 3 2 2 3 1 4 21 5 19 6 18 7 16 8 15 9 14 10 13 11 5 12
REMARK SMILES IDX 6 13 7 14 8 15 12 16 10 17 9 18 11 20 20 22 17 24
REMARK H PARENT 9 19 11 21 20 23 17 25
REMARK Flexibility Score: inf
ROOT
ATOM      1  C   UNL     1      18.088  24.404  42.551  1.00  0.00     0.138 A 
ATOM      2  C   UNL     1      17.298  23.591  43.380  1.00  0.00     0.100 A 
ATOM      3  C   UNL     1      16.826  24.097  44.591  1.00  0.00     0.197 A 
ATOM      4  O   UNL     1      16.119  23.359  45.329  1.00  0.00    -0.289 OA
ATOM      5  C   UNL     1      17.151  25.416  44.968  1.00  0.00     0.107 A 
ATOM      6  C   UNL     1      16.713  26.007  46.176  1.00  0.00     0.134 A 
ATOM      7  C   UNL     1      17.085  27.326  46.479  1.00  0.00     0.093 A 
ATOM      8  C   UNL     1      17.884  28.061  45.601  1.00  0.00     0.123 A 
ATOM      9  C   UNL     1      18.320  27.481  44.405  1.00  0.00     0.094 A 
ATOM     10  C   UNL     1      17.959  26.170  44.083  1.00  0.00     0.146 A 
ATOM     11  O   UNL     1      18.385  25.642  42.940  1.00  0.00    -0.456 OA
ENDROOT
BRANCH   1  12
ATOM     12  C   UNL     1      18.619  23.917  41.252  1.00  0.00     0.021 A 
ATOM     13  C   UNL     1      18.048  24.308  40.026  1.00  0.00     0.016 A 
ATOM     14  C   UNL     1      18.576  23.842  38.819  1.00  0.00     0.051 A 
ATOM     15  C   UNL     1      19.681  22.988  38.811  1.00  0.00     0.157 A 
ATOM     16  C   UNL     1      19.740  23.068  41.237  1.00  0.00     0.062 A 
ATOM     17  C   UNL     1      20.269  22.600  40.026  1.00  0.00     0.158 A 
BRANCH  15  18
ATOM     18  O   UNL     1      20.183  22.539  37.590  1.00  0.00    -0.504 OA
ATOM     19  H   UNL     1      19.644  21.942  36.974  1.00  0.00     0.293 HD
ENDBRANCH  15  18
BRANCH  17  20
ATOM     20  O   UNL     1      21.375  21.750  40.027  1.00  0.00    -0.504 OA
ATOM     21  H   UNL     1      21.953  21.632  40.849  1.00  0.00     0.293 HD
ENDBRANCH  17  20
ENDBRANCH   1  12
BRANCH   6  22
ATOM     22  O   UNL     1      15.914  25.298  47.073  1.00  0.00    -0.507 OA
ATOM     23  H   UNL     1      16.280  24.946  47.951  1.00  0.00     0.293 HD
ENDBRANCH   6  22
BRANCH   8  24
ATOM     24  O   UNL     1      18.239  29.368  45.927  1.00  0.00    -0.508 OA
ATOM     25  H   UNL     1      19.031  29.826  45.492  1.00  0.00     0.293 HD
ENDBRANCH   8  24
TORSDOF 5
ENDMDL
MODEL 5
REMARK VINA RESULT:    -6.809      2.025      7.067
REMARK INTER + INTRA:          -8.266
REMARK INTER:                  -7.996
REMARK INTRA:                  -0.270
REMARK UNBOUND:                -0.263
REMARK SMILES O=c1cc(-c2ccc(O)c(O)c2)oc2cc(O)cc(O)c12
REMARK SMILES IDX 4 1 3 2 2 3 1 4 21 5 19 6 18 7 16 8 15 9 14 10 13 11 5 12
REMARK SMILES IDX 6 13 7 14 8 15 12 16 10 17 9 18 11 20 20 22 17 24
REMARK H PARENT 9 19 11 21 20 23 17 25
REMARK Flexibility Score: inf
ROOT
ATOM      1  C   UNL     1      18.639  25.006  40.442  1.00  0.00     0.138 A 
ATOM      2  C   UNL     1      17.437  25.241  39.753  1.00  0.00     0.100 A 
ATOM      3  C   UNL     1      17.120  24.462  38.640  1.00  0.00     0.197 A 
ATOM      4  O   UNL     1      16.041  24.682  38.027  1.00  0.00    -0.289 OA
ATOM      5  C   UNL     1      18.010  23.452  38.221  1.00  0.00     0.107 A 
ATOM      6  C   UNL     1      17.765  22.618  37.105  1.00  0.00     0.134 A 
ATOM      7  C   UNL     1      18.705  21.638  36.751  1.00  0.00     0.093 A 
ATOM      8  C   UNL     1      19.881  21.479  37.487  1.00  0.00     0.123 A 
ATOM      9  C   UNL     1      20.129  22.302  38.591  1.00  0.00     0.094 A 
ATOM     10  C   UNL     1      19.205  23.282  38.962  1.00  0.00     0.146 A 
ATOM     11  O   UNL     1      19.461  24.051  40.015  1.00  0.00    -0.456 OA
ENDROOT
BRANCH   1  12
ATOM     12  C   UNL     1      19.028  25.805  41.632  1.00  0.00     0.021 A 
ATOM     13  C   UNL     1      18.409  25.620  42.883  1.00  0.00     0.016 A 
ATOM     14  C   UNL     1      18.804  26.379  43.988  1.00  0.00     0.051 A 
ATOM     15  C   UNL     1      19.823  27.327  43.868  1.00  0.00     0.157 A 
ATOM     16  C   UNL     1      20.063  26.751  41.522  1.00  0.00     0.062 A 
ATOM     17  C   UNL     1      20.458  27.514  42.630  1.00  0.00     0.158 A 
BRANCH  15  18
ATOM     18  O   UNL     1      20.193  28.070  44.989  1.00  0.00    -0.504 OA
ATOM     19  H   UNL     1      21.088  27.944  45.447  1.00  0.00     0.293 HD
ENDBRANCH  15  18
BRANCH  17  20
ATOM     20  O   UNL     1      21.479  28.456  42.503  1.00  0.00    -0.504 OA
ATOM     21  H   UNL     1      21.312  29.369  42.100  1.00  0.00     0.293 HD
ENDBRANCH  17  20
ENDBRANCH   1  12
BRANCH   6  22
ATOM     22  O   UNL     1      16.600  22.753  36.351  1.00  0.00    -0.507 OA
ATOM     23  H   UNL     1      16.339  22.072  35.646  1.00  0.00     0.293 HD
ENDBRANCH   6  22
BRANCH   8  24
ATOM     24  O   UNL     1      20.798  20.499  37.112  1.00  0.00    -0.508 OA
ATOM     25  H   UNL     1      21.753  20.512  37.449  1.00  0.00     0.293 HD
ENDBRANCH   8  24
TORSDOF 5
ENDMDL
MODEL 6
REMARK VINA RESULT:    -6.747      4.034      7.433
REMARK INTER + INTRA:          -8.194
REMARK INTER:                  -7.919
REMARK INTRA:                  -0.275
REMARK UNBOUND:                -0.263
REMARK SMILES O=c1cc(-c2ccc(O)c(O)c2)oc2cc(O)cc(O)c12
REMARK SMILES IDX 4 1 3 2 2 3 1 4 21 5 19 6 18 7 16 8 15 9 14 10 13 11 5 12
REMARK SMILES IDX 6 13 7 14 8 15 12 16 10 17 9 18 11 20 20 22 17 24
REMARK H PARENT 9 19 11 21 20 23 17 25
REMARK Flexibility Score: inf
ROOT
ATOM      1  C   UNL     1      17.502  24.136  45.445  1.00  0.00     0.138 A 
ATOM      2  C   UNL     1      17.513  23.429  44.231  1.00  0.00     0.100 A 
ATOM      3  C   UNL     1      17.279  22.054  44.235  1.00  0.00     0.197 A 
ATOM      4  O   UNL     1      17.292  21.429  43.141  1.00  0.00    -0.289 OA
ATOM      5  C   UNL     1      17.037  21.393  45.456  1.00  0.00     0.107 A 
ATOM      6  C   UNL     1      16.790  20.003  45.549  1.00  0.00     0.134 A 
ATOM      7  C   UNL     1      16.562  19.420  46.805  1.00  0.00     0.093 A 
ATOM      8  C   UNL     1      16.580  20.197  47.965  1.00  0.00     0.123 A 
ATOM      9  C   UNL     1      16.825  21.572  47.879  1.00  0.00     0.094 A 
ATOM     10  C   UNL     1      17.051  22.172  46.638  1.00  0.00     0.146 A 
ATOM     11  O   UNL     1      17.280  23.480  46.582  1.00  0.00    -0.456 OA
ENDROOT
BRANCH   1  12
ATOM     12  C   UNL     1      17.746  25.600  45.502  1.00  0.00     0.021 A 
ATOM     13  C   UNL     1      16.944  26.455  46.281  1.00  0.00     0.016 A 
ATOM     14  C   UNL     1      17.205  27.828  46.323  1.00  0.00     0.051 A 
ATOM     15  C   UNL     1      18.269  28.369  45.598  1.00  0.00     0.157 A 
ATOM     16  C   UNL     1      18.825  26.150  44.784  1.00  0.00     0.062 A 
ATOM     17  C   UNL     1      19.085  27.527  44.826  1.00  0.00     0.158 A 
BRANCH  15  18
ATOM     18  O   UNL     1      18.502  29.742  45.658  1.00  0.00    -0.504 OA
ATOM     19  H   UNL     1      19.414  30.142  45.475  1.00  0.00     0.293 HD
ENDBRANCH  15  18
BRANCH  17  20
ATOM     20  O   UNL     1      20.151  28.059  44.102  1.00  0.00    -0.504 OA
ATOM     21  H   UNL     1      20.552  28.960  44.331  1.00  0.00     0.293 HD
ENDBRANCH  17  20
ENDBRANCH   1  12
BRANCH   6  22
ATOM     22  O   UNL     1      16.766  19.201  44.408  1.00  0.00    -0.507 OA
ATOM     23  H   UNL     1      16.293  18.305  44.396  1.00  0.00     0.293 HD
ENDBRANCH   6  22
BRANCH   8  24
ATOM     24  O   UNL     1      16.352  19.592  49.200  1.00  0.00    -0.508 OA
ATOM     25  H   UNL     1      15.878  18.701  49.273  1.00  0.00     0.293 HD
ENDBRANCH   8  24
TORSDOF 5
ENDMDL
MODEL 7
REMARK VINA RESULT:    -6.691      1.625      7.233
REMARK INTER + INTRA:          -8.127
REMARK INTER:                  -7.863
REMARK INTRA:                  -0.264
REMARK UNBOUND:                -0.263
REMARK SMILES O=c1cc(-c2ccc(O)c(O)c2)oc2cc(O)cc(O)c12
REMARK SMILES IDX 4 1 3 2 2 3 1 4 21 5 19 6 18 7 16 8 15 9 14 10 13 11 5 12
REMARK SMILES IDX 6 13 7 14 8 15 12 16 10 17 9 18 11 20 20 22 17 24
REMARK H PARENT 9 19 11 21 20 23 17 25
REMARK Flexibility Score: inf
ROOT
ATOM      1  C   UNL     1      19.384  24.556  40.814  1.00  0.00     0.138 A 
ATOM      2  C   UNL     1      20.037  23.313  40.862  1.00  0.00     0.100 A 
ATOM      3  C   UNL     1      20.295  22.626  39.675  1.00  0.00     0.197 A 
ATOM      4  O   UNL     1      20.880  21.511  39.729  1.00  0.00    -0.289 OA
ATOM      5  C   UNL     1      19.894  23.188  38.445  1.00  0.00     0.107 A 
ATOM      6  C   UNL     1      20.118  22.559  37.198  1.00  0.00     0.134 A 
ATOM      7  C   UNL     1      19.685  23.183  36.019  1.00  0.00     0.093 A 
ATOM      8  C   UNL     1      19.032  24.417  36.063  1.00  0.00     0.123 A 
ATOM      9  C   UNL     1      18.807  25.042  37.294  1.00  0.00     0.094 A 
ATOM     10  C   UNL     1      19.234  24.439  38.480  1.00  0.00     0.146 A 
ATOM     11  O   UNL     1      19.011  25.054  39.637  1.00  0.00    -0.456 OA
ENDROOT
BRANCH   1  12
ATOM     12  C   UNL     1      19.082  25.330  42.045  1.00  0.00     0.021 A 
ATOM     13  C   UNL     1      18.001  24.996  42.883  1.00  0.00     0.016 A 
ATOM     14  C   UNL     1      17.747  25.736  44.041  1.00  0.00     0.051 A 
ATOM     15  C   UNL     1      18.567  26.812  44.387  1.00  0.00     0.157 A 
ATOM     16  C   UNL     1      19.912  26.407  42.407  1.00  0.00     0.062 A 
ATOM     17  C   UNL     1      19.656  27.150  43.568  1.00  0.00     0.158 A 
BRANCH  15  18
ATOM     18  O   UNL     1      18.287  27.533  45.548  1.00  0.00    -0.504 OA
ATOM     19  H   UNL     1      18.435  28.533  45.610  1.00  0.00     0.293 HD
ENDBRANCH  15  18
BRANCH  17  20
ATOM     20  O   UNL     1      20.482  28.221  43.909  1.00  0.00    -0.504 OA
ATOM     21  H   UNL     1      20.961  28.768  43.204  1.00  0.00     0.293 HD
ENDBRANCH  17  20
ENDBRANCH   1  12
BRANCH   6  22
ATOM     22  O   UNL     1      20.767  21.327  37.122  1.00  0.00    -0.507 OA
ATOM     23  H   UNL     1      21.463  21.134  36.410  1.00  0.00     0.293 HD
ENDBRANCH   6  22
BRANCH   8  24
ATOM     24  O   UNL     1      18.610  25.014  34.876  1.00  0.00    -0.508 OA
ATOM     25  H   UNL     1      18.132  25.906  34.874  1.00  0.00     0.293 HD
ENDBRANCH   8  24
TORSDOF 5
ENDMDL
MODEL 8
REMARK VINA RESULT:    -6.601      1.679      7.078
REMARK INTER + INTRA:          -8.022
REMARK INTER:                  -7.758
REMARK INTRA:                  -0.264
REMARK UNBOUND:                -0.263
REMARK SMILES O=c1cc(-c2ccc(O)c(O)c2)oc2cc(O)cc(O)c12
REMARK SMILES IDX 4 1 3 2 2 3 1 4 21 5 19 6 18 7 16 8 15 9 14 10 13 11 5 12
REMARK SMILES IDX 6 13 7 14 8 15 12 16 10 17 9 18 11 20 20 22 17 24
REMARK H PARENT 9 19 11 21 20 23 17 25
REMARK Flexibility Score: inf
ROOT
ATOM      1  C   UNL     1      17.649  25.355  42.261  1.00  0.00     0.138 A 
ATOM      2  C   UNL     1      16.905  25.715  41.125  1.00  0.00     0.100 A 
ATOM      3  C   UNL     1      17.210  25.136  39.893  1.00  0.00     0.197 A 
ATOM      4  O   UNL     1      16.538  25.466  38.879  1.00  0.00    -0.289 OA
ATOM      5  C   UNL     1      18.262  24.201  39.804  1.00  0.00     0.107 A 
ATOM      6  C   UNL     1      18.635  23.568  38.596  1.00  0.00     0.134 A 
ATOM      7  C   UNL     1      19.697  22.651  38.591  1.00  0.00     0.093 A 
ATOM      8  C   UNL     1      20.391  22.359  39.767  1.00  0.00     0.123 A 
ATOM      9  C   UNL     1      20.027  22.983  40.965  1.00  0.00     0.094 A 
ATOM     10  C   UNL     1      18.970  23.897  40.991  1.00  0.00     0.146 A 
ATOM     11  O   UNL     1      18.642  24.476  42.142  1.00  0.00    -0.456 OA
ENDROOT
BRANCH   1  12
ATOM     12  C   UNL     1      17.370  25.940  43.598  1.00  0.00     0.021 A 
ATOM     13  C   UNL     1      16.460  25.344  44.491  1.00  0.00     0.016 A 
ATOM     14  C   UNL     1      16.225  25.911  45.746  1.00  0.00     0.051 A 
ATOM     15  C   UNL     1      16.897  27.073  46.135  1.00  0.00     0.157 A 
ATOM     16  C   UNL     1      18.053  27.102  44.001  1.00  0.00     0.062 A 
ATOM     17  C   UNL     1      17.817  27.671  45.260  1.00  0.00     0.158 A 
BRANCH  15  18
ATOM     18  O   UNL     1      16.639  27.616  47.394  1.00  0.00    -0.504 OA
ATOM     19  H   UNL     1      15.858  27.310  47.962  1.00  0.00     0.293 HD
ENDBRANCH  15  18
BRANCH  17  20
ATOM     20  O   UNL     1      18.493  28.829  45.642  1.00  0.00    -0.504 OA
ATOM     21  H   UNL     1      18.148  29.751  45.403  1.00  0.00     0.293 HD
ENDBRANCH  17  20
ENDBRANCH   1  12
BRANCH   6  22
ATOM     22  O   UNL     1      17.960  23.839  37.405  1.00  0.00    -0.507 OA
ATOM     23  H   UNL     1      17.578  23.098  36.828  1.00  0.00     0.293 HD
ENDBRANCH   6  22
BRANCH   8  24
ATOM     24  O   UNL     1      21.443  21.445  39.734  1.00  0.00    -0.508 OA
ATOM     25  H   UNL     1      22.333  21.678  39.310  1.00  0.00     0.293 HD
ENDBRANCH   8  24
TORSDOF 5
ENDMDL
MODEL 9
REMARK VINA RESULT:    -6.434      4.181      6.789
REMARK INTER + INTRA:          -7.825
REMARK INTER:                  -7.531
REMARK INTRA:                  -0.294
REMARK UNBOUND:                -0.263
REMARK SMILES O=c1cc(-c2ccc(O)c(O)c2)oc2cc(O)cc(O)c12
REMARK SMILES IDX 4 1 3 2 2 3 1 4 21 5 19 6 18 7 16 8 15 9 14 10 13 11 5 12
REMARK SMILES IDX 6 13 7 14 8 15 12 16 10 17 9 18 11 20 20 22 17 24
REMARK H PARENT 9 19 11 21 20 23 17 25
REMARK Flexibility Score: inf
ROOT
ATOM      1  C   UNL     1      17.466  22.928  44.758  1.00  0.00     0.138 A 
ATOM      2  C   UNL     1      17.083  23.129  46.095  1.00  0.00     0.100 A 
ATOM      3  C   UNL     1      16.702  22.036  46.872  1.00  0.00     0.197 A 
ATOM      4  O   UNL     1      16.360  22.226  48.070  1.00  0.00    -0.289 OA
ATOM      5  C   UNL     1      16.704  20.745  46.305  1.00  0.00     0.107 A 
ATOM      6  C   UNL     1      16.334  19.584  47.023  1.00  0.00     0.134 A 
ATOM      7  C   UNL     1      16.358  18.335  46.383  1.00  0.00     0.093 A 
ATOM      8  C   UNL     1      16.742  18.226  45.045  1.00  0.00     0.123 A 
ATOM      9  C   UNL     1      17.108  19.372  44.330  1.00  0.00     0.094 A 
ATOM     10  C   UNL     1      17.093  20.625  44.949  1.00  0.00     0.146 A 
ATOM     11  O   UNL     1      17.447  21.698  44.250  1.00  0.00    -0.456 OA
ENDROOT
BRANCH   1  12
ATOM     12  C   UNL     1      17.878  24.056  43.884  1.00  0.00     0.021 A 
ATOM     13  C   UNL     1      18.031  23.897  42.493  1.00  0.00     0.016 A 
ATOM     14  C   UNL     1      18.410  24.979  41.694  1.00  0.00     0.051 A 
ATOM     15  C   UNL     1      18.636  26.234  42.262  1.00  0.00     0.157 A 
ATOM     16  C   UNL     1      18.095  25.326  44.448  1.00  0.00     0.062 A 
ATOM     17  C   UNL     1      18.477  26.411  43.646  1.00  0.00     0.158 A 
BRANCH  15  18
ATOM     18  O   UNL     1      19.016  27.293  41.438  1.00  0.00    -0.504 OA
ATOM     19  H   UNL     1      19.480  28.118  41.801  1.00  0.00     0.293 HD
ENDBRANCH  15  18
BRANCH  17  20
ATOM     20  O   UNL     1      18.697  27.662  44.221  1.00  0.00    -0.504 OA
ATOM     21  H   UNL     1      18.192  27.965  45.044  1.00  0.00     0.293 HD
ENDBRANCH  17  20
ENDBRANCH   1  12
BRANCH   6  22
ATOM     22  O   UNL     1      15.946  19.660  48.361  1.00  0.00    -0.507 OA
ATOM     23  H   UNL     1      16.174  18.928  49.024  1.00  0.00     0.293 HD
ENDBRANCH   6  22
BRANCH   8  24
ATOM     24  O   UNL     1      16.756  16.974  44.434  1.00  0.00    -0.508 OA
ATOM     25  H   UNL     1      17.305  16.209  44.807  1.00  0.00     0.293 HD
ENDBRANCH   8  24
TORSDOF 5
ENDMDL
