MODEL 1
REMARK VINA RESULT:    -4.226      0.000      0.000
REMARK INTER + INTRA:          -9.694
REMARK INTER:                  -7.685
REMARK INTRA:                  -2.009
REMARK UNBOUND:                -2.009
REMARK SMILES CCCCCCCCCCCCCCCC(=O)[O-]
REMARK SMILES IDX 9 1 10 2 11 3 12 4 13 5 14 6 15 7 16 8 17 9 18 10 8 11 7 12
REMARK SMILES IDX 6 13 5 14 4 15 3 16 2 17 1 18
REMARK H PARENT
REMARK Flexibility Score: inf
ROOT
ATOM      1  C   UNL     1     -33.115  10.341  52.891  1.00  0.00     0.000 C 
ENDROOT
BRANCH   1   2
ATOM      2  C   UNL     1     -32.232   9.293  53.593  1.00  0.00     0.000 C 
BRANCH   2   3
ATOM      3  C   UNL     1     -33.043   8.109  54.141  1.00  0.00     0.000 C 
BRANCH   3   4
ATOM      4  C   UNL     1     -33.268   8.192  55.661  1.00  0.00     0.000 C 
BRANCH   4   5
ATOM      5  C   UNL     1     -34.544   7.444  56.102  1.00  0.00     0.000 C 
BRANCH   5   6
ATOM      6  C   UNL     1     -35.629   7.383  55.013  1.00  0.00     0.006 C 
BRANCH   6   7
ATOM      7  C   UNL     1     -36.343   6.027  54.957  1.00  0.00     0.053 C 
BRANCH   7   8
ATOM      8  C   UNL     1     -36.247   5.443  53.583  1.00  0.00     0.041 C 
ATOM      9  O   UNL     1     -37.279   5.014  53.003  1.00  0.00    -0.550 OA
ATOM     10  O   UNL     1     -35.026   5.417  52.923  1.00  0.00    -0.550 OA
ENDBRANCH   7   8
ENDBRANCH   6   7
ENDBRANCH   5   6
ENDBRANCH   4   5
ENDBRANCH   3   4
ENDBRANCH   2   3
ENDBRANCH   1   2
BRANCH   1  11
ATOM     11  C   UNL     1     -32.818  10.450  51.386  1.00  0.00     0.000 C 
BRANCH  11  12
ATOM     12  C   UNL     1     -33.433  11.706  50.749  1.00  0.00    -0.000 C 
BRANCH  12  13
ATOM     13  C   UNL     1     -34.254  11.340  49.502  1.00  0.00    -0.000 C 
BRANCH  13  14
ATOM     14  C   UNL     1     -35.749  11.665  49.659  1.00  0.00    -0.000 C 
BRANCH  14  15
ATOM     15  C   UNL     1     -36.607  10.405  49.877  1.00  0.00    -0.000 C 
BRANCH  15  16
ATOM     16  C   UNL     1     -36.891  10.136  51.363  1.00  0.00    -0.000 C 
BRANCH  16  17
ATOM     17  C   UNL     1     -36.373   8.766  51.828  1.00  0.00    -0.003 C 
ATOM     18  C   UNL     1     -35.653   8.040  50.696  1.00  0.00     0.004 C 
ENDBRANCH  16  17
ENDBRANCH  15  16
ENDBRANCH  14  15
ENDBRANCH  13  14
ENDBRANCH  12  13
ENDBRANCH  11  12
ENDBRANCH   1  11
TORSDOF 14
ENDMDL
MODEL 2
REMARK VINA RESULT:    -4.218      3.803      5.275
REMARK INTER + INTRA:          -9.680
REMARK INTER:                  -7.954
REMARK INTRA:                  -1.726
REMARK UNBOUND:                -2.009
REMARK SMILES CCCCCCCCCCCCCCCC(=O)[O-]
REMARK SMILES IDX 9 1 10 2 11 3 12 4 13 5 14 6 15 7 16 8 17 9 18 10 8 11 7 12
REMARK SMILES IDX 6 13 5 14 4 15 3 16 2 17 1 18
REMARK H PARENT
REMARK Flexibility Score: inf
ROOT
ATOM      1  C   UNL     1     -31.783   5.726  51.222  1.00  0.00     0.000 C 
ENDROOT
BRANCH   1   2
ATOM      2  C   UNL     1     -32.718   6.547  52.128  1.00  0.00     0.000 C 
BRANCH   2   3
ATOM      3  C   UNL     1     -33.883   7.183  51.354  1.00  0.00     0.000 C 
BRANCH   3   4
ATOM      4  C   UNL     1     -35.175   6.350  51.430  1.00  0.00     0.000 C 
BRANCH   4   5
ATOM      5  C   UNL     1     -35.230   5.475  52.700  1.00  0.00     0.000 C 
BRANCH   5   6
ATOM      6  C   UNL     1     -36.465   5.740  53.577  1.00  0.00     0.006 C 
BRANCH   6   7
ATOM      7  C   UNL     1     -36.316   6.984  54.460  1.00  0.00     0.053 C 
BRANCH   7   8
ATOM      8  C   UNL     1     -35.335   6.729  55.560  1.00  0.00     0.041 C 
ATOM      9  O   UNL     1     -34.267   7.393  55.624  1.00  0.00    -0.550 OA
ATOM     10  O   UNL     1     -35.622   5.792  56.543  1.00  0.00    -0.550 OA
ENDBRANCH   7   8
ENDBRANCH   6   7
ENDBRANCH   5   6
ENDBRANCH   4   5
ENDBRANCH   3   4
ENDBRANCH   2   3
ENDBRANCH   1   2
BRANCH   1  11
ATOM     11  C   UNL     1     -32.024   4.211  51.344  1.00  0.00     0.000 C 
BRANCH  11  12
ATOM     12  C   UNL     1     -32.681   3.612  50.091  1.00  0.00    -0.000 C 
BRANCH  12  13
ATOM     13  C   UNL     1     -32.675   4.622  48.933  1.00  0.00    -0.000 C 
BRANCH  13  14
ATOM     14  C   UNL     1     -33.921   4.507  48.039  1.00  0.00    -0.000 C 
BRANCH  14  15
ATOM     15  C   UNL     1     -34.561   5.875  47.740  1.00  0.00    -0.000 C 
BRANCH  15  16
ATOM     16  C   UNL     1     -34.571   6.206  46.239  1.00  0.00    -0.000 C 
BRANCH  16  17
ATOM     17  C   UNL     1     -35.991   6.390  45.681  1.00  0.00    -0.003 C 
ATOM     18  C   UNL     1     -36.747   5.065  45.657  1.00  0.00     0.004 C 
ENDBRANCH  16  17
ENDBRANCH  15  16
ENDBRANCH  14  15
ENDBRANCH  13  14
ENDBRANCH  12  13
ENDBRANCH  11  12
ENDBRANCH   1  11
TORSDOF 14
ENDMDL
MODEL 3
REMARK VINA RESULT:    -4.214      2.918      4.683
REMARK INTER + INTRA:          -9.673
REMARK INTER:                  -7.593
REMARK INTRA:                  -2.080
REMARK UNBOUND:                -2.009
REMARK SMILES CCCCCCCCCCCCCCCC(=O)[O-]
REMARK SMILES IDX 9 1 10 2 11 3 12 4 13 5 14 6 15 7 16 8 17 9 18 10 8 11 7 12
REMARK SMILES IDX 6 13 5 14 4 15 3 16 2 17 1 18
REMARK H PARENT
REMARK Flexibility Score: inf
ROOT
ATOM      1  C   UNL     1     -34.518  10.270  49.738  1.00  0.00     0.000 C 
ENDROOT
BRANCH   1   2
ATOM      2  C   UNL     1     -35.830  11.034  49.483  1.00  0.00     0.000 C 
BRANCH   2   3
ATOM      3  C   UNL     1     -36.927  10.677  50.498  1.00  0.00     0.000 C 
BRANCH   3   4
ATOM      4  C   UNL     1     -36.390   9.886  51.705  1.00  0.00     0.000 C 
BRANCH   4   5
ATOM      5  C   UNL     1     -37.378   8.797  52.173  1.00  0.00     0.000 C 
BRANCH   5   6
ATOM      6  C   UNL     1     -36.755   7.392  52.248  1.00  0.00     0.006 C 
BRANCH   6   7
ATOM      7  C   UNL     1     -35.497   7.343  53.122  1.00  0.00     0.053 C 
BRANCH   7   8
ATOM      8  C   UNL     1     -35.845   6.922  54.515  1.00  0.00     0.041 C 
ATOM      9  O   UNL     1     -35.326   7.506  55.502  1.00  0.00    -0.550 OA
ATOM     10  O   UNL     1     -36.779   5.916  54.723  1.00  0.00    -0.550 OA
ENDBRANCH   7   8
ENDBRANCH   6   7
ENDBRANCH   5   6
ENDBRANCH   4   5
ENDBRANCH   3   4
ENDBRANCH   2   3
ENDBRANCH   1   2
BRANCH   1  11
ATOM     11  C   UNL     1     -34.147   9.330  48.579  1.00  0.00     0.000 C 
BRANCH  11  12
ATOM     12  C   UNL     1     -33.890   7.888  49.043  1.00  0.00    -0.000 C 
BRANCH  12  13
ATOM     13  C   UNL     1     -35.199   7.083  49.078  1.00  0.00    -0.000 C 
BRANCH  13  14
ATOM     14  C   UNL     1     -36.202   7.533  48.004  1.00  0.00    -0.000 C 
BRANCH  14  15
ATOM     15  C   UNL     1     -36.569   6.401  47.027  1.00  0.00    -0.000 C 
BRANCH  15  16
ATOM     16  C   UNL     1     -35.479   6.157  45.972  1.00  0.00    -0.000 C 
BRANCH  16  17
ATOM     17  C   UNL     1     -35.157   7.415  45.150  1.00  0.00    -0.003 C 
ATOM     18  C   UNL     1     -33.671   7.755  45.227  1.00  0.00     0.004 C 
ENDBRANCH  16  17
ENDBRANCH  15  16
ENDBRANCH  14  15
ENDBRANCH  13  14
ENDBRANCH  12  13
ENDBRANCH  11  12
ENDBRANCH   1  11
TORSDOF 14
ENDMDL
MODEL 4
REMARK VINA RESULT:    -4.200      2.503      4.923
REMARK INTER + INTRA:          -9.646
REMARK INTER:                  -7.803
REMARK INTRA:                  -1.843
REMARK UNBOUND:                -2.009
REMARK SMILES CCCCCCCCCCCCCCCC(=O)[O-]
REMARK SMILES IDX 9 1 10 2 11 3 12 4 13 5 14 6 15 7 16 8 17 9 18 10 8 11 7 12
REMARK SMILES IDX 6 13 5 14 4 15 3 16 2 17 1 18
REMARK H PARENT
REMARK Flexibility Score: inf
ROOT
ATOM      1  C   UNL     1     -33.553   7.879  55.859  1.00  0.00     0.000 C 
ENDROOT
BRANCH   1   2
ATOM      2  C   UNL     1     -33.023   8.259  54.464  1.00  0.00     0.000 C 
BRANCH   2   3
ATOM      3  C   UNL     1     -31.490   8.185  54.375  1.00  0.00     0.000 C 
BRANCH   3   4
ATOM      4  C   UNL     1     -31.002   7.349  53.179  1.00  0.00     0.000 C 
BRANCH   4   5
ATOM      5  C   UNL     1     -32.170   6.831  52.314  1.00  0.00     0.000 C 
BRANCH   5   6
ATOM      6  C   UNL     1     -31.719   6.189  50.991  1.00  0.00     0.006 C 
BRANCH   6   7
ATOM      7  C   UNL     1     -31.390   4.698  51.132  1.00  0.00     0.053 C 
BRANCH   7   8
ATOM      8  C   UNL     1     -32.588   3.866  50.800  1.00  0.00     0.041 C 
ATOM      9  O   UNL     1     -33.614   4.401  50.303  1.00  0.00    -0.550 OA
ATOM     10  O   UNL     1     -32.555   2.492  50.995  1.00  0.00    -0.550 OA
ENDBRANCH   7   8
ENDBRANCH   6   7
ENDBRANCH   5   6
ENDBRANCH   4   5
ENDBRANCH   3   4
ENDBRANCH   2   3
ENDBRANCH   1   2
BRANCH   1  11
ATOM     11  C   UNL     1     -35.063   7.589  55.857  1.00  0.00     0.000 C 
BRANCH  11  12
ATOM     12  C   UNL     1     -35.379   6.086  55.904  1.00  0.00    -0.000 C 
BRANCH  12  13
ATOM     13  C   UNL     1     -36.214   5.663  54.685  1.00  0.00    -0.000 C 
BRANCH  13  14
ATOM     14  C   UNL     1     -35.379   5.558  53.399  1.00  0.00    -0.000 C 
BRANCH  14  15
ATOM     15  C   UNL     1     -36.090   6.173  52.181  1.00  0.00    -0.000 C 
BRANCH  15  16
ATOM     16  C   UNL     1     -35.714   7.647  51.959  1.00  0.00    -0.000 C 
BRANCH  16  17
ATOM     17  C   UNL     1     -36.806   8.616  52.435  1.00  0.00    -0.003 C 
ATOM     18  C   UNL     1     -36.917   9.819  51.503  1.00  0.00     0.004 C 
ENDBRANCH  16  17
ENDBRANCH  15  16
ENDBRANCH  14  15
ENDBRANCH  13  14
ENDBRANCH  12  13
ENDBRANCH  11  12
ENDBRANCH   1  11
TORSDOF 14
ENDMDL
MODEL 5
REMARK VINA RESULT:    -4.188      3.248      4.648
REMARK INTER + INTRA:          -9.624
REMARK INTER:                  -7.721
REMARK INTRA:                  -1.903
REMARK UNBOUND:                -2.009
REMARK SMILES CCCCCCCCCCCCCCCC(=O)[O-]
REMARK SMILES IDX 9 1 10 2 11 3 12 4 13 5 14 6 15 7 16 8 17 9 18 10 8 11 7 12
REMARK SMILES IDX 6 13 5 14 4 15 3 16 2 17 1 18
REMARK H PARENT
REMARK Flexibility Score: inf
ROOT
ATOM      1  C   UNL     1     -32.742   3.624  49.959  1.00  0.00     0.000 C 
ENDROOT
BRANCH   1   2
ATOM      2  C   UNL     1     -31.719   3.825  51.092  1.00  0.00     0.000 C 
BRANCH   2   3
ATOM      3  C   UNL     1     -30.886   5.104  50.914  1.00  0.00     0.000 C 
BRANCH   3   4
ATOM      4  C   UNL     1     -31.027   6.077  52.098  1.00  0.00     0.000 C 
BRANCH   4   5
ATOM      5  C   UNL     1     -32.185   7.077  51.894  1.00  0.00     0.000 C 
BRANCH   5   6
ATOM      6  C   UNL     1     -33.492   6.655  52.587  1.00  0.00     0.006 C 
BRANCH   6   7
ATOM      7  C   UNL     1     -34.185   7.815  53.312  1.00  0.00     0.053 C 
BRANCH   7   8
ATOM      8  C   UNL     1     -33.850   7.793  54.770  1.00  0.00     0.041 C 
ATOM      9  O   UNL     1     -32.799   8.348  55.187  1.00  0.00    -0.550 OA
ATOM     10  O   UNL     1     -34.722   7.203  55.675  1.00  0.00    -0.550 OA
ENDBRANCH   7   8
ENDBRANCH   6   7
ENDBRANCH   5   6
ENDBRANCH   4   5
ENDBRANCH   3   4
ENDBRANCH   2   3
ENDBRANCH   1   2
BRANCH   1  11
ATOM     11  C   UNL     1     -32.762   4.799  48.967  1.00  0.00     0.000 C 
BRANCH  11  12
ATOM     12  C   UNL     1     -34.113   5.530  48.939  1.00  0.00    -0.000 C 
BRANCH  12  13
ATOM     13  C   UNL     1     -33.915   7.037  48.710  1.00  0.00    -0.000 C 
BRANCH  13  14
ATOM     14  C   UNL     1     -34.951   7.892  49.458  1.00  0.00    -0.000 C 
BRANCH  14  15
ATOM     15  C   UNL     1     -34.471   9.336  49.686  1.00  0.00    -0.000 C 
BRANCH  15  16
ATOM     16  C   UNL     1     -35.446  10.152  50.550  1.00  0.00    -0.000 C 
BRANCH  16  17
ATOM     17  C   UNL     1     -36.016  11.372  49.810  1.00  0.00    -0.003 C 
ATOM     18  C   UNL     1     -37.479  11.152  49.435  1.00  0.00     0.004 C 
ENDBRANCH  16  17
ENDBRANCH  15  16
ENDBRANCH  14  15
ENDBRANCH  13  14
ENDBRANCH  12  13
ENDBRANCH  11  12
ENDBRANCH   1  11
TORSDOF 14
ENDMDL
MODEL 6
REMARK VINA RESULT:    -4.176      3.345      4.772
REMARK INTER + INTRA:          -9.603
REMARK INTER:                  -7.301
REMARK INTRA:                  -2.302
REMARK UNBOUND:                -2.009
REMARK SMILES CCCCCCCCCCCCCCCC(=O)[O-]
REMARK SMILES IDX 9 1 10 2 11 3 12 4 13 5 14 6 15 7 16 8 17 9 18 10 8 11 7 12
REMARK SMILES IDX 6 13 5 14 4 15 3 16 2 17 1 18
REMARK H PARENT
REMARK Flexibility Score: inf
ROOT
ATOM      1  C   UNL     1     -30.785   5.897  51.920  1.00  0.00     0.000 C 
ENDROOT
BRANCH   1   2
ATOM      2  C   UNL     1     -31.207   7.161  51.151  1.00  0.00     0.000 C 
BRANCH   2   3
ATOM      3  C   UNL     1     -32.382   7.894  51.817  1.00  0.00     0.000 C 
BRANCH   3   4
ATOM      4  C   UNL     1     -33.052   7.062  52.926  1.00  0.00     0.000 C 
BRANCH   4   5
ATOM      5  C   UNL     1     -34.469   6.597  52.529  1.00  0.00     0.000 C 
BRANCH   5   6
ATOM      6  C   UNL     1     -35.592   7.436  53.162  1.00  0.00     0.006 C 
BRANCH   6   7
ATOM      7  C   UNL     1     -36.406   6.656  54.201  1.00  0.00     0.053 C 
BRANCH   7   8
ATOM      8  C   UNL     1     -35.634   6.522  55.476  1.00  0.00     0.041 C 
ATOM      9  O   UNL     1     -35.012   7.510  55.947  1.00  0.00    -0.550 OA
ATOM     10  O   UNL     1     -35.641   5.319  56.169  1.00  0.00    -0.550 OA
ENDBRANCH   7   8
ENDBRANCH   6   7
ENDBRANCH   5   6
ENDBRANCH   4   5
ENDBRANCH   3   4
ENDBRANCH   2   3
ENDBRANCH   1   2
BRANCH   1  11
ATOM     11  C   UNL     1     -30.790   4.638  51.036  1.00  0.00     0.000 C 
BRANCH  11  12
ATOM     12  C   UNL     1     -31.944   3.681  51.371  1.00  0.00    -0.000 C 
BRANCH  12  13
ATOM     13  C   UNL     1     -32.855   3.473  50.151  1.00  0.00    -0.000 C 
BRANCH  13  14
ATOM     14  C   UNL     1     -32.741   4.611  49.124  1.00  0.00    -0.000 C 
BRANCH  14  15
ATOM     15  C   UNL     1     -34.108   5.213  48.754  1.00  0.00    -0.000 C 
BRANCH  15  16
ATOM     16  C   UNL     1     -34.051   6.739  48.575  1.00  0.00    -0.000 C 
BRANCH  16  17
ATOM     17  C   UNL     1     -35.363   7.432  48.970  1.00  0.00    -0.003 C 
ATOM     18  C   UNL     1     -35.101   8.832  49.518  1.00  0.00     0.004 C 
ENDBRANCH  16  17
ENDBRANCH  15  16
ENDBRANCH  14  15
ENDBRANCH  13  14
ENDBRANCH  12  13
ENDBRANCH  11  12
ENDBRANCH   1  11
TORSDOF 14
ENDMDL
MODEL 7
REMARK VINA RESULT:    -4.123      3.307      6.019
REMARK INTER + INTRA:          -9.506
REMARK INTER:                  -7.348
REMARK INTRA:                  -2.158
REMARK UNBOUND:                -2.009
REMARK SMILES CCCCCCCCCCCCCCCC(=O)[O-]
REMARK SMILES IDX 9 1 10 2 11 3 12 4 13 5 14 6 15 7 16 8 17 9 18 10 8 11 7 12
REMARK SMILES IDX 6 13 5 14 4 15 3 16 2 17 1 18
REMARK H PARENT
REMARK Flexibility Score: inf
ROOT
ATOM      1  C   UNL     1     -36.425   9.870  51.747  1.00  0.00     0.000 C 
ENDROOT
BRANCH   1   2
ATOM      2  C   UNL     1     -37.018  10.628  50.546  1.00  0.00     0.000 C 
BRANCH   2   3
ATOM      3  C   UNL     1     -36.287  10.315  49.231  1.00  0.00     0.000 C 
BRANCH   3   4
ATOM      4  C   UNL     1     -34.801   9.972  49.442  1.00  0.00     0.000 C 
BRANCH   4   5
ATOM      5  C   UNL     1     -34.453   8.557  48.934  1.00  0.00     0.000 C 
BRANCH   5   6
ATOM      6  C   UNL     1     -35.640   7.829  48.279  1.00  0.00     0.006 C 
BRANCH   6   7
ATOM      7  C   UNL     1     -35.578   6.308  48.455  1.00  0.00     0.053 C 
BRANCH   7   8
ATOM      8  C   UNL     1     -34.603   5.710  47.490  1.00  0.00     0.041 C 
ATOM      9  O   UNL     1     -34.582   6.093  46.291  1.00  0.00    -0.550 OA
ATOM     10  O   UNL     1     -33.685   4.764  47.926  1.00  0.00    -0.550 OA
ENDBRANCH   7   8
ENDBRANCH   6   7
ENDBRANCH   5   6
ENDBRANCH   4   5
ENDBRANCH   3   4
ENDBRANCH   2   3
ENDBRANCH   1   2
BRANCH   1  11
ATOM     11  C   UNL     1     -37.221   8.601  52.096  1.00  0.00     0.000 C 
BRANCH  11  12
ATOM     12  C   UNL     1     -36.319   7.436  52.533  1.00  0.00    -0.000 C 
BRANCH  12  13
ATOM     13  C   UNL     1     -34.838   7.840  52.479  1.00  0.00    -0.000 C 
BRANCH  13  14
ATOM     14  C   UNL     1     -33.889   6.659  52.742  1.00  0.00    -0.000 C 
BRANCH  14  15
ATOM     15  C   UNL     1     -33.704   5.764  51.503  1.00  0.00    -0.000 C 
BRANCH  15  16
ATOM     16  C   UNL     1     -32.262   5.790  50.968  1.00  0.00    -0.000 C 
BRANCH  16  17
ATOM     17  C   UNL     1     -31.592   4.408  51.002  1.00  0.00    -0.003 C 
ATOM     18  C   UNL     1     -32.600   3.318  51.354  1.00  0.00     0.004 C 
ENDBRANCH  16  17
ENDBRANCH  15  16
ENDBRANCH  14  15
ENDBRANCH  13  14
ENDBRANCH  12  13
ENDBRANCH  11  12
ENDBRANCH   1  11
TORSDOF 14
ENDMDL
MODEL 8
REMARK VINA RESULT:    -4.116      3.829      5.611
REMARK INTER + INTRA:          -9.493
REMARK INTER:                  -7.422
REMARK INTRA:                  -2.071
REMARK UNBOUND:                -2.009
REMARK SMILES CCCCCCCCCCCCCCCC(=O)[O-]
REMARK SMILES IDX 9 1 10 2 11 3 12 4 13 5 14 6 15 7 16 8 17 9 18 10 8 11 7 12
REMARK SMILES IDX 6 13 5 14 4 15 3 16 2 17 1 18
REMARK H PARENT
REMARK Flexibility Score: inf
ROOT
ATOM      1  C   UNL     1     -31.232   6.066  52.033  1.00  0.00     0.000 C 
ENDROOT
BRANCH   1   2
ATOM      2  C   UNL     1     -30.976   4.884  51.080  1.00  0.00     0.000 C 
BRANCH   2   3
ATOM      3  C   UNL     1     -31.924   3.703  51.337  1.00  0.00     0.000 C 
BRANCH   3   4
ATOM      4  C   UNL     1     -32.759   3.327  50.099  1.00  0.00     0.000 C 
BRANCH   4   5
ATOM      5  C   UNL     1     -32.714   4.423  49.013  1.00  0.00     0.000 C 
BRANCH   5   6
ATOM      6  C   UNL     1     -34.099   4.793  48.455  1.00  0.00     0.006 C 
BRANCH   6   7
ATOM      7  C   UNL     1     -34.413   6.288  48.579  1.00  0.00     0.053 C 
BRANCH   7   8
ATOM      8  C   UNL     1     -35.072   6.789  47.333  1.00  0.00     0.041 C 
ATOM      9  O   UNL     1     -34.376   7.202  46.369  1.00  0.00    -0.550 OA
ATOM     10  O   UNL     1     -36.456   6.752  47.217  1.00  0.00    -0.550 OA
ENDBRANCH   7   8
ENDBRANCH   6   7
ENDBRANCH   5   6
ENDBRANCH   4   5
ENDBRANCH   3   4
ENDBRANCH   2   3
ENDBRANCH   1   2
BRANCH   1  11
ATOM     11  C   UNL     1     -32.405   6.949  51.575  1.00  0.00     0.000 C 
BRANCH  11  12
ATOM     12  C   UNL     1     -33.562   6.971  52.586  1.00  0.00    -0.000 C 
BRANCH  12  13
ATOM     13  C   UNL     1     -34.590   5.874  52.265  1.00  0.00    -0.000 C 
BRANCH  13  14
ATOM     14  C   UNL     1     -35.987   6.188  52.823  1.00  0.00    -0.000 C 
BRANCH  14  15
ATOM     15  C   UNL     1     -36.846   7.005  51.840  1.00  0.00    -0.000 C 
BRANCH  15  16
ATOM     16  C   UNL     1     -37.318   8.339  52.439  1.00  0.00    -0.000 C 
BRANCH  16  17
ATOM     17  C   UNL     1     -36.830   9.555  51.636  1.00  0.00    -0.003 C 
ATOM     18  C   UNL     1     -35.966   9.122  50.456  1.00  0.00     0.004 C 
ENDBRANCH  16  17
ENDBRANCH  15  16
ENDBRANCH  14  15
ENDBRANCH  13  14
ENDBRANCH  12  13
ENDBRANCH  11  12
ENDBRANCH   1  11
TORSDOF 14
ENDMDL
MODEL 9
REMARK VINA RESULT:    -4.114      3.012      5.159
REMARK INTER + INTRA:          -9.490
REMARK INTER:                  -7.325
REMARK INTRA:                  -2.164
REMARK UNBOUND:                -2.009
REMARK SMILES CCCCCCCCCCCCCCCC(=O)[O-]
REMARK SMILES IDX 9 1 10 2 11 3 12 4 13 5 14 6 15 7 16 8 17 9 18 10 8 11 7 12
REMARK SMILES IDX 6 13 5 14 4 15 3 16 2 17 1 18
REMARK H PARENT
REMARK Flexibility Score: inf
ROOT
ATOM      1  C   UNL     1     -34.248   8.311  48.393  1.00  0.00     0.000 C 
ENDROOT
BRANCH   1   2
ATOM      2  C   UNL     1     -33.766   9.161  49.582  1.00  0.00     0.000 C 
BRANCH   2   3
ATOM      3  C   UNL     1     -34.749  10.287  49.940  1.00  0.00     0.000 C 
BRANCH   3   4
ATOM      4  C   UNL     1     -35.277  10.182  51.382  1.00  0.00     0.000 C 
BRANCH   4   5
ATOM      5  C   UNL     1     -36.812  10.026  51.430  1.00  0.00     0.000 C 
BRANCH   5   6
ATOM      6  C   UNL     1     -37.279   8.755  52.159  1.00  0.00     0.006 C 
BRANCH   6   7
ATOM      7  C   UNL     1     -36.118   7.933  52.731  1.00  0.00     0.053 C 
BRANCH   7   8
ATOM      8  C   UNL     1     -36.499   7.339  54.050  1.00  0.00     0.041 C 
ATOM      9  O   UNL     1     -35.676   7.331  55.003  1.00  0.00    -0.550 OA
ATOM     10  O   UNL     1     -37.779   6.837  54.242  1.00  0.00    -0.550 OA
ENDBRANCH   7   8
ENDBRANCH   6   7
ENDBRANCH   5   6
ENDBRANCH   4   5
ENDBRANCH   3   4
ENDBRANCH   2   3
ENDBRANCH   1   2
BRANCH   1  11
ATOM     11  C   UNL     1     -35.647   7.714  48.623  1.00  0.00     0.000 C 
BRANCH  11  12
ATOM     12  C   UNL     1     -35.797   6.306  48.025  1.00  0.00    -0.000 C 
BRANCH  12  13
ATOM     13  C   UNL     1     -34.441   5.769  47.542  1.00  0.00    -0.000 C 
BRANCH  13  14
ATOM     14  C   UNL     1     -34.241   4.280  47.869  1.00  0.00    -0.000 C 
BRANCH  14  15
ATOM     15  C   UNL     1     -33.225   4.056  49.004  1.00  0.00    -0.000 C 
BRANCH  15  16
ATOM     16  C   UNL     1     -32.288   5.259  49.201  1.00  0.00    -0.000 C 
BRANCH  16  17
ATOM     17  C   UNL     1     -32.148   5.666  50.676  1.00  0.00    -0.003 C 
ATOM     18  C   UNL     1     -33.515   5.806  51.338  1.00  0.00     0.004 C 
ENDBRANCH  16  17
ENDBRANCH  15  16
ENDBRANCH  14  15
ENDBRANCH  13  14
ENDBRANCH  12  13
ENDBRANCH  11  12
ENDBRANCH   1  11
TORSDOF 14
ENDMDL
