MODEL 1
REMARK VINA RESULT:    -2.029      0.000      0.000
REMARK INTER + INTRA:          -2.544
REMARK INTER:                  -2.562
REMARK INTRA:                   0.018
REMARK UNBOUND:                 0.018
REMARK SMILES O=C(C=Cc1ccc(O)cc1)c1ccc(O)cc1O
REMARK SMILES IDX 4 1 3 2 5 3 6 4 7 5 8 6 11 7 10 8 9 9 2 11 1 12 12 13 18 14
REMARK SMILES IDX 13 15 17 16 14 17 15 18 19 19 16 21
REMARK H PARENT 9 10 19 20 16 22
REMARK Flexibility Score: inf
ROOT
ATOM      1  C   UNL     1      10.064 -32.434  14.090  1.00  0.00     0.012 C 
ATOM      2  C   UNL     1       9.147 -32.479  13.113  1.00  0.00     0.053 C 
ENDROOT
BRANCH   1   3
ATOM      3  C   UNL     1      11.510 -32.210  13.849  1.00  0.00    -0.025 A 
ATOM      4  C   UNL     1      12.240 -33.194  13.162  1.00  0.00     0.012 A 
ATOM      5  C   UNL     1      13.607 -33.030  12.922  1.00  0.00     0.047 A 
ATOM      6  C   UNL     1      14.269 -31.885  13.376  1.00  0.00     0.115 A 
ATOM      7  C   UNL     1      12.188 -31.065  14.318  1.00  0.00     0.012 A 
ATOM      8  C   UNL     1      13.556 -30.904  14.077  1.00  0.00     0.047 A 
BRANCH   6   9
ATOM      9  O   UNL     1      15.631 -31.734  13.129  1.00  0.00    -0.508 OA
ATOM     10  H   UNL     1      16.086 -32.207  12.356  1.00  0.00     0.293 HD
ENDBRANCH   6   9
ENDBRANCH   1   3
BRANCH   2  11
ATOM     11  C   UNL     1       7.713 -32.721  13.390  1.00  0.00     0.189 C 
ATOM     12  O   UNL     1       6.843 -31.930  12.933  1.00  0.00    -0.289 OA
BRANCH  11  13
ATOM     13  C   UNL     1       7.279 -33.854  14.240  1.00  0.00     0.064 A 
ATOM     14  C   UNL     1       7.451 -33.843  15.642  1.00  0.00     0.130 A 
ATOM     15  C   UNL     1       6.703 -34.984  13.631  1.00  0.00     0.020 A 
ATOM     16  C   UNL     1       7.011 -34.933  16.409  1.00  0.00     0.093 A 
ATOM     17  C   UNL     1       6.275 -36.067  14.402  1.00  0.00     0.047 A 
ATOM     18  C   UNL     1       6.424 -36.042  15.793  1.00  0.00     0.119 A 
BRANCH  14  19
ATOM     19  O   UNL     1       8.079 -32.769  16.272  1.00  0.00    -0.507 OA
ATOM     20  H   UNL     1       9.006 -32.462  16.003  1.00  0.00     0.293 HD
ENDBRANCH  14  19
BRANCH  18  21
ATOM     21  O   UNL     1       5.996 -37.115  16.572  1.00  0.00    -0.508 OA
ATOM     22  H   UNL     1       6.325 -38.058  16.401  1.00  0.00     0.293 HD
ENDBRANCH  18  21
ENDBRANCH  11  13
ENDBRANCH   2  11
TORSDOF 6
ENDMDL
MODEL 2
REMARK VINA RESULT:     0.374      2.402      3.498
REMARK INTER + INTRA:           0.491
REMARK INTER:                   0.125
REMARK INTRA:                   0.366
REMARK UNBOUND:                 0.018
REMARK SMILES O=C(C=Cc1ccc(O)cc1)c1ccc(O)cc1O
REMARK SMILES IDX 4 1 3 2 5 3 6 4 7 5 8 6 11 7 10 8 9 9 2 11 1 12 12 13 18 14
REMARK SMILES IDX 13 15 17 16 14 17 15 18 19 19 16 21
REMARK H PARENT 9 10 19 20 16 22
REMARK Flexibility Score: inf
ROOT
ATOM      1  C   UNL     1      13.293 -31.740  13.946  1.00  0.00     0.012 C 
ATOM      2  C   UNL     1      11.961 -31.872  14.002  1.00  0.00     0.053 C 
ENDROOT
BRANCH   1   3
ATOM      3  C   UNL     1      14.013 -30.500  14.325  1.00  0.00    -0.025 A 
ATOM      4  C   UNL     1      14.490 -30.372  15.640  1.00  0.00     0.012 A 
ATOM      5  C   UNL     1      15.166 -29.217  16.044  1.00  0.00     0.047 A 
ATOM      6  C   UNL     1      15.363 -28.167  15.144  1.00  0.00     0.115 A 
ATOM      7  C   UNL     1      14.203 -29.429  13.426  1.00  0.00     0.012 A 
ATOM      8  C   UNL     1      14.878 -28.274  13.834  1.00  0.00     0.047 A 
BRANCH   6   9
ATOM      9  O   UNL     1      16.038 -27.021  15.559  1.00  0.00    -0.508 OA
ATOM     10  H   UNL     1      16.755 -26.591  14.986  1.00  0.00     0.293 HD
ENDBRANCH   6   9
ENDBRANCH   1   3
BRANCH   2  11
ATOM     11  C   UNL     1      11.275 -33.121  13.600  1.00  0.00     0.189 C 
ATOM     12  O   UNL     1      11.876 -33.962  12.875  1.00  0.00    -0.289 OA
BRANCH  11  13
ATOM     13  C   UNL     1       9.871 -33.383  13.994  1.00  0.00     0.064 A 
ATOM     14  C   UNL     1       9.193 -32.566  14.926  1.00  0.00     0.130 A 
ATOM     15  C   UNL     1       9.203 -34.491  13.442  1.00  0.00     0.020 A 
ATOM     16  C   UNL     1       7.859 -32.845  15.258  1.00  0.00     0.093 A 
ATOM     17  C   UNL     1       7.876 -34.763  13.784  1.00  0.00     0.047 A 
ATOM     18  C   UNL     1       7.200 -33.938  14.689  1.00  0.00     0.119 A 
BRANCH  14  19
ATOM     19  O   UNL     1       9.847 -31.500  15.542  1.00  0.00    -0.507 OA
ATOM     20  H   UNL     1       9.634 -30.537  15.308  1.00  0.00     0.293 HD
ENDBRANCH  14  19
BRANCH  18  21
ATOM     21  O   UNL     1       5.875 -34.198  15.033  1.00  0.00    -0.508 OA
ATOM     22  H   UNL     1       5.372 -34.988  14.646  1.00  0.00     0.293 HD
ENDBRANCH  18  21
ENDBRANCH  11  13
ENDBRANCH   2  11
TORSDOF 6
ENDMDL
MODEL 3
REMARK VINA RESULT:     0.603      2.549      4.067
REMARK INTER + INTRA:           0.780
REMARK INTER:                   1.253
REMARK INTRA:                  -0.474
REMARK UNBOUND:                 0.018
REMARK SMILES O=C(C=Cc1ccc(O)cc1)c1ccc(O)cc1O
REMARK SMILES IDX 4 1 3 2 5 3 6 4 7 5 8 6 11 7 10 8 9 9 2 11 1 12 12 13 18 14
REMARK SMILES IDX 13 15 17 16 14 17 15 18 19 19 16 21
REMARK H PARENT 9 10 19 20 16 22
REMARK Flexibility Score: inf
ROOT
ATOM      1  C   UNL     1      13.436 -31.853  13.627  1.00  0.00     0.012 C 
ATOM      2  C   UNL     1      12.152 -32.167  13.845  1.00  0.00     0.053 C 
ENDROOT
BRANCH   1   3
ATOM      3  C   UNL     1      14.082 -30.624  14.148  1.00  0.00    -0.025 A 
ATOM      4  C   UNL     1      14.417 -30.565  15.511  1.00  0.00     0.012 A 
ATOM      5  C   UNL     1      15.018 -29.423  16.049  1.00  0.00     0.047 A 
ATOM      6  C   UNL     1      15.282 -28.318  15.235  1.00  0.00     0.115 A 
ATOM      7  C   UNL     1      14.337 -29.499  13.337  1.00  0.00     0.012 A 
ATOM      8  C   UNL     1      14.937 -28.357  13.878  1.00  0.00     0.047 A 
BRANCH   6   9
ATOM      9  O   UNL     1      15.882 -27.187  15.783  1.00  0.00    -0.508 OA
ATOM     10  H   UNL     1      16.645 -27.260  16.446  1.00  0.00     0.293 HD
ENDBRANCH   6   9
ENDBRANCH   1   3
BRANCH   2  11
ATOM     11  C   UNL     1      11.536 -33.395  13.294  1.00  0.00     0.189 C 
ATOM     12  O   UNL     1      12.271 -34.332  12.875  1.00  0.00    -0.289 OA
BRANCH  11  13
ATOM     13  C   UNL     1      10.065 -33.528  13.178  1.00  0.00     0.064 A 
ATOM     14  C   UNL     1       9.441 -34.783  13.000  1.00  0.00     0.130 A 
ATOM     15  C   UNL     1       9.269 -32.369  13.222  1.00  0.00     0.020 A 
ATOM     16  C   UNL     1       8.044 -34.862  12.910  1.00  0.00     0.093 A 
ATOM     17  C   UNL     1       7.879 -32.457  13.125  1.00  0.00     0.047 A 
ATOM     18  C   UNL     1       7.263 -33.704  12.973  1.00  0.00     0.119 A 
BRANCH  14  19
ATOM     19  O   UNL     1      10.204 -35.945  12.885  1.00  0.00    -0.507 OA
ATOM     20  H   UNL     1      11.138 -36.010  13.274  1.00  0.00     0.293 HD
ENDBRANCH  14  19
BRANCH  18  21
ATOM     21  O   UNL     1       5.876 -33.804  12.879  1.00  0.00    -0.508 OA
ATOM     22  H   UNL     1       5.393 -34.672  13.082  1.00  0.00     0.293 HD
ENDBRANCH  18  21
ENDBRANCH  11  13
ENDBRANCH   2  11
TORSDOF 6
ENDMDL
MODEL 4
REMARK VINA RESULT:     0.909      2.102      7.179
REMARK INTER + INTRA:           1.166
REMARK INTER:                   1.637
REMARK INTRA:                  -0.471
REMARK UNBOUND:                 0.018
REMARK SMILES O=C(C=Cc1ccc(O)cc1)c1ccc(O)cc1O
REMARK SMILES IDX 4 1 3 2 5 3 6 4 7 5 8 6 11 7 10 8 9 9 2 11 1 12 12 13 18 14
REMARK SMILES IDX 13 15 17 16 14 17 15 18 19 19 16 21
REMARK H PARENT 9 10 19 20 16 22
REMARK Flexibility Score: inf
ROOT
ATOM      1  C   UNL     1       8.698 -33.546  16.023  1.00  0.00     0.012 C 
ATOM      2  C   UNL     1       9.057 -33.913  14.785  1.00  0.00     0.053 C 
ENDROOT
BRANCH   1   3
ATOM      3  C   UNL     1       8.228 -34.499  17.058  1.00  0.00    -0.025 A 
ATOM      4  C   UNL     1       8.475 -34.202  18.409  1.00  0.00     0.012 A 
ATOM      5  C   UNL     1       8.060 -35.075  19.419  1.00  0.00     0.047 A 
ATOM      6  C   UNL     1       7.401 -36.264  19.093  1.00  0.00     0.115 A 
ATOM      7  C   UNL     1       7.577 -35.708  16.737  1.00  0.00     0.012 A 
ATOM      8  C   UNL     1       7.163 -36.580  17.749  1.00  0.00     0.047 A 
BRANCH   6   9
ATOM      9  O   UNL     1       6.991 -37.125  20.108  1.00  0.00    -0.508 OA
ATOM     10  H   UNL     1       7.085 -36.874  21.086  1.00  0.00     0.293 HD
ENDBRANCH   6   9
ENDBRANCH   1   3
BRANCH   2  11
ATOM     11  C   UNL     1       9.506 -32.932  13.772  1.00  0.00     0.189 C 
ATOM     12  O   UNL     1       8.708 -32.545  12.875  1.00  0.00    -0.289 OA
BRANCH  11  13
ATOM     13  C   UNL     1      10.900 -32.428  13.760  1.00  0.00     0.064 A 
ATOM     14  C   UNL     1      11.975 -33.221  13.299  1.00  0.00     0.130 A 
ATOM     15  C   UNL     1      11.163 -31.134  14.245  1.00  0.00     0.020 A 
ATOM     16  C   UNL     1      13.276 -32.697  13.293  1.00  0.00     0.093 A 
ATOM     17  C   UNL     1      12.463 -30.624  14.240  1.00  0.00     0.047 A 
ATOM     18  C   UNL     1      13.522 -31.403  13.760  1.00  0.00     0.119 A 
BRANCH  14  19
ATOM     19  O   UNL     1      11.760 -34.532  12.875  1.00  0.00    -0.507 OA
ATOM     20  H   UNL     1      12.314 -34.951  12.138  1.00  0.00     0.293 HD
ENDBRANCH  14  19
BRANCH  18  21
ATOM     21  O   UNL     1      14.822 -30.902  13.747  1.00  0.00    -0.508 OA
ATOM     22  H   UNL     1      15.618 -31.501  13.555  1.00  0.00     0.293 HD
ENDBRANCH  18  21
ENDBRANCH  11  13
ENDBRANCH   2  11
TORSDOF 6
ENDMDL
