MODEL 1
REMARK VINA RESULT:    -4.048      0.000      0.000
REMARK INTER + INTRA:          -4.304
REMARK INTER:                  -4.285
REMARK INTRA:                  -0.019
REMARK UNBOUND:                -0.019
REMARK SMILES O=C([O-])c1cccnc1
REMARK SMILES IDX 4 1 5 2 9 3 6 4 8 5 7 6 2 7 1 8 3 9
REMARK H PARENT
REMARK Flexibility Score: inf
ROOT
ATOM      1  C   UNL     1      26.409  16.581  20.399  1.00  0.00     0.016 A 
ATOM      2  C   UNL     1      27.786  16.716  20.155  1.00  0.00     0.013 A 
ATOM      3  C   UNL     1      25.657  15.758  19.543  1.00  0.00     0.120 A 
ATOM      4  C   UNL     1      28.377  16.041  19.085  1.00  0.00     0.021 A 
ATOM      5  N   UNL     1      26.257  15.112  18.509  1.00  0.00    -0.264 NA
ATOM      6  C   UNL     1      27.588  15.235  18.263  1.00  0.00     0.111 A 
ENDROOT
BRANCH   1   7
ATOM      7  C   UNL     1      25.771  17.291  21.529  1.00  0.00     0.073 C 
ATOM      8  O   UNL     1      26.277  17.245  22.681  1.00  0.00    -0.545 OA
ATOM      9  O   UNL     1      24.603  18.019  21.334  1.00  0.00    -0.545 OA
ENDBRANCH   1   7
TORSDOF 1
ENDMDL
MODEL 2
REMARK VINA RESULT:    -4.022      2.526      3.524
REMARK INTER + INTRA:          -4.277
REMARK INTER:                  -4.257
REMARK INTRA:                  -0.020
REMARK UNBOUND:                -0.019
REMARK SMILES O=C([O-])c1cccnc1
REMARK SMILES IDX 4 1 5 2 9 3 6 4 8 5 7 6 2 7 1 8 3 9
REMARK H PARENT
REMARK Flexibility Score: inf
ROOT
ATOM      1  C   UNL     1      26.570  16.686  19.884  1.00  0.00     0.016 A 
ATOM      2  C   UNL     1      26.324  17.097  21.205  1.00  0.00     0.013 A 
ATOM      3  C   UNL     1      25.647  17.051  18.888  1.00  0.00     0.120 A 
ATOM      4  C   UNL     1      25.187  17.849  21.505  1.00  0.00     0.021 A 
ATOM      5  N   UNL     1      24.547  17.784  19.208  1.00  0.00    -0.264 NA
ATOM      6  C   UNL     1      24.299  18.187  20.482  1.00  0.00     0.111 A 
ENDROOT
BRANCH   1   7
ATOM      7  C   UNL     1      27.771  15.889  19.553  1.00  0.00     0.073 C 
ATOM      8  O   UNL     1      28.902  16.224  19.993  1.00  0.00    -0.545 OA
ATOM      9  O   UNL     1      27.666  14.758  18.752  1.00  0.00    -0.545 OA
ENDBRANCH   1   7
TORSDOF 1
ENDMDL
MODEL 3
REMARK VINA RESULT:    -3.974      0.896      1.931
REMARK INTER + INTRA:          -4.226
REMARK INTER:                  -4.208
REMARK INTRA:                  -0.018
REMARK UNBOUND:                -0.019
REMARK SMILES O=C([O-])c1cccnc1
REMARK SMILES IDX 4 1 5 2 9 3 6 4 8 5 7 6 2 7 1 8 3 9
REMARK H PARENT
REMARK Flexibility Score: inf
ROOT
ATOM      1  C   UNL     1      26.360  16.650  20.415  1.00  0.00     0.016 A 
ATOM      2  C   UNL     1      25.538  15.849  19.605  1.00  0.00     0.013 A 
ATOM      3  C   UNL     1      27.730  16.725  20.109  1.00  0.00     0.120 A 
ATOM      4  C   UNL     1      26.084  15.151  18.527  1.00  0.00     0.021 A 
ATOM      5  N   UNL     1      28.236  16.034  19.053  1.00  0.00    -0.264 NA
ATOM      6  C   UNL     1      27.451  15.256  18.264  1.00  0.00     0.111 A 
ENDROOT
BRANCH   1   7
ATOM      7  C   UNL     1      25.793  17.395  21.560  1.00  0.00     0.073 C 
ATOM      8  O   UNL     1      24.879  18.242  21.384  1.00  0.00    -0.545 OA
ATOM      9  O   UNL     1      26.264  17.169  22.849  1.00  0.00    -0.545 OA
ENDBRANCH   1   7
TORSDOF 1
ENDMDL
MODEL 4
REMARK VINA RESULT:    -3.969      2.961      3.792
REMARK INTER + INTRA:          -4.220
REMARK INTER:                  -4.204
REMARK INTRA:                  -0.016
REMARK UNBOUND:                -0.019
REMARK SMILES O=C([O-])c1cccnc1
REMARK SMILES IDX 4 1 5 2 9 3 6 4 8 5 7 6 2 7 1 8 3 9
REMARK H PARENT
REMARK Flexibility Score: inf
ROOT
ATOM      1  C   UNL     1      25.987  16.972  19.493  1.00  0.00     0.016 A 
ATOM      2  C   UNL     1      26.715  16.825  20.686  1.00  0.00     0.013 A 
ATOM      3  C   UNL     1      24.758  17.653  19.540  1.00  0.00     0.120 A 
ATOM      4  C   UNL     1      26.215  17.348  21.880  1.00  0.00     0.021 A 
ATOM      5  N   UNL     1      24.294  18.152  20.716  1.00  0.00    -0.264 NA
ATOM      6  C   UNL     1      24.989  18.016  21.876  1.00  0.00     0.111 A 
ENDROOT
BRANCH   1   7
ATOM      7  C   UNL     1      26.506  16.423  18.222  1.00  0.00     0.073 C 
ATOM      8  O   UNL     1      27.349  17.067  17.543  1.00  0.00    -0.545 OA
ATOM      9  O   UNL     1      26.070  15.187  17.759  1.00  0.00    -0.545 OA
ENDBRANCH   1   7
TORSDOF 1
ENDMDL
MODEL 5
REMARK VINA RESULT:    -3.955      2.264      3.232
REMARK INTER + INTRA:          -4.206
REMARK INTER:                  -4.186
REMARK INTRA:                  -0.020
REMARK UNBOUND:                -0.019
REMARK SMILES O=C([O-])c1cccnc1
REMARK SMILES IDX 4 1 5 2 9 3 6 4 8 5 7 6 2 7 1 8 3 9
REMARK H PARENT
REMARK Flexibility Score: inf
ROOT
ATOM      1  C   UNL     1      25.101  16.913  20.308  1.00  0.00     0.016 A 
ATOM      2  C   UNL     1      25.018  15.880  19.358  1.00  0.00     0.013 A 
ATOM      3  C   UNL     1      23.997  17.769  20.461  1.00  0.00     0.120 A 
ATOM      4  C   UNL     1      23.861  15.722  18.594  1.00  0.00     0.021 A 
ATOM      5  N   UNL     1      22.882  17.594  19.704  1.00  0.00    -0.264 NA
ATOM      6  C   UNL     1      22.791  16.599  18.783  1.00  0.00     0.111 A 
ENDROOT
BRANCH   1   7
ATOM      7  C   UNL     1      26.322  17.091  21.123  1.00  0.00     0.073 C 
ATOM      8  O   UNL     1      27.462  17.008  20.596  1.00  0.00    -0.545 OA
ATOM      9  O   UNL     1      26.226  17.352  22.486  1.00  0.00    -0.545 OA
ENDBRANCH   1   7
TORSDOF 1
ENDMDL
MODEL 6
REMARK VINA RESULT:    -3.911      2.460      3.223
REMARK INTER + INTRA:          -4.159
REMARK INTER:                  -4.141
REMARK INTRA:                  -0.018
REMARK UNBOUND:                -0.019
REMARK SMILES O=C([O-])c1cccnc1
REMARK SMILES IDX 4 1 5 2 9 3 6 4 8 5 7 6 2 7 1 8 3 9
REMARK H PARENT
REMARK Flexibility Score: inf
ROOT
ATOM      1  C   UNL     1      24.369  17.692  19.925  1.00  0.00     0.016 A 
ATOM      2  C   UNL     1      24.863  17.750  21.239  1.00  0.00     0.013 A 
ATOM      3  C   UNL     1      25.232  17.252  18.906  1.00  0.00     0.120 A 
ATOM      4  C   UNL     1      26.181  17.378  21.509  1.00  0.00     0.021 A 
ATOM      5  N   UNL     1      26.511  16.895  19.196  1.00  0.00    -0.264 NA
ATOM      6  C   UNL     1      27.000  16.948  20.463  1.00  0.00     0.111 A 
ENDROOT
BRANCH   1   7
ATOM      7  C   UNL     1      22.975  18.084  19.626  1.00  0.00     0.073 C 
ATOM      8  O   UNL     1      22.200  17.290  19.030  1.00  0.00    -0.545 OA
ATOM      9  O   UNL     1      22.500  19.336  20.000  1.00  0.00    -0.545 OA
ENDBRANCH   1   7
TORSDOF 1
ENDMDL
MODEL 7
REMARK VINA RESULT:    -3.884      2.955      4.000
REMARK INTER + INTRA:          -4.130
REMARK INTER:                  -4.106
REMARK INTRA:                  -0.024
REMARK UNBOUND:                -0.019
REMARK SMILES O=C([O-])c1cccnc1
REMARK SMILES IDX 4 1 5 2 9 3 6 4 8 5 7 6 2 7 1 8 3 9
REMARK H PARENT
REMARK Flexibility Score: inf
ROOT
ATOM      1  C   UNL     1      23.282  17.467  19.479  1.00  0.00     0.016 A 
ATOM      2  C   UNL     1      23.379  16.214  18.849  1.00  0.00     0.013 A 
ATOM      3  C   UNL     1      24.364  17.908  20.259  1.00  0.00     0.120 A 
ATOM      4  C   UNL     1      24.530  15.440  19.005  1.00  0.00     0.021 A 
ATOM      5  N   UNL     1      25.474  17.133  20.395  1.00  0.00    -0.264 NA
ATOM      6  C   UNL     1      25.578  15.921  19.791  1.00  0.00     0.111 A 
ENDROOT
BRANCH   1   7
ATOM      7  C   UNL     1      22.068  18.297  19.321  1.00  0.00     0.073 C 
ATOM      8  O   UNL     1      21.043  17.832  18.757  1.00  0.00    -0.545 OA
ATOM      9  O   UNL     1      22.043  19.605  19.794  1.00  0.00    -0.545 OA
ENDBRANCH   1   7
TORSDOF 1
ENDMDL
MODEL 8
REMARK VINA RESULT:    -3.799      9.656     10.014
REMARK INTER + INTRA:          -4.040
REMARK INTER:                  -4.024
REMARK INTRA:                  -0.017
REMARK UNBOUND:                -0.019
REMARK SMILES O=C([O-])c1cccnc1
REMARK SMILES IDX 4 1 5 2 9 3 6 4 8 5 7 6 2 7 1 8 3 9
REMARK H PARENT
REMARK Flexibility Score: inf
ROOT
ATOM      1  C   UNL     1      24.765   9.157  26.773  1.00  0.00     0.016 A 
ATOM      2  C   UNL     1      25.118   9.700  25.526  1.00  0.00     0.013 A 
ATOM      3  C   UNL     1      24.767   7.759  26.917  1.00  0.00     0.120 A 
ATOM      4  C   UNL     1      25.460   8.858  24.466  1.00  0.00     0.021 A 
ATOM      5  N   UNL     1      25.104   6.961  25.869  1.00  0.00    -0.264 NA
ATOM      6  C   UNL     1      25.447   7.475  24.658  1.00  0.00     0.111 A 
ENDROOT
BRANCH   1   7
ATOM      7  C   UNL     1      24.401  10.039  27.903  1.00  0.00     0.073 C 
ATOM      8  O   UNL     1      25.192  10.200  28.869  1.00  0.00    -0.545 OA
ATOM      9  O   UNL     1      23.179  10.703  27.912  1.00  0.00    -0.545 OA
ENDBRANCH   1   7
TORSDOF 1
ENDMDL
MODEL 9
REMARK VINA RESULT:    -3.786      3.462      4.472
REMARK INTER + INTRA:          -4.027
REMARK INTER:                  -4.008
REMARK INTRA:                  -0.019
REMARK UNBOUND:                -0.019
REMARK SMILES O=C([O-])c1cccnc1
REMARK SMILES IDX 4 1 5 2 9 3 6 4 8 5 7 6 2 7 1 8 3 9
REMARK H PARENT
REMARK Flexibility Score: inf
ROOT
ATOM      1  C   UNL     1      23.484  17.480  19.593  1.00  0.00     0.016 A 
ATOM      2  C   UNL     1      22.557  18.536  19.622  1.00  0.00     0.013 A 
ATOM      3  C   UNL     1      23.176  16.341  18.829  1.00  0.00     0.120 A 
ATOM      4  C   UNL     1      21.364  18.440  18.904  1.00  0.00     0.021 A 
ATOM      5  N   UNL     1      22.006  16.274  18.139  1.00  0.00    -0.264 NA
ATOM      6  C   UNL     1      21.102  17.288  18.160  1.00  0.00     0.111 A 
ENDROOT
BRANCH   1   7
ATOM      7  C   UNL     1      24.752  17.569  20.349  1.00  0.00     0.073 C 
ATOM      8  O   UNL     1      25.850  17.308  19.792  1.00  0.00    -0.545 OA
ATOM      9  O   UNL     1      24.748  17.945  21.688  1.00  0.00    -0.545 OA
ENDBRANCH   1   7
TORSDOF 1
ENDMDL
