MODEL 1
REMARK VINA RESULT:    -3.713      0.000      0.000
REMARK INTER + INTRA:          -4.278
REMARK INTER:                  -4.038
REMARK INTRA:                  -0.239
REMARK UNBOUND:                -0.239
REMARK SMILES O=C([O-])c1ccccc1O
REMARK SMILES IDX 4 1 9 2 5 3 8 4 6 5 7 6 2 7 1 8 3 9 10 10
REMARK H PARENT 10 11
REMARK Flexibility Score: inf
ROOT
ATOM      1  C   UNL     1      18.851   0.031 -11.002  1.00  0.00     0.039 A 
ATOM      2  C   UNL     1      17.580   0.460 -11.461  1.00  0.00     0.124 A 
ATOM      3  C   UNL     1      19.331  -1.229 -11.407  1.00  0.00     0.014 A 
ATOM      4  C   UNL     1      16.858  -0.342 -12.353  1.00  0.00     0.047 A 
ATOM      5  C   UNL     1      18.590  -2.026 -12.280  1.00  0.00     0.001 A 
ATOM      6  C   UNL     1      17.359  -1.580 -12.761  1.00  0.00     0.004 A 
ENDROOT
BRANCH   1   7
ATOM      7  C   UNL     1      19.710   0.874 -10.142  1.00  0.00     0.075 C 
ATOM      8  O   UNL     1      19.270   1.315  -9.047  1.00  0.00    -0.545 OA
ATOM      9  O   UNL     1      21.030   1.134 -10.491  1.00  0.00    -0.545 OA
ENDBRANCH   1   7
BRANCH   2  10
ATOM     10  O   UNL     1      16.988   1.649 -11.032  1.00  0.00    -0.507 OA
ATOM     11  H   UNL     1      16.072   1.692 -10.605  1.00  0.00     0.293 HD
ENDBRANCH   2  10
TORSDOF 2
ENDMDL
MODEL 2
REMARK VINA RESULT:    -3.674     11.956     12.794
REMARK INTER + INTRA:          -4.235
REMARK INTER:                  -3.985
REMARK INTRA:                  -0.250
REMARK UNBOUND:                -0.239
REMARK SMILES O=C([O-])c1ccccc1O
REMARK SMILES IDX 4 1 9 2 5 3 8 4 6 5 7 6 2 7 1 8 3 9 10 10
REMARK H PARENT 10 11
REMARK Flexibility Score: inf
ROOT
ATOM      1  C   UNL     1      26.002  10.046  -9.189  1.00  0.00     0.039 A 
ATOM      2  C   UNL     1      26.049   9.278 -10.380  1.00  0.00     0.124 A 
ATOM      3  C   UNL     1      25.542  11.375  -9.254  1.00  0.00     0.014 A 
ATOM      4  C   UNL     1      25.583   9.830 -11.580  1.00  0.00     0.047 A 
ATOM      5  C   UNL     1      25.101  11.917 -10.462  1.00  0.00     0.001 A 
ATOM      6  C   UNL     1      25.111  11.144 -11.622  1.00  0.00     0.004 A 
ENDROOT
BRANCH   1   7
ATOM      7  C   UNL     1      26.381   9.491  -7.871  1.00  0.00     0.075 C 
ATOM      8  O   UNL     1      26.008   8.333  -7.542  1.00  0.00    -0.545 OA
ATOM      9  O   UNL     1      27.207  10.203  -7.010  1.00  0.00    -0.545 OA
ENDBRANCH   1   7
BRANCH   2  10
ATOM     10  O   UNL     1      26.581   7.987 -10.422  1.00  0.00    -0.507 OA
ATOM     11  H   UNL     1      26.191   7.244 -10.986  1.00  0.00     0.293 HD
ENDBRANCH   2  10
TORSDOF 2
ENDMDL
MODEL 3
REMARK VINA RESULT:    -3.662     12.071     12.909
REMARK INTER + INTRA:          -4.222
REMARK INTER:                  -3.984
REMARK INTRA:                  -0.239
REMARK UNBOUND:                -0.239
REMARK SMILES O=C([O-])c1ccccc1O
REMARK SMILES IDX 4 1 9 2 5 3 8 4 6 5 7 6 2 7 1 8 3 9 10 10
REMARK H PARENT 10 11
REMARK Flexibility Score: inf
ROOT
ATOM      1  C   UNL     1      25.594  10.347 -11.039  1.00  0.00     0.039 A 
ATOM      2  C   UNL     1      24.746  11.377 -10.562  1.00  0.00     0.124 A 
ATOM      3  C   UNL     1      25.967  10.345 -12.397  1.00  0.00     0.014 A 
ATOM      4  C   UNL     1      24.347  12.403 -11.428  1.00  0.00     0.047 A 
ATOM      5  C   UNL     1      25.543  11.364 -13.252  1.00  0.00     0.001 A 
ATOM      6  C   UNL     1      24.742  12.397 -12.767  1.00  0.00     0.004 A 
ENDROOT
BRANCH   1   7
ATOM      7  C   UNL     1      26.136   9.292 -10.154  1.00  0.00     0.075 C 
ATOM      8  O   UNL     1      26.558   8.210 -10.645  1.00  0.00    -0.545 OA
ATOM      9  O   UNL     1      26.251   9.501  -8.786  1.00  0.00    -0.545 OA
ENDBRANCH   1   7
BRANCH   2  10
ATOM     10  O   UNL     1      24.251  11.400  -9.256  1.00  0.00    -0.507 OA
ATOM     11  H   UNL     1      23.334  11.753  -9.015  1.00  0.00     0.293 HD
ENDBRANCH   2  10
TORSDOF 2
ENDMDL
MODEL 4
REMARK VINA RESULT:    -3.621      2.565      3.970
REMARK INTER + INTRA:          -4.179
REMARK INTER:                  -3.939
REMARK INTRA:                  -0.239
REMARK UNBOUND:                -0.239
REMARK SMILES O=C([O-])c1ccccc1O
REMARK SMILES IDX 4 1 9 2 5 3 8 4 6 5 7 6 2 7 1 8 3 9 10 10
REMARK H PARENT 10 11
REMARK Flexibility Score: inf
ROOT
ATOM      1  C   UNL     1      16.911  -0.595 -11.003  1.00  0.00     0.039 A 
ATOM      2  C   UNL     1      17.548   0.638 -10.713  1.00  0.00     0.124 A 
ATOM      3  C   UNL     1      16.442  -1.386  -9.938  1.00  0.00     0.014 A 
ATOM      4  C   UNL     1      17.642   1.075  -9.385  1.00  0.00     0.047 A 
ATOM      5  C   UNL     1      16.562  -0.946  -8.618  1.00  0.00     0.001 A 
ATOM      6  C   UNL     1      17.153   0.286  -8.342  1.00  0.00     0.004 A 
ENDROOT
BRANCH   1   7
ATOM      7  C   UNL     1      16.687  -1.065 -12.388  1.00  0.00     0.075 C 
ATOM      8  O   UNL     1      17.658  -1.182 -13.181  1.00  0.00    -0.545 OA
ATOM      9  O   UNL     1      15.421  -1.449 -12.812  1.00  0.00    -0.545 OA
ENDBRANCH   1   7
BRANCH   2  10
ATOM     10  O   UNL     1      18.128   1.437 -11.701  1.00  0.00    -0.507 OA
ATOM     11  H   UNL     1      18.662   2.271 -11.500  1.00  0.00     0.293 HD
ENDBRANCH   2  10
TORSDOF 2
ENDMDL
MODEL 5
REMARK VINA RESULT:    -3.568      1.783      2.428
REMARK INTER + INTRA:          -4.120
REMARK INTER:                  -3.880
REMARK INTRA:                  -0.240
REMARK UNBOUND:                -0.239
REMARK SMILES O=C([O-])c1ccccc1O
REMARK SMILES IDX 4 1 9 2 5 3 8 4 6 5 7 6 2 7 1 8 3 9 10 10
REMARK H PARENT 10 11
REMARK Flexibility Score: inf
ROOT
ATOM      1  C   UNL     1      18.929   0.516  -9.534  1.00  0.00     0.039 A 
ATOM      2  C   UNL     1      18.030   0.564 -10.629  1.00  0.00     0.124 A 
ATOM      3  C   UNL     1      18.599  -0.273  -8.416  1.00  0.00     0.014 A 
ATOM      4  C   UNL     1      16.867  -0.217 -10.606  1.00  0.00     0.047 A 
ATOM      5  C   UNL     1      17.425  -1.029  -8.400  1.00  0.00     0.001 A 
ATOM      6  C   UNL     1      16.565  -1.009  -9.497  1.00  0.00     0.004 A 
ENDROOT
BRANCH   1   7
ATOM      7  C   UNL     1      20.223   1.234  -9.538  1.00  0.00     0.075 C 
ATOM      8  O   UNL     1      21.016   1.103 -10.508  1.00  0.00    -0.545 OA
ATOM      9  O   UNL     1      20.552   2.112  -8.512  1.00  0.00    -0.545 OA
ENDBRANCH   1   7
BRANCH   2  10
ATOM     10  O   UNL     1      18.233   1.395 -11.733  1.00  0.00    -0.507 OA
ATOM     11  H   UNL     1      17.818   2.313 -11.822  1.00  0.00     0.293 HD
ENDBRANCH   2  10
TORSDOF 2
ENDMDL
MODEL 6
REMARK VINA RESULT:    -3.528      2.061      3.538
REMARK INTER + INTRA:          -4.077
REMARK INTER:                  -3.824
REMARK INTRA:                  -0.252
REMARK UNBOUND:                -0.239
REMARK SMILES O=C([O-])c1ccccc1O
REMARK SMILES IDX 4 1 9 2 5 3 8 4 6 5 7 6 2 7 1 8 3 9 10 10
REMARK H PARENT 10 11
REMARK Flexibility Score: inf
ROOT
ATOM      1  C   UNL     1      18.773  -0.995 -11.048  1.00  0.00     0.039 A 
ATOM      2  C   UNL     1      18.952   0.404 -10.905  1.00  0.00     0.124 A 
ATOM      3  C   UNL     1      19.626  -1.865 -10.342  1.00  0.00     0.014 A 
ATOM      4  C   UNL     1      19.924   0.893 -10.023  1.00  0.00     0.047 A 
ATOM      5  C   UNL     1      20.605  -1.362  -9.483  1.00  0.00     0.001 A 
ATOM      6  C   UNL     1      20.748   0.015  -9.316  1.00  0.00     0.004 A 
ENDROOT
BRANCH   1   7
ATOM      7  C   UNL     1      17.699  -1.577 -11.881  1.00  0.00     0.075 C 
ATOM      8  O   UNL     1      17.018  -2.546 -11.450  1.00  0.00    -0.545 OA
ATOM      9  O   UNL     1      17.378  -1.025 -13.115  1.00  0.00    -0.545 OA
ENDBRANCH   1   7
BRANCH   2  10
ATOM     10  O   UNL     1      18.216   1.335 -11.641  1.00  0.00    -0.507 OA
ATOM     11  H   UNL     1      17.321   1.698 -11.342  1.00  0.00     0.293 HD
ENDBRANCH   2  10
TORSDOF 2
ENDMDL
MODEL 7
REMARK VINA RESULT:    -3.522      1.697      1.881
REMARK INTER + INTRA:          -4.071
REMARK INTER:                  -3.818
REMARK INTRA:                  -0.253
REMARK UNBOUND:                -0.239
REMARK SMILES O=C([O-])c1ccccc1O
REMARK SMILES IDX 4 1 9 2 5 3 8 4 6 5 7 6 2 7 1 8 3 9 10 10
REMARK H PARENT 10 11
REMARK Flexibility Score: inf
ROOT
ATOM      1  C   UNL     1      18.462   0.108  -9.729  1.00  0.00     0.039 A 
ATOM      2  C   UNL     1      17.741   0.412 -10.911  1.00  0.00     0.124 A 
ATOM      3  C   UNL     1      17.981  -0.905  -8.879  1.00  0.00     0.014 A 
ATOM      4  C   UNL     1      16.605  -0.338 -11.242  1.00  0.00     0.047 A 
ATOM      5  C   UNL     1      16.835  -1.630  -9.213  1.00  0.00     0.001 A 
ATOM      6  C   UNL     1      16.153  -1.353 -10.397  1.00  0.00     0.004 A 
ENDROOT
BRANCH   1   7
ATOM      7  C   UNL     1      19.725   0.791  -9.373  1.00  0.00     0.075 C 
ATOM      8  O   UNL     1      19.995   1.034  -8.166  1.00  0.00    -0.545 OA
ATOM      9  O   UNL     1      20.661   1.111 -10.349  1.00  0.00    -0.545 OA
ENDBRANCH   1   7
BRANCH   2  10
ATOM     10  O   UNL     1      18.093   1.465 -11.758  1.00  0.00    -0.507 OA
ATOM     11  H   UNL     1      17.528   2.295 -11.878  1.00  0.00     0.293 HD
ENDBRANCH   2  10
TORSDOF 2
ENDMDL
MODEL 8
REMARK VINA RESULT:    -3.520     10.895     11.292
REMARK INTER + INTRA:          -4.069
REMARK INTER:                  -3.822
REMARK INTRA:                  -0.247
REMARK UNBOUND:                -0.239
REMARK SMILES O=C([O-])c1ccccc1O
REMARK SMILES IDX 4 1 9 2 5 3 8 4 6 5 7 6 2 7 1 8 3 9 10 10
REMARK H PARENT 10 11
REMARK Flexibility Score: inf
ROOT
ATOM      1  C   UNL     1      23.084   3.806 -20.074  1.00  0.00     0.039 A 
ATOM      2  C   UNL     1      23.697   5.083 -20.020  1.00  0.00     0.124 A 
ATOM      3  C   UNL     1      23.901   2.660 -20.105  1.00  0.00     0.014 A 
ATOM      4  C   UNL     1      25.092   5.180 -19.936  1.00  0.00     0.047 A 
ATOM      5  C   UNL     1      25.291   2.775 -20.041  1.00  0.00     0.001 A 
ATOM      6  C   UNL     1      25.886   4.032 -19.947  1.00  0.00     0.004 A 
ENDROOT
BRANCH   1   7
ATOM      7  C   UNL     1      21.616   3.629 -20.060  1.00  0.00     0.075 C 
ATOM      8  O   UNL     1      21.100   2.673 -19.421  1.00  0.00    -0.545 OA
ATOM      9  O   UNL     1      20.783   4.547 -20.688  1.00  0.00    -0.545 OA
ENDBRANCH   1   7
BRANCH   2  10
ATOM     10  O   UNL     1      22.966   6.271 -20.085  1.00  0.00    -0.507 OA
ATOM     11  H   UNL     1      22.217   6.429 -20.746  1.00  0.00     0.293 HD
ENDBRANCH   2  10
TORSDOF 2
ENDMDL
MODEL 9
REMARK VINA RESULT:    -3.502      8.475      9.643
REMARK INTER + INTRA:          -4.048
REMARK INTER:                  -3.796
REMARK INTRA:                  -0.252
REMARK UNBOUND:                -0.239
REMARK SMILES O=C([O-])c1ccccc1O
REMARK SMILES IDX 4 1 9 2 5 3 8 4 6 5 7 6 2 7 1 8 3 9 10 10
REMARK H PARENT 10 11
REMARK Flexibility Score: inf
ROOT
ATOM      1  C   UNL     1      14.194   6.570  -6.874  1.00  0.00     0.039 A 
ATOM      2  C   UNL     1      12.919   6.580  -7.495  1.00  0.00     0.124 A 
ATOM      3  C   UNL     1      14.390   7.336  -5.709  1.00  0.00     0.014 A 
ATOM      4  C   UNL     1      11.868   7.297  -6.909  1.00  0.00     0.047 A 
ATOM      5  C   UNL     1      13.337   8.062  -5.149  1.00  0.00     0.001 A 
ATOM      6  C   UNL     1      12.076   8.036  -5.742  1.00  0.00     0.004 A 
ENDROOT
BRANCH   1   7
ATOM      7  C   UNL     1      15.317   5.752  -7.382  1.00  0.00     0.075 C 
ATOM      8  O   UNL     1      16.504   6.151  -7.241  1.00  0.00    -0.545 OA
ATOM      9  O   UNL     1      15.089   4.508  -7.956  1.00  0.00    -0.545 OA
ENDBRANCH   1   7
BRANCH   2  10
ATOM     10  O   UNL     1      12.666   5.928  -8.703  1.00  0.00    -0.507 OA
ATOM     11  H   UNL     1      11.734   5.756  -9.058  1.00  0.00     0.293 HD
ENDBRANCH   2  10
TORSDOF 2
ENDMDL
