MODEL 1
REMARK VINA RESULT:     3.940      0.000      0.000
REMARK INTER + INTRA:           4.498
REMARK INTER:                   4.631
REMARK INTRA:                  -0.133
REMARK UNBOUND:                -0.133
REMARK SMILES O=C([O-])C=Cc1ccc(O)c(O)c1
REMARK SMILES IDX 6 1 13 2 7 3 11 4 8 5 9 6 5 7 4 8 2 9 1 10 3 11 12 12 10 14
REMARK H PARENT 12 13 10 15
REMARK Flexibility Score: inf
ROOT
ATOM      1  C   UNL     1      19.207  41.475  11.201  1.00  0.00    -0.022 A 
ATOM      2  C   UNL     1      19.064  42.866  11.056  1.00  0.00     0.058 A 
ATOM      3  C   UNL     1      20.241  40.980  12.019  1.00  0.00     0.012 A 
ATOM      4  C   UNL     1      19.949  43.747  11.695  1.00  0.00     0.157 A 
ATOM      5  C   UNL     1      21.122  41.858  12.656  1.00  0.00     0.051 A 
ATOM      6  C   UNL     1      20.981  43.242  12.493  1.00  0.00     0.157 A 
ENDROOT
BRANCH   1   7
ATOM      7  C   UNL     1      18.237  40.586  10.513  1.00  0.00     0.010 C 
ATOM      8  C   UNL     1      17.018  40.979  10.117  1.00  0.00     0.025 C 
BRANCH   8   9
ATOM      9  C   UNL     1      16.077  40.065   9.447  1.00  0.00     0.064 C 
ATOM     10  O   UNL     1      16.489  39.124   8.717  1.00  0.00    -0.545 OA
ATOM     11  O   UNL     1      14.712  40.246   9.620  1.00  0.00    -0.545 OA
ENDBRANCH   8   9
ENDBRANCH   1   7
BRANCH   4  12
ATOM     12  O   UNL     1      19.807  45.125  11.539  1.00  0.00    -0.504 OA
ATOM     13  H   UNL     1      19.446  45.708  12.285  1.00  0.00     0.293 HD
ENDBRANCH   4  12
BRANCH   6  14
ATOM     14  O   UNL     1      21.859  44.120  13.125  1.00  0.00    -0.504 OA
ATOM     15  H   UNL     1      21.767  44.345  14.109  1.00  0.00     0.293 HD
ENDBRANCH   6  14
TORSDOF 4
ENDMDL
MODEL 2
REMARK VINA RESULT:     4.842      1.232      5.708
REMARK INTER + INTRA:           5.558
REMARK INTER:                   5.685
REMARK INTRA:                  -0.126
REMARK UNBOUND:                -0.133
REMARK SMILES O=C([O-])C=Cc1ccc(O)c(O)c1
REMARK SMILES IDX 6 1 13 2 7 3 11 4 8 5 9 6 5 7 4 8 2 9 1 10 3 11 12 12 10 14
REMARK H PARENT 12 13 10 15
REMARK Flexibility Score: inf
ROOT
ATOM      1  C   UNL     1      18.846  41.369  10.947  1.00  0.00    -0.022 A 
ATOM      2  C   UNL     1      17.509  41.555  10.554  1.00  0.00     0.058 A 
ATOM      3  C   UNL     1      19.519  40.202  10.535  1.00  0.00     0.012 A 
ATOM      4  C   UNL     1      16.847  40.586   9.786  1.00  0.00     0.157 A 
ATOM      5  C   UNL     1      18.859  39.237   9.768  1.00  0.00     0.051 A 
ATOM      6  C   UNL     1      17.522  39.424   9.396  1.00  0.00     0.157 A 
ENDROOT
BRANCH   1   7
ATOM      7  C   UNL     1      19.504  42.429  11.750  1.00  0.00     0.010 C 
ATOM      8  C   UNL     1      19.929  43.594  11.240  1.00  0.00     0.025 C 
BRANCH   8   9
ATOM      9  C   UNL     1      20.590  44.619  12.065  1.00  0.00     0.064 C 
ATOM     10  O   UNL     1      20.057  45.048  13.124  1.00  0.00    -0.545 OA
ATOM     11  O   UNL     1      21.820  45.125  11.669  1.00  0.00    -0.545 OA
ENDBRANCH   8   9
ENDBRANCH   1   7
BRANCH   4  12
ATOM     12  O   UNL     1      15.518  40.772   9.408  1.00  0.00    -0.504 OA
ATOM     13  H   UNL     1      15.064  41.675   9.495  1.00  0.00     0.293 HD
ENDBRANCH   4  12
BRANCH   6  14
ATOM     14  O   UNL     1      16.861  38.463   8.633  1.00  0.00    -0.504 OA
ATOM     15  H   UNL     1      15.937  38.129   8.886  1.00  0.00     0.293 HD
ENDBRANCH   6  14
TORSDOF 4
ENDMDL
MODEL 3
REMARK VINA RESULT:     6.801      0.865      1.846
REMARK INTER + INTRA:           7.861
REMARK INTER:                   7.999
REMARK INTRA:                  -0.138
REMARK UNBOUND:                -0.133
REMARK SMILES O=C([O-])C=Cc1ccc(O)c(O)c1
REMARK SMILES IDX 6 1 13 2 7 3 11 4 8 5 9 6 5 7 4 8 2 9 1 10 3 11 12 12 10 14
REMARK H PARENT 12 13 10 15
REMARK Flexibility Score: inf
ROOT
ATOM      1  C   UNL     1      19.073  42.110  11.142  1.00  0.00    -0.022 A 
ATOM      2  C   UNL     1      20.251  41.778  11.832  1.00  0.00     0.058 A 
ATOM      3  C   UNL     1      18.702  43.465  11.043  1.00  0.00     0.012 A 
ATOM      4  C   UNL     1      21.034  42.774  12.434  1.00  0.00     0.157 A 
ATOM      5  C   UNL     1      19.483  44.458  11.643  1.00  0.00     0.051 A 
ATOM      6  C   UNL     1      20.647  44.115  12.342  1.00  0.00     0.157 A 
ENDROOT
BRANCH   1   7
ATOM      7  C   UNL     1      18.287  41.019  10.513  1.00  0.00     0.010 C 
ATOM      8  C   UNL     1      17.001  41.141  10.153  1.00  0.00     0.025 C 
BRANCH   8   9
ATOM      9  C   UNL     1      16.248  40.032   9.542  1.00  0.00     0.064 C 
ATOM     10  O   UNL     1      16.827  39.156   8.844  1.00  0.00    -0.545 OA
ATOM     11  O   UNL     1      14.876  39.951   9.736  1.00  0.00    -0.545 OA
ENDBRANCH   8   9
ENDBRANCH   1   7
BRANCH   4  12
ATOM     12  O   UNL     1      22.196  42.437  13.125  1.00  0.00    -0.504 OA
ATOM     13  H   UNL     1      23.115  42.655  12.756  1.00  0.00     0.293 HD
ENDBRANCH   4  12
BRANCH   6  14
ATOM     14  O   UNL     1      21.426  45.103  12.942  1.00  0.00    -0.504 OA
ATOM     15  H   UNL     1      21.417  46.061  12.610  1.00  0.00     0.293 HD
ENDBRANCH   6  14
TORSDOF 4
ENDMDL
