MODEL 1
REMARK VINA RESULT:    -5.179      0.000      0.000
REMARK INTER + INTRA:         -10.962
REMARK INTER:                  -8.811
REMARK INTRA:                  -2.150
REMARK UNBOUND:                -2.150
REMARK SMILES CCCCCCCCCCCCCC(=O)[O-]
REMARK SMILES IDX 8 1 9 2 10 3 11 4 12 5 13 6 14 7 15 8 16 9 7 10 6 11 5 12
REMARK SMILES IDX 4 13 3 14 2 15 1 16
REMARK H PARENT
REMARK Flexibility Score: inf
ROOT
ATOM      1  C   UNL     1      21.660  11.957  -1.909  1.00  0.00     0.000 C 
ENDROOT
BRANCH   1   2
ATOM      2  C   UNL     1      22.928  12.754  -1.563  1.00  0.00     0.000 C 
BRANCH   2   3
ATOM      3  C   UNL     1      23.200  12.807  -0.051  1.00  0.00     0.000 C 
BRANCH   3   4
ATOM      4  C   UNL     1      22.444  11.701   0.717  1.00  0.00     0.000 C 
BRANCH   4   5
ATOM      5  C   UNL     1      22.214  12.033   2.204  1.00  0.00     0.006 C 
BRANCH   5   6
ATOM      6  C   UNL     1      23.208  13.055   2.775  1.00  0.00     0.053 C 
BRANCH   6   7
ATOM      7  C   UNL     1      22.743  13.614   4.087  1.00  0.00     0.041 C 
ATOM      8  O   UNL     1      22.681  14.860   4.257  1.00  0.00    -0.550 OA
ATOM      9  O   UNL     1      22.397  12.760   5.126  1.00  0.00    -0.550 OA
ENDBRANCH   6   7
ENDBRANCH   5   6
ENDBRANCH   4   5
ENDBRANCH   3   4
ENDBRANCH   2   3
ENDBRANCH   1   2
BRANCH   1  10
ATOM     10  C   UNL     1      20.727  12.714  -2.870  1.00  0.00     0.000 C 
BRANCH  10  11
ATOM     11  C   UNL     1      19.411  13.138  -2.201  1.00  0.00    -0.000 C 
BRANCH  11  12
ATOM     12  C   UNL     1      19.271  12.586  -0.773  1.00  0.00    -0.000 C 
BRANCH  12  13
ATOM     13  C   UNL     1      19.046  13.690   0.275  1.00  0.00    -0.000 C 
BRANCH  13  14
ATOM     14  C   UNL     1      19.880  14.963   0.019  1.00  0.00    -0.000 C 
BRANCH  14  15
ATOM     15  C   UNL     1      20.750  15.340   1.229  1.00  0.00    -0.003 C 
ATOM     16  C   UNL     1      21.977  16.138   0.798  1.00  0.00     0.004 C 
ENDBRANCH  14  15
ENDBRANCH  13  14
ENDBRANCH  12  13
ENDBRANCH  11  12
ENDBRANCH  10  11
ENDBRANCH   1  10
TORSDOF 12
ENDMDL
MODEL 2
REMARK VINA RESULT:    -5.161      1.370      3.675
REMARK INTER + INTRA:         -10.931
REMARK INTER:                  -9.119
REMARK INTRA:                  -1.812
REMARK UNBOUND:                -2.150
REMARK SMILES CCCCCCCCCCCCCC(=O)[O-]
REMARK SMILES IDX 8 1 9 2 10 3 11 4 12 5 13 6 14 7 15 8 16 9 7 10 6 11 5 12
REMARK SMILES IDX 4 13 3 14 2 15 1 16
REMARK H PARENT
REMARK Flexibility Score: inf
ROOT
ATOM      1  C   UNL     1      19.059  13.666  -0.043  1.00  0.00     0.000 C 
ENDROOT
BRANCH   1   2
ATOM      2  C   UNL     1      20.102  14.743  -0.382  1.00  0.00     0.000 C 
BRANCH   2   3
ATOM      3  C   UNL     1      20.486  15.600   0.836  1.00  0.00     0.000 C 
BRANCH   3   4
ATOM      4  C   UNL     1      22.016  15.750   0.984  1.00  0.00     0.000 C 
BRANCH   4   5
ATOM      5  C   UNL     1      22.526  15.466   2.410  1.00  0.00     0.006 C 
BRANCH   5   6
ATOM      6  C   UNL     1      22.171  14.067   2.931  1.00  0.00     0.053 C 
BRANCH   6   7
ATOM      7  C   UNL     1      23.395  13.266   3.259  1.00  0.00     0.041 C 
ATOM      8  O   UNL     1      24.444  13.405   2.576  1.00  0.00    -0.550 OA
ATOM      9  O   UNL     1      23.373  12.352   4.305  1.00  0.00    -0.550 OA
ENDBRANCH   6   7
ENDBRANCH   5   6
ENDBRANCH   4   5
ENDBRANCH   3   4
ENDBRANCH   2   3
ENDBRANCH   1   2
BRANCH   1  10
ATOM     10  C   UNL     1      19.567  12.241  -0.325  1.00  0.00     0.000 C 
BRANCH  10  11
ATOM     11  C   UNL     1      20.905  11.944   0.369  1.00  0.00    -0.000 C 
BRANCH  11  12
ATOM     12  C   UNL     1      22.013  11.564  -0.627  1.00  0.00    -0.000 C 
BRANCH  12  13
ATOM     13  C   UNL     1      23.110  12.637  -0.739  1.00  0.00    -0.000 C 
BRANCH  13  14
ATOM     14  C   UNL     1      23.243  13.238  -2.154  1.00  0.00    -0.000 C 
BRANCH  14  15
ATOM     15  C   UNL     1      22.063  12.856  -3.062  1.00  0.00    -0.003 C 
ATOM     16  C   UNL     1      22.536  12.550  -4.480  1.00  0.00     0.004 C 
ENDBRANCH  14  15
ENDBRANCH  13  14
ENDBRANCH  12  13
ENDBRANCH  11  12
ENDBRANCH  10  11
ENDBRANCH   1  10
TORSDOF 12
ENDMDL
MODEL 3
REMARK VINA RESULT:    -5.154      1.522      3.364
REMARK INTER + INTRA:         -10.919
REMARK INTER:                  -9.575
REMARK INTRA:                  -1.345
REMARK UNBOUND:                -2.150
REMARK SMILES CCCCCCCCCCCCCC(=O)[O-]
REMARK SMILES IDX 8 1 9 2 10 3 11 4 12 5 13 6 14 7 15 8 16 9 7 10 6 11 5 12
REMARK SMILES IDX 4 13 3 14 2 15 1 16
REMARK H PARENT
REMARK Flexibility Score: inf
ROOT
ATOM      1  C   UNL     1      21.035  14.248   0.166  1.00  0.00     0.000 C 
ENDROOT
BRANCH   1   2
ATOM      2  C   UNL     1      22.567  14.365   0.145  1.00  0.00     0.000 C 
BRANCH   2   3
ATOM      3  C   UNL     1      23.096  15.411   1.140  1.00  0.00     0.000 C 
BRANCH   3   4
ATOM      4  C   UNL     1      21.994  15.911   2.101  1.00  0.00     0.000 C 
BRANCH   4   5
ATOM      5  C   UNL     1      22.130  15.356   3.532  1.00  0.00     0.006 C 
BRANCH   5   6
ATOM      6  C   UNL     1      23.274  14.347   3.704  1.00  0.00     0.053 C 
BRANCH   6   7
ATOM      7  C   UNL     1      22.772  13.001   4.133  1.00  0.00     0.041 C 
ATOM      8  O   UNL     1      22.509  12.120   3.272  1.00  0.00    -0.550 OA
ATOM      9  O   UNL     1      22.575  12.726   5.480  1.00  0.00    -0.550 OA
ENDBRANCH   6   7
ENDBRANCH   5   6
ENDBRANCH   4   5
ENDBRANCH   3   4
ENDBRANCH   2   3
ENDBRANCH   1   2
BRANCH   1  10
ATOM     10  C   UNL     1      20.553  12.851   0.595  1.00  0.00     0.000 C 
BRANCH  10  11
ATOM     11  C   UNL     1      19.725  12.153  -0.495  1.00  0.00    -0.000 C 
BRANCH  11  12
ATOM     12  C   UNL     1      19.391  13.087  -1.670  1.00  0.00    -0.000 C 
BRANCH  12  13
ATOM     13  C   UNL     1      20.003  12.616  -3.000  1.00  0.00    -0.000 C 
BRANCH  13  14
ATOM     14  C   UNL     1      21.455  12.108  -2.866  1.00  0.00    -0.000 C 
BRANCH  14  15
ATOM     15  C   UNL     1      22.363  12.644  -3.984  1.00  0.00    -0.003 C 
ATOM     16  C   UNL     1      23.503  13.482  -3.413  1.00  0.00     0.004 C 
ENDBRANCH  14  15
ENDBRANCH  13  14
ENDBRANCH  12  13
ENDBRANCH  11  12
ENDBRANCH  10  11
ENDBRANCH   1  10
TORSDOF 12
ENDMDL
MODEL 4
REMARK VINA RESULT:    -5.129      3.093      5.294
REMARK INTER + INTRA:         -10.877
REMARK INTER:                  -8.698
REMARK INTRA:                  -2.179
REMARK UNBOUND:                -2.150
REMARK SMILES CCCCCCCCCCCCCC(=O)[O-]
REMARK SMILES IDX 8 1 9 2 10 3 11 4 12 5 13 6 14 7 15 8 16 9 7 10 6 11 5 12
REMARK SMILES IDX 4 13 3 14 2 15 1 16
REMARK H PARENT
REMARK Flexibility Score: inf
ROOT
ATOM      1  C   UNL     1      23.265  13.187   3.186  1.00  0.00     0.000 C 
ENDROOT
BRANCH   1   2
ATOM      2  C   UNL     1      22.094  12.475   2.491  1.00  0.00     0.000 C 
BRANCH   2   3
ATOM      3  C   UNL     1      22.467  11.942   1.098  1.00  0.00     0.000 C 
BRANCH   3   4
ATOM      4  C   UNL     1      23.357  12.933   0.314  1.00  0.00     0.000 C 
BRANCH   4   5
ATOM      5  C   UNL     1      23.183  12.837  -1.214  1.00  0.00     0.006 C 
BRANCH   5   6
ATOM      6  C   UNL     1      22.075  11.871  -1.656  1.00  0.00     0.053 C 
BRANCH   6   7
ATOM      7  C   UNL     1      21.466  12.280  -2.964  1.00  0.00     0.041 C 
ATOM      8  O   UNL     1      20.233  12.125  -3.164  1.00  0.00    -0.550 OA
ATOM      9  O   UNL     1      22.264  12.814  -3.968  1.00  0.00    -0.550 OA
ENDBRANCH   6   7
ENDBRANCH   5   6
ENDBRANCH   4   5
ENDBRANCH   3   4
ENDBRANCH   2   3
ENDBRANCH   1   2
BRANCH   1  10
ATOM     10  C   UNL     1      22.828  14.464   3.925  1.00  0.00     0.000 C 
BRANCH  10  11
ATOM     11  C   UNL     1      21.793  15.278   3.133  1.00  0.00    -0.000 C 
BRANCH  11  12
ATOM     12  C   UNL     1      22.419  16.038   1.953  1.00  0.00    -0.000 C 
BRANCH  12  13
ATOM     13  C   UNL     1      21.478  16.139   0.741  1.00  0.00    -0.000 C 
BRANCH  13  14
ATOM     14  C   UNL     1      20.171  15.334   0.906  1.00  0.00    -0.000 C 
BRANCH  14  15
ATOM     15  C   UNL     1      19.880  14.442  -0.311  1.00  0.00    -0.003 C 
ATOM     16  C   UNL     1      19.104  13.193   0.094  1.00  0.00     0.004 C 
ENDBRANCH  14  15
ENDBRANCH  13  14
ENDBRANCH  12  13
ENDBRANCH  11  12
ENDBRANCH  10  11
ENDBRANCH   1  10
TORSDOF 12
ENDMDL
MODEL 5
REMARK VINA RESULT:    -5.091      0.962      2.999
REMARK INTER + INTRA:         -10.813
REMARK INTER:                  -8.745
REMARK INTRA:                  -2.068
REMARK UNBOUND:                -2.150
REMARK SMILES CCCCCCCCCCCCCC(=O)[O-]
REMARK SMILES IDX 8 1 9 2 10 3 11 4 12 5 13 6 14 7 15 8 16 9 7 10 6 11 5 12
REMARK SMILES IDX 4 13 3 14 2 15 1 16
REMARK H PARENT
REMARK Flexibility Score: inf
ROOT
ATOM      1  C   UNL     1      22.510  15.374   0.757  1.00  0.00     0.000 C 
ENDROOT
BRANCH   1   2
ATOM      2  C   UNL     1      22.694  14.369  -0.391  1.00  0.00     0.000 C 
BRANCH   2   3
ATOM      3  C   UNL     1      23.443  13.099   0.047  1.00  0.00     0.000 C 
BRANCH   3   4
ATOM      4  C   UNL     1      22.490  11.899   0.242  1.00  0.00     0.000 C 
BRANCH   4   5
ATOM      5  C   UNL     1      22.448  11.379   1.692  1.00  0.00     0.006 C 
BRANCH   5   6
ATOM      6  C   UNL     1      21.857  12.378   2.696  1.00  0.00     0.053 C 
BRANCH   6   7
ATOM      7  C   UNL     1      22.864  12.798   3.724  1.00  0.00     0.041 C 
ATOM      8  O   UNL     1      22.698  12.494   4.934  1.00  0.00    -0.550 OA
ATOM      9  O   UNL     1      23.975  13.544   3.350  1.00  0.00    -0.550 OA
ENDBRANCH   6   7
ENDBRANCH   5   6
ENDBRANCH   4   5
ENDBRANCH   3   4
ENDBRANCH   2   3
ENDBRANCH   1   2
BRANCH   1  10
ATOM     10  C   UNL     1      21.041  15.517   1.191  1.00  0.00     0.000 C 
BRANCH  10  11
ATOM     11  C   UNL     1      20.058  15.255   0.039  1.00  0.00    -0.000 C 
BRANCH  11  12
ATOM     12  C   UNL     1      19.049  14.142   0.367  1.00  0.00    -0.000 C 
BRANCH  12  13
ATOM     13  C   UNL     1      19.168  12.932  -0.575  1.00  0.00    -0.000 C 
BRANCH  13  14
ATOM     14  C   UNL     1      19.653  13.299  -1.993  1.00  0.00    -0.000 C 
BRANCH  14  15
ATOM     15  C   UNL     1      20.324  12.112  -2.703  1.00  0.00    -0.003 C 
ATOM     16  C   UNL     1      21.546  12.565  -3.497  1.00  0.00     0.004 C 
ENDBRANCH  14  15
ENDBRANCH  13  14
ENDBRANCH  12  13
ENDBRANCH  11  12
ENDBRANCH  10  11
ENDBRANCH   1  10
TORSDOF 12
ENDMDL
MODEL 6
REMARK VINA RESULT:    -5.046      1.220      3.512
REMARK INTER + INTRA:         -10.736
REMARK INTER:                  -8.766
REMARK INTRA:                  -1.970
REMARK UNBOUND:                -2.150
REMARK SMILES CCCCCCCCCCCCCC(=O)[O-]
REMARK SMILES IDX 8 1 9 2 10 3 11 4 12 5 13 6 14 7 15 8 16 9 7 10 6 11 5 12
REMARK SMILES IDX 4 13 3 14 2 15 1 16
REMARK H PARENT
REMARK Flexibility Score: inf
ROOT
ATOM      1  C   UNL     1      19.125  12.561  -1.334  1.00  0.00     0.000 C 
ENDROOT
BRANCH   1   2
ATOM      2  C   UNL     1      19.031  13.244   0.040  1.00  0.00     0.000 C 
BRANCH   2   3
ATOM      3  C   UNL     1      19.574  14.683   0.025  1.00  0.00     0.000 C 
BRANCH   3   4
ATOM      4  C   UNL     1      20.606  14.928   1.148  1.00  0.00     0.000 C 
BRANCH   4   5
ATOM      5  C   UNL     1      21.609  16.052   0.826  1.00  0.00     0.006 C 
BRANCH   5   6
ATOM      6  C   UNL     1      22.981  15.873   1.489  1.00  0.00     0.053 C 
BRANCH   6   7
ATOM      7  C   UNL     1      22.863  15.312   2.875  1.00  0.00     0.041 C 
ATOM      8  O   UNL     1      23.524  14.292   3.203  1.00  0.00    -0.550 OA
ATOM      9  O   UNL     1      22.007  15.902   3.796  1.00  0.00    -0.550 OA
ENDBRANCH   6   7
ENDBRANCH   5   6
ENDBRANCH   4   5
ENDBRANCH   3   4
ENDBRANCH   2   3
ENDBRANCH   1   2
BRANCH   1  10
ATOM     10  C   UNL     1      20.105  13.272  -2.284  1.00  0.00     0.000 C 
BRANCH  10  11
ATOM     11  C   UNL     1      21.025  12.289  -3.024  1.00  0.00    -0.000 C 
BRANCH  11  12
ATOM     12  C   UNL     1      22.515  12.589  -2.793  1.00  0.00    -0.000 C 
BRANCH  12  13
ATOM     13  C   UNL     1      22.764  13.454  -1.545  1.00  0.00    -0.000 C 
BRANCH  13  14
ATOM     14  C   UNL     1      23.368  12.669  -0.361  1.00  0.00    -0.000 C 
BRANCH  14  15
ATOM     15  C   UNL     1      22.487  11.482   0.060  1.00  0.00    -0.003 C 
ATOM     16  C   UNL     1      22.132  11.559   1.542  1.00  0.00     0.004 C 
ENDBRANCH  14  15
ENDBRANCH  13  14
ENDBRANCH  12  13
ENDBRANCH  11  12
ENDBRANCH  10  11
ENDBRANCH   1  10
TORSDOF 12
ENDMDL
MODEL 7
REMARK VINA RESULT:    -5.031      1.336      3.193
REMARK INTER + INTRA:         -10.711
REMARK INTER:                  -9.267
REMARK INTRA:                  -1.444
REMARK UNBOUND:                -2.150
REMARK SMILES CCCCCCCCCCCCCC(=O)[O-]
REMARK SMILES IDX 8 1 9 2 10 3 11 4 12 5 13 6 14 7 15 8 16 9 7 10 6 11 5 12
REMARK SMILES IDX 4 13 3 14 2 15 1 16
REMARK H PARENT
REMARK Flexibility Score: inf
ROOT
ATOM      1  C   UNL     1      23.269  13.475   0.281  1.00  0.00     0.000 C 
ENDROOT
BRANCH   1   2
ATOM      2  C   UNL     1      22.503  14.799   0.134  1.00  0.00     0.000 C 
BRANCH   2   3
ATOM      3  C   UNL     1      22.808  15.790   1.270  1.00  0.00     0.000 C 
BRANCH   3   4
ATOM      4  C   UNL     1      21.729  15.759   2.376  1.00  0.00     0.000 C 
BRANCH   4   5
ATOM      5  C   UNL     1      22.291  15.427   3.771  1.00  0.00     0.006 C 
BRANCH   5   6
ATOM      6  C   UNL     1      23.308  14.277   3.777  1.00  0.00     0.053 C 
BRANCH   6   7
ATOM      7  C   UNL     1      22.691  12.988   4.234  1.00  0.00     0.041 C 
ATOM      8  O   UNL     1      22.867  12.587   5.414  1.00  0.00    -0.550 OA
ATOM      9  O   UNL     1      21.939  12.222   3.352  1.00  0.00    -0.550 OA
ENDBRANCH   6   7
ENDBRANCH   5   6
ENDBRANCH   4   5
ENDBRANCH   3   4
ENDBRANCH   2   3
ENDBRANCH   1   2
BRANCH   1  10
ATOM     10  C   UNL     1      23.590  12.822  -1.075  1.00  0.00     0.000 C 
BRANCH  10  11
ATOM     11  C   UNL     1      22.756  13.409  -2.224  1.00  0.00    -0.000 C 
BRANCH  11  12
ATOM     12  C   UNL     1      22.179  12.323  -3.147  1.00  0.00    -0.000 C 
BRANCH  12  13
ATOM     13  C   UNL     1      20.645  12.229  -3.071  1.00  0.00    -0.000 C 
BRANCH  13  14
ATOM     14  C   UNL     1      20.006  13.297  -2.158  1.00  0.00    -0.000 C 
BRANCH  14  15
ATOM     15  C   UNL     1      19.378  12.682  -0.897  1.00  0.00    -0.003 C 
ATOM     16  C   UNL     1      19.014  13.761   0.119  1.00  0.00     0.004 C 
ENDBRANCH  14  15
ENDBRANCH  13  14
ENDBRANCH  12  13
ENDBRANCH  11  12
ENDBRANCH  10  11
ENDBRANCH   1  10
TORSDOF 12
ENDMDL
MODEL 8
REMARK VINA RESULT:    -5.000      1.447      3.043
REMARK INTER + INTRA:         -10.658
REMARK INTER:                  -8.838
REMARK INTRA:                  -1.820
REMARK UNBOUND:                -2.150
REMARK SMILES CCCCCCCCCCCCCC(=O)[O-]
REMARK SMILES IDX 8 1 9 2 10 3 11 4 12 5 13 6 14 7 15 8 16 9 7 10 6 11 5 12
REMARK SMILES IDX 4 13 3 14 2 15 1 16
REMARK H PARENT
REMARK Flexibility Score: inf
ROOT
ATOM      1  C   UNL     1      20.674  12.439   0.762  1.00  0.00     0.000 C 
ENDROOT
BRANCH   1   2
ATOM      2  C   UNL     1      21.855  11.505   0.452  1.00  0.00     0.000 C 
BRANCH   2   3
ATOM      3  C   UNL     1      23.179  12.264   0.266  1.00  0.00     0.000 C 
BRANCH   3   4
ATOM      4  C   UNL     1      22.968  13.793   0.189  1.00  0.00     0.000 C 
BRANCH   4   5
ATOM      5  C   UNL     1      23.615  14.561   1.357  1.00  0.00     0.006 C 
BRANCH   5   6
ATOM      6  C   UNL     1      23.907  13.693   2.589  1.00  0.00     0.053 C 
BRANCH   6   7
ATOM      7  C   UNL     1      22.808  13.780   3.606  1.00  0.00     0.041 C 
ATOM      8  O   UNL     1      22.481  14.895   4.089  1.00  0.00    -0.550 OA
ATOM      9  O   UNL     1      22.161  12.628   4.035  1.00  0.00    -0.550 OA
ENDBRANCH   6   7
ENDBRANCH   5   6
ENDBRANCH   4   5
ENDBRANCH   3   4
ENDBRANCH   2   3
ENDBRANCH   1   2
BRANCH   1  10
ATOM     10  C   UNL     1      19.431  12.125  -0.088  1.00  0.00     0.000 C 
BRANCH  10  11
ATOM     11  C   UNL     1      19.002  13.311  -0.966  1.00  0.00    -0.000 C 
BRANCH  11  12
ATOM     12  C   UNL     1      20.025  13.630  -2.068  1.00  0.00    -0.000 C 
BRANCH  12  13
ATOM     13  C   UNL     1      20.276  12.441  -3.012  1.00  0.00    -0.000 C 
BRANCH  13  14
ATOM     14  C   UNL     1      21.757  12.016  -3.089  1.00  0.00    -0.000 C 
BRANCH  14  15
ATOM     15  C   UNL     1      22.589  12.963  -3.968  1.00  0.00    -0.003 C 
ATOM     16  C   UNL     1      23.956  13.233  -3.347  1.00  0.00     0.004 C 
ENDBRANCH  14  15
ENDBRANCH  13  14
ENDBRANCH  12  13
ENDBRANCH  11  12
ENDBRANCH  10  11
ENDBRANCH   1  10
TORSDOF 12
ENDMDL
MODEL 9
REMARK VINA RESULT:    -4.989      3.173      5.512
REMARK INTER + INTRA:         -10.639
REMARK INTER:                  -8.609
REMARK INTRA:                  -2.030
REMARK UNBOUND:                -2.150
REMARK SMILES CCCCCCCCCCCCCC(=O)[O-]
REMARK SMILES IDX 8 1 9 2 10 3 11 4 12 5 13 6 14 7 15 8 16 9 7 10 6 11 5 12
REMARK SMILES IDX 4 13 3 14 2 15 1 16
REMARK H PARENT
REMARK Flexibility Score: inf
ROOT
ATOM      1  C   UNL     1      20.031  14.967  -0.037  1.00  0.00     0.000 C 
ENDROOT
BRANCH   1   2
ATOM      2  C   UNL     1      19.176  13.742   0.323  1.00  0.00     0.000 C 
BRANCH   2   3
ATOM      3  C   UNL     1      19.233  12.643  -0.751  1.00  0.00     0.000 C 
BRANCH   3   4
ATOM      4  C   UNL     1      19.650  13.198  -2.132  1.00  0.00     0.000 C 
BRANCH   4   5
ATOM      5  C   UNL     1      20.444  12.189  -2.984  1.00  0.00     0.006 C 
BRANCH   5   6
ATOM      6  C   UNL     1      21.930  12.093  -2.612  1.00  0.00     0.053 C 
BRANCH   6   7
ATOM      7  C   UNL     1      22.809  12.702  -3.663  1.00  0.00     0.041 C 
ATOM      8  O   UNL     1      22.501  12.604  -4.880  1.00  0.00    -0.550 OA
ATOM      9  O   UNL     1      23.977  13.361  -3.300  1.00  0.00    -0.550 OA
ENDBRANCH   6   7
ENDBRANCH   5   6
ENDBRANCH   4   5
ENDBRANCH   3   4
ENDBRANCH   2   3
ENDBRANCH   1   2
BRANCH   1  10
ATOM     10  C   UNL     1      20.764  15.557   1.181  1.00  0.00     0.000 C 
BRANCH  10  11
ATOM     11  C   UNL     1      22.276  15.696   0.948  1.00  0.00    -0.000 C 
BRANCH  11  12
ATOM     12  C   UNL     1      22.833  14.602   0.023  1.00  0.00    -0.000 C 
BRANCH  12  13
ATOM     13  C   UNL     1      23.484  13.442   0.794  1.00  0.00    -0.000 C 
BRANCH  13  14
ATOM     14  C   UNL     1      22.551  12.227   0.986  1.00  0.00    -0.000 C 
BRANCH  14  15
ATOM     15  C   UNL     1      21.947  12.176   2.398  1.00  0.00    -0.003 C 
ATOM     16  C   UNL     1      22.833  12.906   3.403  1.00  0.00     0.004 C 
ENDBRANCH  14  15
ENDBRANCH  13  14
ENDBRANCH  12  13
ENDBRANCH  11  12
ENDBRANCH  10  11
ENDBRANCH   1  10
TORSDOF 12
ENDMDL
