MODEL 1
REMARK VINA RESULT:    -5.549      0.000      0.000
REMARK INTER + INTRA:         -18.106
REMARK INTER:                 -13.983
REMARK INTRA:                  -4.123
REMARK UNBOUND:                -4.123
REMARK SMILES CCCCCCCCCCCCCCCCCCCCCCCCCCCC(=O)[O-]
REMARK SMILES IDX 15 1 16 2 17 3 18 4 19 5 20 6 21 7 22 8 23 9 24 10 25 11
REMARK SMILES IDX 26 12 27 13 28 14 29 15 30 16 14 17 13 18 12 19 11 20 10 21
REMARK SMILES IDX 9 22 8 23 7 24 6 25 5 26 4 27 3 28 2 29 1 30
REMARK H PARENT
REMARK Flexibility Score: inf
ROOT
ATOM      1  C   UNL     1      10.113  18.379  32.055  1.00  0.00     0.000 C 
ENDROOT
BRANCH   1   2
ATOM      2  C   UNL     1       9.924  17.417  33.246  1.00  0.00     0.000 C 
BRANCH   2   3
ATOM      3  C   UNL     1       8.719  17.715  34.162  1.00  0.00     0.000 C 
BRANCH   3   4
ATOM      4  C   UNL     1       8.320  19.203  34.176  1.00  0.00     0.000 C 
BRANCH   4   5
ATOM      5  C   UNL     1       8.442  19.838  35.575  1.00  0.00     0.000 C 
BRANCH   5   6
ATOM      6  C   UNL     1       7.900  18.980  36.733  1.00  0.00     0.000 C 
BRANCH   6   7
ATOM      7  C   UNL     1       8.592  19.282  38.073  1.00  0.00     0.000 C 
BRANCH   7   8
ATOM      8  C   UNL     1       9.946  18.566  38.220  1.00  0.00     0.000 C 
BRANCH   8   9
ATOM      9  C   UNL     1      11.161  19.493  38.427  1.00  0.00     0.000 C 
BRANCH   9  10
ATOM     10  C   UNL     1      11.952  19.789  37.135  1.00  0.00     0.000 C 
BRANCH  10  11
ATOM     11  C   UNL     1      11.778  18.683  36.079  1.00  0.00     0.000 C 
BRANCH  11  12
ATOM     12  C   UNL     1      13.100  17.969  35.745  1.00  0.00     0.006 C 
BRANCH  12  13
ATOM     13  C   UNL     1      13.086  16.485  36.137  1.00  0.00     0.053 C 
BRANCH  13  14
ATOM     14  C   UNL     1      14.115  16.201  37.185  1.00  0.00     0.041 C 
ATOM     15  O   UNL     1      13.797  16.190  38.405  1.00  0.00    -0.550 OA
ATOM     16  O   UNL     1      15.425  15.925  36.815  1.00  0.00    -0.550 OA
ENDBRANCH  13  14
ENDBRANCH  12  13
ENDBRANCH  11  12
ENDBRANCH  10  11
ENDBRANCH   9  10
ENDBRANCH   8   9
ENDBRANCH   7   8
ENDBRANCH   6   7
ENDBRANCH   5   6
ENDBRANCH   4   5
ENDBRANCH   3   4
ENDBRANCH   2   3
ENDBRANCH   1   2
BRANCH   1  17
ATOM     17  C   UNL     1       9.906  17.700  30.691  1.00  0.00     0.000 C 
BRANCH  17  18
ATOM     18  C   UNL     1       9.137  18.591  29.703  1.00  0.00     0.000 C 
BRANCH  18  19
ATOM     19  C   UNL     1       8.279  19.664  30.394  1.00  0.00     0.000 C 
BRANCH  19  20
ATOM     20  C   UNL     1       7.962  20.803  29.413  1.00  0.00     0.000 C 
BRANCH  20  21
ATOM     21  C   UNL     1       7.945  22.187  30.077  1.00  0.00     0.000 C 
BRANCH  21  22
ATOM     22  C   UNL     1       7.934  22.116  31.614  1.00  0.00    -0.000 C 
BRANCH  22  23
ATOM     23  C   UNL     1       9.223  22.675  32.245  1.00  0.00    -0.000 C 
BRANCH  23  24
ATOM     24  C   UNL     1       8.982  23.553  33.493  1.00  0.00    -0.000 C 
BRANCH  24  25
ATOM     25  C   UNL     1      10.281  24.024  34.171  1.00  0.00    -0.000 C 
BRANCH  25  26
ATOM     26  C   UNL     1      10.096  24.292  35.674  1.00  0.00    -0.000 C 
BRANCH  26  27
ATOM     27  C   UNL     1      10.268  22.998  36.486  1.00  0.00    -0.000 C 
BRANCH  27  28
ATOM     28  C   UNL     1       9.196  22.876  37.580  1.00  0.00    -0.000 C 
BRANCH  28  29
ATOM     29  C   UNL     1       9.700  23.339  38.956  1.00  0.00    -0.003 C 
ATOM     30  C   UNL     1       9.356  24.796  39.258  1.00  0.00     0.004 C 
ENDBRANCH  28  29
ENDBRANCH  27  28
ENDBRANCH  26  27
ENDBRANCH  25  26
ENDBRANCH  24  25
ENDBRANCH  23  24
ENDBRANCH  22  23
ENDBRANCH  21  22
ENDBRANCH  20  21
ENDBRANCH  19  20
ENDBRANCH  18  19
ENDBRANCH  17  18
ENDBRANCH   1  17
TORSDOF 26
ENDMDL
MODEL 2
REMARK VINA RESULT:    -5.423      1.600      2.458
REMARK INTER + INTRA:         -17.790
REMARK INTER:                 -13.184
REMARK INTRA:                  -4.606
REMARK UNBOUND:                -4.123
REMARK SMILES CCCCCCCCCCCCCCCCCCCCCCCCCCCC(=O)[O-]
REMARK SMILES IDX 15 1 16 2 17 3 18 4 19 5 20 6 21 7 22 8 23 9 24 10 25 11
REMARK SMILES IDX 26 12 27 13 28 14 29 15 30 16 14 17 13 18 12 19 11 20 10 21
REMARK SMILES IDX 9 22 8 23 7 24 6 25 5 26 4 27 3 28 2 29 1 30
REMARK H PARENT
REMARK Flexibility Score: inf
ROOT
ATOM      1  C   UNL     1      10.212  18.566  33.458  1.00  0.00     0.000 C 
ENDROOT
BRANCH   1   2
ATOM      2  C   UNL     1       8.928  19.195  34.034  1.00  0.00     0.000 C 
BRANCH   2   3
ATOM      3  C   UNL     1       8.064  18.268  34.915  1.00  0.00     0.000 C 
BRANCH   3   4
ATOM      4  C   UNL     1       8.897  17.273  35.745  1.00  0.00     0.000 C 
BRANCH   4   5
ATOM      5  C   UNL     1       9.459  17.900  37.036  1.00  0.00     0.000 C 
BRANCH   5   6
ATOM      6  C   UNL     1      10.940  17.591  37.322  1.00  0.00     0.000 C 
BRANCH   6   7
ATOM      7  C   UNL     1      11.800  18.860  37.449  1.00  0.00     0.000 C 
BRANCH   7   8
ATOM      8  C   UNL     1      12.513  19.232  36.136  1.00  0.00     0.000 C 
BRANCH   8   9
ATOM      9  C   UNL     1      13.835  20.006  36.304  1.00  0.00     0.000 C 
BRANCH   9  10
ATOM     10  C   UNL     1      14.717  19.499  37.465  1.00  0.00     0.000 C 
BRANCH  10  11
ATOM     11  C   UNL     1      16.057  18.927  36.971  1.00  0.00     0.000 C 
BRANCH  11  12
ATOM     12  C   UNL     1      16.016  17.401  36.775  1.00  0.00     0.006 C 
BRANCH  12  13
ATOM     13  C   UNL     1      15.062  16.705  37.755  1.00  0.00     0.053 C 
BRANCH  13  14
ATOM     14  C   UNL     1      14.399  15.529  37.110  1.00  0.00     0.041 C 
ATOM     15  O   UNL     1      14.642  14.359  37.514  1.00  0.00    -0.550 OA
ATOM     16  O   UNL     1      13.496  15.723  36.074  1.00  0.00    -0.550 OA
ENDBRANCH  13  14
ENDBRANCH  12  13
ENDBRANCH  11  12
ENDBRANCH  10  11
ENDBRANCH   9  10
ENDBRANCH   8   9
ENDBRANCH   7   8
ENDBRANCH   6   7
ENDBRANCH   5   6
ENDBRANCH   4   5
ENDBRANCH   3   4
ENDBRANCH   2   3
ENDBRANCH   1   2
BRANCH   1  17
ATOM     17  C   UNL     1       9.961  17.733  32.189  1.00  0.00     0.000 C 
BRANCH  17  18
ATOM     18  C   UNL     1       8.735  18.220  31.400  1.00  0.00     0.000 C 
BRANCH  18  19
ATOM     19  C   UNL     1       9.098  18.869  30.055  1.00  0.00     0.000 C 
BRANCH  19  20
ATOM     20  C   UNL     1       8.261  20.140  29.837  1.00  0.00     0.000 C 
BRANCH  20  21
ATOM     21  C   UNL     1       8.158  21.020  31.090  1.00  0.00     0.000 C 
BRANCH  21  22
ATOM     22  C   UNL     1       8.476  22.499  30.813  1.00  0.00    -0.000 C 
BRANCH  22  23
ATOM     23  C   UNL     1       9.712  22.997  31.585  1.00  0.00    -0.000 C 
BRANCH  23  24
ATOM     24  C   UNL     1      10.591  21.866  32.162  1.00  0.00    -0.000 C 
BRANCH  24  25
ATOM     25  C   UNL     1      11.737  22.374  33.055  1.00  0.00    -0.000 C 
BRANCH  25  26
ATOM     26  C   UNL     1      11.405  22.270  34.553  1.00  0.00    -0.000 C 
BRANCH  26  27
ATOM     27  C   UNL     1      10.870  23.608  35.089  1.00  0.00    -0.000 C 
BRANCH  27  28
ATOM     28  C   UNL     1       9.572  23.412  35.888  1.00  0.00    -0.000 C 
BRANCH  28  29
ATOM     29  C   UNL     1       9.272  21.932  36.175  1.00  0.00    -0.003 C 
ATOM     30  C   UNL     1       9.281  21.600  37.667  1.00  0.00     0.004 C 
ENDBRANCH  28  29
ENDBRANCH  27  28
ENDBRANCH  26  27
ENDBRANCH  25  26
ENDBRANCH  24  25
ENDBRANCH  23  24
ENDBRANCH  22  23
ENDBRANCH  21  22
ENDBRANCH  20  21
ENDBRANCH  19  20
ENDBRANCH  18  19
ENDBRANCH  17  18
ENDBRANCH   1  17
TORSDOF 26
ENDMDL
MODEL 3
REMARK VINA RESULT:    -5.416      2.763      6.926
REMARK INTER + INTRA:         -17.770
REMARK INTER:                 -13.022
REMARK INTRA:                  -4.748
REMARK UNBOUND:                -4.123
REMARK SMILES CCCCCCCCCCCCCCCCCCCCCCCCCCCC(=O)[O-]
REMARK SMILES IDX 15 1 16 2 17 3 18 4 19 5 20 6 21 7 22 8 23 9 24 10 25 11
REMARK SMILES IDX 26 12 27 13 28 14 29 15 30 16 14 17 13 18 12 19 11 20 10 21
REMARK SMILES IDX 9 22 8 23 7 24 6 25 5 26 4 27 3 28 2 29 1 30
REMARK H PARENT
REMARK Flexibility Score: inf
ROOT
ATOM      1  C   UNL     1       9.741  17.589  33.835  1.00  0.00     0.000 C 
ENDROOT
BRANCH   1   2
ATOM      2  C   UNL     1       9.976  17.752  32.320  1.00  0.00     0.000 C 
BRANCH   2   3
ATOM      3  C   UNL     1       8.734  18.140  31.488  1.00  0.00     0.000 C 
BRANCH   3   4
ATOM      4  C   UNL     1       8.995  19.308  30.519  1.00  0.00     0.000 C 
BRANCH   4   5
ATOM      5  C   UNL     1       8.258  20.598  30.930  1.00  0.00     0.000 C 
BRANCH   5   6
ATOM      6  C   UNL     1       8.655  21.168  32.304  1.00  0.00     0.000 C 
BRANCH   6   7
ATOM      7  C   UNL     1       9.993  21.925  32.270  1.00  0.00     0.000 C 
BRANCH   7   8
ATOM      8  C   UNL     1      11.095  21.227  33.087  1.00  0.00     0.000 C 
BRANCH   8   9
ATOM      9  C   UNL     1      10.755  20.974  34.569  1.00  0.00     0.000 C 
BRANCH   9  10
ATOM     10  C   UNL     1      10.710  22.254  35.430  1.00  0.00     0.000 C 
BRANCH  10  11
ATOM     11  C   UNL     1       9.275  22.637  35.831  1.00  0.00     0.000 C 
BRANCH  11  12
ATOM     12  C   UNL     1       9.110  22.815  37.351  1.00  0.00     0.006 C 
BRANCH  12  13
ATOM     13  C   UNL     1      10.454  22.961  38.078  1.00  0.00     0.053 C 
BRANCH  13  14
ATOM     14  C   UNL     1      10.389  24.047  39.105  1.00  0.00     0.041 C 
ATOM     15  O   UNL     1      11.388  24.296  39.834  1.00  0.00    -0.550 OA
ATOM     16  O   UNL     1       9.232  24.802  39.246  1.00  0.00    -0.550 OA
ENDBRANCH  13  14
ENDBRANCH  12  13
ENDBRANCH  11  12
ENDBRANCH  10  11
ENDBRANCH   9  10
ENDBRANCH   8   9
ENDBRANCH   7   8
ENDBRANCH   6   7
ENDBRANCH   5   6
ENDBRANCH   4   5
ENDBRANCH   3   4
ENDBRANCH   2   3
ENDBRANCH   1   2
BRANCH   1  17
ATOM     17  C   UNL     1       8.285  17.859  34.254  1.00  0.00     0.000 C 
BRANCH  17  18
ATOM     18  C   UNL     1       8.091  17.793  35.777  1.00  0.00     0.000 C 
BRANCH  18  19
ATOM     19  C   UNL     1       8.170  19.169  36.458  1.00  0.00     0.000 C 
BRANCH  19  20
ATOM     20  C   UNL     1       9.052  19.089  37.714  1.00  0.00     0.000 C 
BRANCH  20  21
ATOM     21  C   UNL     1      10.100  17.970  37.648  1.00  0.00     0.000 C 
BRANCH  21  22
ATOM     22  C   UNL     1      11.448  18.443  37.076  1.00  0.00    -0.000 C 
BRANCH  22  23
ATOM     23  C   UNL     1      12.233  19.331  38.060  1.00  0.00    -0.000 C 
BRANCH  23  24
ATOM     24  C   UNL     1      13.336  20.184  37.394  1.00  0.00    -0.000 C 
BRANCH  24  25
ATOM     25  C   UNL     1      14.039  19.471  36.224  1.00  0.00    -0.000 C 
BRANCH  25  26
ATOM     26  C   UNL     1      15.376  18.836  36.640  1.00  0.00    -0.000 C 
BRANCH  26  27
ATOM     27  C   UNL     1      15.590  17.492  35.926  1.00  0.00    -0.000 C 
BRANCH  27  28
ATOM     28  C   UNL     1      15.858  16.361  36.930  1.00  0.00    -0.000 C 
BRANCH  28  29
ATOM     29  C   UNL     1      14.565  15.742  37.484  1.00  0.00    -0.003 C 
ATOM     30  C   UNL     1      14.686  14.242  37.748  1.00  0.00     0.004 C 
ENDBRANCH  28  29
ENDBRANCH  27  28
ENDBRANCH  26  27
ENDBRANCH  25  26
ENDBRANCH  24  25
ENDBRANCH  23  24
ENDBRANCH  22  23
ENDBRANCH  21  22
ENDBRANCH  20  21
ENDBRANCH  19  20
ENDBRANCH  18  19
ENDBRANCH  17  18
ENDBRANCH   1  17
TORSDOF 26
ENDMDL
MODEL 4
REMARK VINA RESULT:    -5.389      2.674      6.558
REMARK INTER + INTRA:         -17.703
REMARK INTER:                 -12.862
REMARK INTRA:                  -4.841
REMARK UNBOUND:                -4.123
REMARK SMILES CCCCCCCCCCCCCCCCCCCCCCCCCCCC(=O)[O-]
REMARK SMILES IDX 15 1 16 2 17 3 18 4 19 5 20 6 21 7 22 8 23 9 24 10 25 11
REMARK SMILES IDX 26 12 27 13 28 14 29 15 30 16 14 17 13 18 12 19 11 20 10 21
REMARK SMILES IDX 9 22 8 23 7 24 6 25 5 26 4 27 3 28 2 29 1 30
REMARK H PARENT
REMARK Flexibility Score: inf
ROOT
ATOM      1  C   UNL     1       9.309  17.288  34.216  1.00  0.00     0.000 C 
ENDROOT
BRANCH   1   2
ATOM      2  C   UNL     1      10.172  17.319  32.938  1.00  0.00     0.000 C 
BRANCH   2   3
ATOM      3  C   UNL     1      10.047  18.594  32.078  1.00  0.00     0.000 C 
BRANCH   3   4
ATOM      4  C   UNL     1       9.414  18.336  30.698  1.00  0.00     0.000 C 
BRANCH   4   5
ATOM      5  C   UNL     1       8.644  19.557  30.159  1.00  0.00     0.000 C 
BRANCH   5   6
ATOM      6  C   UNL     1       8.231  20.592  31.222  1.00  0.00     0.000 C 
BRANCH   6   7
ATOM      7  C   UNL     1       8.355  22.041  30.722  1.00  0.00     0.000 C 
BRANCH   7   8
ATOM      8  C   UNL     1       9.405  22.853  31.500  1.00  0.00     0.000 C 
BRANCH   8   9
ATOM      9  C   UNL     1       8.965  23.329  32.899  1.00  0.00     0.000 C 
BRANCH   9  10
ATOM     10  C   UNL     1       9.438  22.417  34.050  1.00  0.00     0.000 C 
BRANCH  10  11
ATOM     11  C   UNL     1      10.818  21.795  33.770  1.00  0.00     0.000 C 
BRANCH  11  12
ATOM     12  C   UNL     1      11.980  22.721  34.169  1.00  0.00     0.006 C 
BRANCH  12  13
ATOM     13  C   UNL     1      12.821  23.166  32.966  1.00  0.00     0.053 C 
BRANCH  13  14
ATOM     14  C   UNL     1      14.166  23.653  33.406  1.00  0.00     0.041 C 
ATOM     15  O   UNL     1      14.604  23.368  34.554  1.00  0.00    -0.550 OA
ATOM     16  O   UNL     1      14.949  24.406  32.541  1.00  0.00    -0.550 OA
ENDBRANCH  13  14
ENDBRANCH  12  13
ENDBRANCH  11  12
ENDBRANCH  10  11
ENDBRANCH   9  10
ENDBRANCH   8   9
ENDBRANCH   7   8
ENDBRANCH   6   7
ENDBRANCH   5   6
ENDBRANCH   4   5
ENDBRANCH   3   4
ENDBRANCH   2   3
ENDBRANCH   1   2
BRANCH   1  17
ATOM     17  C   UNL     1       8.189  18.342  34.215  1.00  0.00     0.000 C 
BRANCH  17  18
ATOM     18  C   UNL     1       8.294  19.312  35.402  1.00  0.00     0.000 C 
BRANCH  18  19
ATOM     19  C   UNL     1       8.062  18.634  36.762  1.00  0.00     0.000 C 
BRANCH  19  20
ATOM     20  C   UNL     1       8.168  19.668  37.895  1.00  0.00     0.000 C 
BRANCH  20  21
ATOM     21  C   UNL     1       8.637  21.047  37.413  1.00  0.00     0.000 C 
BRANCH  21  22
ATOM     22  C   UNL     1       9.848  21.578  38.201  1.00  0.00    -0.000 C 
BRANCH  22  23
ATOM     23  C   UNL     1      11.181  21.360  37.462  1.00  0.00    -0.000 C 
BRANCH  23  24
ATOM     24  C   UNL     1      11.828  19.982  37.727  1.00  0.00    -0.000 C 
BRANCH  24  25
ATOM     25  C   UNL     1      11.863  19.072  36.485  1.00  0.00    -0.000 C 
BRANCH  25  26
ATOM     26  C   UNL     1      11.722  17.584  36.844  1.00  0.00    -0.000 C 
BRANCH  26  27
ATOM     27  C   UNL     1      12.873  16.764  36.239  1.00  0.00    -0.000 C 
BRANCH  27  28
ATOM     28  C   UNL     1      13.827  16.251  37.329  1.00  0.00    -0.000 C 
BRANCH  28  29
ATOM     29  C   UNL     1      15.076  17.133  37.485  1.00  0.00    -0.003 C 
ATOM     30  C   UNL     1      14.971  18.115  38.650  1.00  0.00     0.004 C 
ENDBRANCH  28  29
ENDBRANCH  27  28
ENDBRANCH  26  27
ENDBRANCH  25  26
ENDBRANCH  24  25
ENDBRANCH  23  24
ENDBRANCH  22  23
ENDBRANCH  21  22
ENDBRANCH  20  21
ENDBRANCH  19  20
ENDBRANCH  18  19
ENDBRANCH  17  18
ENDBRANCH   1  17
TORSDOF 26
ENDMDL
MODEL 5
REMARK VINA RESULT:    -5.353      3.584      7.468
REMARK INTER + INTRA:         -17.614
REMARK INTER:                 -12.945
REMARK INTRA:                  -4.669
REMARK UNBOUND:                -4.123
REMARK SMILES CCCCCCCCCCCCCCCCCCCCCCCCCCCC(=O)[O-]
REMARK SMILES IDX 15 1 16 2 17 3 18 4 19 5 20 6 21 7 22 8 23 9 24 10 25 11
REMARK SMILES IDX 26 12 27 13 28 14 29 15 30 16 14 17 13 18 12 19 11 20 10 21
REMARK SMILES IDX 9 22 8 23 7 24 6 25 5 26 4 27 3 28 2 29 1 30
REMARK H PARENT
REMARK Flexibility Score: inf
ROOT
ATOM      1  C   UNL     1      11.233  21.975  38.786  1.00  0.00     0.000 C 
ENDROOT
BRANCH   1   2
ATOM      2  C   UNL     1       9.758  21.561  38.962  1.00  0.00     0.000 C 
BRANCH   2   3
ATOM      3  C   UNL     1       9.521  20.107  39.423  1.00  0.00     0.000 C 
BRANCH   3   4
ATOM      4  C   UNL     1       8.696  19.280  38.421  1.00  0.00     0.000 C 
BRANCH   4   5
ATOM      5  C   UNL     1       8.292  20.088  37.173  1.00  0.00     0.000 C 
BRANCH   5   6
ATOM      6  C   UNL     1       8.721  19.473  35.828  1.00  0.00     0.000 C 
BRANCH   6   7
ATOM      7  C   UNL     1       8.425  17.966  35.741  1.00  0.00     0.000 C 
BRANCH   7   8
ATOM      8  C   UNL     1       9.162  17.279  34.577  1.00  0.00     0.000 C 
BRANCH   8   9
ATOM      9  C   UNL     1      10.130  18.182  33.787  1.00  0.00     0.000 C 
BRANCH   9  10
ATOM     10  C   UNL     1      10.007  18.045  32.255  1.00  0.00     0.000 C 
BRANCH  10  11
ATOM     11  C   UNL     1       8.755  18.752  31.706  1.00  0.00     0.000 C 
BRANCH  11  12
ATOM     12  C   UNL     1       8.577  20.171  32.275  1.00  0.00     0.006 C 
BRANCH  12  13
ATOM     13  C   UNL     1       8.646  21.256  31.192  1.00  0.00     0.053 C 
BRANCH  13  14
ATOM     14  C   UNL     1       9.008  22.580  31.786  1.00  0.00     0.041 C 
ATOM     15  O   UNL     1       9.833  23.337  31.204  1.00  0.00    -0.550 OA
ATOM     16  O   UNL     1       8.421  22.993  32.974  1.00  0.00    -0.550 OA
ENDBRANCH  13  14
ENDBRANCH  12  13
ENDBRANCH  11  12
ENDBRANCH  10  11
ENDBRANCH   9  10
ENDBRANCH   8   9
ENDBRANCH   7   8
ENDBRANCH   6   7
ENDBRANCH   5   6
ENDBRANCH   4   5
ENDBRANCH   3   4
ENDBRANCH   2   3
ENDBRANCH   1   2
BRANCH   1  17
ATOM     17  C   UNL     1      12.128  20.826  38.290  1.00  0.00     0.000 C 
BRANCH  17  18
ATOM     18  C   UNL     1      12.163  20.730  36.756  1.00  0.00     0.000 C 
BRANCH  18  19
ATOM     19  C   UNL     1      12.452  19.309  36.245  1.00  0.00     0.000 C 
BRANCH  19  20
ATOM     20  C   UNL     1      11.933  18.269  37.250  1.00  0.00     0.000 C 
BRANCH  20  21
ATOM     21  C   UNL     1      11.999  16.829  36.722  1.00  0.00     0.000 C 
BRANCH  21  22
ATOM     22  C   UNL     1      13.205  16.584  35.798  1.00  0.00    -0.000 C 
BRANCH  22  23
ATOM     23  C   UNL     1      14.399  15.948  36.533  1.00  0.00    -0.000 C 
BRANCH  23  24
ATOM     24  C   UNL     1      15.423  16.971  37.071  1.00  0.00    -0.000 C 
BRANCH  24  25
ATOM     25  C   UNL     1      15.114  17.456  38.499  1.00  0.00    -0.000 C 
BRANCH  25  26
ATOM     26  C   UNL     1      15.422  18.949  38.693  1.00  0.00    -0.000 C 
BRANCH  26  27
ATOM     27  C   UNL     1      14.917  19.439  40.060  1.00  0.00    -0.000 C 
BRANCH  27  28
ATOM     28  C   UNL     1      15.814  20.553  40.622  1.00  0.00    -0.000 C 
BRANCH  28  29
ATOM     29  C   UNL     1      15.389  21.952  40.145  1.00  0.00    -0.003 C 
ATOM     30  C   UNL     1      16.136  23.077  40.858  1.00  0.00     0.004 C 
ENDBRANCH  28  29
ENDBRANCH  27  28
ENDBRANCH  26  27
ENDBRANCH  25  26
ENDBRANCH  24  25
ENDBRANCH  23  24
ENDBRANCH  22  23
ENDBRANCH  21  22
ENDBRANCH  20  21
ENDBRANCH  19  20
ENDBRANCH  18  19
ENDBRANCH  17  18
ENDBRANCH   1  17
TORSDOF 26
ENDMDL
MODEL 6
REMARK VINA RESULT:    -5.341      1.988      3.325
REMARK INTER + INTRA:         -17.582
REMARK INTER:                 -12.264
REMARK INTRA:                  -5.319
REMARK UNBOUND:                -4.123
REMARK SMILES CCCCCCCCCCCCCCCCCCCCCCCCCCCC(=O)[O-]
REMARK SMILES IDX 15 1 16 2 17 3 18 4 19 5 20 6 21 7 22 8 23 9 24 10 25 11
REMARK SMILES IDX 26 12 27 13 28 14 29 15 30 16 14 17 13 18 12 19 11 20 10 21
REMARK SMILES IDX 9 22 8 23 7 24 6 25 5 26 4 27 3 28 2 29 1 30
REMARK H PARENT
REMARK Flexibility Score: inf
ROOT
ATOM      1  C   UNL     1      10.997  19.226  35.489  1.00  0.00     0.000 C 
ENDROOT
BRANCH   1   2
ATOM      2  C   UNL     1       9.700  18.735  36.165  1.00  0.00     0.000 C 
BRANCH   2   3
ATOM      3  C   UNL     1       8.670  19.831  36.510  1.00  0.00     0.000 C 
BRANCH   3   4
ATOM      4  C   UNL     1       7.995  19.621  37.878  1.00  0.00     0.000 C 
BRANCH   4   5
ATOM      5  C   UNL     1       9.007  19.300  38.996  1.00  0.00     0.000 C 
BRANCH   5   6
ATOM      6  C   UNL     1       9.813  20.505  39.515  1.00  0.00     0.000 C 
BRANCH   6   7
ATOM      7  C   UNL     1      11.283  20.475  39.065  1.00  0.00     0.000 C 
BRANCH   7   8
ATOM      8  C   UNL     1      12.006  19.178  39.472  1.00  0.00     0.000 C 
BRANCH   8   9
ATOM      9  C   UNL     1      13.060  18.671  38.468  1.00  0.00     0.000 C 
BRANCH   9  10
ATOM     10  C   UNL     1      14.510  18.737  38.993  1.00  0.00     0.000 C 
BRANCH  10  11
ATOM     11  C   UNL     1      15.540  18.791  37.851  1.00  0.00     0.000 C 
BRANCH  11  12
ATOM     12  C   UNL     1      15.087  18.013  36.604  1.00  0.00     0.006 C 
BRANCH  12  13
ATOM     13  C   UNL     1      15.631  16.578  36.572  1.00  0.00     0.053 C 
BRANCH  13  14
ATOM     14  C   UNL     1      14.538  15.586  36.816  1.00  0.00     0.041 C 
ATOM     15  O   UNL     1      13.393  15.762  36.315  1.00  0.00    -0.550 OA
ATOM     16  O   UNL     1      14.785  14.454  37.580  1.00  0.00    -0.550 OA
ENDBRANCH  13  14
ENDBRANCH  12  13
ENDBRANCH  11  12
ENDBRANCH  10  11
ENDBRANCH   9  10
ENDBRANCH   8   9
ENDBRANCH   7   8
ENDBRANCH   6   7
ENDBRANCH   5   6
ENDBRANCH   4   5
ENDBRANCH   3   4
ENDBRANCH   2   3
ENDBRANCH   1   2
BRANCH   1  17
ATOM     17  C   UNL     1      11.501  18.277  34.388  1.00  0.00     0.000 C 
BRANCH  17  18
ATOM     18  C   UNL     1      10.405  17.325  33.886  1.00  0.00     0.000 C 
BRANCH  18  19
ATOM     19  C   UNL     1       9.898  17.673  32.477  1.00  0.00     0.000 C 
BRANCH  19  20
ATOM     20  C   UNL     1       8.606  18.500  32.568  1.00  0.00     0.000 C 
BRANCH  20  21
ATOM     21  C   UNL     1       8.708  19.862  31.867  1.00  0.00     0.000 C 
BRANCH  21  22
ATOM     22  C   UNL     1       9.041  21.011  32.835  1.00  0.00    -0.000 C 
BRANCH  22  23
ATOM     23  C   UNL     1      10.119  21.962  32.281  1.00  0.00    -0.000 C 
BRANCH  23  24
ATOM     24  C   UNL     1      11.508  21.785  32.933  1.00  0.00    -0.000 C 
BRANCH  24  25
ATOM     25  C   UNL     1      12.208  23.117  33.257  1.00  0.00    -0.000 C 
BRANCH  25  26
ATOM     26  C   UNL     1      11.611  23.808  34.494  1.00  0.00    -0.000 C 
BRANCH  26  27
ATOM     27  C   UNL     1      11.465  22.816  35.659  1.00  0.00    -0.000 C 
BRANCH  27  28
ATOM     28  C   UNL     1      12.704  22.834  36.568  1.00  0.00    -0.000 C 
BRANCH  28  29
ATOM     29  C   UNL     1      13.611  21.611  36.358  1.00  0.00    -0.003 C 
ATOM     30  C   UNL     1      14.985  21.977  35.798  1.00  0.00     0.004 C 
ENDBRANCH  28  29
ENDBRANCH  27  28
ENDBRANCH  26  27
ENDBRANCH  25  26
ENDBRANCH  24  25
ENDBRANCH  23  24
ENDBRANCH  22  23
ENDBRANCH  21  22
ENDBRANCH  20  21
ENDBRANCH  19  20
ENDBRANCH  18  19
ENDBRANCH  17  18
ENDBRANCH   1  17
TORSDOF 26
ENDMDL
MODEL 7
REMARK VINA RESULT:    -5.337      1.827      4.168
REMARK INTER + INTRA:         -17.572
REMARK INTER:                 -12.187
REMARK INTRA:                  -5.386
REMARK UNBOUND:                -4.123
REMARK SMILES CCCCCCCCCCCCCCCCCCCCCCCCCCCC(=O)[O-]
REMARK SMILES IDX 15 1 16 2 17 3 18 4 19 5 20 6 21 7 22 8 23 9 24 10 25 11
REMARK SMILES IDX 26 12 27 13 28 14 29 15 30 16 14 17 13 18 12 19 11 20 10 21
REMARK SMILES IDX 9 22 8 23 7 24 6 25 5 26 4 27 3 28 2 29 1 30
REMARK H PARENT
REMARK Flexibility Score: inf
ROOT
ATOM      1  C   UNL     1      10.094  17.882  32.631  1.00  0.00     0.000 C 
ENDROOT
BRANCH   1   2
ATOM      2  C   UNL     1       9.074  18.126  31.500  1.00  0.00     0.000 C 
BRANCH   2   3
ATOM      3  C   UNL     1       9.209  19.471  30.756  1.00  0.00     0.000 C 
BRANCH   3   4
ATOM      4  C   UNL     1       8.252  20.556  31.286  1.00  0.00     0.000 C 
BRANCH   4   5
ATOM      5  C   UNL     1       8.995  21.724  31.963  1.00  0.00     0.000 C 
BRANCH   5   6
ATOM      6  C   UNL     1       9.029  21.675  33.502  1.00  0.00     0.000 C 
BRANCH   6   7
ATOM      7  C   UNL     1      10.443  21.873  34.072  1.00  0.00     0.000 C 
BRANCH   7   8
ATOM      8  C   UNL     1      10.937  20.659  34.879  1.00  0.00     0.000 C 
BRANCH   8   9
ATOM      9  C   UNL     1      12.167  20.919  35.772  1.00  0.00     0.000 C 
BRANCH   9  10
ATOM     10  C   UNL     1      12.827  19.636  36.320  1.00  0.00     0.000 C 
BRANCH  10  11
ATOM     11  C   UNL     1      12.803  19.579  37.858  1.00  0.00     0.000 C 
BRANCH  11  12
ATOM     12  C   UNL     1      12.737  18.140  38.399  1.00  0.00     0.006 C 
BRANCH  12  13
ATOM     13  C   UNL     1      14.107  17.449  38.406  1.00  0.00     0.053 C 
BRANCH  13  14
ATOM     14  C   UNL     1      14.077  16.194  37.591  1.00  0.00     0.041 C 
ATOM     15  O   UNL     1      14.812  15.216  37.898  1.00  0.00    -0.550 OA
ATOM     16  O   UNL     1      13.220  16.094  36.503  1.00  0.00    -0.550 OA
ENDBRANCH  13  14
ENDBRANCH  12  13
ENDBRANCH  11  12
ENDBRANCH  10  11
ENDBRANCH   9  10
ENDBRANCH   8   9
ENDBRANCH   7   8
ENDBRANCH   6   7
ENDBRANCH   5   6
ENDBRANCH   4   5
ENDBRANCH   3   4
ENDBRANCH   2   3
ENDBRANCH   1   2
BRANCH   1  17
ATOM     17  C   UNL     1       9.441  17.416  33.944  1.00  0.00     0.000 C 
BRANCH  17  18
ATOM     18  C   UNL     1       8.125  18.152  34.239  1.00  0.00     0.000 C 
BRANCH  18  19
ATOM     19  C   UNL     1       7.876  18.370  35.741  1.00  0.00     0.000 C 
BRANCH  19  20
ATOM     20  C   UNL     1       9.180  18.165  36.529  1.00  0.00     0.000 C 
BRANCH  20  21
ATOM     21  C   UNL     1       9.168  18.843  37.906  1.00  0.00     0.000 C 
BRANCH  21  22
ATOM     22  C   UNL     1       8.402  20.177  37.912  1.00  0.00    -0.000 C 
BRANCH  22  23
ATOM     23  C   UNL     1       9.301  21.379  38.259  1.00  0.00    -0.000 C 
BRANCH  23  24
ATOM     24  C   UNL     1       9.030  22.635  37.401  1.00  0.00    -0.000 C 
BRANCH  24  25
ATOM     25  C   UNL     1       9.824  23.872  37.858  1.00  0.00    -0.000 C 
BRANCH  25  26
ATOM     26  C   UNL     1      10.567  24.555  36.698  1.00  0.00    -0.000 C 
BRANCH  26  27
ATOM     27  C   UNL     1      12.087  24.519  36.924  1.00  0.00    -0.000 C 
BRANCH  27  28
ATOM     28  C   UNL     1      12.447  23.707  38.178  1.00  0.00    -0.000 C 
BRANCH  28  29
ATOM     29  C   UNL     1      13.903  23.216  38.167  1.00  0.00    -0.003 C 
ATOM     30  C   UNL     1      14.362  22.681  39.523  1.00  0.00     0.004 C 
ENDBRANCH  28  29
ENDBRANCH  27  28
ENDBRANCH  26  27
ENDBRANCH  25  26
ENDBRANCH  24  25
ENDBRANCH  23  24
ENDBRANCH  22  23
ENDBRANCH  21  22
ENDBRANCH  20  21
ENDBRANCH  19  20
ENDBRANCH  18  19
ENDBRANCH  17  18
ENDBRANCH   1  17
TORSDOF 26
ENDMDL
MODEL 8
REMARK VINA RESULT:    -5.331      2.551      4.783
REMARK INTER + INTRA:         -17.558
REMARK INTER:                 -12.459
REMARK INTRA:                  -5.099
REMARK UNBOUND:                -4.123
REMARK SMILES CCCCCCCCCCCCCCCCCCCCCCCCCCCC(=O)[O-]
REMARK SMILES IDX 15 1 16 2 17 3 18 4 19 5 20 6 21 7 22 8 23 9 24 10 25 11
REMARK SMILES IDX 26 12 27 13 28 14 29 15 30 16 14 17 13 18 12 19 11 20 10 21
REMARK SMILES IDX 9 22 8 23 7 24 6 25 5 26 4 27 3 28 2 29 1 30
REMARK H PARENT
REMARK Flexibility Score: inf
ROOT
ATOM      1  C   UNL     1      11.460  18.568  34.260  1.00  0.00     0.000 C 
ENDROOT
BRANCH   1   2
ATOM      2  C   UNL     1      12.602  17.797  34.952  1.00  0.00     0.000 C 
BRANCH   2   3
ATOM      3  C   UNL     1      12.167  16.786  36.035  1.00  0.00     0.000 C 
BRANCH   3   4
ATOM      4  C   UNL     1      13.312  15.873  36.507  1.00  0.00     0.000 C 
BRANCH   4   5
ATOM      5  C   UNL     1      13.867  16.278  37.887  1.00  0.00     0.000 C 
BRANCH   5   6
ATOM      6  C   UNL     1      15.378  16.573  37.924  1.00  0.00     0.000 C 
BRANCH   6   7
ATOM      7  C   UNL     1      16.005  16.643  36.522  1.00  0.00     0.000 C 
BRANCH   7   8
ATOM      8  C   UNL     1      16.107  18.082  35.984  1.00  0.00     0.000 C 
BRANCH   8   9
ATOM      9  C   UNL     1      15.945  19.191  37.042  1.00  0.00     0.000 C 
BRANCH   9  10
ATOM     10  C   UNL     1      14.740  20.124  36.794  1.00  0.00     0.000 C 
BRANCH  10  11
ATOM     11  C   UNL     1      13.595  19.873  37.790  1.00  0.00     0.000 C 
BRANCH  11  12
ATOM     12  C   UNL     1      12.435  20.870  37.626  1.00  0.00     0.006 C 
BRANCH  12  13
ATOM     13  C   UNL     1      12.898  22.332  37.688  1.00  0.00     0.053 C 
BRANCH  13  14
ATOM     14  C   UNL     1      12.436  22.985  38.952  1.00  0.00     0.041 C 
ATOM     15  O   UNL     1      13.274  23.401  39.798  1.00  0.00    -0.550 OA
ATOM     16  O   UNL     1      11.079  23.156  39.189  1.00  0.00    -0.550 OA
ENDBRANCH  13  14
ENDBRANCH  12  13
ENDBRANCH  11  12
ENDBRANCH  10  11
ENDBRANCH   9  10
ENDBRANCH   8   9
ENDBRANCH   7   8
ENDBRANCH   6   7
ENDBRANCH   5   6
ENDBRANCH   4   5
ENDBRANCH   3   4
ENDBRANCH   2   3
ENDBRANCH   1   2
BRANCH   1  17
ATOM     17  C   UNL     1      10.277  17.669  33.862  1.00  0.00     0.000 C 
BRANCH  17  18
ATOM     18  C   UNL     1       9.299  18.373  32.909  1.00  0.00     0.000 C 
BRANCH  18  19
ATOM     19  C   UNL     1       9.539  18.028  31.430  1.00  0.00     0.000 C 
BRANCH  19  20
ATOM     20  C   UNL     1       8.976  19.138  30.529  1.00  0.00     0.000 C 
BRANCH  20  21
ATOM     21  C   UNL     1       8.283  20.261  31.312  1.00  0.00     0.000 C 
BRANCH  21  22
ATOM     22  C   UNL     1       8.602  21.662  30.763  1.00  0.00    -0.000 C 
BRANCH  22  23
ATOM     23  C   UNL     1       9.295  22.565  31.800  1.00  0.00    -0.000 C 
BRANCH  23  24
ATOM     24  C   UNL     1      10.470  21.886  32.539  1.00  0.00    -0.000 C 
BRANCH  24  25
ATOM     25  C   UNL     1      10.525  22.221  34.041  1.00  0.00    -0.000 C 
BRANCH  25  26
ATOM     26  C   UNL     1       9.372  21.578  34.829  1.00  0.00    -0.000 C 
BRANCH  26  27
ATOM     27  C   UNL     1       9.348  22.091  36.279  1.00  0.00    -0.000 C 
BRANCH  27  28
ATOM     28  C   UNL     1       8.686  21.073  37.221  1.00  0.00    -0.000 C 
BRANCH  28  29
ATOM     29  C   UNL     1       8.745  19.637  36.676  1.00  0.00    -0.003 C 
ATOM     30  C   UNL     1       9.460  18.670  37.618  1.00  0.00     0.004 C 
ENDBRANCH  28  29
ENDBRANCH  27  28
ENDBRANCH  26  27
ENDBRANCH  25  26
ENDBRANCH  24  25
ENDBRANCH  23  24
ENDBRANCH  22  23
ENDBRANCH  21  22
ENDBRANCH  20  21
ENDBRANCH  19  20
ENDBRANCH  18  19
ENDBRANCH  17  18
ENDBRANCH   1  17
TORSDOF 26
ENDMDL
MODEL 9
REMARK VINA RESULT:    -5.310      2.635      5.835
REMARK INTER + INTRA:         -17.504
REMARK INTER:                 -12.749
REMARK INTRA:                  -4.756
REMARK UNBOUND:                -4.123
REMARK SMILES CCCCCCCCCCCCCCCCCCCCCCCCCCCC(=O)[O-]
REMARK SMILES IDX 15 1 16 2 17 3 18 4 19 5 20 6 21 7 22 8 23 9 24 10 25 11
REMARK SMILES IDX 26 12 27 13 28 14 29 15 30 16 14 17 13 18 12 19 11 20 10 21
REMARK SMILES IDX 9 22 8 23 7 24 6 25 5 26 4 27 3 28 2 29 1 30
REMARK H PARENT
REMARK Flexibility Score: inf
ROOT
ATOM      1  C   UNL     1       9.364  18.180  30.190  1.00  0.00     0.000 C 
ENDROOT
BRANCH   1   2
ATOM      2  C   UNL     1       8.592  19.386  30.764  1.00  0.00     0.000 C 
BRANCH   2   3
ATOM      3  C   UNL     1       8.216  20.485  29.747  1.00  0.00     0.000 C 
BRANCH   3   4
ATOM      4  C   UNL     1       8.119  21.886  30.378  1.00  0.00     0.000 C 
BRANCH   4   5
ATOM      5  C   UNL     1       8.527  21.899  31.864  1.00  0.00     0.000 C 
BRANCH   5   6
ATOM      6  C   UNL     1       9.870  22.588  32.167  1.00  0.00     0.000 C 
BRANCH   6   7
ATOM      7  C   UNL     1      10.961  21.597  32.605  1.00  0.00     0.000 C 
BRANCH   7   8
ATOM      8  C   UNL     1      11.983  22.221  33.573  1.00  0.00     0.000 C 
BRANCH   8   9
ATOM      9  C   UNL     1      12.206  21.444  34.885  1.00  0.00     0.000 C 
BRANCH   9  10
ATOM     10  C   UNL     1      11.798  22.224  36.153  1.00  0.00     0.000 C 
BRANCH  10  11
ATOM     11  C   UNL     1      10.344  22.726  36.086  1.00  0.00     0.000 C 
BRANCH  11  12
ATOM     12  C   UNL     1       9.877  23.371  37.402  1.00  0.00     0.006 C 
BRANCH  12  13
ATOM     13  C   UNL     1      10.395  22.628  38.641  1.00  0.00     0.053 C 
BRANCH  13  14
ATOM     14  C   UNL     1      10.908  23.591  39.665  1.00  0.00     0.041 C 
ATOM     15  O   UNL     1      10.132  24.068  40.538  1.00  0.00    -0.550 OA
ATOM     16  O   UNL     1      12.249  23.949  39.671  1.00  0.00    -0.550 OA
ENDBRANCH  13  14
ENDBRANCH  12  13
ENDBRANCH  11  12
ENDBRANCH  10  11
ENDBRANCH   9  10
ENDBRANCH   8   9
ENDBRANCH   7   8
ENDBRANCH   6   7
ENDBRANCH   5   6
ENDBRANCH   4   5
ENDBRANCH   3   4
ENDBRANCH   2   3
ENDBRANCH   1   2
BRANCH   1  17
ATOM     17  C   UNL     1      10.071  17.345  31.271  1.00  0.00     0.000 C 
BRANCH  17  18
ATOM     18  C   UNL     1      10.098  18.052  32.636  1.00  0.00     0.000 C 
BRANCH  18  19
ATOM     19  C   UNL     1       9.907  17.091  33.820  1.00  0.00     0.000 C 
BRANCH  19  20
ATOM     20  C   UNL     1       8.588  17.401  34.546  1.00  0.00     0.000 C 
BRANCH  20  21
ATOM     21  C   UNL     1       8.110  18.845  34.344  1.00  0.00     0.000 C 
BRANCH  21  22
ATOM     22  C   UNL     1       8.607  19.801  35.443  1.00  0.00    -0.000 C 
BRANCH  22  23
ATOM     23  C   UNL     1       8.186  19.355  36.855  1.00  0.00    -0.000 C 
BRANCH  23  24
ATOM     24  C   UNL     1       9.370  19.125  37.821  1.00  0.00    -0.000 C 
BRANCH  24  25
ATOM     25  C   UNL     1      10.711  18.892  37.101  1.00  0.00    -0.000 C 
BRANCH  25  26
ATOM     26  C   UNL     1      11.893  18.792  38.080  1.00  0.00    -0.000 C 
BRANCH  26  27
ATOM     27  C   UNL     1      13.231  18.946  37.339  1.00  0.00    -0.000 C 
BRANCH  27  28
ATOM     28  C   UNL     1      14.142  19.968  38.037  1.00  0.00    -0.000 C 
BRANCH  28  29
ATOM     29  C   UNL     1      15.306  20.430  37.144  1.00  0.00    -0.003 C 
ATOM     30  C   UNL     1      15.991  19.276  36.413  1.00  0.00     0.004 C 
ENDBRANCH  28  29
ENDBRANCH  27  28
ENDBRANCH  26  27
ENDBRANCH  25  26
ENDBRANCH  24  25
ENDBRANCH  23  24
ENDBRANCH  22  23
ENDBRANCH  21  22
ENDBRANCH  20  21
ENDBRANCH  19  20
ENDBRANCH  18  19
ENDBRANCH  17  18
ENDBRANCH   1  17
TORSDOF 26
ENDMDL
