MODEL 1
REMARK VINA RESULT:    -3.231      0.000      0.000
REMARK INTER + INTRA:          -3.857
REMARK INTER:                  -3.798
REMARK INTRA:                  -0.059
REMARK UNBOUND:                -0.059
REMARK SMILES CCCCC(=O)[O-]
REMARK SMILES IDX 4 1 5 2 6 3 7 4 3 5 2 6 1 7
REMARK H PARENT
REMARK Flexibility Score: inf
ROOT
ATOM      1  C   UNL     1      -2.184   8.234   8.150  1.00  0.00     0.053 C 
ENDROOT
BRANCH   1   2
ATOM      2  C   UNL     1      -3.546   8.855   8.204  1.00  0.00     0.041 C 
ATOM      3  O   UNL     1      -3.758   9.857   8.935  1.00  0.00    -0.550 OA
ATOM      4  O   UNL     1      -4.590   8.304   7.471  1.00  0.00    -0.550 OA
ENDBRANCH   1   2
BRANCH   1   5
ATOM      5  C   UNL     1      -1.383   8.493   9.436  1.00  0.00     0.006 C 
BRANCH   5   6
ATOM      6  C   UNL     1      -0.815   7.221  10.092  1.00  0.00    -0.003 C 
ATOM      7  C   UNL     1      -1.751   6.019   9.965  1.00  0.00     0.004 C 
ENDBRANCH   5   6
ENDBRANCH   1   5
TORSDOF 3
ENDMDL
MODEL 2
REMARK VINA RESULT:    -3.184      1.614      2.512
REMARK INTER + INTRA:          -3.802
REMARK INTER:                  -3.695
REMARK INTRA:                  -0.107
REMARK UNBOUND:                -0.059
REMARK SMILES CCCCC(=O)[O-]
REMARK SMILES IDX 4 1 5 2 6 3 7 4 3 5 2 6 1 7
REMARK H PARENT
REMARK Flexibility Score: inf
ROOT
ATOM      1  C   UNL     1      -2.336   8.302   8.046  1.00  0.00     0.053 C 
ENDROOT
BRANCH   1   2
ATOM      2  C   UNL     1      -3.743   8.804   8.148  1.00  0.00     0.041 C 
ATOM      3  O   UNL     1      -4.648   8.304   7.431  1.00  0.00    -0.550 OA
ATOM      4  O   UNL     1      -4.048   9.850   9.011  1.00  0.00    -0.550 OA
ENDBRANCH   1   2
BRANCH   1   5
ATOM      5  C   UNL     1      -1.450   9.237   7.206  1.00  0.00     0.006 C 
BRANCH   5   6
ATOM      6  C   UNL     1      -0.504  10.123   8.036  1.00  0.00    -0.003 C 
ATOM      7  C   UNL     1      -0.347   9.637   9.477  1.00  0.00     0.004 C 
ENDBRANCH   5   6
ENDBRANCH   1   5
TORSDOF 3
ENDMDL
MODEL 3
REMARK VINA RESULT:    -3.133     18.424     19.021
REMARK INTER + INTRA:          -3.742
REMARK INTER:                  -3.695
REMARK INTRA:                  -0.046
REMARK UNBOUND:                -0.059
REMARK SMILES CCCCC(=O)[O-]
REMARK SMILES IDX 4 1 5 2 6 3 7 4 3 5 2 6 1 7
REMARK H PARENT
REMARK Flexibility Score: inf
ROOT
ATOM      1  C   UNL     1       2.613  -3.429  -5.713  1.00  0.00     0.053 C 
ENDROOT
BRANCH   1   2
ATOM      2  C   UNL     1       4.032  -3.610  -6.158  1.00  0.00     0.041 C 
ATOM      3  O   UNL     1       4.484  -2.941  -7.124  1.00  0.00    -0.550 OA
ATOM      4  O   UNL     1       4.845  -4.544  -5.528  1.00  0.00    -0.550 OA
ENDBRANCH   1   2
BRANCH   1   5
ATOM      5  C   UNL     1       2.502  -2.460  -4.525  1.00  0.00     0.006 C 
BRANCH   5   6
ATOM      6  C   UNL     1       2.320  -3.152  -3.162  1.00  0.00    -0.003 C 
ATOM      7  C   UNL     1       2.303  -2.167  -1.993  1.00  0.00     0.004 C 
ENDBRANCH   5   6
ENDBRANCH   1   5
TORSDOF 3
ENDMDL
MODEL 4
REMARK VINA RESULT:    -2.949     20.870     21.406
REMARK INTER + INTRA:          -3.525
REMARK INTER:                  -3.426
REMARK INTRA:                  -0.099
REMARK UNBOUND:                -0.059
REMARK SMILES CCCCC(=O)[O-]
REMARK SMILES IDX 4 1 5 2 6 3 7 4 3 5 2 6 1 7
REMARK H PARENT
REMARK Flexibility Score: inf
ROOT
ATOM      1  C   UNL     1       4.756  -3.020  -7.450  1.00  0.00     0.053 C 
ENDROOT
BRANCH   1   2
ATOM      2  C   UNL     1       4.143  -4.047  -6.548  1.00  0.00     0.041 C 
ATOM      3  O   UNL     1       4.775  -4.468  -5.544  1.00  0.00    -0.550 OA
ATOM      4  O   UNL     1       2.887  -4.565  -6.837  1.00  0.00    -0.550 OA
ENDBRANCH   1   2
BRANCH   1   5
ATOM      5  C   UNL     1       6.134  -3.459  -7.970  1.00  0.00     0.006 C 
BRANCH   5   6
ATOM      6  C   UNL     1       7.320  -2.772  -7.269  1.00  0.00    -0.003 C 
ATOM      7  C   UNL     1       8.158  -3.739  -6.433  1.00  0.00     0.004 C 
ENDBRANCH   5   6
ENDBRANCH   1   5
TORSDOF 3
ENDMDL
MODEL 5
REMARK VINA RESULT:    -2.894     21.918     22.442
REMARK INTER + INTRA:          -3.461
REMARK INTER:                  -3.438
REMARK INTRA:                  -0.023
REMARK UNBOUND:                -0.059
REMARK SMILES CCCCC(=O)[O-]
REMARK SMILES IDX 4 1 5 2 6 3 7 4 3 5 2 6 1 7
REMARK H PARENT
REMARK Flexibility Score: inf
ROOT
ATOM      1  C   UNL     1       7.860  -2.657  -7.363  1.00  0.00     0.053 C 
ENDROOT
BRANCH   1   2
ATOM      2  C   UNL     1       8.762  -1.880  -8.271  1.00  0.00     0.041 C 
ATOM      3  O   UNL     1      10.005  -2.071  -8.246  1.00  0.00    -0.550 OA
ATOM      4  O   UNL     1       8.231  -0.918  -9.122  1.00  0.00    -0.550 OA
ENDBRANCH   1   2
BRANCH   1   5
ATOM      5  C   UNL     1       6.538  -3.036  -8.050  1.00  0.00     0.006 C 
BRANCH   5   6
ATOM      6  C   UNL     1       5.427  -3.477  -7.080  1.00  0.00    -0.003 C 
ATOM      7  C   UNL     1       5.909  -4.500  -6.051  1.00  0.00     0.004 C 
ENDBRANCH   5   6
ENDBRANCH   1   5
TORSDOF 3
ENDMDL
MODEL 6
REMARK VINA RESULT:    -2.882     21.883     22.406
REMARK INTER + INTRA:          -3.446
REMARK INTER:                  -3.421
REMARK INTRA:                  -0.025
REMARK UNBOUND:                -0.059
REMARK SMILES CCCCC(=O)[O-]
REMARK SMILES IDX 4 1 5 2 6 3 7 4 3 5 2 6 1 7
REMARK H PARENT
REMARK Flexibility Score: inf
ROOT
ATOM      1  C   UNL     1       7.854  -2.658  -7.220  1.00  0.00     0.053 C 
ENDROOT
BRANCH   1   2
ATOM      2  C   UNL     1       8.686  -1.913  -8.219  1.00  0.00     0.041 C 
ATOM      3  O   UNL     1       8.145  -1.106  -9.018  1.00  0.00    -0.550 OA
ATOM      4  O   UNL     1      10.055  -2.138  -8.289  1.00  0.00    -0.550 OA
ENDBRANCH   1   2
BRANCH   1   5
ATOM      5  C   UNL     1       6.471  -3.025  -7.781  1.00  0.00     0.006 C 
BRANCH   5   6
ATOM      6  C   UNL     1       5.544  -3.721  -6.768  1.00  0.00    -0.003 C 
ATOM      7  C   UNL     1       6.274  -4.748  -5.903  1.00  0.00     0.004 C 
ENDBRANCH   5   6
ENDBRANCH   1   5
TORSDOF 3
ENDMDL
MODEL 7
REMARK VINA RESULT:    -2.869     21.093     21.673
REMARK INTER + INTRA:          -3.431
REMARK INTER:                  -3.405
REMARK INTRA:                  -0.026
REMARK UNBOUND:                -0.059
REMARK SMILES CCCCC(=O)[O-]
REMARK SMILES IDX 4 1 5 2 6 3 7 4 3 5 2 6 1 7
REMARK H PARENT
REMARK Flexibility Score: inf
ROOT
ATOM      1  C   UNL     1       5.962  -3.706  -6.991  1.00  0.00     0.053 C 
ENDROOT
BRANCH   1   2
ATOM      2  C   UNL     1       5.193  -4.446  -5.941  1.00  0.00     0.041 C 
ATOM      3  O   UNL     1       4.031  -4.076  -5.627  1.00  0.00    -0.550 OA
ATOM      4  O   UNL     1       5.773  -5.524  -5.283  1.00  0.00    -0.550 OA
ENDBRANCH   1   2
BRANCH   1   5
ATOM      5  C   UNL     1       7.425  -3.475  -6.578  1.00  0.00     0.006 C 
BRANCH   5   6
ATOM      6  C   UNL     1       8.185  -2.485  -7.479  1.00  0.00    -0.003 C 
ATOM      7  C   UNL     1       7.500  -2.261  -8.827  1.00  0.00     0.004 C 
ENDBRANCH   5   6
ENDBRANCH   1   5
TORSDOF 3
ENDMDL
MODEL 8
REMARK VINA RESULT:    -2.868     21.306     21.919
REMARK INTER + INTRA:          -3.430
REMARK INTER:                  -3.323
REMARK INTRA:                  -0.107
REMARK UNBOUND:                -0.059
REMARK SMILES CCCCC(=O)[O-]
REMARK SMILES IDX 4 1 5 2 6 3 7 4 3 5 2 6 1 7
REMARK H PARENT
REMARK Flexibility Score: inf
ROOT
ATOM      1  C   UNL     1       7.217  -4.847  -6.419  1.00  0.00     0.053 C 
ENDROOT
BRANCH   1   2
ATOM      2  C   UNL     1       6.001  -5.212  -5.625  1.00  0.00     0.041 C 
ATOM      3  O   UNL     1       5.975  -6.278  -4.957  1.00  0.00    -0.550 OA
ATOM      4  O   UNL     1       4.881  -4.389  -5.651  1.00  0.00    -0.550 OA
ENDBRANCH   1   2
BRANCH   1   5
ATOM      5  C   UNL     1       7.472  -3.331  -6.418  1.00  0.00     0.006 C 
BRANCH   5   6
ATOM      6  C   UNL     1       7.518  -2.700  -7.822  1.00  0.00    -0.003 C 
ATOM      7  C   UNL     1       6.166  -2.738  -8.535  1.00  0.00     0.004 C 
ENDBRANCH   5   6
ENDBRANCH   1   5
TORSDOF 3
ENDMDL
MODEL 9
REMARK VINA RESULT:    -2.841      2.971      3.957
REMARK INTER + INTRA:          -3.399
REMARK INTER:                  -3.383
REMARK INTRA:                  -0.016
REMARK UNBOUND:                -0.059
REMARK SMILES CCCCC(=O)[O-]
REMARK SMILES IDX 4 1 5 2 6 3 7 4 3 5 2 6 1 7
REMARK H PARENT
REMARK Flexibility Score: inf
ROOT
ATOM      1  C   UNL     1      -1.269   9.852   7.652  1.00  0.00     0.053 C 
ENDROOT
BRANCH   1   2
ATOM      2  C   UNL     1      -2.182   8.902   8.363  1.00  0.00     0.041 C 
ATOM      3  O   UNL     1      -3.430   9.009   8.238  1.00  0.00    -0.550 OA
ATOM      4  O   UNL     1      -1.655   7.918   9.190  1.00  0.00    -0.550 OA
ENDBRANCH   1   2
BRANCH   1   5
ATOM      5  C   UNL     1      -0.680   9.237   6.372  1.00  0.00     0.006 C 
BRANCH   5   6
ATOM      6  C   UNL     1       0.363  10.125   5.669  1.00  0.00    -0.003 C 
ATOM      7  C   UNL     1       0.784   9.579   4.305  1.00  0.00     0.004 C 
ENDBRANCH   5   6
ENDBRANCH   1   5
TORSDOF 3
ENDMDL
