MODEL 1
REMARK VINA RESULT:    -3.305      0.000      0.000
REMARK INTER + INTRA:          -3.909
REMARK INTER:                  -3.884
REMARK INTRA:                  -0.025
REMARK UNBOUND:                -0.025
REMARK SMILES CCCCC(=O)[O-]
REMARK SMILES IDX 4 1 5 2 6 3 7 4 3 5 2 6 1 7
REMARK H PARENT
REMARK Flexibility Score: inf
ROOT
ATOM      1  C   UNL     1      38.137  52.240  34.651  1.00  0.00     0.053 C 
ENDROOT
BRANCH   1   2
ATOM      2  C   UNL     1      38.438  51.011  33.852  1.00  0.00     0.041 C 
ATOM      3  O   UNL     1      37.506  50.240  33.500  1.00  0.00    -0.550 OA
ATOM      4  O   UNL     1      39.742  50.740  33.456  1.00  0.00    -0.550 OA
ENDBRANCH   1   2
BRANCH   1   5
ATOM      5  C   UNL     1      38.784  52.150  36.036  1.00  0.00     0.006 C 
BRANCH   5   6
ATOM      6  C   UNL     1      40.115  52.911  36.070  1.00  0.00    -0.003 C 
ATOM      7  C   UNL     1      39.885  54.418  36.125  1.00  0.00     0.004 C 
ENDBRANCH   5   6
ENDBRANCH   1   5
TORSDOF 3
ENDMDL
MODEL 2
REMARK VINA RESULT:    -3.018     19.630     20.710
REMARK INTER + INTRA:          -3.572
REMARK INTER:                  -3.527
REMARK INTRA:                  -0.045
REMARK UNBOUND:                -0.025
REMARK SMILES CCCCC(=O)[O-]
REMARK SMILES IDX 4 1 5 2 6 3 7 4 3 5 2 6 1 7
REMARK H PARENT
REMARK Flexibility Score: inf
ROOT
ATOM      1  C   UNL     1      37.448  38.034  20.689  1.00  0.00     0.053 C 
ENDROOT
BRANCH   1   2
ATOM      2  C   UNL     1      36.849  39.252  20.061  1.00  0.00     0.041 C 
ATOM      3  O   UNL     1      35.648  39.558  20.291  1.00  0.00    -0.550 OA
ATOM      4  O   UNL     1      37.628  40.077  19.261  1.00  0.00    -0.550 OA
ENDBRANCH   1   2
BRANCH   1   5
ATOM      5  C   UNL     1      38.045  37.118  19.617  1.00  0.00     0.006 C 
BRANCH   5   6
ATOM      6  C   UNL     1      37.454  35.706  19.710  1.00  0.00    -0.003 C 
ATOM      7  C   UNL     1      37.090  35.356  21.150  1.00  0.00     0.004 C 
ENDBRANCH   5   6
ENDBRANCH   1   5
TORSDOF 3
ENDMDL
MODEL 3
REMARK VINA RESULT:    -2.927     19.761     20.920
REMARK INTER + INTRA:          -3.466
REMARK INTER:                  -3.434
REMARK INTRA:                  -0.031
REMARK UNBOUND:                -0.025
REMARK SMILES CCCCC(=O)[O-]
REMARK SMILES IDX 4 1 5 2 6 3 7 4 3 5 2 6 1 7
REMARK H PARENT
REMARK Flexibility Score: inf
ROOT
ATOM      1  C   UNL     1      37.117  37.530  20.686  1.00  0.00     0.053 C 
ENDROOT
BRANCH   1   2
ATOM      2  C   UNL     1      37.166  38.916  20.123  1.00  0.00     0.041 C 
ATOM      3  O   UNL     1      38.256  39.395  19.713  1.00  0.00    -0.550 OA
ATOM      4  O   UNL     1      36.000  39.661  20.007  1.00  0.00    -0.550 OA
ENDBRANCH   1   2
BRANCH   1   5
ATOM      5  C   UNL     1      37.500  36.504  19.617  1.00  0.00     0.006 C 
BRANCH   5   6
ATOM      6  C   UNL     1      37.927  35.177  20.257  1.00  0.00    -0.003 C 
ATOM      7  C   UNL     1      37.097  34.875  21.501  1.00  0.00     0.004 C 
ENDBRANCH   5   6
ENDBRANCH   1   5
TORSDOF 3
ENDMDL
MODEL 4
REMARK VINA RESULT:    -2.837     20.135     20.811
REMARK INTER + INTRA:          -3.359
REMARK INTER:                  -3.251
REMARK INTRA:                  -0.108
REMARK UNBOUND:                -0.025
REMARK SMILES CCCCC(=O)[O-]
REMARK SMILES IDX 4 1 5 2 6 3 7 4 3 5 2 6 1 7
REMARK H PARENT
REMARK Flexibility Score: inf
ROOT
ATOM      1  C   UNL     1      36.711  37.526  20.298  1.00  0.00     0.053 C 
ENDROOT
BRANCH   1   2
ATOM      2  C   UNL     1      37.397  36.211  20.490  1.00  0.00     0.041 C 
ATOM      3  O   UNL     1      38.490  35.975  19.910  1.00  0.00    -0.550 OA
ATOM      4  O   UNL     1      36.856  35.262  21.348  1.00  0.00    -0.550 OA
ENDBRANCH   1   2
BRANCH   1   5
ATOM      5  C   UNL     1      37.668  38.680  20.609  1.00  0.00     0.006 C 
BRANCH   5   6
ATOM      6  C   UNL     1      37.740  39.665  19.436  1.00  0.00    -0.003 C 
ATOM      7  C   UNL     1      38.773  39.219  18.405  1.00  0.00     0.004 C 
ENDBRANCH   5   6
ENDBRANCH   1   5
TORSDOF 3
ENDMDL
MODEL 5
REMARK VINA RESULT:    -2.714     28.218     28.887
REMARK INTER + INTRA:          -3.214
REMARK INTER:                  -3.151
REMARK INTRA:                  -0.064
REMARK UNBOUND:                -0.025
REMARK SMILES CCCCC(=O)[O-]
REMARK SMILES IDX 4 1 5 2 6 3 7 4 3 5 2 6 1 7
REMARK H PARENT
REMARK Flexibility Score: inf
ROOT
ATOM      1  C   UNL     1      20.993  37.022  18.356  1.00  0.00     0.053 C 
ENDROOT
BRANCH   1   2
ATOM      2  C   UNL     1      22.087  36.583  17.435  1.00  0.00     0.041 C 
ATOM      3  O   UNL     1      23.057  35.912  17.878  1.00  0.00    -0.550 OA
ATOM      4  O   UNL     1      22.013  36.873  16.078  1.00  0.00    -0.550 OA
ENDBRANCH   1   2
BRANCH   1   5
ATOM      5  C   UNL     1      20.008  35.875  18.601  1.00  0.00     0.006 C 
BRANCH   5   6
ATOM      6  C   UNL     1      20.214  35.263  19.992  1.00  0.00    -0.003 C 
ATOM      7  C   UNL     1      19.972  36.296  21.089  1.00  0.00     0.004 C 
ENDBRANCH   5   6
ENDBRANCH   1   5
TORSDOF 3
ENDMDL
MODEL 6
REMARK VINA RESULT:    -2.712     20.173     20.901
REMARK INTER + INTRA:          -3.213
REMARK INTER:                  -3.127
REMARK INTRA:                  -0.086
REMARK UNBOUND:                -0.025
REMARK SMILES CCCCC(=O)[O-]
REMARK SMILES IDX 4 1 5 2 6 3 7 4 3 5 2 6 1 7
REMARK H PARENT
REMARK Flexibility Score: inf
ROOT
ATOM      1  C   UNL     1      37.946  39.520  19.163  1.00  0.00     0.053 C 
ENDROOT
BRANCH   1   2
ATOM      2  C   UNL     1      38.959  38.884  18.265  1.00  0.00     0.041 C 
ATOM      3  O   UNL     1      39.141  39.328  17.100  1.00  0.00    -0.550 OA
ATOM      4  O   UNL     1      39.737  37.831  18.729  1.00  0.00    -0.550 OA
ENDBRANCH   1   2
BRANCH   1   5
ATOM      5  C   UNL     1      37.791  38.711  20.454  1.00  0.00     0.006 C 
BRANCH   5   6
ATOM      6  C   UNL     1      36.689  37.655  20.310  1.00  0.00    -0.003 C 
ATOM      7  C   UNL     1      37.197  36.271  20.703  1.00  0.00     0.004 C 
ENDBRANCH   5   6
ENDBRANCH   1   5
TORSDOF 3
ENDMDL
MODEL 7
REMARK VINA RESULT:    -2.577     20.237     21.134
REMARK INTER + INTRA:          -3.054
REMARK INTER:                  -2.954
REMARK INTRA:                  -0.100
REMARK UNBOUND:                -0.025
REMARK SMILES CCCCC(=O)[O-]
REMARK SMILES IDX 4 1 5 2 6 3 7 4 3 5 2 6 1 7
REMARK H PARENT
REMARK Flexibility Score: inf
ROOT
ATOM      1  C   UNL     1      37.530  36.568  19.298  1.00  0.00     0.053 C 
ENDROOT
BRANCH   1   2
ATOM      2  C   UNL     1      38.902  36.883  18.793  1.00  0.00     0.041 C 
ATOM      3  O   UNL     1      39.057  37.706  17.852  1.00  0.00    -0.550 OA
ATOM      4  O   UNL     1      40.014  36.305  19.391  1.00  0.00    -0.550 OA
ENDBRANCH   1   2
BRANCH   1   5
ATOM      5  C   UNL     1      37.340  37.123  20.713  1.00  0.00     0.006 C 
BRANCH   5   6
ATOM      6  C   UNL     1      37.475  38.650  20.725  1.00  0.00    -0.003 C 
ATOM      7  C   UNL     1      36.269  39.315  20.069  1.00  0.00     0.004 C 
ENDBRANCH   5   6
ENDBRANCH   1   5
TORSDOF 3
ENDMDL
MODEL 8
REMARK VINA RESULT:    -2.500     28.606     29.434
REMARK INTER + INTRA:          -2.963
REMARK INTER:                  -2.875
REMARK INTRA:                  -0.089
REMARK UNBOUND:                -0.025
REMARK SMILES CCCCC(=O)[O-]
REMARK SMILES IDX 4 1 5 2 6 3 7 4 3 5 2 6 1 7
REMARK H PARENT
REMARK Flexibility Score: inf
ROOT
ATOM      1  C   UNL     1      20.903  37.071  18.286  1.00  0.00     0.053 C 
ENDROOT
BRANCH   1   2
ATOM      2  C   UNL     1      20.604  36.100  19.384  1.00  0.00     0.041 C 
ATOM      3  O   UNL     1      20.865  34.877  19.236  1.00  0.00    -0.550 OA
ATOM      4  O   UNL     1      20.081  36.552  20.589  1.00  0.00    -0.550 OA
ENDBRANCH   1   2
BRANCH   1   5
ATOM      5  C   UNL     1      19.986  36.821  17.085  1.00  0.00     0.006 C 
BRANCH   5   6
ATOM      6  C   UNL     1      20.745  36.119  15.952  1.00  0.00    -0.003 C 
ATOM      7  C   UNL     1      22.190  36.603  15.876  1.00  0.00     0.004 C 
ENDBRANCH   5   6
ENDBRANCH   1   5
TORSDOF 3
ENDMDL
MODEL 9
REMARK VINA RESULT:    -2.456     20.027     21.075
REMARK INTER + INTRA:          -2.911
REMARK INTER:                  -2.875
REMARK INTRA:                  -0.036
REMARK UNBOUND:                -0.025
REMARK SMILES CCCCC(=O)[O-]
REMARK SMILES IDX 4 1 5 2 6 3 7 4 3 5 2 6 1 7
REMARK H PARENT
REMARK Flexibility Score: inf
ROOT
ATOM      1  C   UNL     1      38.545  37.912  19.299  1.00  0.00     0.053 C 
ENDROOT
BRANCH   1   2
ATOM      2  C   UNL     1      37.442  37.895  20.310  1.00  0.00     0.041 C 
ATOM      3  O   UNL     1      36.765  36.849  20.492  1.00  0.00    -0.550 OA
ATOM      4  O   UNL     1      37.193  39.020  21.086  1.00  0.00    -0.550 OA
ENDBRANCH   1   2
BRANCH   1   5
ATOM      5  C   UNL     1      38.523  39.221  18.505  1.00  0.00     0.006 C 
BRANCH   5   6
ATOM      6  C   UNL     1      39.463  39.145  17.296  1.00  0.00    -0.003 C 
ATOM      7  C   UNL     1      39.759  37.696  16.919  1.00  0.00     0.004 C 
ENDBRANCH   5   6
ENDBRANCH   1   5
TORSDOF 3
ENDMDL
