MODEL 1
REMARK VINA RESULT:    -4.670      0.000      0.000
REMARK INTER + INTRA:         -10.748
REMARK INTER:                  -8.765
REMARK INTRA:                  -1.983
REMARK UNBOUND:                -1.983
REMARK SMILES CCCCCCCCC=CCCCCCCCC(=O)[O-]
REMARK SMILES IDX 10 1 9 2 11 3 12 4 13 5 14 6 15 7 16 8 17 9 18 10 19 11
REMARK SMILES IDX 20 12 8 13 7 14 6 15 5 16 4 17 3 18 2 19 1 20
REMARK H PARENT
REMARK Flexibility Score: inf
ROOT
ATOM      1  C   UNL     1      -6.617 -13.017  -4.656  1.00  0.00    -0.031 C 
ATOM      2  C   UNL     1      -5.994 -13.383  -5.786  1.00  0.00    -0.031 C 
ENDROOT
BRANCH   1   3
ATOM      3  C   UNL     1      -6.834 -11.569  -4.309  1.00  0.00     0.027 C 
BRANCH   3   4
ATOM      4  C   UNL     1      -8.320 -11.188  -4.345  1.00  0.00     0.004 C 
BRANCH   4   5
ATOM      5  C   UNL     1      -8.627 -10.143  -5.433  1.00  0.00     0.000 C 
BRANCH   5   6
ATOM      6  C   UNL     1      -8.149 -10.584  -6.826  1.00  0.00     0.000 C 
BRANCH   6   7
ATOM      7  C   UNL     1      -9.317 -10.895  -7.778  1.00  0.00     0.000 C 
BRANCH   7   8
ATOM      8  C   UNL     1     -10.270 -11.964  -7.218  1.00  0.00     0.006 C 
BRANCH   8   9
ATOM      9  C   UNL     1      -9.580 -13.316  -6.997  1.00  0.00     0.053 C 
BRANCH   9  10
ATOM     10  C   UNL     1     -10.376 -14.163  -6.055  1.00  0.00     0.041 C 
ATOM     11  O   UNL     1     -11.442 -14.710  -6.441  1.00  0.00    -0.550 OA
ATOM     12  O   UNL     1      -9.917 -14.388  -4.763  1.00  0.00    -0.550 OA
ENDBRANCH   9  10
ENDBRANCH   8   9
ENDBRANCH   7   8
ENDBRANCH   6   7
ENDBRANCH   5   6
ENDBRANCH   4   5
ENDBRANCH   3   4
ENDBRANCH   1   3
BRANCH   2  13
ATOM     13  C   UNL     1      -5.789 -14.829  -6.142  1.00  0.00     0.027 C 
BRANCH  13  14
ATOM     14  C   UNL     1      -6.728 -15.735  -5.331  1.00  0.00     0.004 C 
BRANCH  14  15
ATOM     15  C   UNL     1      -7.467 -16.766  -6.204  1.00  0.00     0.000 C 
BRANCH  15  16
ATOM     16  C   UNL     1      -7.042 -18.232  -5.983  1.00  0.00     0.000 C 
BRANCH  16  17
ATOM     17  C   UNL     1      -6.861 -18.648  -4.510  1.00  0.00    -0.000 C 
BRANCH  17  18
ATOM     18  C   UNL     1      -5.419 -19.019  -4.109  1.00  0.00    -0.000 C 
BRANCH  18  19
ATOM     19  C   UNL     1      -5.007 -18.575  -2.695  1.00  0.00    -0.003 C 
ATOM     20  C   UNL     1      -5.963 -17.548  -2.091  1.00  0.00     0.004 C 
ENDBRANCH  18  19
ENDBRANCH  17  18
ENDBRANCH  16  17
ENDBRANCH  15  16
ENDBRANCH  14  15
ENDBRANCH  13  14
ENDBRANCH   2  13
TORSDOF 15
ENDMDL
MODEL 2
REMARK VINA RESULT:    -4.667      2.695      4.717
REMARK INTER + INTRA:         -10.742
REMARK INTER:                  -8.222
REMARK INTRA:                  -2.520
REMARK UNBOUND:                -1.983
REMARK SMILES CCCCCCCCC=CCCCCCCCC(=O)[O-]
REMARK SMILES IDX 10 1 9 2 11 3 12 4 13 5 14 6 15 7 16 8 17 9 18 10 19 11
REMARK SMILES IDX 20 12 8 13 7 14 6 15 5 16 4 17 3 18 2 19 1 20
REMARK H PARENT
REMARK Flexibility Score: inf
ROOT
ATOM      1  C   UNL     1      -8.105 -16.540  -4.009  1.00  0.00    -0.031 C 
ATOM      2  C   UNL     1      -8.440 -16.293  -2.733  1.00  0.00    -0.031 C 
ENDROOT
BRANCH   1   3
ATOM      3  C   UNL     1      -8.861 -15.924  -5.155  1.00  0.00     0.027 C 
BRANCH   3   4
ATOM      4  C   UNL     1      -7.927 -15.498  -6.295  1.00  0.00     0.004 C 
BRANCH   4   5
ATOM      5  C   UNL     1      -6.445 -15.716  -5.945  1.00  0.00     0.000 C 
BRANCH   5   6
ATOM      6  C   UNL     1      -5.659 -14.398  -5.851  1.00  0.00     0.000 C 
BRANCH   6   7
ATOM      7  C   UNL     1      -6.220 -13.454  -4.773  1.00  0.00     0.000 C 
BRANCH   7   8
ATOM      8  C   UNL     1      -6.743 -12.132  -5.358  1.00  0.00     0.006 C 
BRANCH   8   9
ATOM      9  C   UNL     1      -7.809 -11.471  -4.472  1.00  0.00     0.053 C 
BRANCH   9  10
ATOM     10  C   UNL     1      -7.289 -10.194  -3.892  1.00  0.00     0.041 C 
ATOM     11  O   UNL     1      -6.312 -10.210  -3.097  1.00  0.00    -0.550 OA
ATOM     12  O   UNL     1      -7.851  -8.980  -4.266  1.00  0.00    -0.550 OA
ENDBRANCH   9  10
ENDBRANCH   8   9
ENDBRANCH   7   8
ENDBRANCH   6   7
ENDBRANCH   5   6
ENDBRANCH   4   5
ENDBRANCH   3   4
ENDBRANCH   1   3
BRANCH   2  13
ATOM     13  C   UNL     1      -7.677 -16.895  -1.586  1.00  0.00     0.027 C 
BRANCH  13  14
ATOM     14  C   UNL     1      -6.183 -17.021  -1.923  1.00  0.00     0.004 C 
BRANCH  14  15
ATOM     15  C   UNL     1      -5.741 -18.477  -2.157  1.00  0.00     0.000 C 
BRANCH  15  16
ATOM     16  C   UNL     1      -4.866 -18.701  -3.406  1.00  0.00     0.000 C 
BRANCH  16  17
ATOM     17  C   UNL     1      -5.627 -19.155  -4.668  1.00  0.00    -0.000 C 
BRANCH  17  18
ATOM     18  C   UNL     1      -6.919 -19.954  -4.398  1.00  0.00    -0.000 C 
BRANCH  18  19
ATOM     19  C   UNL     1      -7.965 -19.888  -5.523  1.00  0.00    -0.003 C 
ATOM     20  C   UNL     1      -7.433 -19.229  -6.794  1.00  0.00     0.004 C 
ENDBRANCH  18  19
ENDBRANCH  17  18
ENDBRANCH  16  17
ENDBRANCH  15  16
ENDBRANCH  14  15
ENDBRANCH  13  14
ENDBRANCH   2  13
TORSDOF 15
ENDMDL
MODEL 3
REMARK VINA RESULT:    -4.654      2.535      4.102
REMARK INTER + INTRA:         -10.719
REMARK INTER:                  -8.431
REMARK INTRA:                  -2.288
REMARK UNBOUND:                -1.983
REMARK SMILES CCCCCCCCC=CCCCCCCCC(=O)[O-]
REMARK SMILES IDX 10 1 9 2 11 3 12 4 13 5 14 6 15 7 16 8 17 9 18 10 19 11
REMARK SMILES IDX 20 12 8 13 7 14 6 15 5 16 4 17 3 18 2 19 1 20
REMARK H PARENT
REMARK Flexibility Score: inf
ROOT
ATOM      1  C   UNL     1      -6.634 -16.126  -6.057  1.00  0.00    -0.031 C 
ATOM      2  C   UNL     1      -6.363 -17.435  -6.168  1.00  0.00    -0.031 C 
ENDROOT
BRANCH   1   3
ATOM      3  C   UNL     1      -5.541 -15.108  -5.870  1.00  0.00     0.027 C 
BRANCH   3   4
ATOM      4  C   UNL     1      -6.099 -13.684  -5.747  1.00  0.00     0.004 C 
BRANCH   4   5
ATOM      5  C   UNL     1      -6.696 -13.411  -4.356  1.00  0.00     0.000 C 
BRANCH   5   6
ATOM      6  C   UNL     1      -8.205 -13.120  -4.406  1.00  0.00     0.000 C 
BRANCH   6   7
ATOM      7  C   UNL     1      -8.607 -12.311  -5.652  1.00  0.00     0.000 C 
BRANCH   7   8
ATOM      8  C   UNL     1      -8.314 -10.808  -5.503  1.00  0.00     0.006 C 
BRANCH   8   9
ATOM      9  C   UNL     1      -8.573 -10.292  -4.081  1.00  0.00     0.053 C 
BRANCH   9  10
ATOM     10  C   UNL     1      -7.421  -9.462  -3.608  1.00  0.00     0.041 C 
ATOM     11  O   UNL     1      -7.486  -8.205  -3.651  1.00  0.00    -0.550 OA
ATOM     12  O   UNL     1      -6.294 -10.075  -3.075  1.00  0.00    -0.550 OA
ENDBRANCH   9  10
ENDBRANCH   8   9
ENDBRANCH   7   8
ENDBRANCH   6   7
ENDBRANCH   5   6
ENDBRANCH   4   5
ENDBRANCH   3   4
ENDBRANCH   1   3
BRANCH   2  13
ATOM     13  C   UNL     1      -7.452 -18.451  -6.369  1.00  0.00     0.027 C 
BRANCH  13  14
ATOM     14  C   UNL     1      -7.757 -19.199  -5.061  1.00  0.00     0.004 C 
BRANCH  14  15
ATOM     15  C   UNL     1      -6.632 -20.167  -4.648  1.00  0.00     0.000 C 
BRANCH  15  16
ATOM     16  C   UNL     1      -6.107 -19.980  -3.210  1.00  0.00     0.000 C 
BRANCH  16  17
ATOM     17  C   UNL     1      -5.334 -18.670  -2.959  1.00  0.00    -0.000 C 
BRANCH  17  18
ATOM     18  C   UNL     1      -5.917 -17.769  -1.852  1.00  0.00    -0.000 C 
BRANCH  18  19
ATOM     19  C   UNL     1      -6.576 -16.473  -2.354  1.00  0.00    -0.003 C 
ATOM     20  C   UNL     1      -8.081 -16.615  -2.570  1.00  0.00     0.004 C 
ENDBRANCH  18  19
ENDBRANCH  17  18
ENDBRANCH  16  17
ENDBRANCH  15  16
ENDBRANCH  14  15
ENDBRANCH  13  14
ENDBRANCH   2  13
TORSDOF 15
ENDMDL
MODEL 4
REMARK VINA RESULT:    -4.577      1.911      3.995
REMARK INTER + INTRA:         -10.573
REMARK INTER:                  -8.626
REMARK INTRA:                  -1.946
REMARK UNBOUND:                -1.983
REMARK SMILES CCCCCCCCC=CCCCCCCCC(=O)[O-]
REMARK SMILES IDX 10 1 9 2 11 3 12 4 13 5 14 6 15 7 16 8 17 9 18 10 19 11
REMARK SMILES IDX 20 12 8 13 7 14 6 15 5 16 4 17 3 18 2 19 1 20
REMARK H PARENT
REMARK Flexibility Score: inf
ROOT
ATOM      1  C   UNL     1      -7.865 -17.249  -6.074  1.00  0.00    -0.031 C 
ATOM      2  C   UNL     1      -7.003 -18.155  -6.558  1.00  0.00    -0.031 C 
ENDROOT
BRANCH   1   3
ATOM      3  C   UNL     1      -7.390 -16.028  -5.332  1.00  0.00     0.027 C 
BRANCH   3   4
ATOM      4  C   UNL     1      -6.082 -15.475  -5.914  1.00  0.00     0.004 C 
BRANCH   4   5
ATOM      5  C   UNL     1      -5.967 -13.951  -5.742  1.00  0.00     0.000 C 
BRANCH   5   6
ATOM      6  C   UNL     1      -6.532 -13.463  -4.398  1.00  0.00     0.000 C 
BRANCH   6   7
ATOM      7  C   UNL     1      -6.659 -11.931  -4.333  1.00  0.00     0.000 C 
BRANCH   7   8
ATOM      8  C   UNL     1      -8.017 -11.426  -4.850  1.00  0.00     0.006 C 
BRANCH   8   9
ATOM      9  C   UNL     1      -7.914 -10.752  -6.225  1.00  0.00     0.053 C 
BRANCH   9  10
ATOM     10  C   UNL     1      -9.115 -11.076  -7.058  1.00  0.00     0.041 C 
ATOM     11  O   UNL     1      -9.184 -10.679  -8.250  1.00  0.00    -0.550 OA
ATOM     12  O   UNL     1     -10.136 -11.857  -6.532  1.00  0.00    -0.550 OA
ENDBRANCH   9  10
ENDBRANCH   8   9
ENDBRANCH   7   8
ENDBRANCH   6   7
ENDBRANCH   5   6
ENDBRANCH   4   5
ENDBRANCH   3   4
ENDBRANCH   1   3
BRANCH   2  13
ATOM     13  C   UNL     1      -7.474 -19.368  -7.311  1.00  0.00     0.027 C 
BRANCH  13  14
ATOM     14  C   UNL     1      -7.051 -20.660  -6.595  1.00  0.00     0.004 C 
BRANCH  14  15
ATOM     15  C   UNL     1      -7.764 -20.858  -5.244  1.00  0.00     0.000 C 
BRANCH  15  16
ATOM     16  C   UNL     1      -6.924 -21.567  -4.162  1.00  0.00     0.000 C 
BRANCH  16  17
ATOM     17  C   UNL     1      -6.717 -20.763  -2.862  1.00  0.00    -0.000 C 
BRANCH  17  18
ATOM     18  C   UNL     1      -7.013 -19.254  -2.974  1.00  0.00    -0.000 C 
BRANCH  18  19
ATOM     19  C   UNL     1      -5.787 -18.341  -2.806  1.00  0.00    -0.003 C 
ATOM     20  C   UNL     1      -4.727 -18.563  -3.883  1.00  0.00     0.004 C 
ENDBRANCH  18  19
ENDBRANCH  17  18
ENDBRANCH  16  17
ENDBRANCH  15  16
ENDBRANCH  14  15
ENDBRANCH  13  14
ENDBRANCH   2  13
TORSDOF 15
ENDMDL
MODEL 5
REMARK VINA RESULT:    -4.539      2.306      3.650
REMARK INTER + INTRA:         -10.503
REMARK INTER:                  -8.765
REMARK INTRA:                  -1.738
REMARK UNBOUND:                -1.983
REMARK SMILES CCCCCCCCC=CCCCCCCCC(=O)[O-]
REMARK SMILES IDX 10 1 9 2 11 3 12 4 13 5 14 6 15 7 16 8 17 9 18 10 19 11
REMARK SMILES IDX 20 12 8 13 7 14 6 15 5 16 4 17 3 18 2 19 1 20
REMARK H PARENT
REMARK Flexibility Score: inf
ROOT
ATOM      1  C   UNL     1      -9.081 -13.674  -5.536  1.00  0.00    -0.031 C 
ATOM      2  C   UNL     1      -8.257 -13.070  -4.667  1.00  0.00    -0.031 C 
ENDROOT
BRANCH   1   3
ATOM      3  C   UNL     1     -10.488 -13.189  -5.756  1.00  0.00     0.027 C 
BRANCH   3   4
ATOM      4  C   UNL     1     -10.701 -12.673  -7.185  1.00  0.00     0.004 C 
BRANCH   4   5
ATOM      5  C   UNL     1     -10.397 -11.170  -7.313  1.00  0.00     0.000 C 
BRANCH   5   6
ATOM      6  C   UNL     1      -8.966 -10.896  -7.802  1.00  0.00     0.000 C 
BRANCH   6   7
ATOM      7  C   UNL     1      -8.139 -10.091  -6.784  1.00  0.00     0.000 C 
BRANCH   7   8
ATOM      8  C   UNL     1      -9.012  -9.413  -5.715  1.00  0.00     0.006 C 
BRANCH   8   9
ATOM      9  C   UNL     1      -8.228  -8.411  -4.857  1.00  0.00     0.053 C 
BRANCH   9  10
ATOM     10  C   UNL     1      -7.903  -9.005  -3.523  1.00  0.00     0.041 C 
ATOM     11  O   UNL     1      -8.620  -8.745  -2.522  1.00  0.00    -0.550 OA
ATOM     12  O   UNL     1      -6.835  -9.885  -3.395  1.00  0.00    -0.550 OA
ENDBRANCH   9  10
ENDBRANCH   8   9
ENDBRANCH   7   8
ENDBRANCH   6   7
ENDBRANCH   5   6
ENDBRANCH   4   5
ENDBRANCH   3   4
ENDBRANCH   1   3
BRANCH   2  13
ATOM     13  C   UNL     1      -6.846 -13.544  -4.457  1.00  0.00     0.027 C 
BRANCH  13  14
ATOM     14  C   UNL     1      -6.044 -13.486  -5.766  1.00  0.00     0.004 C 
BRANCH  14  15
ATOM     15  C   UNL     1      -5.424 -14.842  -6.150  1.00  0.00     0.000 C 
BRANCH  15  16
ATOM     16  C   UNL     1      -6.360 -16.057  -5.987  1.00  0.00     0.000 C 
BRANCH  16  17
ATOM     17  C   UNL     1      -5.713 -17.302  -5.347  1.00  0.00    -0.000 C 
BRANCH  17  18
ATOM     18  C   UNL     1      -6.671 -18.183  -4.520  1.00  0.00    -0.000 C 
BRANCH  18  19
ATOM     19  C   UNL     1      -5.981 -19.244  -3.646  1.00  0.00    -0.003 C 
ATOM     20  C   UNL     1      -4.926 -18.653  -2.713  1.00  0.00     0.004 C 
ENDBRANCH  18  19
ENDBRANCH  17  18
ENDBRANCH  16  17
ENDBRANCH  15  16
ENDBRANCH  14  15
ENDBRANCH  13  14
ENDBRANCH   2  13
TORSDOF 15
ENDMDL
MODEL 6
REMARK VINA RESULT:    -4.494      2.483      4.889
REMARK INTER + INTRA:         -10.418
REMARK INTER:                  -8.257
REMARK INTRA:                  -2.161
REMARK UNBOUND:                -1.983
REMARK SMILES CCCCCCCCC=CCCCCCCCC(=O)[O-]
REMARK SMILES IDX 10 1 9 2 11 3 12 4 13 5 14 6 15 7 16 8 17 9 18 10 19 11
REMARK SMILES IDX 20 12 8 13 7 14 6 15 5 16 4 17 3 18 2 19 1 20
REMARK H PARENT
REMARK Flexibility Score: inf
ROOT
ATOM      1  C   UNL     1      -6.874 -17.822  -5.034  1.00  0.00    -0.031 C 
ATOM      2  C   UNL     1      -5.624 -18.108  -4.642  1.00  0.00    -0.031 C 
ENDROOT
BRANCH   1   3
ATOM      3  C   UNL     1      -7.146 -17.017  -6.276  1.00  0.00     0.027 C 
BRANCH   3   4
ATOM      4  C   UNL     1      -7.813 -15.672  -5.954  1.00  0.00     0.004 C 
BRANCH   4   5
ATOM      5  C   UNL     1      -8.469 -15.668  -4.562  1.00  0.00     0.000 C 
BRANCH   5   6
ATOM      6  C   UNL     1      -7.920 -14.557  -3.653  1.00  0.00     0.000 C 
BRANCH   6   7
ATOM      7  C   UNL     1      -6.614 -13.946  -4.192  1.00  0.00     0.000 C 
BRANCH   7   8
ATOM      8  C   UNL     1      -6.706 -12.424  -4.385  1.00  0.00     0.006 C 
BRANCH   8   9
ATOM      9  C   UNL     1      -6.815 -12.018  -5.861  1.00  0.00     0.053 C 
BRANCH   9  10
ATOM     10  C   UNL     1      -7.910 -11.016  -6.049  1.00  0.00     0.041 C 
ATOM     11  O   UNL     1      -8.475 -10.500  -5.049  1.00  0.00    -0.550 OA
ATOM     12  O   UNL     1      -8.274 -10.614  -7.328  1.00  0.00    -0.550 OA
ENDBRANCH   9  10
ENDBRANCH   8   9
ENDBRANCH   7   8
ENDBRANCH   6   7
ENDBRANCH   5   6
ENDBRANCH   4   5
ENDBRANCH   3   4
ENDBRANCH   1   3
BRANCH   2  13
ATOM     13  C   UNL     1      -5.351 -18.924  -3.409  1.00  0.00     0.027 C 
BRANCH  13  14
ATOM     14  C   UNL     1      -6.661 -19.386  -2.752  1.00  0.00     0.004 C 
BRANCH  14  15
ATOM     15  C   UNL     1      -6.630 -20.867  -2.329  1.00  0.00     0.000 C 
BRANCH  15  16
ATOM     16  C   UNL     1      -7.307 -21.841  -3.315  1.00  0.00     0.000 C 
BRANCH  16  17
ATOM     17  C   UNL     1      -6.345 -22.612  -4.239  1.00  0.00    -0.000 C 
BRANCH  17  18
ATOM     18  C   UNL     1      -6.048 -21.928  -5.589  1.00  0.00    -0.000 C 
BRANCH  18  19
ATOM     19  C   UNL     1      -7.263 -21.264  -6.258  1.00  0.00    -0.003 C 
ATOM     20  C   UNL     1      -6.894 -20.470  -7.510  1.00  0.00     0.004 C 
ENDBRANCH  18  19
ENDBRANCH  17  18
ENDBRANCH  16  17
ENDBRANCH  15  16
ENDBRANCH  14  15
ENDBRANCH  13  14
ENDBRANCH   2  13
TORSDOF 15
ENDMDL
MODEL 7
REMARK VINA RESULT:    -4.486      1.897      3.760
REMARK INTER + INTRA:         -10.402
REMARK INTER:                  -7.827
REMARK INTRA:                  -2.575
REMARK UNBOUND:                -1.983
REMARK SMILES CCCCCCCCC=CCCCCCCCC(=O)[O-]
REMARK SMILES IDX 10 1 9 2 11 3 12 4 13 5 14 6 15 7 16 8 17 9 18 10 19 11
REMARK SMILES IDX 20 12 8 13 7 14 6 15 5 16 4 17 3 18 2 19 1 20
REMARK H PARENT
REMARK Flexibility Score: inf
ROOT
ATOM      1  C   UNL     1      -6.582 -16.449  -6.125  1.00  0.00    -0.031 C 
ATOM      2  C   UNL     1      -7.496 -17.429  -6.172  1.00  0.00    -0.031 C 
ENDROOT
BRANCH   1   3
ATOM      3  C   UNL     1      -6.983 -14.998  -6.100  1.00  0.00     0.027 C 
BRANCH   3   4
ATOM      4  C   UNL     1      -6.004 -14.147  -5.279  1.00  0.00     0.004 C 
BRANCH   4   5
ATOM      5  C   UNL     1      -6.730 -13.228  -4.281  1.00  0.00     0.000 C 
BRANCH   5   6
ATOM      6  C   UNL     1      -8.243 -13.153  -4.538  1.00  0.00     0.000 C 
BRANCH   6   7
ATOM      7  C   UNL     1      -8.749 -11.704  -4.661  1.00  0.00     0.000 C 
BRANCH   7   8
ATOM      8  C   UNL     1      -7.880 -10.851  -5.600  1.00  0.00     0.006 C 
BRANCH   8   9
ATOM      9  C   UNL     1      -8.514 -10.659  -6.984  1.00  0.00     0.053 C 
BRANCH   9  10
ATOM     10  C   UNL     1      -9.969 -10.340  -6.854  1.00  0.00     0.041 C 
ATOM     11  O   UNL     1     -10.336  -9.263  -6.315  1.00  0.00    -0.550 OA
ATOM     12  O   UNL     1     -10.922 -11.209  -7.371  1.00  0.00    -0.550 OA
ENDBRANCH   9  10
ENDBRANCH   8   9
ENDBRANCH   7   8
ENDBRANCH   6   7
ENDBRANCH   5   6
ENDBRANCH   4   5
ENDBRANCH   3   4
ENDBRANCH   1   3
BRANCH   2  13
ATOM     13  C   UNL     1      -7.099 -18.879  -6.183  1.00  0.00     0.027 C 
BRANCH  13  14
ATOM     14  C   UNL     1      -7.092 -19.459  -4.760  1.00  0.00     0.004 C 
BRANCH  14  15
ATOM     15  C   UNL     1      -5.671 -19.691  -4.214  1.00  0.00     0.000 C 
BRANCH  15  16
ATOM     16  C   UNL     1      -5.179 -18.633  -3.206  1.00  0.00     0.000 C 
BRANCH  16  17
ATOM     17  C   UNL     1      -6.268 -18.049  -2.284  1.00  0.00    -0.000 C 
BRANCH  17  18
ATOM     18  C   UNL     1      -6.434 -16.518  -2.358  1.00  0.00    -0.000 C 
BRANCH  18  19
ATOM     19  C   UNL     1      -7.851 -16.006  -2.046  1.00  0.00    -0.003 C 
ATOM     20  C   UNL     1      -8.915 -16.597  -2.969  1.00  0.00     0.004 C 
ENDBRANCH  18  19
ENDBRANCH  17  18
ENDBRANCH  16  17
ENDBRANCH  15  16
ENDBRANCH  14  15
ENDBRANCH  13  14
ENDBRANCH   2  13
TORSDOF 15
ENDMDL
MODEL 8
REMARK VINA RESULT:    -4.465      2.728      7.048
REMARK INTER + INTRA:         -10.363
REMARK INTER:                  -8.463
REMARK INTRA:                  -1.900
REMARK UNBOUND:                -1.983
REMARK SMILES CCCCCCCCC=CCCCCCCCC(=O)[O-]
REMARK SMILES IDX 10 1 9 2 11 3 12 4 13 5 14 6 15 7 16 8 17 9 18 10 19 11
REMARK SMILES IDX 20 12 8 13 7 14 6 15 5 16 4 17 3 18 2 19 1 20
REMARK H PARENT
REMARK Flexibility Score: inf
ROOT
ATOM      1  C   UNL     1      -6.334 -13.835  -5.172  1.00  0.00    -0.031 C 
ATOM      2  C   UNL     1      -6.670 -12.618  -5.625  1.00  0.00    -0.031 C 
ENDROOT
BRANCH   1   3
ATOM      3  C   UNL     1      -5.931 -14.942  -6.109  1.00  0.00     0.027 C 
BRANCH   3   4
ATOM      4  C   UNL     1      -6.959 -16.081  -6.126  1.00  0.00     0.004 C 
BRANCH   4   5
ATOM      5  C   UNL     1      -6.386 -17.390  -5.554  1.00  0.00     0.000 C 
BRANCH   5   6
ATOM      6  C   UNL     1      -6.438 -17.436  -4.018  1.00  0.00     0.000 C 
BRANCH   6   7
ATOM      7  C   UNL     1      -6.208 -18.853  -3.463  1.00  0.00     0.000 C 
BRANCH   7   8
ATOM      8  C   UNL     1      -5.921 -19.883  -4.568  1.00  0.00     0.006 C 
BRANCH   8   9
ATOM      9  C   UNL     1      -6.774 -21.152  -4.432  1.00  0.00     0.053 C 
BRANCH   9  10
ATOM     10  C   UNL     1      -7.443 -21.475  -5.730  1.00  0.00     0.041 C 
ATOM     11  O   UNL     1      -8.604 -21.961  -5.741  1.00  0.00    -0.550 OA
ATOM     12  O   UNL     1      -6.804 -21.194  -6.932  1.00  0.00    -0.550 OA
ENDBRANCH   9  10
ENDBRANCH   8   9
ENDBRANCH   7   8
ENDBRANCH   6   7
ENDBRANCH   5   6
ENDBRANCH   4   5
ENDBRANCH   3   4
ENDBRANCH   1   3
BRANCH   2  13
ATOM     13  C   UNL     1      -7.060 -11.507  -4.690  1.00  0.00     0.027 C 
BRANCH  13  14
ATOM     14  C   UNL     1      -8.089 -10.572  -5.344  1.00  0.00     0.004 C 
BRANCH  14  15
ATOM     15  C   UNL     1      -7.826 -10.345  -6.844  1.00  0.00     0.000 C 
BRANCH  15  16
ATOM     16  C   UNL     1      -8.978 -10.766  -7.779  1.00  0.00     0.000 C 
BRANCH  16  17
ATOM     17  C   UNL     1     -10.139 -11.513  -7.094  1.00  0.00    -0.000 C 
BRANCH  17  18
ATOM     18  C   UNL     1     -10.298 -12.991  -7.505  1.00  0.00    -0.000 C 
BRANCH  18  19
ATOM     19  C   UNL     1     -10.018 -14.007  -6.386  1.00  0.00    -0.003 C 
ATOM     20  C   UNL     1     -10.322 -13.458  -4.993  1.00  0.00     0.004 C 
ENDBRANCH  18  19
ENDBRANCH  17  18
ENDBRANCH  16  17
ENDBRANCH  15  16
ENDBRANCH  14  15
ENDBRANCH  13  14
ENDBRANCH   2  13
TORSDOF 15
ENDMDL
MODEL 9
REMARK VINA RESULT:    -4.451      3.340      7.632
REMARK INTER + INTRA:         -10.338
REMARK INTER:                  -7.646
REMARK INTRA:                  -2.692
REMARK UNBOUND:                -1.983
REMARK SMILES CCCCCCCCC=CCCCCCCCC(=O)[O-]
REMARK SMILES IDX 10 1 9 2 11 3 12 4 13 5 14 6 15 7 16 8 17 9 18 10 19 11
REMARK SMILES IDX 20 12 8 13 7 14 6 15 5 16 4 17 3 18 2 19 1 20
REMARK H PARENT
REMARK Flexibility Score: inf
ROOT
ATOM      1  C   UNL     1      -6.779 -18.260  -5.053  1.00  0.00    -0.031 C 
ATOM      2  C   UNL     1      -5.505 -18.259  -4.632  1.00  0.00    -0.031 C 
ENDROOT
BRANCH   1   3
ATOM      3  C   UNL     1      -7.133 -18.016  -6.495  1.00  0.00     0.027 C 
BRANCH   3   4
ATOM      4  C   UNL     1      -7.424 -19.324  -7.243  1.00  0.00     0.004 C 
BRANCH   4   5
ATOM      5  C   UNL     1      -7.830 -20.461  -6.289  1.00  0.00     0.000 C 
BRANCH   5   6
ATOM      6  C   UNL     1      -6.944 -21.708  -6.445  1.00  0.00     0.000 C 
BRANCH   6   7
ATOM      7  C   UNL     1      -5.949 -21.872  -5.282  1.00  0.00     0.000 C 
BRANCH   7   8
ATOM      8  C   UNL     1      -6.545 -22.652  -4.098  1.00  0.00     0.006 C 
BRANCH   8   9
ATOM      9  C   UNL     1      -6.850 -21.755  -2.890  1.00  0.00     0.053 C 
BRANCH   9  10
ATOM     10  C   UNL     1      -8.311 -21.787  -2.570  1.00  0.00     0.041 C 
ATOM     11  O   UNL     1      -9.035 -20.786  -2.812  1.00  0.00    -0.550 OA
ATOM     12  O   UNL     1      -8.884 -22.940  -2.047  1.00  0.00    -0.550 OA
ENDBRANCH   9  10
ENDBRANCH   8   9
ENDBRANCH   7   8
ENDBRANCH   6   7
ENDBRANCH   5   6
ENDBRANCH   4   5
ENDBRANCH   3   4
ENDBRANCH   1   3
BRANCH   2  13
ATOM     13  C   UNL     1      -5.148 -18.517  -3.195  1.00  0.00     0.027 C 
BRANCH  13  14
ATOM     14  C   UNL     1      -6.333 -18.203  -2.268  1.00  0.00     0.004 C 
BRANCH  14  15
ATOM     15  C   UNL     1      -6.344 -16.741  -1.783  1.00  0.00     0.000 C 
BRANCH  15  16
ATOM     16  C   UNL     1      -7.708 -16.029  -1.887  1.00  0.00     0.000 C 
BRANCH  16  17
ATOM     17  C   UNL     1      -7.971 -15.310  -3.225  1.00  0.00    -0.000 C 
BRANCH  17  18
ATOM     18  C   UNL     1      -6.724 -14.694  -3.891  1.00  0.00    -0.000 C 
BRANCH  18  19
ATOM     19  C   UNL     1      -6.911 -14.293  -5.364  1.00  0.00    -0.003 C 
ATOM     20  C   UNL     1      -8.310 -14.603  -5.893  1.00  0.00     0.004 C 
ENDBRANCH  18  19
ENDBRANCH  17  18
ENDBRANCH  16  17
ENDBRANCH  15  16
ENDBRANCH  14  15
ENDBRANCH  13  14
ENDBRANCH   2  13
TORSDOF 15
ENDMDL
