MODEL 1
REMARK VINA RESULT:    -3.621      0.000      0.000
REMARK INTER + INTRA:          -6.696
REMARK INTER:                  -5.526
REMARK INTRA:                  -1.170
REMARK UNBOUND:                -1.170
REMARK SMILES CCCCCCCCCC=CC(=O)[O-]
REMARK SMILES IDX 7 1 8 2 9 3 10 4 11 5 12 6 13 7 14 8 6 9 5 10 4 11 3 12 2 13
REMARK SMILES IDX 1 14
REMARK H PARENT
REMARK Flexibility Score: inf
ROOT
ATOM      1  C   UNL     1      56.380  25.533  51.611  1.00  0.00     0.000 C 
ENDROOT
BRANCH   1   2
ATOM      2  C   UNL     1      56.027  26.297  50.330  1.00  0.00     0.004 C 
BRANCH   2   3
ATOM      3  C   UNL     1      54.508  26.457  50.186  1.00  0.00     0.027 C 
BRANCH   3   4
ATOM      4  C   UNL     1      54.089  27.885  50.389  1.00  0.00    -0.025 C 
ATOM      5  C   UNL     1      54.967  28.823  50.759  1.00  0.00     0.020 C 
BRANCH   5   6
ATOM      6  C   UNL     1      54.568  30.223  50.975  1.00  0.00     0.064 C 
ATOM      7  O   UNL     1      53.430  30.478  51.447  1.00  0.00    -0.545 OA
ATOM      8  O   UNL     1      55.430  31.270  50.667  1.00  0.00    -0.545 OA
ENDBRANCH   5   6
ENDBRANCH   3   4
ENDBRANCH   2   3
ENDBRANCH   1   2
BRANCH   1   9
ATOM      9  C   UNL     1      57.896  25.515  51.842  1.00  0.00     0.000 C 
BRANCH   9  10
ATOM     10  C   UNL     1      58.655  25.678  50.515  1.00  0.00     0.000 C 
BRANCH  10  11
ATOM     11  C   UNL     1      59.819  26.677  50.620  1.00  0.00    -0.000 C 
BRANCH  11  12
ATOM     12  C   UNL     1      59.687  27.845  49.628  1.00  0.00    -0.000 C 
BRANCH  12  13
ATOM     13  C   UNL     1      58.641  28.880  50.072  1.00  0.00    -0.003 C 
ATOM     14  C   UNL     1      58.740  29.214  51.561  1.00  0.00     0.004 C 
ENDBRANCH  12  13
ENDBRANCH  11  12
ENDBRANCH  10  11
ENDBRANCH   9  10
ENDBRANCH   1   9
TORSDOF 9
ENDMDL
MODEL 2
REMARK VINA RESULT:    -3.584      3.259      5.890
REMARK INTER + INTRA:          -6.641
REMARK INTER:                  -5.943
REMARK INTRA:                  -0.698
REMARK UNBOUND:                -1.170
REMARK SMILES CCCCCCCCCC=CC(=O)[O-]
REMARK SMILES IDX 7 1 8 2 9 3 10 4 11 5 12 6 13 7 14 8 6 9 5 10 4 11 3 12 2 13
REMARK SMILES IDX 1 14
REMARK H PARENT
REMARK Flexibility Score: inf
ROOT
ATOM      1  C   UNL     1      58.581  29.391  51.035  1.00  0.00     0.000 C 
ENDROOT
BRANCH   1   2
ATOM      2  C   UNL     1      58.984  28.943  49.625  1.00  0.00     0.004 C 
BRANCH   2   3
ATOM      3  C   UNL     1      59.965  27.766  49.679  1.00  0.00     0.027 C 
BRANCH   3   4
ATOM      4  C   UNL     1      59.289  26.515  50.163  1.00  0.00    -0.025 C 
ATOM      5  C   UNL     1      59.809  25.779  51.151  1.00  0.00     0.020 C 
BRANCH   5   6
ATOM      6  C   UNL     1      59.165  24.544  51.625  1.00  0.00     0.064 C 
ATOM      7  O   UNL     1      57.975  24.581  52.032  1.00  0.00    -0.545 OA
ATOM      8  O   UNL     1      59.850  23.334  51.628  1.00  0.00    -0.545 OA
ENDBRANCH   5   6
ENDBRANCH   3   4
ENDBRANCH   2   3
ENDBRANCH   1   2
BRANCH   1   9
ATOM      9  C   UNL     1      57.103  29.794  51.085  1.00  0.00     0.000 C 
BRANCH   9  10
ATOM     10  C   UNL     1      56.193  28.559  50.989  1.00  0.00     0.000 C 
BRANCH  10  11
ATOM     11  C   UNL     1      54.726  28.926  50.720  1.00  0.00    -0.000 C 
BRANCH  11  12
ATOM     12  C   UNL     1      53.924  27.759  50.118  1.00  0.00    -0.000 C 
BRANCH  12  13
ATOM     13  C   UNL     1      54.657  26.414  50.243  1.00  0.00    -0.003 C 
ATOM     14  C   UNL     1      54.006  25.308  49.411  1.00  0.00     0.004 C 
ENDBRANCH  12  13
ENDBRANCH  11  12
ENDBRANCH  10  11
ENDBRANCH   9  10
ENDBRANCH   1   9
TORSDOF 9
ENDMDL
MODEL 3
REMARK VINA RESULT:    -3.540      2.840      5.401
REMARK INTER + INTRA:          -6.573
REMARK INTER:                  -5.200
REMARK INTRA:                  -1.373
REMARK UNBOUND:                -1.170
REMARK SMILES CCCCCCCCCC=CC(=O)[O-]
REMARK SMILES IDX 7 1 8 2 9 3 10 4 11 5 12 6 13 7 14 8 6 9 5 10 4 11 3 12 2 13
REMARK SMILES IDX 1 14
REMARK H PARENT
REMARK Flexibility Score: inf
ROOT
ATOM      1  C   UNL     1      54.923  29.593  52.306  1.00  0.00     0.000 C 
ENDROOT
BRANCH   1   2
ATOM      2  C   UNL     1      56.401  29.999  52.357  1.00  0.00     0.004 C 
BRANCH   2   3
ATOM      3  C   UNL     1      57.048  29.896  50.971  1.00  0.00     0.027 C 
BRANCH   3   4
ATOM      4  C   UNL     1      58.005  28.741  50.902  1.00  0.00    -0.025 C 
ATOM      5  C   UNL     1      58.876  28.616  49.894  1.00  0.00     0.020 C 
BRANCH   5   6
ATOM      6  C   UNL     1      59.810  27.483  49.806  1.00  0.00     0.064 C 
ATOM      7  O   UNL     1      61.040  27.702  49.653  1.00  0.00    -0.545 OA
ATOM      8  O   UNL     1      59.356  26.172  49.890  1.00  0.00    -0.545 OA
ENDBRANCH   5   6
ENDBRANCH   3   4
ENDBRANCH   2   3
ENDBRANCH   1   2
BRANCH   1   9
ATOM      9  C   UNL     1      54.278  30.026  50.984  1.00  0.00     0.000 C 
BRANCH   9  10
ATOM     10  C   UNL     1      53.543  28.850  50.321  1.00  0.00     0.000 C 
BRANCH  10  11
ATOM     11  C   UNL     1      53.863  27.503  50.986  1.00  0.00    -0.000 C 
BRANCH  11  12
ATOM     12  C   UNL     1      54.394  26.460  49.987  1.00  0.00    -0.000 C 
BRANCH  12  13
ATOM     13  C   UNL     1      55.794  25.948  50.360  1.00  0.00    -0.003 C 
ATOM     14  C   UNL     1      55.987  25.807  51.870  1.00  0.00     0.004 C 
ENDBRANCH  12  13
ENDBRANCH  11  12
ENDBRANCH  10  11
ENDBRANCH   9  10
ENDBRANCH   1   9
TORSDOF 9
ENDMDL
MODEL 4
REMARK VINA RESULT:    -3.473      1.439      3.836
REMARK INTER + INTRA:          -6.471
REMARK INTER:                  -5.223
REMARK INTRA:                  -1.247
REMARK UNBOUND:                -1.170
REMARK SMILES CCCCCCCCCC=CC(=O)[O-]
REMARK SMILES IDX 7 1 8 2 9 3 10 4 11 5 12 6 13 7 14 8 6 9 5 10 4 11 3 12 2 13
REMARK SMILES IDX 1 14
REMARK H PARENT
REMARK Flexibility Score: inf
ROOT
ATOM      1  C   UNL     1      59.567  26.733  51.024  1.00  0.00     0.000 C 
ENDROOT
BRANCH   1   2
ATOM      2  C   UNL     1      60.013  27.633  49.865  1.00  0.00     0.004 C 
BRANCH   2   3
ATOM      3  C   UNL     1      59.014  28.773  49.638  1.00  0.00     0.027 C 
BRANCH   3   4
ATOM      4  C   UNL     1      58.436  29.258  50.937  1.00  0.00    -0.025 C 
ATOM      5  C   UNL     1      57.244  29.863  50.987  1.00  0.00     0.020 C 
BRANCH   5   6
ATOM      6  C   UNL     1      56.672  30.355  52.250  1.00  0.00     0.064 C 
ATOM      7  O   UNL     1      56.604  31.594  52.459  1.00  0.00    -0.545 OA
ATOM      8  O   UNL     1      56.202  29.473  53.216  1.00  0.00    -0.545 OA
ENDBRANCH   5   6
ENDBRANCH   3   4
ENDBRANCH   2   3
ENDBRANCH   1   2
BRANCH   1   9
ATOM      9  C   UNL     1      58.610  25.640  50.536  1.00  0.00     0.000 C 
BRANCH   9  10
ATOM     10  C   UNL     1      57.268  25.711  51.282  1.00  0.00     0.000 C 
BRANCH  10  11
ATOM     11  C   UNL     1      56.099  26.086  50.360  1.00  0.00    -0.000 C 
BRANCH  11  12
ATOM     12  C   UNL     1      55.014  26.905  51.081  1.00  0.00    -0.000 C 
BRANCH  12  13
ATOM     13  C   UNL     1      54.053  27.600  50.104  1.00  0.00    -0.003 C 
ATOM     14  C   UNL     1      53.588  28.967  50.607  1.00  0.00     0.004 C 
ENDBRANCH  12  13
ENDBRANCH  11  12
ENDBRANCH  10  11
ENDBRANCH   9  10
ENDBRANCH   1   9
TORSDOF 9
ENDMDL
MODEL 5
REMARK VINA RESULT:    -3.452      0.956      3.278
REMARK INTER + INTRA:          -6.439
REMARK INTER:                  -4.993
REMARK INTRA:                  -1.446
REMARK UNBOUND:                -1.170
REMARK SMILES CCCCCCCCCC=CC(=O)[O-]
REMARK SMILES IDX 7 1 8 2 9 3 10 4 11 5 12 6 13 7 14 8 6 9 5 10 4 11 3 12 2 13
REMARK SMILES IDX 1 14
REMARK H PARENT
REMARK Flexibility Score: inf
ROOT
ATOM      1  C   UNL     1      59.710  27.785  49.640  1.00  0.00     0.000 C 
ENDROOT
BRANCH   1   2
ATOM      2  C   UNL     1      58.752  28.930  49.988  1.00  0.00     0.004 C 
BRANCH   2   3
ATOM      3  C   UNL     1      58.530  29.021  51.503  1.00  0.00     0.027 C 
BRANCH   3   4
ATOM      4  C   UNL     1      57.152  29.526  51.822  1.00  0.00    -0.025 C 
ATOM      5  C   UNL     1      56.562  30.464  51.074  1.00  0.00     0.020 C 
BRANCH   5   6
ATOM      6  C   UNL     1      55.218  30.977  51.383  1.00  0.00     0.064 C 
ATOM      7  O   UNL     1      54.205  30.345  50.985  1.00  0.00    -0.545 OA
ATOM      8  O   UNL     1      55.049  32.150  52.111  1.00  0.00    -0.545 OA
ENDBRANCH   5   6
ENDBRANCH   3   4
ENDBRANCH   2   3
ENDBRANCH   1   2
BRANCH   1   9
ATOM      9  C   UNL     1      59.757  26.744  50.765  1.00  0.00     0.000 C 
BRANCH   9  10
ATOM     10  C   UNL     1      58.821  25.564  50.461  1.00  0.00     0.000 C 
BRANCH  10  11
ATOM     11  C   UNL     1      58.024  25.109  51.694  1.00  0.00    -0.000 C 
BRANCH  11  12
ATOM     12  C   UNL     1      56.611  25.715  51.742  1.00  0.00    -0.000 C 
BRANCH  12  13
ATOM     13  C   UNL     1      56.073  26.066  50.345  1.00  0.00    -0.003 C 
ATOM     14  C   UNL     1      54.895  27.039  50.396  1.00  0.00     0.004 C 
ENDBRANCH  12  13
ENDBRANCH  11  12
ENDBRANCH  10  11
ENDBRANCH   9  10
ENDBRANCH   1   9
TORSDOF 9
ENDMDL
MODEL 6
REMARK VINA RESULT:    -3.383      2.049      3.799
REMARK INTER + INTRA:          -6.333
REMARK INTER:                  -5.038
REMARK INTRA:                  -1.295
REMARK UNBOUND:                -1.170
REMARK SMILES CCCCCCCCCC=CC(=O)[O-]
REMARK SMILES IDX 7 1 8 2 9 3 10 4 11 5 12 6 13 7 14 8 6 9 5 10 4 11 3 12 2 13
REMARK SMILES IDX 1 14
REMARK H PARENT
REMARK Flexibility Score: inf
ROOT
ATOM      1  C   UNL     1      59.247  26.435  49.944  1.00  0.00     0.000 C 
ENDROOT
BRANCH   1   2
ATOM      2  C   UNL     1      59.320  25.848  51.358  1.00  0.00     0.004 C 
BRANCH   2   3
ATOM      3  C   UNL     1      57.921  25.713  51.971  1.00  0.00     0.027 C 
BRANCH   3   4
ATOM      4  C   UNL     1      56.854  26.077  50.978  1.00  0.00    -0.025 C 
ATOM      5  C   UNL     1      55.593  25.656  51.124  1.00  0.00     0.020 C 
BRANCH   5   6
ATOM      6  C   UNL     1      54.541  25.993  50.153  1.00  0.00     0.064 C 
ATOM      7  O   UNL     1      54.259  27.201  49.938  1.00  0.00    -0.545 OA
ATOM      8  O   UNL     1      53.853  24.999  49.466  1.00  0.00    -0.545 OA
ENDBRANCH   5   6
ENDBRANCH   3   4
ENDBRANCH   2   3
ENDBRANCH   1   2
BRANCH   1   9
ATOM      9  C   UNL     1      60.031  27.750  49.852  1.00  0.00     0.000 C 
BRANCH   9  10
ATOM     10  C   UNL     1      59.092  28.960  49.989  1.00  0.00     0.000 C 
BRANCH  10  11
ATOM     11  C   UNL     1      59.033  29.502  51.425  1.00  0.00    -0.000 C 
BRANCH  11  12
ATOM     12  C   UNL     1      57.594  29.608  51.960  1.00  0.00    -0.000 C 
BRANCH  12  13
ATOM     13  C   UNL     1      56.552  29.679  50.833  1.00  0.00    -0.003 C 
ATOM     14  C   UNL     1      55.584  30.851  51.001  1.00  0.00     0.004 C 
ENDBRANCH  12  13
ENDBRANCH  11  12
ENDBRANCH  10  11
ENDBRANCH   9  10
ENDBRANCH   1   9
TORSDOF 9
ENDMDL
MODEL 7
REMARK VINA RESULT:    -3.379      3.443      5.728
REMARK INTER + INTRA:          -6.327
REMARK INTER:                  -5.183
REMARK INTRA:                  -1.143
REMARK UNBOUND:                -1.170
REMARK SMILES CCCCCCCCCC=CC(=O)[O-]
REMARK SMILES IDX 7 1 8 2 9 3 10 4 11 5 12 6 13 7 14 8 6 9 5 10 4 11 3 12 2 13
REMARK SMILES IDX 1 14
REMARK H PARENT
REMARK Flexibility Score: inf
ROOT
ATOM      1  C   UNL     1      58.936  28.910  49.792  1.00  0.00     0.000 C 
ENDROOT
BRANCH   1   2
ATOM      2  C   UNL     1      59.861  27.693  49.915  1.00  0.00     0.004 C 
BRANCH   2   3
ATOM      3  C   UNL     1      59.058  26.387  49.897  1.00  0.00     0.027 C 
BRANCH   3   4
ATOM      4  C   UNL     1      59.297  25.582  51.142  1.00  0.00    -0.025 C 
ATOM      5  C   UNL     1      58.289  25.004  51.804  1.00  0.00     0.020 C 
BRANCH   5   6
ATOM      6  C   UNL     1      58.508  24.225  53.032  1.00  0.00     0.064 C 
ATOM      7  O   UNL     1      58.671  24.824  54.127  1.00  0.00    -0.545 OA
ATOM      8  O   UNL     1      58.534  22.835  53.004  1.00  0.00    -0.545 OA
ENDBRANCH   5   6
ENDBRANCH   3   4
ENDBRANCH   2   3
ENDBRANCH   1   2
BRANCH   1   9
ATOM      9  C   UNL     1      58.275  29.238  51.136  1.00  0.00     0.000 C 
BRANCH   9  10
ATOM     10  C   UNL     1      56.747  29.321  50.991  1.00  0.00     0.000 C 
BRANCH  10  11
ATOM     11  C   UNL     1      56.039  28.044  51.469  1.00  0.00    -0.000 C 
BRANCH  11  12
ATOM     12  C   UNL     1      55.005  27.525  50.454  1.00  0.00    -0.000 C 
BRANCH  12  13
ATOM     13  C   UNL     1      55.242  26.055  50.073  1.00  0.00    -0.003 C 
ATOM     14  C   UNL     1      53.976  25.370  49.555  1.00  0.00     0.004 C 
ENDBRANCH  12  13
ENDBRANCH  11  12
ENDBRANCH  10  11
ENDBRANCH   9  10
ENDBRANCH   1   9
TORSDOF 9
ENDMDL
MODEL 8
REMARK VINA RESULT:    -3.330      1.086      1.913
REMARK INTER + INTRA:          -6.252
REMARK INTER:                  -5.298
REMARK INTRA:                  -0.955
REMARK UNBOUND:                -1.170
REMARK SMILES CCCCCCCCCC=CC(=O)[O-]
REMARK SMILES IDX 7 1 8 2 9 3 10 4 11 5 12 6 13 7 14 8 6 9 5 10 4 11 3 12 2 13
REMARK SMILES IDX 1 14
REMARK H PARENT
REMARK Flexibility Score: inf
ROOT
ATOM      1  C   UNL     1      55.613  26.250  50.211  1.00  0.00     0.000 C 
ENDROOT
BRANCH   1   2
ATOM      2  C   UNL     1      54.091  26.072  50.146  1.00  0.00     0.004 C 
BRANCH   2   3
ATOM      3  C   UNL     1      53.385  27.424  49.991  1.00  0.00     0.027 C 
BRANCH   3   4
ATOM      4  C   UNL     1      54.276  28.556  50.417  1.00  0.00    -0.025 C 
ATOM      5  C   UNL     1      53.774  29.680  50.940  1.00  0.00     0.020 C 
BRANCH   5   6
ATOM      6  C   UNL     1      54.633  30.802  51.349  1.00  0.00     0.064 C 
ATOM      7  O   UNL     1      55.523  31.221  50.564  1.00  0.00    -0.545 OA
ATOM      8  O   UNL     1      54.476  31.409  52.590  1.00  0.00    -0.545 OA
ENDBRANCH   5   6
ENDBRANCH   3   4
ENDBRANCH   2   3
ENDBRANCH   1   2
BRANCH   1   9
ATOM      9  C   UNL     1      56.175  25.709  51.531  1.00  0.00     0.000 C 
BRANCH   9  10
ATOM     10  C   UNL     1      56.835  26.831  52.348  1.00  0.00     0.000 C 
BRANCH  10  11
ATOM     11  C   UNL     1      58.129  27.349  51.702  1.00  0.00    -0.000 C 
BRANCH  11  12
ATOM     12  C   UNL     1      57.973  28.762  51.114  1.00  0.00    -0.000 C 
BRANCH  12  13
ATOM     13  C   UNL     1      58.926  29.018  49.936  1.00  0.00    -0.003 C 
ATOM     14  C   UNL     1      59.799  27.806  49.611  1.00  0.00     0.004 C 
ENDBRANCH  12  13
ENDBRANCH  11  12
ENDBRANCH  10  11
ENDBRANCH   9  10
ENDBRANCH   1   9
TORSDOF 9
ENDMDL
MODEL 9
REMARK VINA RESULT:    -3.267      2.563      4.047
REMARK INTER + INTRA:          -6.157
REMARK INTER:                  -5.066
REMARK INTRA:                  -1.091
REMARK UNBOUND:                -1.170
REMARK SMILES CCCCCCCCCC=CC(=O)[O-]
REMARK SMILES IDX 7 1 8 2 9 3 10 4 11 5 12 6 13 7 14 8 6 9 5 10 4 11 3 12 2 13
REMARK SMILES IDX 1 14
REMARK H PARENT
REMARK Flexibility Score: inf
ROOT
ATOM      1  C   UNL     1      54.935  29.784  52.194  1.00  0.00     0.000 C 
ENDROOT
BRANCH   1   2
ATOM      2  C   UNL     1      54.419  30.124  50.790  1.00  0.00     0.004 C 
BRANCH   2   3
ATOM      3  C   UNL     1      53.370  29.106  50.327  1.00  0.00     0.027 C 
BRANCH   3   4
ATOM      4  C   UNL     1      53.708  27.722  50.801  1.00  0.00    -0.025 C 
ATOM      5  C   UNL     1      54.024  26.748  49.941  1.00  0.00     0.020 C 
BRANCH   5   6
ATOM      6  C   UNL     1      54.343  25.384  50.390  1.00  0.00     0.064 C 
ATOM      7  O   UNL     1      55.249  25.208  51.246  1.00  0.00    -0.545 OA
ATOM      8  O   UNL     1      53.657  24.284  49.886  1.00  0.00    -0.545 OA
ENDBRANCH   5   6
ENDBRANCH   3   4
ENDBRANCH   2   3
ENDBRANCH   1   2
BRANCH   1   9
ATOM      9  C   UNL     1      56.466  29.714  52.217  1.00  0.00     0.000 C 
BRANCH   9  10
ATOM     10  C   UNL     1      57.052  30.042  50.834  1.00  0.00     0.000 C 
BRANCH  10  11
ATOM     11  C   UNL     1      58.103  29.018  50.380  1.00  0.00    -0.000 C 
BRANCH  11  12
ATOM     12  C   UNL     1      57.729  27.575  50.763  1.00  0.00    -0.000 C 
BRANCH  12  13
ATOM     13  C   UNL     1      58.767  26.550  50.281  1.00  0.00    -0.003 C 
ATOM     14  C   UNL     1      60.117  27.189  49.953  1.00  0.00     0.004 C 
ENDBRANCH  12  13
ENDBRANCH  11  12
ENDBRANCH  10  11
ENDBRANCH   9  10
ENDBRANCH   1   9
TORSDOF 9
ENDMDL
