MODEL 1
REMARK VINA RESULT:    -5.228      0.000      0.000
REMARK INTER + INTRA:          -5.804
REMARK INTER:                  -5.533
REMARK INTRA:                  -0.270
REMARK UNBOUND:                -0.270
REMARK SMILES CC1=C[C@H]2C(=C(C)CC[C@@H]2C(C)C)CC1
REMARK SMILES IDX 1 1 2 2 3 3 4 4 10 5 9 6 8 7 6 8 5 9 14 10 15 11 7 12 11 13
REMARK SMILES IDX 12 14 13 15
REMARK H PARENT
REMARK Flexibility Score: inf
ROOT
ATOM      1  C   UNL     1      30.048   6.735  28.116  1.00  0.00     0.039 C 
ATOM      2  C   UNL     1      30.335   7.688  29.246  1.00  0.00    -0.076 C 
ATOM      3  C   UNL     1      29.768   8.913  29.236  1.00  0.00    -0.020 C 
ATOM      4  C   UNL     1      29.936   9.945  30.348  1.00  0.00     0.041 C 
ATOM      5  C   UNL     1      30.382  11.340  29.805  1.00  0.00     0.003 C 
ATOM      6  C   UNL     1      30.580  12.273  31.015  1.00  0.00     0.009 C 
ATOM      7  C   UNL     1      31.698  11.766  31.919  1.00  0.00     0.031 C 
ATOM      8  C   UNL     1      31.609  10.288  32.227  1.00  0.00    -0.073 C 
ATOM      9  C   UNL     1      30.875   9.436  31.450  1.00  0.00    -0.064 C 
ATOM     10  C   UNL     1      30.878   7.937  31.671  1.00  0.00     0.036 C 
ATOM     11  C   UNL     1      31.261   7.262  30.359  1.00  0.00     0.035 C 
ATOM     12  C   UNL     1      32.495   9.786  33.344  1.00  0.00     0.039 C 
ENDROOT
BRANCH   5  13
ATOM     13  C   UNL     1      29.427  12.037  28.766  1.00  0.00    -0.013 C 
ATOM     14  C   UNL     1      28.416  12.995  29.419  1.00  0.00     0.007 C 
ATOM     15  C   UNL     1      30.148  12.697  27.580  1.00  0.00     0.007 C 
ENDBRANCH   5  13
TORSDOF 1
ENDMDL
MODEL 2
REMARK VINA RESULT:    -5.216      1.244      4.984
REMARK INTER + INTRA:          -5.791
REMARK INTER:                  -5.525
REMARK INTRA:                  -0.266
REMARK UNBOUND:                -0.270
REMARK SMILES CC1=C[C@H]2C(=C(C)CC[C@@H]2C(C)C)CC1
REMARK SMILES IDX 1 1 2 2 3 3 4 4 10 5 9 6 8 7 6 8 5 9 14 10 15 11 7 12 11 13
REMARK SMILES IDX 12 14 13 15
REMARK H PARENT
REMARK Flexibility Score: inf
ROOT
ATOM      1  C   UNL     1      29.378  12.289  28.527  1.00  0.00     0.039 C 
ATOM      2  C   UNL     1      29.635  10.806  28.544  1.00  0.00    -0.076 C 
ATOM      3  C   UNL     1      29.717  10.164  29.729  1.00  0.00    -0.020 C 
ATOM      4  C   UNL     1      29.918   8.658  29.877  1.00  0.00     0.041 C 
ATOM      5  C   UNL     1      31.097   8.305  30.839  1.00  0.00     0.003 C 
ATOM      6  C   UNL     1      31.244   6.772  30.858  1.00  0.00     0.009 C 
ATOM      7  C   UNL     1      31.616   6.241  29.478  1.00  0.00     0.031 C 
ATOM      8  C   UNL     1      30.777   6.814  28.358  1.00  0.00    -0.073 C 
ATOM      9  C   UNL     1      30.072   7.974  28.512  1.00  0.00    -0.064 C 
ATOM     10  C   UNL     1      29.330   8.626  27.363  1.00  0.00     0.036 C 
ATOM     11  C   UNL     1      29.812  10.068  27.239  1.00  0.00     0.035 C 
ATOM     12  C   UNL     1      30.885   6.117  27.022  1.00  0.00     0.039 C 
ENDROOT
BRANCH   5  13
ATOM     13  C   UNL     1      30.991   8.833  32.318  1.00  0.00    -0.013 C 
ATOM     14  C   UNL     1      31.023   7.709  33.367  1.00  0.00     0.007 C 
ATOM     15  C   UNL     1      31.977   9.960  32.665  1.00  0.00     0.007 C 
ENDBRANCH   5  13
TORSDOF 1
ENDMDL
MODEL 3
REMARK VINA RESULT:    -5.071      1.586      2.400
REMARK INTER + INTRA:          -5.638
REMARK INTER:                  -5.366
REMARK INTRA:                  -0.272
REMARK UNBOUND:                -0.270
REMARK SMILES CC1=C[C@H]2C(=C(C)CC[C@@H]2C(C)C)CC1
REMARK SMILES IDX 1 1 2 2 3 3 4 4 10 5 9 6 8 7 6 8 5 9 14 10 15 11 7 12 11 13
REMARK SMILES IDX 12 14 13 15
REMARK H PARENT
REMARK Flexibility Score: inf
ROOT
ATOM      1  C   UNL     1      30.910   7.105  27.850  1.00  0.00     0.039 C 
ATOM      2  C   UNL     1      30.849   7.335  29.337  1.00  0.00    -0.076 C 
ATOM      3  C   UNL     1      30.549   8.566  29.803  1.00  0.00    -0.020 C 
ATOM      4  C   UNL     1      30.403   8.910  31.282  1.00  0.00     0.041 C 
ATOM      5  C   UNL     1      31.258  10.151  31.693  1.00  0.00     0.003 C 
ATOM      6  C   UNL     1      31.081  10.361  33.209  1.00  0.00     0.009 C 
ATOM      7  C   UNL     1      31.617   9.168  33.993  1.00  0.00     0.031 C 
ATOM      8  C   UNL     1      31.164   7.830  33.451  1.00  0.00    -0.073 C 
ATOM      9  C   UNL     1      30.695   7.696  32.174  1.00  0.00    -0.064 C 
ATOM     10  C   UNL     1      30.357   6.345  31.576  1.00  0.00     0.036 C 
ATOM     11  C   UNL     1      31.139   6.190  30.276  1.00  0.00     0.035 C 
ATOM     12  C   UNL     1      31.404   6.635  34.343  1.00  0.00     0.039 C 
ENDROOT
BRANCH   5  13
ATOM     13  C   UNL     1      30.956  11.502  30.945  1.00  0.00    -0.013 C 
ATOM     14  C   UNL     1      29.566  12.077  31.268  1.00  0.00     0.007 C 
ATOM     15  C   UNL     1      32.055  12.567  31.084  1.00  0.00     0.007 C 
ENDBRANCH   5  13
TORSDOF 1
ENDMDL
MODEL 4
REMARK VINA RESULT:    -5.054      1.408      4.297
REMARK INTER + INTRA:          -5.620
REMARK INTER:                  -5.553
REMARK INTRA:                  -0.067
REMARK UNBOUND:                -0.270
REMARK SMILES CC1=C[C@H]2C(=C(C)CC[C@@H]2C(C)C)CC1
REMARK SMILES IDX 1 1 2 2 3 3 4 4 10 5 9 6 8 7 6 8 5 9 14 10 15 11 7 12 11 13
REMARK SMILES IDX 12 14 13 15
REMARK H PARENT
REMARK Flexibility Score: inf
ROOT
ATOM      1  C   UNL     1      28.665  10.943  28.922  1.00  0.00     0.039 C 
ATOM      2  C   UNL     1      29.554  10.466  30.040  1.00  0.00    -0.076 C 
ATOM      3  C   UNL     1      30.132   9.249  29.951  1.00  0.00    -0.020 C 
ATOM      4  C   UNL     1      31.093   8.678  30.989  1.00  0.00     0.041 C 
ATOM      5  C   UNL     1      30.683   7.247  31.460  1.00  0.00     0.003 C 
ATOM      6  C   UNL     1      31.682   6.805  32.546  1.00  0.00     0.009 C 
ATOM      7  C   UNL     1      31.604   7.718  33.765  1.00  0.00     0.031 C 
ATOM      8  C   UNL     1      31.603   9.191  33.424  1.00  0.00    -0.073 C 
ATOM      9  C   UNL     1      31.277   9.638  32.174  1.00  0.00    -0.064 C 
ATOM     10  C   UNL     1      31.148  11.113  31.851  1.00  0.00     0.036 C 
ATOM     11  C   UNL     1      29.769  11.350  31.244  1.00  0.00     0.035 C 
ATOM     12  C   UNL     1      31.830  10.142  34.576  1.00  0.00     0.039 C 
ENDROOT
BRANCH   5  13
ATOM     13  C   UNL     1      30.595   6.132  30.353  1.00  0.00    -0.013 C 
ATOM     14  C   UNL     1      29.165   5.908  29.830  1.00  0.00     0.007 C 
ATOM     15  C   UNL     1      31.599   6.296  29.201  1.00  0.00     0.007 C 
ENDBRANCH   5  13
TORSDOF 1
ENDMDL
MODEL 5
REMARK VINA RESULT:    -5.045      1.090      4.952
REMARK INTER + INTRA:          -5.610
REMARK INTER:                  -5.347
REMARK INTRA:                  -0.263
REMARK UNBOUND:                -0.270
REMARK SMILES CC1=C[C@H]2C(=C(C)CC[C@@H]2C(C)C)CC1
REMARK SMILES IDX 1 1 2 2 3 3 4 4 10 5 9 6 8 7 6 8 5 9 14 10 15 11 7 12 11 13
REMARK SMILES IDX 12 14 13 15
REMARK H PARENT
REMARK Flexibility Score: inf
ROOT
ATOM      1  C   UNL     1      32.050  10.110  33.146  1.00  0.00     0.039 C 
ATOM      2  C   UNL     1      31.282  10.345  31.873  1.00  0.00    -0.076 C 
ATOM      3  C   UNL     1      30.693   9.300  31.254  1.00  0.00    -0.020 C 
ATOM      4  C   UNL     1      29.843   9.418  29.992  1.00  0.00     0.041 C 
ATOM      5  C   UNL     1      30.296   8.427  28.873  1.00  0.00     0.003 C 
ATOM      6  C   UNL     1      29.414   8.681  27.636  1.00  0.00     0.009 C 
ATOM      7  C   UNL     1      29.623  10.092  27.096  1.00  0.00     0.031 C 
ATOM      8  C   UNL     1      29.594  11.163  28.164  1.00  0.00    -0.073 C 
ATOM      9  C   UNL     1      29.789  10.865  29.484  1.00  0.00    -0.064 C 
ATOM     10  C   UNL     1      29.889  11.940  30.548  1.00  0.00     0.036 C 
ATOM     11  C   UNL     1      31.198  11.741  31.305  1.00  0.00     0.035 C 
ATOM     12  C   UNL     1      29.492  12.589  27.674  1.00  0.00     0.039 C 
ENDROOT
BRANCH   5  13
ATOM     13  C   UNL     1      30.263   6.893  29.226  1.00  0.00    -0.013 C 
ATOM     14  C   UNL     1      29.374   6.072  28.276  1.00  0.00     0.007 C 
ATOM     15  C   UNL     1      31.647   6.249  29.403  1.00  0.00     0.007 C 
ENDBRANCH   5  13
TORSDOF 1
ENDMDL
MODEL 6
REMARK VINA RESULT:    -4.979      3.518      6.195
REMARK INTER + INTRA:          -5.540
REMARK INTER:                  -5.297
REMARK INTRA:                  -0.243
REMARK UNBOUND:                -0.270
REMARK SMILES CC1=C[C@H]2C(=C(C)CC[C@@H]2C(C)C)CC1
REMARK SMILES IDX 1 1 2 2 3 3 4 4 10 5 9 6 8 7 6 8 5 9 14 10 15 11 7 12 11 13
REMARK SMILES IDX 12 14 13 15
REMARK H PARENT
REMARK Flexibility Score: inf
ROOT
ATOM      1  C   UNL     1      29.163  12.034  37.220  1.00  0.00     0.039 C 
ATOM      2  C   UNL     1      29.867  10.763  36.826  1.00  0.00    -0.076 C 
ATOM      3  C   UNL     1      30.513  10.707  35.641  1.00  0.00    -0.020 C 
ATOM      4  C   UNL     1      31.308   9.498  35.154  1.00  0.00     0.041 C 
ATOM      5  C   UNL     1      30.894   9.052  33.716  1.00  0.00     0.003 C 
ATOM      6  C   UNL     1      31.712   7.796  33.361  1.00  0.00     0.009 C 
ATOM      7  C   UNL     1      31.378   6.642  34.301  1.00  0.00     0.031 C 
ATOM      8  C   UNL     1      31.361   7.033  35.762  1.00  0.00    -0.073 C 
ATOM      9  C   UNL     1      31.234   8.336  36.155  1.00  0.00    -0.064 C 
ATOM     10  C   UNL     1      31.089   8.731  37.611  1.00  0.00     0.036 C 
ATOM     11  C   UNL     1      29.826   9.573  37.753  1.00  0.00     0.035 C 
ATOM     12  C   UNL     1      31.337   5.895  36.755  1.00  0.00     0.039 C 
ENDROOT
BRANCH   5  13
ATOM     13  C   UNL     1      31.056  10.116  32.567  1.00  0.00    -0.013 C 
ATOM     14  C   UNL     1      32.420  10.828  32.588  1.00  0.00     0.007 C 
ATOM     15  C   UNL     1      30.711   9.596  31.163  1.00  0.00     0.007 C 
ENDBRANCH   5  13
TORSDOF 1
ENDMDL
MODEL 7
REMARK VINA RESULT:    -4.972      1.401      4.226
REMARK INTER + INTRA:          -5.533
REMARK INTER:                  -5.257
REMARK INTRA:                  -0.276
REMARK UNBOUND:                -0.270
REMARK SMILES CC1=C[C@H]2C(=C(C)CC[C@@H]2C(C)C)CC1
REMARK SMILES IDX 1 1 2 2 3 3 4 4 10 5 9 6 8 7 6 8 5 9 14 10 15 11 7 12 11 13
REMARK SMILES IDX 12 14 13 15
REMARK H PARENT
REMARK Flexibility Score: inf
ROOT
ATOM      1  C   UNL     1      27.460  12.167  29.229  1.00  0.00     0.039 C 
ATOM      2  C   UNL     1      28.509  11.243  29.787  1.00  0.00    -0.076 C 
ATOM      3  C   UNL     1      29.074  10.321  28.980  1.00  0.00    -0.020 C 
ATOM      4  C   UNL     1      30.185   9.368  29.412  1.00  0.00     0.041 C 
ATOM      5  C   UNL     1      29.858   7.878  29.074  1.00  0.00     0.003 C 
ATOM      6  C   UNL     1      31.012   7.011  29.611  1.00  0.00     0.009 C 
ATOM      7  C   UNL     1      31.115   7.115  31.129  1.00  0.00     0.031 C 
ATOM      8  C   UNL     1      31.054   8.534  31.648  1.00  0.00    -0.073 C 
ATOM      9  C   UNL     1      30.540   9.552  30.894  1.00  0.00    -0.064 C 
ATOM     10  C   UNL     1      30.355  10.951  31.445  1.00  0.00     0.036 C 
ATOM     11  C   UNL     1      28.900  11.357  31.241  1.00  0.00     0.035 C 
ATOM     12  C   UNL     1      31.448   8.732  33.093  1.00  0.00     0.039 C 
ENDROOT
BRANCH   5  13
ATOM     13  C   UNL     1      29.610   7.530  27.560  1.00  0.00    -0.013 C 
ATOM     14  C   UNL     1      30.809   7.866  26.656  1.00  0.00     0.007 C 
ATOM     15  C   UNL     1      29.096   6.103  27.309  1.00  0.00     0.007 C 
ENDBRANCH   5  13
TORSDOF 1
ENDMDL
MODEL 8
REMARK VINA RESULT:    -4.873      1.462      2.316
REMARK INTER + INTRA:          -5.429
REMARK INTER:                  -5.158
REMARK INTRA:                  -0.270
REMARK UNBOUND:                -0.270
REMARK SMILES CC1=C[C@H]2C(=C(C)CC[C@@H]2C(C)C)CC1
REMARK SMILES IDX 1 1 2 2 3 3 4 4 10 5 9 6 8 7 6 8 5 9 14 10 15 11 7 12 11 13
REMARK SMILES IDX 12 14 13 15
REMARK H PARENT
REMARK Flexibility Score: inf
ROOT
ATOM      1  C   UNL     1      30.514   8.258  24.974  1.00  0.00     0.039 C 
ATOM      2  C   UNL     1      30.387   8.365  26.470  1.00  0.00    -0.076 C 
ATOM      3  C   UNL     1      29.690   9.392  27.002  1.00  0.00    -0.020 C 
ATOM      4  C   UNL     1      29.444   9.580  28.496  1.00  0.00     0.041 C 
ATOM      5  C   UNL     1      29.831  11.010  28.990  1.00  0.00     0.003 C 
ATOM      6  C   UNL     1      29.601  11.059  30.512  1.00  0.00     0.009 C 
ATOM      7  C   UNL     1      30.513  10.073  31.235  1.00  0.00     0.031 C 
ATOM      8  C   UNL     1      30.537   8.695  30.610  1.00  0.00    -0.073 C 
ATOM      9  C   UNL     1      30.134   8.485  29.321  1.00  0.00    -0.064 C 
ATOM     10  C   UNL     1      30.271   7.137  28.642  1.00  0.00     0.036 C 
ATOM     11  C   UNL     1      31.052   7.332  27.347  1.00  0.00     0.035 C 
ATOM     12  C   UNL     1      31.171   7.601  31.437  1.00  0.00     0.039 C 
ENDROOT
BRANCH   5  13
ATOM     13  C   UNL     1      29.086  12.221  28.316  1.00  0.00    -0.013 C 
ATOM     14  C   UNL     1      28.277  13.067  29.314  1.00  0.00     0.007 C 
ATOM     15  C   UNL     1      29.976  13.099  27.421  1.00  0.00     0.007 C 
ENDBRANCH   5  13
TORSDOF 1
ENDMDL
MODEL 9
REMARK VINA RESULT:    -4.745      1.877      4.191
REMARK INTER + INTRA:          -5.293
REMARK INTER:                  -5.023
REMARK INTRA:                  -0.270
REMARK UNBOUND:                -0.270
REMARK SMILES CC1=C[C@H]2C(=C(C)CC[C@@H]2C(C)C)CC1
REMARK SMILES IDX 1 1 2 2 3 3 4 4 10 5 9 6 8 7 6 8 5 9 14 10 15 11 7 12 11 13
REMARK SMILES IDX 12 14 13 15
REMARK H PARENT
REMARK Flexibility Score: inf
ROOT
ATOM      1  C   UNL     1      31.020   7.067  32.402  1.00  0.00     0.039 C 
ATOM      2  C   UNL     1      30.834   7.245  30.919  1.00  0.00    -0.076 C 
ATOM      3  C   UNL     1      30.654   8.486  30.420  1.00  0.00    -0.020 C 
ATOM      4  C   UNL     1      30.510   8.801  28.934  1.00  0.00     0.041 C 
ATOM      5  C   UNL     1      29.251   9.673  28.627  1.00  0.00     0.003 C 
ATOM      6  C   UNL     1      29.177   9.870  27.101  1.00  0.00     0.009 C 
ATOM      7  C   UNL     1      28.984   8.537  26.386  1.00  0.00     0.031 C 
ATOM      8  C   UNL     1      29.912   7.446  26.871  1.00  0.00    -0.073 C 
ATOM      9  C   UNL     1      30.540   7.524  28.083  1.00  0.00    -0.064 C 
ATOM     10  C   UNL     1      31.372   6.384  28.636  1.00  0.00     0.036 C 
ATOM     11  C   UNL     1      30.837   6.032  30.020  1.00  0.00     0.035 C 
ATOM     12  C   UNL     1      29.985   6.204  26.013  1.00  0.00     0.039 C 
ENDROOT
BRANCH   5  13
ATOM     13  C   UNL     1      29.169  11.076  29.334  1.00  0.00    -0.013 C 
ATOM     14  C   UNL     1      29.932  12.181  28.582  1.00  0.00     0.007 C 
ATOM     15  C   UNL     1      27.745  11.523  29.702  1.00  0.00     0.007 C 
ENDBRANCH   5  13
TORSDOF 1
ENDMDL
