MODEL 1
REMARK VINA RESULT:    -5.701      0.000      0.000
REMARK INTER + INTRA:          -9.472
REMARK INTER:                  -8.200
REMARK INTRA:                  -1.272
REMARK UNBOUND:                -1.272
REMARK SMILES CC(C)=CCCC(C)=CCCC(C)=CCO
REMARK SMILES IDX 10 1 9 2 7 3 8 4 6 5 5 6 4 7 1 8 2 9 3 10 11 11 12 12 14 13
REMARK SMILES IDX 13 14 15 15 16 16
REMARK H PARENT 16 17
REMARK Flexibility Score: inf
ROOT
ATOM      1  C   UNL     1      42.778  10.411  17.865  1.00  0.00     0.032 C 
ENDROOT
BRANCH   1   2
ATOM      2  C   UNL     1      42.310  11.317  16.750  1.00  0.00    -0.028 C 
ATOM      3  C   UNL     1      41.222  12.117  16.815  1.00  0.00    -0.077 C 
ATOM      4  C   UNL     1      40.310  12.128  18.020  1.00  0.00     0.039 C 
BRANCH   3   5
ATOM      5  C   UNL     1      40.902  13.016  15.640  1.00  0.00     0.034 C 
BRANCH   5   6
ATOM      6  C   UNL     1      40.910  12.225  14.327  1.00  0.00     0.032 C 
BRANCH   6   7
ATOM      7  C   UNL     1      39.507  11.881  13.888  1.00  0.00    -0.028 C 
ATOM      8  C   UNL     1      40.346  10.331  12.118  1.00  0.00     0.039 C 
ATOM      9  C   UNL     1      39.241  11.020  12.882  1.00  0.00    -0.080 C 
ATOM     10  C   UNL     1      37.803  10.746  12.525  1.00  0.00     0.039 C 
ENDBRANCH   6   7
ENDBRANCH   5   6
ENDBRANCH   3   5
ENDBRANCH   1   2
BRANCH   1  11
ATOM     11  C   UNL     1      42.838   8.941  17.424  1.00  0.00     0.034 C 
BRANCH  11  12
ATOM     12  C   UNL     1      41.478   8.426  17.004  1.00  0.00    -0.075 C 
ATOM     13  C   UNL     1      40.536   8.191  17.942  1.00  0.00    -0.000 C 
ATOM     14  C   UNL     1      41.224   8.142  15.543  1.00  0.00     0.039 C 
BRANCH  13  15
ATOM     15  C   UNL     1      39.165   7.654  17.619  1.00  0.00     0.183 C 
BRANCH  15  16
ATOM     16  O   UNL     1      38.249   8.707  17.491  1.00  0.00    -0.392 OA
ATOM     17  H   UNL     1      38.133   9.095  18.399  1.00  0.00     0.210 HD
ENDBRANCH  15  16
ENDBRANCH  13  15
ENDBRANCH  11  12
ENDBRANCH   1  11
TORSDOF 8
ENDMDL
MODEL 2
REMARK VINA RESULT:    -5.701      1.686      1.844
REMARK INTER + INTRA:          -9.472
REMARK INTER:                  -8.251
REMARK INTRA:                  -1.221
REMARK UNBOUND:                -1.272
REMARK SMILES CC(C)=CCCC(C)=CCCC(C)=CCO
REMARK SMILES IDX 10 1 9 2 7 3 8 4 6 5 5 6 4 7 1 8 2 9 3 10 11 11 12 12 14 13
REMARK SMILES IDX 13 14 15 15 16 16
REMARK H PARENT 16 17
REMARK Flexibility Score: inf
ROOT
ATOM      1  C   UNL     1      41.512   9.671  18.177  1.00  0.00     0.032 C 
ENDROOT
BRANCH   1   2
ATOM      2  C   UNL     1      40.614  10.764  17.648  1.00  0.00    -0.028 C 
ATOM      3  C   UNL     1      41.037  11.991  17.270  1.00  0.00    -0.077 C 
ATOM      4  C   UNL     1      42.481  12.416  17.410  1.00  0.00     0.039 C 
BRANCH   3   5
ATOM      5  C   UNL     1      40.032  12.971  16.703  1.00  0.00     0.034 C 
BRANCH   5   6
ATOM      6  C   UNL     1      40.352  13.299  15.240  1.00  0.00     0.032 C 
BRANCH   6   7
ATOM      7  C   UNL     1      39.355  12.655  14.306  1.00  0.00    -0.028 C 
ATOM      8  C   UNL     1      40.942  10.810  13.744  1.00  0.00     0.039 C 
ATOM      9  C   UNL     1      39.616  11.521  13.620  1.00  0.00    -0.080 C 
ATOM     10  C   UNL     1      38.549  10.962  12.715  1.00  0.00     0.039 C 
ENDBRANCH   6   7
ENDBRANCH   5   6
ENDBRANCH   3   5
ENDBRANCH   1   2
BRANCH   1  11
ATOM     11  C   UNL     1      42.276   8.959  17.052  1.00  0.00     0.034 C 
BRANCH  11  12
ATOM     12  C   UNL     1      41.529   7.742  16.549  1.00  0.00    -0.075 C 
ATOM     13  C   UNL     1      40.861   6.962  17.427  1.00  0.00    -0.000 C 
ATOM     14  C   UNL     1      41.589   7.402  15.079  1.00  0.00     0.039 C 
BRANCH  13  15
ATOM     15  C   UNL     1      40.112   5.718  17.022  1.00  0.00     0.183 C 
BRANCH  15  16
ATOM     16  O   UNL     1      40.882   4.579  17.290  1.00  0.00    -0.392 OA
ATOM     17  H   UNL     1      41.482   4.450  16.509  1.00  0.00     0.210 HD
ENDBRANCH  15  16
ENDBRANCH  13  15
ENDBRANCH  11  12
ENDBRANCH   1  11
TORSDOF 8
ENDMDL
MODEL 3
REMARK VINA RESULT:    -5.639      2.010      3.692
REMARK INTER + INTRA:          -9.383
REMARK INTER:                  -8.251
REMARK INTRA:                  -1.132
REMARK UNBOUND:                -1.272
REMARK SMILES CC(C)=CCCC(C)=CCCC(C)=CCO
REMARK SMILES IDX 10 1 9 2 7 3 8 4 6 5 5 6 4 7 1 8 2 9 3 10 11 11 12 12 14 13
REMARK SMILES IDX 13 14 15 15 16 16
REMARK H PARENT 16 17
REMARK Flexibility Score: inf
ROOT
ATOM      1  C   UNL     1      40.403  13.009  16.370  1.00  0.00     0.032 C 
ENDROOT
BRANCH   1   2
ATOM      2  C   UNL     1      39.366  12.375  15.473  1.00  0.00    -0.028 C 
ATOM      3  C   UNL     1      39.645  11.664  14.357  1.00  0.00    -0.077 C 
ATOM      4  C   UNL     1      41.060  11.492  13.854  1.00  0.00     0.039 C 
BRANCH   3   5
ATOM      5  C   UNL     1      38.506  11.036  13.583  1.00  0.00     0.034 C 
BRANCH   5   6
ATOM      6  C   UNL     1      38.845  10.939  12.091  1.00  0.00     0.032 C 
BRANCH   6   7
ATOM      7  C   UNL     1      39.063   9.504  11.673  1.00  0.00    -0.028 C 
ATOM      8  C   UNL     1      41.096  10.106  10.352  1.00  0.00     0.039 C 
ATOM      9  C   UNL     1      40.085   9.116  10.881  1.00  0.00    -0.080 C 
ATOM     10  C   UNL     1      40.210   7.658  10.524  1.00  0.00     0.039 C 
ENDBRANCH   6   7
ENDBRANCH   5   6
ENDBRANCH   3   5
ENDBRANCH   1   2
BRANCH   1  11
ATOM     11  C   UNL     1      40.348  12.448  17.798  1.00  0.00     0.034 C 
BRANCH  11  12
ATOM     12  C   UNL     1      40.897  11.038  17.868  1.00  0.00    -0.075 C 
ATOM     13  C   UNL     1      42.171  10.801  17.487  1.00  0.00    -0.000 C 
ATOM     14  C   UNL     1      39.987   9.920  18.318  1.00  0.00     0.039 C 
BRANCH  13  15
ATOM     15  C   UNL     1      42.793   9.427  17.498  1.00  0.00     0.183 C 
BRANCH  15  16
ATOM     16  O   UNL     1      43.896   9.400  18.362  1.00  0.00    -0.392 OA
ATOM     17  H   UNL     1      43.963  10.306  18.766  1.00  0.00     0.210 HD
ENDBRANCH  15  16
ENDBRANCH  13  15
ENDBRANCH  11  12
ENDBRANCH   1  11
TORSDOF 8
ENDMDL
MODEL 4
REMARK VINA RESULT:    -5.632      1.971      5.463
REMARK INTER + INTRA:          -9.373
REMARK INTER:                  -7.988
REMARK INTRA:                  -1.384
REMARK UNBOUND:                -1.272
REMARK SMILES CC(C)=CCCC(C)=CCCC(C)=CCO
REMARK SMILES IDX 10 1 9 2 7 3 8 4 6 5 5 6 4 7 1 8 2 9 3 10 11 11 12 12 14 13
REMARK SMILES IDX 13 14 15 15 16 16
REMARK H PARENT 16 17
REMARK Flexibility Score: inf
ROOT
ATOM      1  C   UNL     1      40.046   8.512  12.963  1.00  0.00     0.032 C 
ENDROOT
BRANCH   1   2
ATOM      2  C   UNL     1      39.522   8.404  14.376  1.00  0.00    -0.028 C 
ATOM      3  C   UNL     1      40.236   7.941  15.427  1.00  0.00    -0.077 C 
ATOM      4  C   UNL     1      41.643   7.413  15.266  1.00  0.00     0.039 C 
BRANCH   3   5
ATOM      5  C   UNL     1      39.601   7.941  16.801  1.00  0.00     0.034 C 
BRANCH   5   6
ATOM      6  C   UNL     1      40.558   8.526  17.847  1.00  0.00     0.032 C 
BRANCH   6   7
ATOM      7  C   UNL     1      40.771  10.004  17.625  1.00  0.00    -0.028 C 
ATOM      8  C   UNL     1      43.255   9.746  17.696  1.00  0.00     0.039 C 
ATOM      9  C   UNL     1      41.996  10.568  17.555  1.00  0.00    -0.080 C 
ATOM     10  C   UNL     1      42.096  12.054  17.330  1.00  0.00     0.039 C 
ENDBRANCH   6   7
ENDBRANCH   5   6
ENDBRANCH   3   5
ENDBRANCH   1   2
BRANCH   1  11
ATOM     11  C   UNL     1      40.717   9.869  12.702  1.00  0.00     0.034 C 
BRANCH  11  12
ATOM     12  C   UNL     1      39.860  11.020  13.185  1.00  0.00    -0.075 C 
ATOM     13  C   UNL     1      40.298  11.796  14.199  1.00  0.00    -0.000 C 
ATOM     14  C   UNL     1      38.509  11.243  12.548  1.00  0.00     0.039 C 
BRANCH  13  15
ATOM     15  C   UNL     1      39.502  12.946  14.762  1.00  0.00     0.183 C 
BRANCH  15  16
ATOM     16  O   UNL     1      40.273  14.116  14.763  1.00  0.00    -0.392 OA
ATOM     17  H   UNL     1      39.847  14.738  14.117  1.00  0.00     0.210 HD
ENDBRANCH  15  16
ENDBRANCH  13  15
ENDBRANCH  11  12
ENDBRANCH   1  11
TORSDOF 8
ENDMDL
MODEL 5
REMARK VINA RESULT:    -5.629      2.078      4.475
REMARK INTER + INTRA:          -9.369
REMARK INTER:                  -7.613
REMARK INTRA:                  -1.756
REMARK UNBOUND:                -1.272
REMARK SMILES CC(C)=CCCC(C)=CCCC(C)=CCO
REMARK SMILES IDX 10 1 9 2 7 3 8 4 6 5 5 6 4 7 1 8 2 9 3 10 11 11 12 12 14 13
REMARK SMILES IDX 13 14 15 15 16 16
REMARK H PARENT 16 17
REMARK Flexibility Score: inf
ROOT
ATOM      1  C   UNL     1      40.019  13.044  14.762  1.00  0.00     0.032 C 
ENDROOT
BRANCH   1   2
ATOM      2  C   UNL     1      39.370  12.002  13.882  1.00  0.00    -0.028 C 
ATOM      3  C   UNL     1      40.045  11.090  13.145  1.00  0.00    -0.077 C 
ATOM      4  C   UNL     1      41.555  11.074  13.082  1.00  0.00     0.039 C 
BRANCH   3   5
ATOM      5  C   UNL     1      39.264  10.065  12.351  1.00  0.00     0.034 C 
BRANCH   5   6
ATOM      6  C   UNL     1      39.853   8.662  12.538  1.00  0.00     0.032 C 
BRANCH   6   7
ATOM      7  C   UNL     1      39.173   7.931  13.671  1.00  0.00    -0.028 C 
ATOM      8  C   UNL     1      41.283   7.859  15.006  1.00  0.00     0.039 C 
ATOM      9  C   UNL     1      39.817   7.561  14.798  1.00  0.00    -0.080 C 
ATOM     10  C   UNL     1      39.043   6.836  15.869  1.00  0.00     0.039 C 
ENDBRANCH   6   7
ENDBRANCH   5   6
ENDBRANCH   3   5
ENDBRANCH   1   2
BRANCH   1  11
ATOM     11  C   UNL     1      39.706  12.817  16.248  1.00  0.00     0.034 C 
BRANCH  11  12
ATOM     12  C   UNL     1      40.482  11.645  16.811  1.00  0.00    -0.075 C 
ATOM     13  C   UNL     1      41.829  11.711  16.881  1.00  0.00    -0.000 C 
ATOM     14  C   UNL     1      39.730  10.407  17.239  1.00  0.00     0.039 C 
BRANCH  13  15
ATOM     15  C   UNL     1      42.684  10.584  17.401  1.00  0.00     0.183 C 
BRANCH  15  16
ATOM     16  O   UNL     1      44.006  10.733  16.960  1.00  0.00    -0.392 OA
ATOM     17  H   UNL     1      44.565  10.857  17.772  1.00  0.00     0.210 HD
ENDBRANCH  15  16
ENDBRANCH  13  15
ENDBRANCH  11  12
ENDBRANCH   1  11
TORSDOF 8
ENDMDL
MODEL 6
REMARK VINA RESULT:    -5.614      1.888      3.846
REMARK INTER + INTRA:          -9.347
REMARK INTER:                  -7.766
REMARK INTRA:                  -1.580
REMARK UNBOUND:                -1.272
REMARK SMILES CC(C)=CCCC(C)=CCCC(C)=CCO
REMARK SMILES IDX 10 1 9 2 7 3 8 4 6 5 5 6 4 7 1 8 2 9 3 10 11 11 12 12 14 13
REMARK SMILES IDX 13 14 15 15 16 16
REMARK H PARENT 16 17
REMARK Flexibility Score: inf
ROOT
ATOM      1  C   UNL     1      42.553   9.159  17.620  1.00  0.00     0.032 C 
ENDROOT
BRANCH   1   2
ATOM      2  C   UNL     1      41.879   8.514  16.432  1.00  0.00    -0.028 C 
ATOM      3  C   UNL     1      40.799   7.704  16.506  1.00  0.00    -0.077 C 
ATOM      4  C   UNL     1      40.190   7.305  17.831  1.00  0.00     0.039 C 
BRANCH   3   5
ATOM      5  C   UNL     1      40.192   7.172  15.226  1.00  0.00     0.034 C 
BRANCH   5   6
ATOM      6  C   UNL     1      40.601   8.035  14.026  1.00  0.00     0.032 C 
BRANCH   6   7
ATOM      7  C   UNL     1      39.551   9.077  13.720  1.00  0.00    -0.028 C 
ATOM      8  C   UNL     1      41.270  10.689  12.891  1.00  0.00     0.039 C 
ATOM      9  C   UNL     1      39.847  10.289  13.203  1.00  0.00    -0.080 C 
ATOM     10  C   UNL     1      38.723  11.255  12.934  1.00  0.00     0.039 C 
ENDBRANCH   6   7
ENDBRANCH   5   6
ENDBRANCH   3   5
ENDBRANCH   1   2
BRANCH   1  11
ATOM     11  C   UNL     1      42.738  10.671  17.426  1.00  0.00     0.034 C 
BRANCH  11  12
ATOM     12  C   UNL     1      41.413  11.375  17.217  1.00  0.00    -0.075 C 
ATOM     13  C   UNL     1      41.291  12.279  16.221  1.00  0.00    -0.000 C 
ATOM     14  C   UNL     1      40.272  11.081  18.161  1.00  0.00     0.039 C 
BRANCH  13  15
ATOM     15  C   UNL     1      40.020  13.046  15.955  1.00  0.00     0.183 C 
BRANCH  15  16
ATOM     16  O   UNL     1      40.237  14.018  14.969  1.00  0.00    -0.392 OA
ATOM     17  H   UNL     1      40.074  13.577  14.094  1.00  0.00     0.210 HD
ENDBRANCH  15  16
ENDBRANCH  13  15
ENDBRANCH  11  12
ENDBRANCH   1  11
TORSDOF 8
ENDMDL
MODEL 7
REMARK VINA RESULT:    -5.574      1.731      4.503
REMARK INTER + INTRA:          -9.289
REMARK INTER:                  -7.708
REMARK INTRA:                  -1.581
REMARK UNBOUND:                -1.272
REMARK SMILES CC(C)=CCCC(C)=CCCC(C)=CCO
REMARK SMILES IDX 10 1 9 2 7 3 8 4 6 5 5 6 4 7 1 8 2 9 3 10 11 11 12 12 14 13
REMARK SMILES IDX 13 14 15 15 16 16
REMARK H PARENT 16 17
REMARK Flexibility Score: inf
ROOT
ATOM      1  C   UNL     1      40.681  12.881  15.626  1.00  0.00     0.032 C 
ENDROOT
BRANCH   1   2
ATOM      2  C   UNL     1      40.098  11.952  16.665  1.00  0.00    -0.028 C 
ATOM      3  C   UNL     1      40.824  11.125  17.452  1.00  0.00    -0.077 C 
ATOM      4  C   UNL     1      42.324  11.005  17.313  1.00  0.00     0.039 C 
BRANCH   3   5
ATOM      5  C   UNL     1      40.110  10.289  18.492  1.00  0.00     0.034 C 
BRANCH   5   6
ATOM      6  C   UNL     1      40.287   8.793  18.206  1.00  0.00     0.032 C 
BRANCH   6   7
ATOM      7  C   UNL     1      39.531   8.380  16.966  1.00  0.00    -0.028 C 
ATOM      8  C   UNL     1      41.636   7.717  15.797  1.00  0.00     0.039 C 
ATOM      9  C   UNL     1      40.138   7.890  15.864  1.00  0.00    -0.080 C 
ATOM     10  C   UNL     1      39.288   7.507  14.679  1.00  0.00     0.039 C 
ENDBRANCH   6   7
ENDBRANCH   5   6
ENDBRANCH   3   5
ENDBRANCH   1   2
BRANCH   1  11
ATOM     11  C   UNL     1      39.773  13.009  14.395  1.00  0.00     0.034 C 
BRANCH  11  12
ATOM     12  C   UNL     1      39.738  11.728  13.589  1.00  0.00    -0.075 C 
ATOM     13  C   UNL     1      38.571  11.309  13.054  1.00  0.00    -0.000 C 
ATOM     14  C   UNL     1      41.007  10.921  13.442  1.00  0.00     0.039 C 
BRANCH  13  15
ATOM     15  C   UNL     1      38.437  10.034  12.260  1.00  0.00     0.183 C 
BRANCH  15  16
ATOM     16  O   UNL     1      37.176   9.460  12.472  1.00  0.00    -0.392 OA
ATOM     17  H   UNL     1      36.814   9.229  11.577  1.00  0.00     0.210 HD
ENDBRANCH  15  16
ENDBRANCH  13  15
ENDBRANCH  11  12
ENDBRANCH   1  11
TORSDOF 8
ENDMDL
MODEL 8
REMARK VINA RESULT:    -5.534      2.209      4.722
REMARK INTER + INTRA:          -9.232
REMARK INTER:                  -7.908
REMARK INTRA:                  -1.324
REMARK UNBOUND:                -1.272
REMARK SMILES CC(C)=CCCC(C)=CCCC(C)=CCO
REMARK SMILES IDX 10 1 9 2 7 3 8 4 6 5 5 6 4 7 1 8 2 9 3 10 11 11 12 12 14 13
REMARK SMILES IDX 13 14 15 15 16 16
REMARK H PARENT 16 17
REMARK Flexibility Score: inf
ROOT
ATOM      1  C   UNL     1      40.094  12.938  16.397  1.00  0.00     0.032 C 
ENDROOT
BRANCH   1   2
ATOM      2  C   UNL     1      40.098  11.536  16.959  1.00  0.00    -0.028 C 
ATOM      3  C   UNL     1      41.197  10.896  17.420  1.00  0.00    -0.077 C 
ATOM      4  C   UNL     1      42.572  11.519  17.351  1.00  0.00     0.039 C 
BRANCH   3   5
ATOM      5  C   UNL     1      41.045   9.510  18.010  1.00  0.00     0.034 C 
BRANCH   5   6
ATOM      6  C   UNL     1      41.782   8.469  17.159  1.00  0.00     0.032 C 
BRANCH   6   7
ATOM      7  C   UNL     1      41.279   8.473  15.735  1.00  0.00    -0.028 C 
ATOM      8  C   UNL     1      39.474   6.834  16.275  1.00  0.00     0.039 C 
ATOM      9  C   UNL     1      40.229   7.731  15.324  1.00  0.00    -0.080 C 
ATOM     10  C   UNL     1      39.808   7.810  13.879  1.00  0.00     0.039 C 
ENDBRANCH   6   7
ENDBRANCH   5   6
ENDBRANCH   3   5
ENDBRANCH   1   2
BRANCH   1  11
ATOM     11  C   UNL     1      39.318  13.025  15.075  1.00  0.00     0.034 C 
BRANCH  11  12
ATOM     12  C   UNL     1      39.839  12.037  14.053  1.00  0.00    -0.075 C 
ATOM     13  C   UNL     1      41.170  11.926  13.854  1.00  0.00    -0.000 C 
ATOM     14  C   UNL     1      38.851  11.232  13.245  1.00  0.00     0.039 C 
BRANCH  13  15
ATOM     15  C   UNL     1      41.778  10.990  12.841  1.00  0.00     0.183 C 
BRANCH  15  16
ATOM     16  O   UNL     1      43.073  11.409  12.507  1.00  0.00    -0.392 OA
ATOM     17  H   UNL     1      43.372  12.015  13.236  1.00  0.00     0.210 HD
ENDBRANCH  15  16
ENDBRANCH  13  15
ENDBRANCH  11  12
ENDBRANCH   1  11
TORSDOF 8
ENDMDL
MODEL 9
REMARK VINA RESULT:    -5.506      1.756      3.793
REMARK INTER + INTRA:          -9.192
REMARK INTER:                  -7.711
REMARK INTRA:                  -1.481
REMARK UNBOUND:                -1.272
REMARK SMILES CC(C)=CCCC(C)=CCCC(C)=CCO
REMARK SMILES IDX 10 1 9 2 7 3 8 4 6 5 5 6 4 7 1 8 2 9 3 10 11 11 12 12 14 13
REMARK SMILES IDX 13 14 15 15 16 16
REMARK H PARENT 16 17
REMARK Flexibility Score: inf
ROOT
ATOM      1  C   UNL     1      41.515   7.790  16.021  1.00  0.00     0.032 C 
ENDROOT
BRANCH   1   2
ATOM      2  C   UNL     1      40.919   8.312  14.735  1.00  0.00    -0.028 C 
ATOM      3  C   UNL     1      39.767   7.866  14.185  1.00  0.00    -0.077 C 
ATOM      4  C   UNL     1      38.983   6.725  14.790  1.00  0.00     0.039 C 
BRANCH   3   5
ATOM      5  C   UNL     1      39.257   8.522  12.919  1.00  0.00     0.034 C 
BRANCH   5   6
ATOM      6  C   UNL     1      40.018   9.821  12.631  1.00  0.00     0.032 C 
BRANCH   6   7
ATOM      7  C   UNL     1      39.346  11.004  13.286  1.00  0.00    -0.028 C 
ATOM      8  C   UNL     1      41.536  11.940  14.042  1.00  0.00     0.039 C 
ATOM      9  C   UNL     1      40.030  11.974  13.931  1.00  0.00    -0.080 C 
ATOM     10  C   UNL     1      39.261  13.112  14.550  1.00  0.00     0.039 C 
ENDBRANCH   6   7
ENDBRANCH   5   6
ENDBRANCH   3   5
ENDBRANCH   1   2
BRANCH   1  11
ATOM     11  C   UNL     1      40.888   8.452  17.256  1.00  0.00     0.034 C 
BRANCH  11  12
ATOM     12  C   UNL     1      41.379   9.872  17.440  1.00  0.00    -0.075 C 
ATOM     13  C   UNL     1      40.487  10.887  17.463  1.00  0.00    -0.000 C 
ATOM     14  C   UNL     1      42.864  10.125  17.547  1.00  0.00     0.039 C 
BRANCH  13  15
ATOM     15  C   UNL     1      40.886  12.332  17.616  1.00  0.00     0.183 C 
BRANCH  15  16
ATOM     16  O   UNL     1      39.995  12.995  18.471  1.00  0.00    -0.392 OA
ATOM     17  H   UNL     1      40.395  12.962  19.379  1.00  0.00     0.210 HD
ENDBRANCH  15  16
ENDBRANCH  13  15
ENDBRANCH  11  12
ENDBRANCH   1  11
TORSDOF 8
ENDMDL
