MODEL 1
REMARK VINA RESULT:    -4.928      0.000      0.000
REMARK INTER + INTRA:          -8.290
REMARK INTER:                  -7.521
REMARK INTRA:                  -0.769
REMARK UNBOUND:                -0.769
REMARK SMILES O=C([O-])CCCCCCCCC(=O)[O-]
REMARK SMILES IDX 7 1 6 2 5 3 4 4 2 5 1 6 3 7 8 8 9 9 10 10 11 11 12 12 13 13
REMARK SMILES IDX 14 14
REMARK H PARENT
REMARK Flexibility Score: inf
ROOT
ATOM      1  C   UNL     1      13.008 -23.268  20.263  1.00  0.00     0.000 C 
ENDROOT
BRANCH   1   2
ATOM      2  C   UNL     1      12.698 -24.728  20.616  1.00  0.00     0.000 C 
BRANCH   2   3
ATOM      3  C   UNL     1      11.224 -24.897  21.011  1.00  0.00     0.006 C 
BRANCH   3   4
ATOM      4  C   UNL     1      10.901 -24.225  22.352  1.00  0.00     0.053 C 
BRANCH   4   5
ATOM      5  C   UNL     1       9.562 -24.645  22.875  1.00  0.00     0.041 C 
ATOM      6  O   UNL     1       8.861 -25.473  22.234  1.00  0.00    -0.550 OA
ATOM      7  O   UNL     1       9.073 -24.097  24.053  1.00  0.00    -0.550 OA
ENDBRANCH   4   5
ENDBRANCH   3   4
ENDBRANCH   2   3
ENDBRANCH   1   2
BRANCH   1   8
ATOM      8  C   UNL     1      14.465 -22.916  20.599  1.00  0.00     0.000 C 
BRANCH   8   9
ATOM      9  C   UNL     1      14.767 -23.060  22.106  1.00  0.00     0.000 C 
BRANCH   9  10
ATOM     10  C   UNL     1      14.072 -22.000  22.979  1.00  0.00     0.006 C 
BRANCH  10  11
ATOM     11  C   UNL     1      14.047 -22.375  24.465  1.00  0.00     0.053 C 
BRANCH  11  12
ATOM     12  C   UNL     1      12.639 -22.577  24.929  1.00  0.00     0.041 C 
ATOM     13  O   UNL     1      11.788 -21.661  24.786  1.00  0.00    -0.550 OA
ATOM     14  O   UNL     1      12.278 -23.759  25.563  1.00  0.00    -0.550 OA
ENDBRANCH  11  12
ENDBRANCH  10  11
ENDBRANCH   9  10
ENDBRANCH   8   9
ENDBRANCH   1   8
TORSDOF 9
ENDMDL
MODEL 2
REMARK VINA RESULT:    -4.866      2.308      4.011
REMARK INTER + INTRA:          -8.195
REMARK INTER:                  -7.716
REMARK INTRA:                  -0.479
REMARK UNBOUND:                -0.769
REMARK SMILES O=C([O-])CCCCCCCCC(=O)[O-]
REMARK SMILES IDX 7 1 6 2 5 3 4 4 2 5 1 6 3 7 8 8 9 9 10 10 11 11 12 12 13 13
REMARK SMILES IDX 14 14
REMARK H PARENT
REMARK Flexibility Score: inf
ROOT
ATOM      1  C   UNL     1      10.166 -25.138  21.911  1.00  0.00     0.000 C 
ENDROOT
BRANCH   1   2
ATOM      2  C   UNL     1       9.221 -24.880  23.092  1.00  0.00     0.000 C 
BRANCH   2   3
ATOM      3  C   UNL     1       9.849 -23.902  24.095  1.00  0.00     0.006 C 
BRANCH   3   4
ATOM      4  C   UNL     1       9.758 -24.414  25.539  1.00  0.00     0.053 C 
BRANCH   4   5
ATOM      5  C   UNL     1      10.687 -23.672  26.450  1.00  0.00     0.041 C 
ATOM      6  O   UNL     1      11.623 -24.280  27.034  1.00  0.00    -0.550 OA
ATOM      7  O   UNL     1      10.499 -22.316  26.679  1.00  0.00    -0.550 OA
ENDBRANCH   4   5
ENDBRANCH   3   4
ENDBRANCH   2   3
ENDBRANCH   1   2
BRANCH   1   8
ATOM      8  C   UNL     1      11.330 -24.136  21.907  1.00  0.00     0.000 C 
BRANCH   8   9
ATOM      9  C   UNL     1      12.272 -24.341  20.702  1.00  0.00     0.000 C 
BRANCH   9  10
ATOM     10  C   UNL     1      12.888 -23.035  20.171  1.00  0.00     0.006 C 
BRANCH  10  11
ATOM     11  C   UNL     1      14.418 -23.016  20.267  1.00  0.00     0.053 C 
BRANCH  11  12
ATOM     12  C   UNL     1      14.850 -22.958  21.698  1.00  0.00     0.041 C 
ATOM     13  O   UNL     1      15.710 -23.768  22.133  1.00  0.00    -0.550 OA
ATOM     14  O   UNL     1      14.269 -22.040  22.563  1.00  0.00    -0.550 OA
ENDBRANCH  11  12
ENDBRANCH  10  11
ENDBRANCH   9  10
ENDBRANCH   8   9
ENDBRANCH   1   8
TORSDOF 9
ENDMDL
MODEL 3
REMARK VINA RESULT:    -4.825      2.487      4.517
REMARK INTER + INTRA:          -8.133
REMARK INTER:                  -7.701
REMARK INTRA:                  -0.431
REMARK UNBOUND:                -0.769
REMARK SMILES O=C([O-])CCCCCCCCC(=O)[O-]
REMARK SMILES IDX 7 1 6 2 5 3 4 4 2 5 1 6 3 7 8 8 9 9 10 10 11 11 12 12 13 13
REMARK SMILES IDX 14 14
REMARK H PARENT
REMARK Flexibility Score: inf
ROOT
ATOM      1  C   UNL     1      10.168 -25.280  21.872  1.00  0.00     0.000 C 
ENDROOT
BRANCH   1   2
ATOM      2  C   UNL     1      11.298 -24.243  21.910  1.00  0.00     0.000 C 
BRANCH   2   3
ATOM      3  C   UNL     1      12.240 -24.413  20.708  1.00  0.00     0.006 C 
BRANCH   3   4
ATOM      4  C   UNL     1      12.801 -23.072  20.218  1.00  0.00     0.053 C 
BRANCH   4   5
ATOM      5  C   UNL     1      14.272 -22.959  20.477  1.00  0.00     0.041 C 
ATOM      6  O   UNL     1      15.100 -23.424  19.650  1.00  0.00    -0.550 OA
ATOM      7  O   UNL     1      14.728 -22.368  21.649  1.00  0.00    -0.550 OA
ENDBRANCH   4   5
ENDBRANCH   3   4
ENDBRANCH   2   3
ENDBRANCH   1   2
BRANCH   1   8
ATOM      8  C   UNL     1       8.998 -24.854  22.772  1.00  0.00     0.000 C 
BRANCH   8   9
ATOM      9  C   UNL     1       9.432 -23.838  23.850  1.00  0.00     0.000 C 
BRANCH   9  10
ATOM     10  C   UNL     1       9.738 -24.479  25.215  1.00  0.00     0.006 C 
BRANCH  10  11
ATOM     11  C   UNL     1      10.204 -23.461  26.261  1.00  0.00     0.053 C 
BRANCH  11  12
ATOM     12  C   UNL     1      11.686 -23.547  26.448  1.00  0.00     0.041 C 
ATOM     13  O   UNL     1      12.189 -23.403  27.593  1.00  0.00    -0.550 OA
ATOM     14  O   UNL     1      12.516 -23.739  25.351  1.00  0.00    -0.550 OA
ENDBRANCH  11  12
ENDBRANCH  10  11
ENDBRANCH   9  10
ENDBRANCH   8   9
ENDBRANCH   1   8
TORSDOF 9
ENDMDL
MODEL 4
REMARK VINA RESULT:    -4.812      2.773      4.221
REMARK INTER + INTRA:          -8.113
REMARK INTER:                  -7.630
REMARK INTRA:                  -0.483
REMARK UNBOUND:                -0.769
REMARK SMILES O=C([O-])CCCCCCCCC(=O)[O-]
REMARK SMILES IDX 7 1 6 2 5 3 4 4 2 5 1 6 3 7 8 8 9 9 10 10 11 11 12 12 13 13
REMARK SMILES IDX 14 14
REMARK H PARENT
REMARK Flexibility Score: inf
ROOT
ATOM      1  C   UNL     1      10.351 -24.943  21.910  1.00  0.00     0.000 C 
ENDROOT
BRANCH   1   2
ATOM      2  C   UNL     1      10.621 -24.120  23.176  1.00  0.00     0.000 C 
BRANCH   2   3
ATOM      3  C   UNL     1       9.365 -24.035  24.055  1.00  0.00     0.006 C 
BRANCH   3   4
ATOM      4  C   UNL     1       9.664 -23.443  25.439  1.00  0.00     0.053 C 
BRANCH   4   5
ATOM      5  C   UNL     1      10.186 -24.480  26.385  1.00  0.00     0.041 C 
ATOM      6  O   UNL     1      11.366 -24.407  26.820  1.00  0.00    -0.550 OA
ATOM      7  O   UNL     1       9.380 -25.547  26.761  1.00  0.00    -0.550 OA
ENDBRANCH   4   5
ENDBRANCH   3   4
ENDBRANCH   2   3
ENDBRANCH   1   2
BRANCH   1   8
ATOM      8  C   UNL     1      11.377 -24.621  20.813  1.00  0.00     0.000 C 
BRANCH   8   9
ATOM      9  C   UNL     1      12.253 -23.402  21.174  1.00  0.00     0.000 C 
BRANCH   9  10
ATOM     10  C   UNL     1      13.183 -22.952  20.035  1.00  0.00     0.006 C 
BRANCH  10  11
ATOM     11  C   UNL     1      14.668 -23.117  20.376  1.00  0.00     0.053 C 
BRANCH  11  12
ATOM     12  C   UNL     1      14.990 -24.557  20.623  1.00  0.00     0.041 C 
ATOM     13  O   UNL     1      14.859 -25.403  19.699  1.00  0.00    -0.550 OA
ATOM     14  O   UNL     1      15.388 -24.975  21.886  1.00  0.00    -0.550 OA
ENDBRANCH  11  12
ENDBRANCH  10  11
ENDBRANCH   9  10
ENDBRANCH   8   9
ENDBRANCH   1   8
TORSDOF 9
ENDMDL
MODEL 5
REMARK VINA RESULT:    -4.809      2.820      4.383
REMARK INTER + INTRA:          -8.108
REMARK INTER:                  -7.419
REMARK INTRA:                  -0.689
REMARK UNBOUND:                -0.769
REMARK SMILES O=C([O-])CCCCCCCCC(=O)[O-]
REMARK SMILES IDX 7 1 6 2 5 3 4 4 2 5 1 6 3 7 8 8 9 9 10 10 11 11 12 12 13 13
REMARK SMILES IDX 14 14
REMARK H PARENT
REMARK Flexibility Score: inf
ROOT
ATOM      1  C   UNL     1      12.575 -22.116  24.325  1.00  0.00     0.000 C 
ENDROOT
BRANCH   1   2
ATOM      2  C   UNL     1      12.543 -23.482  25.022  1.00  0.00     0.000 C 
BRANCH   2   3
ATOM      3  C   UNL     1      11.963 -23.363  26.439  1.00  0.00     0.006 C 
BRANCH   3   4
ATOM      4  C   UNL     1      10.434 -23.230  26.431  1.00  0.00     0.053 C 
BRANCH   4   5
ATOM      5  C   UNL     1       9.771 -24.488  25.961  1.00  0.00     0.041 C 
ATOM      6  O   UNL     1       9.662 -25.476  26.735  1.00  0.00    -0.550 OA
ATOM      7  O   UNL     1       9.302 -24.582  24.657  1.00  0.00    -0.550 OA
ENDBRANCH   4   5
ENDBRANCH   3   4
ENDBRANCH   2   3
ENDBRANCH   1   2
BRANCH   1   8
ATOM      8  C   UNL     1      12.188 -22.243  22.844  1.00  0.00     0.000 C 
BRANCH   8   9
ATOM      9  C   UNL     1      11.889 -23.703  22.442  1.00  0.00     0.000 C 
BRANCH   9  10
ATOM     10  C   UNL     1      12.463 -24.095  21.070  1.00  0.00     0.006 C 
BRANCH  10  11
ATOM     11  C   UNL     1      13.209 -22.944  20.385  1.00  0.00     0.053 C 
BRANCH  11  12
ATOM     12  C   UNL     1      14.681 -23.210  20.373  1.00  0.00     0.041 C 
ATOM     13  O   UNL     1      15.373 -22.990  21.401  1.00  0.00    -0.550 OA
ATOM     14  O   UNL     1      15.298 -23.656  19.211  1.00  0.00    -0.550 OA
ENDBRANCH  11  12
ENDBRANCH  10  11
ENDBRANCH   9  10
ENDBRANCH   8   9
ENDBRANCH   1   8
TORSDOF 9
ENDMDL
MODEL 6
REMARK VINA RESULT:    -4.777      1.274      4.475
REMARK INTER + INTRA:          -8.060
REMARK INTER:                  -7.471
REMARK INTRA:                  -0.589
REMARK UNBOUND:                -0.769
REMARK SMILES O=C([O-])CCCCCCCCC(=O)[O-]
REMARK SMILES IDX 7 1 6 2 5 3 4 4 2 5 1 6 3 7 8 8 9 9 10 10 11 11 12 12 13 13
REMARK SMILES IDX 14 14
REMARK H PARENT
REMARK Flexibility Score: inf
ROOT
ATOM      1  C   UNL     1      13.414 -23.258  20.277  1.00  0.00     0.000 C 
ENDROOT
BRANCH   1   2
ATOM      2  C   UNL     1      14.875 -22.991  20.661  1.00  0.00     0.000 C 
BRANCH   2   3
ATOM      3  C   UNL     1      15.274 -23.805  21.900  1.00  0.00     0.006 C 
BRANCH   3   4
ATOM      4  C   UNL     1      15.586 -22.908  23.107  1.00  0.00     0.053 C 
BRANCH   4   5
ATOM      5  C   UNL     1      14.343 -22.530  23.852  1.00  0.00     0.041 C 
ATOM      6  O   UNL     1      13.564 -23.422  24.281  1.00  0.00    -0.550 OA
ATOM      7  O   UNL     1      14.028 -21.191  24.044  1.00  0.00    -0.550 OA
ENDBRANCH   4   5
ENDBRANCH   3   4
ENDBRANCH   2   3
ENDBRANCH   1   2
BRANCH   1   8
ATOM      8  C   UNL     1      12.990 -24.680  20.674  1.00  0.00     0.000 C 
BRANCH   8   9
ATOM      9  C   UNL     1      11.455 -24.841  20.717  1.00  0.00     0.000 C 
BRANCH   9  10
ATOM     10  C   UNL     1      10.837 -24.502  22.084  1.00  0.00     0.006 C 
BRANCH  10  11
ATOM     11  C   UNL     1       9.413 -25.046  22.246  1.00  0.00     0.053 C 
BRANCH  11  12
ATOM     12  C   UNL     1       8.634 -24.193  23.197  1.00  0.00     0.041 C 
ATOM     13  O   UNL     1       9.113 -23.901  24.324  1.00  0.00    -0.550 OA
ATOM     14  O   UNL     1       7.358 -23.760  22.858  1.00  0.00    -0.550 OA
ENDBRANCH  11  12
ENDBRANCH  10  11
ENDBRANCH   9  10
ENDBRANCH   8   9
ENDBRANCH   1   8
TORSDOF 9
ENDMDL
MODEL 7
REMARK VINA RESULT:    -4.733      2.485      4.325
REMARK INTER + INTRA:          -7.993
REMARK INTER:                  -7.212
REMARK INTRA:                  -0.781
REMARK UNBOUND:                -0.769
REMARK SMILES O=C([O-])CCCCCCCCC(=O)[O-]
REMARK SMILES IDX 7 1 6 2 5 3 4 4 2 5 1 6 3 7 8 8 9 9 10 10 11 11 12 12 13 13
REMARK SMILES IDX 14 14
REMARK H PARENT
REMARK Flexibility Score: inf
ROOT
ATOM      1  C   UNL     1      13.208 -23.041  23.895  1.00  0.00     0.000 C 
ENDROOT
BRANCH   1   2
ATOM      2  C   UNL     1      14.250 -22.291  23.054  1.00  0.00     0.000 C 
BRANCH   2   3
ATOM      3  C   UNL     1      15.102 -23.272  22.234  1.00  0.00     0.006 C 
BRANCH   3   4
ATOM      4  C   UNL     1      14.920 -23.075  20.723  1.00  0.00     0.053 C 
BRANCH   4   5
ATOM      5  C   UNL     1      13.534 -23.430  20.281  1.00  0.00     0.041 C 
ATOM      6  O   UNL     1      12.793 -22.557  19.754  1.00  0.00    -0.550 OA
ATOM      7  O   UNL     1      13.047 -24.715  20.481  1.00  0.00    -0.550 OA
ENDBRANCH   4   5
ENDBRANCH   3   4
ENDBRANCH   2   3
ENDBRANCH   1   2
BRANCH   1   8
ATOM      8  C   UNL     1      11.781 -22.645  23.486  1.00  0.00     0.000 C 
BRANCH   8   9
ATOM      9  C   UNL     1      10.914 -23.872  23.133  1.00  0.00     0.000 C 
BRANCH   9  10
ATOM     10  C   UNL     1       9.623 -23.975  23.963  1.00  0.00     0.006 C 
BRANCH  10  11
ATOM     11  C   UNL     1       9.751 -23.327  25.346  1.00  0.00     0.053 C 
BRANCH  11  12
ATOM     12  C   UNL     1      10.185 -24.340  26.358  1.00  0.00     0.041 C 
ATOM     13  O   UNL     1      11.316 -24.246  26.903  1.00  0.00    -0.550 OA
ATOM     14  O   UNL     1       9.361 -25.416  26.664  1.00  0.00    -0.550 OA
ENDBRANCH  11  12
ENDBRANCH  10  11
ENDBRANCH   9  10
ENDBRANCH   8   9
ENDBRANCH   1   8
TORSDOF 9
ENDMDL
MODEL 8
REMARK VINA RESULT:    -4.707      1.862      3.832
REMARK INTER + INTRA:          -7.953
REMARK INTER:                  -7.136
REMARK INTRA:                  -0.817
REMARK UNBOUND:                -0.769
REMARK SMILES O=C([O-])CCCCCCCCC(=O)[O-]
REMARK SMILES IDX 7 1 6 2 5 3 4 4 2 5 1 6 3 7 8 8 9 9 10 10 11 11 12 12 13 13
REMARK SMILES IDX 14 14
REMARK H PARENT
REMARK Flexibility Score: inf
ROOT
ATOM      1  C   UNL     1      14.129 -22.355  24.392  1.00  0.00     0.000 C 
ENDROOT
BRANCH   1   2
ATOM      2  C   UNL     1      12.819 -23.100  24.681  1.00  0.00     0.000 C 
BRANCH   2   3
ATOM      3  C   UNL     1      11.612 -22.318  24.143  1.00  0.00     0.006 C 
BRANCH   3   4
ATOM      4  C   UNL     1      10.482 -22.213  25.176  1.00  0.00     0.053 C 
BRANCH   4   5
ATOM      5  C   UNL     1       9.973 -23.562  25.579  1.00  0.00     0.041 C 
ATOM      6  O   UNL     1      10.100 -23.960  26.768  1.00  0.00    -0.550 OA
ATOM      7  O   UNL     1       9.386 -24.395  24.636  1.00  0.00    -0.550 OA
ENDBRANCH   4   5
ENDBRANCH   3   4
ENDBRANCH   2   3
ENDBRANCH   1   2
BRANCH   1   8
ATOM      8  C   UNL     1      14.206 -21.926  22.919  1.00  0.00     0.000 C 
BRANCH   8   9
ATOM      9  C   UNL     1      14.812 -23.026  22.022  1.00  0.00     0.000 C 
BRANCH   9  10
ATOM     10  C   UNL     1      14.264 -23.022  20.585  1.00  0.00     0.006 C 
BRANCH  10  11
ATOM     11  C   UNL     1      12.733 -23.084  20.530  1.00  0.00     0.053 C 
BRANCH  11  12
ATOM     12  C   UNL     1      12.256 -24.470  20.828  1.00  0.00     0.041 C 
ATOM     13  O   UNL     1      12.893 -25.466  20.395  1.00  0.00    -0.550 OA
ATOM     14  O   UNL     1      11.081 -24.663  21.543  1.00  0.00    -0.550 OA
ENDBRANCH  11  12
ENDBRANCH  10  11
ENDBRANCH   9  10
ENDBRANCH   8   9
ENDBRANCH   1   8
TORSDOF 9
ENDMDL
MODEL 9
REMARK VINA RESULT:    -4.694      1.869      3.286
REMARK INTER + INTRA:          -7.932
REMARK INTER:                  -7.139
REMARK INTRA:                  -0.794
REMARK UNBOUND:                -0.769
REMARK SMILES O=C([O-])CCCCCCCCC(=O)[O-]
REMARK SMILES IDX 7 1 6 2 5 3 4 4 2 5 1 6 3 7 8 8 9 9 10 10 11 11 12 12 13 13
REMARK SMILES IDX 14 14
REMARK H PARENT
REMARK Flexibility Score: inf
ROOT
ATOM      1  C   UNL     1      14.221 -22.124  22.656  1.00  0.00     0.000 C 
ENDROOT
BRANCH   1   2
ATOM      2  C   UNL     1      14.943 -23.119  21.739  1.00  0.00     0.000 C 
BRANCH   2   3
ATOM      3  C   UNL     1      14.315 -23.130  20.337  1.00  0.00     0.006 C 
BRANCH   3   4
ATOM      4  C   UNL     1      12.782 -23.168  20.390  1.00  0.00     0.053 C 
BRANCH   4   5
ATOM      5  C   UNL     1      12.274 -24.526  20.766  1.00  0.00     0.041 C 
ATOM      6  O   UNL     1      12.872 -25.560  20.368  1.00  0.00    -0.550 OA
ATOM      7  O   UNL     1      11.120 -24.649  21.530  1.00  0.00    -0.550 OA
ENDBRANCH   4   5
ENDBRANCH   3   4
ENDBRANCH   2   3
ENDBRANCH   1   2
BRANCH   1   8
ATOM      8  C   UNL     1      14.143 -22.657  24.095  1.00  0.00     0.000 C 
BRANCH   8   9
ATOM      9  C   UNL     1      12.742 -23.207  24.437  1.00  0.00     0.000 C 
BRANCH   9  10
ATOM     10  C   UNL     1      11.600 -22.223  24.128  1.00  0.00     0.006 C 
BRANCH  10  11
ATOM     11  C   UNL     1      10.543 -22.169  25.236  1.00  0.00     0.053 C 
BRANCH  11  12
ATOM     12  C   UNL     1       9.901 -23.509  25.411  1.00  0.00     0.041 C 
ATOM     13  O   UNL     1       9.298 -24.052  24.449  1.00  0.00    -0.550 OA
ATOM     14  O   UNL     1       9.927 -24.137  26.650  1.00  0.00    -0.550 OA
ENDBRANCH  11  12
ENDBRANCH  10  11
ENDBRANCH   9  10
ENDBRANCH   8   9
ENDBRANCH   1   8
TORSDOF 9
ENDMDL
