MODEL 1
REMARK VINA RESULT:    -4.537      0.000      0.000
REMARK INTER + INTRA:          -5.153
REMARK INTER:                  -5.068
REMARK INTRA:                  -0.085
REMARK UNBOUND:                -0.085
REMARK SMILES CCc1ccc(O)cc1O
REMARK SMILES IDX 3 1 9 2 8 3 6 4 5 5 4 6 2 7 1 8 10 9 7 11
REMARK H PARENT 10 10 7 12
REMARK Flexibility Score: inf
ROOT
ATOM      1  C   UNL     1     -22.787  25.781   8.990  1.00  0.00    -0.006 A 
ATOM      2  C   UNL     1     -21.998  24.621   9.125  1.00  0.00     0.122 A 
ATOM      3  C   UNL     1     -21.749  24.090  10.398  1.00  0.00     0.092 A 
ATOM      4  C   UNL     1     -22.271  24.710  11.538  1.00  0.00     0.119 A 
ATOM      5  C   UNL     1     -23.043  25.869  11.407  1.00  0.00     0.047 A 
ATOM      6  C   UNL     1     -23.295  26.406  10.142  1.00  0.00     0.011 A 
ENDROOT
BRANCH   1   7
ATOM      7  C   UNL     1     -23.044  26.392   7.635  1.00  0.00     0.036 C 
ATOM      8  C   UNL     1     -24.125  27.465   7.723  1.00  0.00     0.009 C 
ENDBRANCH   1   7
BRANCH   2   9
ATOM      9  O   UNL     1     -21.462  24.003   7.995  1.00  0.00    -0.508 OA
ATOM     10  H   UNL     1     -20.568  23.525   8.025  1.00  0.00     0.293 HD
ENDBRANCH   2   9
BRANCH   4  11
ATOM     11  O   UNL     1     -22.014  24.165  12.795  1.00  0.00    -0.508 OA
ATOM     12  H   UNL     1     -22.714  23.626  13.291  1.00  0.00     0.293 HD
ENDBRANCH   4  11
TORSDOF 3
ENDMDL
MODEL 2
REMARK VINA RESULT:    -3.818      1.702      3.702
REMARK INTER + INTRA:          -4.349
REMARK INTER:                  -4.263
REMARK INTRA:                  -0.086
REMARK UNBOUND:                -0.085
REMARK SMILES CCc1ccc(O)cc1O
REMARK SMILES IDX 3 1 9 2 8 3 6 4 5 5 4 6 2 7 1 8 10 9 7 11
REMARK H PARENT 10 10 7 12
REMARK Flexibility Score: inf
ROOT
ATOM      1  C   UNL     1     -22.253  25.078   9.916  1.00  0.00    -0.006 A 
ATOM      2  C   UNL     1     -22.092  24.933   8.524  1.00  0.00     0.122 A 
ATOM      3  C   UNL     1     -22.718  25.834   7.651  1.00  0.00     0.092 A 
ATOM      4  C   UNL     1     -23.510  26.871   8.152  1.00  0.00     0.119 A 
ATOM      5  C   UNL     1     -23.683  27.008   9.535  1.00  0.00     0.047 A 
ATOM      6  C   UNL     1     -23.063  26.115  10.412  1.00  0.00     0.011 A 
ENDROOT
BRANCH   1   7
ATOM      7  C   UNL     1     -21.617  24.105  10.877  1.00  0.00     0.036 C 
ATOM      8  C   UNL     1     -22.293  24.173  12.242  1.00  0.00     0.009 C 
ENDBRANCH   1   7
BRANCH   2   9
ATOM      9  O   UNL     1     -21.314  23.894   8.013  1.00  0.00    -0.508 OA
ATOM     10  H   UNL     1     -20.888  23.952   7.095  1.00  0.00     0.293 HD
ENDBRANCH   2   9
BRANCH   4  11
ATOM     11  O   UNL     1     -24.123  27.758   7.269  1.00  0.00    -0.508 OA
ATOM     12  H   UNL     1     -23.853  27.803   6.293  1.00  0.00     0.293 HD
ENDBRANCH   4  11
TORSDOF 3
ENDMDL
MODEL 3
REMARK VINA RESULT:    -3.432     19.010     20.347
REMARK INTER + INTRA:          -3.919
REMARK INTER:                  -3.824
REMARK INTRA:                  -0.094
REMARK UNBOUND:                -0.085
REMARK SMILES CCc1ccc(O)cc1O
REMARK SMILES IDX 3 1 9 2 8 3 6 4 5 5 4 6 2 7 1 8 10 9 7 11
REMARK H PARENT 10 10 7 12
REMARK Flexibility Score: inf
ROOT
ATOM      1  C   UNL     1     -19.311  41.436  22.443  1.00  0.00    -0.006 A 
ATOM      2  C   UNL     1     -19.271  41.699  21.058  1.00  0.00     0.122 A 
ATOM      3  C   UNL     1     -20.368  41.363  20.252  1.00  0.00     0.092 A 
ATOM      4  C   UNL     1     -21.499  40.760  20.810  1.00  0.00     0.119 A 
ATOM      5  C   UNL     1     -21.535  40.486  22.182  1.00  0.00     0.047 A 
ATOM      6  C   UNL     1     -20.447  40.817  22.993  1.00  0.00     0.011 A 
ENDROOT
BRANCH   1   7
ATOM      7  C   UNL     1     -18.134  41.758  23.328  1.00  0.00     0.036 C 
ATOM      8  C   UNL     1     -17.705  40.530  24.125  1.00  0.00     0.009 C 
ENDBRANCH   1   7
BRANCH   2   9
ATOM      9  O   UNL     1     -18.143  42.288  20.489  1.00  0.00    -0.508 OA
ATOM     10  H   UNL     1     -17.418  42.708  21.060  1.00  0.00     0.293 HD
ENDBRANCH   2   9
BRANCH   4  11
ATOM     11  O   UNL     1     -22.580  40.435  19.992  1.00  0.00    -0.508 OA
ATOM     12  H   UNL     1     -23.496  40.240  20.379  1.00  0.00     0.293 HD
ENDBRANCH   4  11
TORSDOF 3
ENDMDL
MODEL 4
REMARK VINA RESULT:    -3.372     18.823     19.831
REMARK INTER + INTRA:          -3.852
REMARK INTER:                  -3.765
REMARK INTRA:                  -0.087
REMARK UNBOUND:                -0.085
REMARK SMILES CCc1ccc(O)cc1O
REMARK SMILES IDX 3 1 9 2 8 3 6 4 5 5 4 6 2 7 1 8 10 9 7 11
REMARK H PARENT 10 10 7 12
REMARK Flexibility Score: inf
ROOT
ATOM      1  C   UNL     1     -21.312  40.342  22.083  1.00  0.00    -0.006 A 
ATOM      2  C   UNL     1     -21.511  40.661  20.724  1.00  0.00     0.122 A 
ATOM      3  C   UNL     1     -20.597  41.493  20.062  1.00  0.00     0.092 A 
ATOM      4  C   UNL     1     -19.494  42.017  20.742  1.00  0.00     0.119 A 
ATOM      5  C   UNL     1     -19.303  41.712  22.095  1.00  0.00     0.047 A 
ATOM      6  C   UNL     1     -20.208  40.884  22.763  1.00  0.00     0.011 A 
ENDROOT
BRANCH   1   7
ATOM      7  C   UNL     1     -22.295  39.475  22.829  1.00  0.00     0.036 C 
ATOM      8  C   UNL     1     -21.567  38.493  23.741  1.00  0.00     0.009 C 
ENDBRANCH   1   7
BRANCH   2   9
ATOM      9  O   UNL     1     -22.616  40.155  20.040  1.00  0.00    -0.508 OA
ATOM     10  H   UNL     1     -22.517  39.443  19.325  1.00  0.00     0.293 HD
ENDBRANCH   2   9
BRANCH   4  11
ATOM     11  O   UNL     1     -18.597  42.841  20.066  1.00  0.00    -0.508 OA
ATOM     12  H   UNL     1     -17.643  42.548  19.884  1.00  0.00     0.293 HD
ENDBRANCH   4  11
TORSDOF 3
ENDMDL
MODEL 5
REMARK VINA RESULT:    -3.365     10.798     12.891
REMARK INTER + INTRA:          -3.843
REMARK INTER:                  -3.752
REMARK INTRA:                  -0.092
REMARK UNBOUND:                -0.085
REMARK SMILES CCc1ccc(O)cc1O
REMARK SMILES IDX 3 1 9 2 8 3 6 4 5 5 4 6 2 7 1 8 10 9 7 11
REMARK H PARENT 10 10 7 12
REMARK Flexibility Score: inf
ROOT
ATOM      1  C   UNL     1     -20.381  30.326  21.604  1.00  0.00    -0.006 A 
ATOM      2  C   UNL     1     -21.790  30.294  21.582  1.00  0.00     0.122 A 
ATOM      3  C   UNL     1     -22.456  29.569  20.584  1.00  0.00     0.092 A 
ATOM      4  C   UNL     1     -21.732  28.885  19.602  1.00  0.00     0.119 A 
ATOM      5  C   UNL     1     -20.333  28.928  19.615  1.00  0.00     0.047 A 
ATOM      6  C   UNL     1     -19.661  29.647  20.606  1.00  0.00     0.011 A 
ENDROOT
BRANCH   1   7
ATOM      7  C   UNL     1     -19.638  31.123  22.647  1.00  0.00     0.036 C 
ATOM      8  C   UNL     1     -18.646  30.240  23.397  1.00  0.00     0.009 C 
ENDBRANCH   1   7
BRANCH   2   9
ATOM      9  O   UNL     1     -22.521  30.983  22.548  1.00  0.00    -0.508 OA
ATOM     10  H   UNL     1     -23.096  30.497  23.227  1.00  0.00     0.293 HD
ENDBRANCH   2   9
BRANCH   4  11
ATOM     11  O   UNL     1     -22.412  28.169  18.619  1.00  0.00    -0.508 OA
ATOM     12  H   UNL     1     -22.895  27.304  18.834  1.00  0.00     0.293 HD
ENDBRANCH   4  11
TORSDOF 3
ENDMDL
MODEL 6
REMARK VINA RESULT:    -3.301      3.198      5.006
REMARK INTER + INTRA:          -3.772
REMARK INTER:                  -3.668
REMARK INTRA:                  -0.104
REMARK UNBOUND:                -0.085
REMARK SMILES CCc1ccc(O)cc1O
REMARK SMILES IDX 3 1 9 2 8 3 6 4 5 5 4 6 2 7 1 8 10 9 7 11
REMARK H PARENT 10 10 7 12
REMARK Flexibility Score: inf
ROOT
ATOM      1  C   UNL     1     -21.387  23.689  12.964  1.00  0.00    -0.006 A 
ATOM      2  C   UNL     1     -22.181  23.337  14.074  1.00  0.00     0.122 A 
ATOM      3  C   UNL     1     -21.642  23.400  15.366  1.00  0.00     0.092 A 
ATOM      4  C   UNL     1     -20.316  23.799  15.561  1.00  0.00     0.119 A 
ATOM      5  C   UNL     1     -19.522  24.135  14.459  1.00  0.00     0.047 A 
ATOM      6  C   UNL     1     -20.051  24.076  13.168  1.00  0.00     0.011 A 
ENDROOT
BRANCH   1   7
ATOM      7  C   UNL     1     -21.932  23.601  11.560  1.00  0.00     0.036 C 
ATOM      8  C   UNL     1     -22.489  24.948  11.111  1.00  0.00     0.009 C 
ENDBRANCH   1   7
BRANCH   2   9
ATOM      9  O   UNL     1     -23.501  22.925  13.889  1.00  0.00    -0.508 OA
ATOM     10  H   UNL     1     -24.064  23.276  13.123  1.00  0.00     0.293 HD
ENDBRANCH   2   9
BRANCH   4  11
ATOM     11  O   UNL     1     -19.798  23.856  16.854  1.00  0.00    -0.508 OA
ATOM     12  H   UNL     1     -19.126  23.174  17.186  1.00  0.00     0.293 HD
ENDBRANCH   4  11
TORSDOF 3
ENDMDL
MODEL 7
REMARK VINA RESULT:    -3.293      4.201      6.955
REMARK INTER + INTRA:          -3.763
REMARK INTER:                  -3.677
REMARK INTRA:                  -0.086
REMARK UNBOUND:                -0.085
REMARK SMILES CCc1ccc(O)cc1O
REMARK SMILES IDX 3 1 9 2 8 3 6 4 5 5 4 6 2 7 1 8 10 9 7 11
REMARK H PARENT 10 10 7 12
REMARK Flexibility Score: inf
ROOT
ATOM      1  C   UNL     1     -20.673  23.267  15.620  1.00  0.00    -0.006 A 
ATOM      2  C   UNL     1     -21.983  23.256  15.101  1.00  0.00     0.122 A 
ATOM      3  C   UNL     1     -22.208  23.616  13.765  1.00  0.00     0.092 A 
ATOM      4  C   UNL     1     -21.141  23.997  12.945  1.00  0.00     0.119 A 
ATOM      5  C   UNL     1     -19.841  24.021  13.462  1.00  0.00     0.047 A 
ATOM      6  C   UNL     1     -19.608  23.664  14.792  1.00  0.00     0.011 A 
ENDROOT
BRANCH   1   7
ATOM      7  C   UNL     1     -20.405  22.915  17.062  1.00  0.00     0.036 C 
ATOM      8  C   UNL     1     -18.959  23.222  17.434  1.00  0.00     0.009 C 
ENDBRANCH   1   7
BRANCH   2   9
ATOM      9  O   UNL     1     -23.056  22.892  15.914  1.00  0.00    -0.508 OA
ATOM     10  H   UNL     1     -23.023  22.062  16.496  1.00  0.00     0.293 HD
ENDBRANCH   2   9
BRANCH   4  11
ATOM     11  O   UNL     1     -21.385  24.350  11.619  1.00  0.00    -0.508 OA
ATOM     12  H   UNL     1     -22.300  24.230  11.199  1.00  0.00     0.293 HD
ENDBRANCH   4  11
TORSDOF 3
ENDMDL
MODEL 8
REMARK VINA RESULT:    -3.242     10.698     12.658
REMARK INTER + INTRA:          -3.707
REMARK INTER:                  -3.621
REMARK INTRA:                  -0.086
REMARK UNBOUND:                -0.085
REMARK SMILES CCc1ccc(O)cc1O
REMARK SMILES IDX 3 1 9 2 8 3 6 4 5 5 4 6 2 7 1 8 10 9 7 11
REMARK H PARENT 10 10 7 12
REMARK Flexibility Score: inf
ROOT
ATOM      1  C   UNL     1     -18.722  28.206  21.768  1.00  0.00    -0.006 A 
ATOM      2  C   UNL     1     -19.325  27.074  21.183  1.00  0.00     0.122 A 
ATOM      3  C   UNL     1     -20.286  27.238  20.176  1.00  0.00     0.092 A 
ATOM      4  C   UNL     1     -20.659  28.517  19.754  1.00  0.00     0.119 A 
ATOM      5  C   UNL     1     -20.072  29.642  20.343  1.00  0.00     0.047 A 
ATOM      6  C   UNL     1     -19.113  29.489  21.348  1.00  0.00     0.011 A 
ENDROOT
BRANCH   1   7
ATOM      7  C   UNL     1     -17.707  28.061  22.875  1.00  0.00     0.036 C 
ATOM      8  C   UNL     1     -17.260  29.428  23.381  1.00  0.00     0.009 C 
ENDBRANCH   1   7
BRANCH   2   9
ATOM      9  O   UNL     1     -18.970  25.794  21.606  1.00  0.00    -0.508 OA
ATOM     10  H   UNL     1     -19.669  25.110  21.873  1.00  0.00     0.293 HD
ENDBRANCH   2   9
BRANCH   4  11
ATOM     11  O   UNL     1     -21.616  28.659  18.751  1.00  0.00    -0.508 OA
ATOM     12  H   UNL     1     -22.191  27.879  18.453  1.00  0.00     0.293 HD
ENDBRANCH   4  11
TORSDOF 3
ENDMDL
MODEL 9
REMARK VINA RESULT:    -3.142      2.121      2.747
REMARK INTER + INTRA:          -3.595
REMARK INTER:                  -3.553
REMARK INTRA:                  -0.042
REMARK UNBOUND:                -0.085
REMARK SMILES CCc1ccc(O)cc1O
REMARK SMILES IDX 3 1 9 2 8 3 6 4 5 5 4 6 2 7 1 8 10 9 7 11
REMARK H PARENT 10 10 7 12
REMARK Flexibility Score: inf
ROOT
ATOM      1  C   UNL     1     -23.339  24.336  11.076  1.00  0.00    -0.006 A 
ATOM      2  C   UNL     1     -21.940  24.431  11.224  1.00  0.00     0.122 A 
ATOM      3  C   UNL     1     -21.341  24.070  12.439  1.00  0.00     0.092 A 
ATOM      4  C   UNL     1     -22.123  23.626  13.510  1.00  0.00     0.119 A 
ATOM      5  C   UNL     1     -23.513  23.544  13.369  1.00  0.00     0.047 A 
ATOM      6  C   UNL     1     -24.118  23.901  12.162  1.00  0.00     0.011 A 
ENDROOT
BRANCH   1   7
ATOM      7  C   UNL     1     -24.013  24.747   9.791  1.00  0.00     0.036 C 
ATOM      8  C   UNL     1     -23.916  23.637   8.750  1.00  0.00     0.009 C 
ENDBRANCH   1   7
BRANCH   2   9
ATOM      9  O   UNL     1     -21.153  24.887  10.167  1.00  0.00    -0.508 OA
ATOM     10  H   UNL     1     -20.954  25.873  10.039  1.00  0.00     0.293 HD
ENDBRANCH   2   9
BRANCH   4  11
ATOM     11  O   UNL     1     -21.508  23.270  14.709  1.00  0.00    -0.508 OA
ATOM     12  H   UNL     1     -21.461  22.304  15.014  1.00  0.00     0.293 HD
ENDBRANCH   4  11
TORSDOF 3
ENDMDL
