MODEL 1
REMARK VINA RESULT:    -3.458      0.000      0.000
REMARK INTER + INTRA:          -5.197
REMARK INTER:                  -4.671
REMARK INTRA:                  -0.527
REMARK UNBOUND:                -0.527
REMARK SMILES C[C@H](O)[C@H](O)[C@@H](O)[C@H](O)C=O
REMARK SMILES IDX 4 1 2 2 1 3 3 4 6 6 8 7 10 8 11 9 9 10 7 12 5 14
REMARK H PARENT 3 5 9 11 7 13 5 15
REMARK Flexibility Score: inf
ROOT
ATOM      1  C   UNL     1      57.860  27.070  50.564  1.00  0.00     0.174 C 
ENDROOT
BRANCH   1   2
ATOM      2  C   UNL     1      56.804  25.957  50.315  1.00  0.00     0.142 C 
ATOM      3  C   UNL     1      55.436  26.547  49.950  1.00  0.00     0.041 C 
BRANCH   2   4
ATOM      4  O   UNL     1      56.678  25.117  51.435  1.00  0.00    -0.391 OA
ATOM      5  H   UNL     1      57.465  25.276  52.020  1.00  0.00     0.211 HD
ENDBRANCH   2   4
ENDBRANCH   1   2
BRANCH   1   6
ATOM      6  C   UNL     1      59.267  26.683  50.016  1.00  0.00     0.181 C 
BRANCH   6   7
ATOM      7  C   UNL     1      60.138  27.906  49.648  1.00  0.00     0.209 C 
BRANCH   7   8
ATOM      8  C   UNL     1      61.596  27.546  49.507  1.00  0.00     0.258 C 
ATOM      9  O   UNL     1      61.959  26.380  49.506  1.00  0.00    -0.300 OA
ENDBRANCH   7   8
BRANCH   7  10
ATOM     10  O   UNL     1      59.652  28.503  48.473  1.00  0.00    -0.383 OA
ATOM     11  H   UNL     1      59.319  27.768  47.892  1.00  0.00     0.211 HD
ENDBRANCH   7  10
ENDBRANCH   6   7
BRANCH   6  12
ATOM     12  O   UNL     1      59.151  25.838  48.899  1.00  0.00    -0.387 OA
ATOM     13  H   UNL     1      60.007  25.889  48.400  1.00  0.00     0.211 HD
ENDBRANCH   6  12
ENDBRANCH   1   6
BRANCH   1  14
ATOM     14  O   UNL     1      57.425  28.295  50.024  1.00  0.00    -0.388 OA
ATOM     15  H   UNL     1      58.214  28.749  49.628  1.00  0.00     0.211 HD
ENDBRANCH   1  14
TORSDOF 8
ENDMDL
MODEL 2
REMARK VINA RESULT:    -3.415      2.081      3.182
REMARK INTER + INTRA:          -5.140
REMARK INTER:                  -4.395
REMARK INTRA:                  -0.745
REMARK UNBOUND:                -0.527
REMARK SMILES C[C@H](O)[C@H](O)[C@@H](O)[C@H](O)C=O
REMARK SMILES IDX 4 1 2 2 1 3 3 4 6 6 8 7 10 8 11 9 9 10 7 12 5 14
REMARK H PARENT 3 5 9 11 7 13 5 15
REMARK Flexibility Score: inf
ROOT
ATOM      1  C   UNL     1      59.639  28.330  49.725  1.00  0.00     0.174 C 
ENDROOT
BRANCH   1   2
ATOM      2  C   UNL     1      59.078  26.896  49.940  1.00  0.00     0.142 C 
ATOM      3  C   UNL     1      59.520  26.311  51.287  1.00  0.00     0.041 C 
BRANCH   2   4
ATOM      4  O   UNL     1      59.467  26.038  48.896  1.00  0.00    -0.391 OA
ATOM      5  H   UNL     1      58.642  25.742  48.428  1.00  0.00     0.211 HD
ENDBRANCH   2   4
ENDBRANCH   1   2
BRANCH   1   6
ATOM      6  C   UNL     1      61.177  28.404  49.961  1.00  0.00     0.181 C 
BRANCH   6   7
ATOM      7  C   UNL     1      61.677  29.826  50.301  1.00  0.00     0.209 C 
BRANCH   7   8
ATOM      8  C   UNL     1      63.160  29.981  50.071  1.00  0.00     0.258 C 
ATOM      9  O   UNL     1      63.597  30.292  48.974  1.00  0.00    -0.300 OA
ENDBRANCH   7   8
BRANCH   7  10
ATOM     10  O   UNL     1      60.953  30.777  49.563  1.00  0.00    -0.383 OA
ATOM     11  H   UNL     1      60.923  30.452  48.624  1.00  0.00     0.211 HD
ENDBRANCH   7  10
ENDBRANCH   6   7
BRANCH   6  12
ATOM     12  O   UNL     1      61.876  27.918  48.842  1.00  0.00    -0.387 OA
ATOM     13  H   UNL     1      62.465  28.650  48.521  1.00  0.00     0.211 HD
ENDBRANCH   6  12
ENDBRANCH   1   6
BRANCH   1  14
ATOM     14  O   UNL     1      59.299  28.808  48.446  1.00  0.00    -0.388 OA
ATOM     15  H   UNL     1      58.576  29.479  48.555  1.00  0.00     0.211 HD
ENDBRANCH   1  14
TORSDOF 8
ENDMDL
MODEL 3
REMARK VINA RESULT:    -3.396     15.328     17.357
REMARK INTER + INTRA:          -5.114
REMARK INTER:                  -4.618
REMARK INTRA:                  -0.496
REMARK UNBOUND:                -0.527
REMARK SMILES C[C@H](O)[C@H](O)[C@@H](O)[C@H](O)C=O
REMARK SMILES IDX 4 1 2 2 1 3 3 4 6 6 8 7 10 8 11 9 9 10 7 12 5 14
REMARK H PARENT 3 5 9 11 7 13 5 15
REMARK Flexibility Score: inf
ROOT
ATOM      1  C   UNL     1      72.482  31.293  61.049  1.00  0.00     0.174 C 
ENDROOT
BRANCH   1   2
ATOM      2  C   UNL     1      71.859  29.887  61.277  1.00  0.00     0.142 C 
ATOM      3  C   UNL     1      72.042  28.982  60.052  1.00  0.00     0.041 C 
BRANCH   2   4
ATOM      4  O   UNL     1      70.494  29.984  61.599  1.00  0.00    -0.391 OA
ATOM      5  H   UNL     1      70.378  29.637  62.522  1.00  0.00     0.211 HD
ENDBRANCH   2   4
ENDBRANCH   1   2
BRANCH   1   6
ATOM      6  C   UNL     1      71.432  32.331  60.550  1.00  0.00     0.181 C 
BRANCH   6   7
ATOM      7  C   UNL     1      71.343  32.421  59.010  1.00  0.00     0.209 C 
BRANCH   7   8
ATOM      8  C   UNL     1      70.034  31.891  58.481  1.00  0.00     0.258 C 
ATOM      9  O   UNL     1      69.430  31.007  59.069  1.00  0.00    -0.300 OA
ENDBRANCH   7   8
BRANCH   7  10
ATOM     10  O   UNL     1      71.552  33.747  58.596  1.00  0.00    -0.383 OA
ATOM     11  H   UNL     1      72.229  34.138  59.210  1.00  0.00     0.211 HD
ENDBRANCH   7  10
ENDBRANCH   6   7
BRANCH   6  12
ATOM     12  O   UNL     1      71.702  33.606  61.078  1.00  0.00    -0.387 OA
ATOM     13  H   UNL     1      72.678  33.763  60.984  1.00  0.00     0.211 HD
ENDBRANCH   6  12
ENDBRANCH   1   6
BRANCH   1  14
ATOM     14  O   UNL     1      73.125  31.745  62.216  1.00  0.00    -0.388 OA
ATOM     15  H   UNL     1      72.442  31.811  62.933  1.00  0.00     0.211 HD
ENDBRANCH   1  14
TORSDOF 8
ENDMDL
MODEL 4
REMARK VINA RESULT:    -3.375     12.603     13.426
REMARK INTER + INTRA:          -5.085
REMARK INTER:                  -4.399
REMARK INTRA:                  -0.686
REMARK UNBOUND:                -0.527
REMARK SMILES C[C@H](O)[C@H](O)[C@@H](O)[C@H](O)C=O
REMARK SMILES IDX 4 1 2 2 1 3 3 4 6 6 8 7 10 8 11 9 9 10 7 12 5 14
REMARK H PARENT 3 5 9 11 7 13 5 15
REMARK Flexibility Score: inf
ROOT
ATOM      1  C   UNL     1      62.812  31.901  60.570  1.00  0.00     0.174 C 
ENDROOT
BRANCH   1   2
ATOM      2  C   UNL     1      63.746  33.087  60.942  1.00  0.00     0.142 C 
ATOM      3  C   UNL     1      63.009  34.431  60.871  1.00  0.00     0.041 C 
BRANCH   2   4
ATOM      4  O   UNL     1      64.880  33.120  60.112  1.00  0.00    -0.391 OA
ATOM      5  H   UNL     1      65.663  32.857  60.663  1.00  0.00     0.211 HD
ENDBRANCH   2   4
ENDBRANCH   1   2
BRANCH   1   6
ATOM      6  C   UNL     1      63.399  30.527  61.010  1.00  0.00     0.181 C 
BRANCH   6   7
ATOM      7  C   UNL     1      62.321  29.517  61.465  1.00  0.00     0.209 C 
BRANCH   7   8
ATOM      8  C   UNL     1      62.843  28.103  61.504  1.00  0.00     0.258 C 
ATOM      9  O   UNL     1      64.021  27.861  61.291  1.00  0.00    -0.300 OA
ENDBRANCH   7   8
BRANCH   7  10
ATOM     10  O   UNL     1      61.807  29.897  62.715  1.00  0.00    -0.383 OA
ATOM     11  H   UNL     1      61.945  30.878  62.798  1.00  0.00     0.211 HD
ENDBRANCH   7  10
ENDBRANCH   6   7
BRANCH   6  12
ATOM     12  O   UNL     1      64.345  30.695  62.037  1.00  0.00    -0.387 OA
ATOM     13  H   UNL     1      64.754  29.807  62.211  1.00  0.00     0.211 HD
ENDBRANCH   6  12
ENDBRANCH   1   6
BRANCH   1  14
ATOM     14  O   UNL     1      61.526  32.097  61.106  1.00  0.00    -0.388 OA
ATOM     15  H   UNL     1      61.625  32.588  61.963  1.00  0.00     0.211 HD
ENDBRANCH   1  14
TORSDOF 8
ENDMDL
MODEL 5
REMARK VINA RESULT:    -3.359      1.503      2.444
REMARK INTER + INTRA:          -5.063
REMARK INTER:                  -4.083
REMARK INTRA:                  -0.980
REMARK UNBOUND:                -0.527
REMARK SMILES C[C@H](O)[C@H](O)[C@@H](O)[C@H](O)C=O
REMARK SMILES IDX 4 1 2 2 1 3 3 4 6 6 8 7 10 8 11 9 9 10 7 12 5 14
REMARK H PARENT 3 5 9 11 7 13 5 15
REMARK Flexibility Score: inf
ROOT
ATOM      1  C   UNL     1      56.859  26.114  50.128  1.00  0.00     0.174 C 
ENDROOT
BRANCH   1   2
ATOM      2  C   UNL     1      55.373  26.539  50.291  1.00  0.00     0.142 C 
ATOM      3  C   UNL     1      54.467  25.828  49.276  1.00  0.00     0.041 C 
BRANCH   2   4
ATOM      4  O   UNL     1      55.227  27.931  50.167  1.00  0.00    -0.391 OA
ATOM      5  H   UNL     1      55.520  28.341  51.023  1.00  0.00     0.211 HD
ENDBRANCH   2   4
ENDBRANCH   1   2
BRANCH   1   6
ATOM      6  C   UNL     1      57.832  27.329  50.197  1.00  0.00     0.181 C 
BRANCH   6   7
ATOM      7  C   UNL     1      59.263  26.997  49.716  1.00  0.00     0.209 C 
BRANCH   7   8
ATOM      8  C   UNL     1      60.230  26.845  50.863  1.00  0.00     0.258 C 
ATOM      9  O   UNL     1      60.104  25.944  51.677  1.00  0.00    -0.300 OA
ENDBRANCH   7   8
BRANCH   7  10
ATOM     10  O   UNL     1      59.243  25.839  48.920  1.00  0.00    -0.383 OA
ATOM     11  H   UNL     1      58.571  25.225  49.320  1.00  0.00     0.211 HD
ENDBRANCH   7  10
ENDBRANCH   6   7
BRANCH   6  12
ATOM     12  O   UNL     1      57.887  27.850  51.502  1.00  0.00    -0.387 OA
ATOM     13  H   UNL     1      57.671  27.108  52.125  1.00  0.00     0.211 HD
ENDBRANCH   6  12
ENDBRANCH   1   6
BRANCH   1  14
ATOM     14  O   UNL     1      57.201  25.137  51.082  1.00  0.00    -0.388 OA
ATOM     15  H   UNL     1      57.653  24.393  50.606  1.00  0.00     0.211 HD
ENDBRANCH   1  14
TORSDOF 8
ENDMDL
MODEL 6
REMARK VINA RESULT:    -3.332      1.735      4.697
REMARK INTER + INTRA:          -5.027
REMARK INTER:                  -4.288
REMARK INTRA:                  -0.739
REMARK UNBOUND:                -0.527
REMARK SMILES C[C@H](O)[C@H](O)[C@@H](O)[C@H](O)C=O
REMARK SMILES IDX 4 1 2 2 1 3 3 4 6 6 8 7 10 8 11 9 9 10 7 12 5 14
REMARK H PARENT 3 5 9 11 7 13 5 15
REMARK Flexibility Score: inf
ROOT
ATOM      1  C   UNL     1      61.138  28.458  50.104  1.00  0.00     0.174 C 
ENDROOT
BRANCH   1   2
ATOM      2  C   UNL     1      61.571  29.901  50.488  1.00  0.00     0.142 C 
ATOM      3  C   UNL     1      61.023  30.309  51.862  1.00  0.00     0.041 C 
BRANCH   2   4
ATOM      4  O   UNL     1      61.160  30.830  49.516  1.00  0.00    -0.391 OA
ATOM      5  H   UNL     1      60.776  30.319  48.756  1.00  0.00     0.211 HD
ENDBRANCH   2   4
ENDBRANCH   1   2
BRANCH   1   6
ATOM      6  C   UNL     1      59.594  28.331  49.929  1.00  0.00     0.181 C 
BRANCH   6   7
ATOM      7  C   UNL     1      59.079  26.881  50.069  1.00  0.00     0.209 C 
BRANCH   7   8
ATOM      8  C   UNL     1      57.594  26.824  50.325  1.00  0.00     0.258 C 
ATOM      9  O   UNL     1      56.893  27.814  50.184  1.00  0.00    -0.300 OA
ENDBRANCH   7   8
BRANCH   7  10
ATOM     10  O   UNL     1      59.420  26.140  48.925  1.00  0.00    -0.383 OA
ATOM     11  H   UNL     1      59.509  25.192  49.211  1.00  0.00     0.211 HD
ENDBRANCH   7  10
ENDBRANCH   6   7
BRANCH   6  12
ATOM     12  O   UNL     1      59.189  28.854  48.688  1.00  0.00    -0.387 OA
ATOM     13  H   UNL     1      58.206  28.734  48.625  1.00  0.00     0.211 HD
ENDBRANCH   6  12
ENDBRANCH   1   6
BRANCH   1  14
ATOM     14  O   UNL     1      61.815  28.030  48.947  1.00  0.00    -0.388 OA
ATOM     15  H   UNL     1      61.209  27.424  48.446  1.00  0.00     0.211 HD
ENDBRANCH   1  14
TORSDOF 8
ENDMDL
MODEL 7
REMARK VINA RESULT:    -3.307      1.640      2.340
REMARK INTER + INTRA:          -4.994
REMARK INTER:                  -4.466
REMARK INTRA:                  -0.528
REMARK UNBOUND:                -0.527
REMARK SMILES C[C@H](O)[C@H](O)[C@@H](O)[C@H](O)C=O
REMARK SMILES IDX 4 1 2 2 1 3 3 4 6 6 8 7 10 8 11 9 9 10 7 12 5 14
REMARK H PARENT 3 5 9 11 7 13 5 15
REMARK Flexibility Score: inf
ROOT
ATOM      1  C   UNL     1      58.363  27.682  50.303  1.00  0.00     0.174 C 
ENDROOT
BRANCH   1   2
ATOM      2  C   UNL     1      58.445  26.155  50.025  1.00  0.00     0.142 C 
ATOM      3  C   UNL     1      58.973  25.385  51.242  1.00  0.00     0.041 C 
BRANCH   2   4
ATOM      4  O   UNL     1      59.249  25.886  48.903  1.00  0.00    -0.391 OA
ATOM      5  H   UNL     1      59.027  26.558  48.206  1.00  0.00     0.211 HD
ENDBRANCH   2   4
ENDBRANCH   1   2
BRANCH   1   6
ATOM      6  C   UNL     1      59.344  28.499  49.410  1.00  0.00     0.181 C 
BRANCH   6   7
ATOM      7  C   UNL     1      60.576  29.029  50.178  1.00  0.00     0.209 C 
BRANCH   7   8
ATOM      8  C   UNL     1      61.726  28.054  50.156  1.00  0.00     0.258 C 
ATOM      9  O   UNL     1      61.853  27.251  49.245  1.00  0.00    -0.300 OA
ENDBRANCH   7   8
BRANCH   7  10
ATOM     10  O   UNL     1      60.964  30.275  49.659  1.00  0.00    -0.383 OA
ATOM     11  H   UNL     1      60.322  30.498  48.933  1.00  0.00     0.211 HD
ENDBRANCH   7  10
ENDBRANCH   6   7
BRANCH   6  12
ATOM     12  O   UNL     1      58.679  29.574  48.794  1.00  0.00    -0.387 OA
ATOM     13  H   UNL     1      58.758  30.356  49.400  1.00  0.00     0.211 HD
ENDBRANCH   6  12
ENDBRANCH   1   6
BRANCH   1  14
ATOM     14  O   UNL     1      57.041  28.142  50.155  1.00  0.00    -0.388 OA
ATOM     15  H   UNL     1      57.061  28.938  49.563  1.00  0.00     0.211 HD
ENDBRANCH   1  14
TORSDOF 8
ENDMDL
MODEL 8
REMARK VINA RESULT:    -3.287     11.770     12.825
REMARK INTER + INTRA:          -4.966
REMARK INTER:                  -4.252
REMARK INTRA:                  -0.715
REMARK UNBOUND:                -0.527
REMARK SMILES C[C@H](O)[C@H](O)[C@@H](O)[C@H](O)C=O
REMARK SMILES IDX 4 1 2 2 1 3 3 4 6 6 8 7 10 8 11 9 9 10 7 12 5 14
REMARK H PARENT 3 5 9 11 7 13 5 15
REMARK Flexibility Score: inf
ROOT
ATOM      1  C   UNL     1      61.729  30.022  61.408  1.00  0.00     0.174 C 
ENDROOT
BRANCH   1   2
ATOM      2  C   UNL     1      63.181  30.505  61.138  1.00  0.00     0.142 C 
ATOM      3  C   UNL     1      63.721  29.958  59.810  1.00  0.00     0.041 C 
BRANCH   2   4
ATOM      4  O   UNL     1      64.041  30.141  62.188  1.00  0.00    -0.391 OA
ATOM      5  H   UNL     1      63.728  29.268  62.544  1.00  0.00     0.211 HD
ENDBRANCH   2   4
ENDBRANCH   1   2
BRANCH   1   6
ATOM      6  C   UNL     1      61.570  28.485  61.207  1.00  0.00     0.181 C 
BRANCH   6   7
ATOM      7  C   UNL     1      60.120  28.055  60.893  1.00  0.00     0.209 C 
BRANCH   7   8
ATOM      8  C   UNL     1      59.858  26.616  61.260  1.00  0.00     0.258 C 
ATOM      9  O   UNL     1      59.277  26.326  62.295  1.00  0.00    -0.300 OA
ENDBRANCH   7   8
BRANCH   7  10
ATOM     10  O   UNL     1      59.215  28.911  61.542  1.00  0.00    -0.383 OA
ATOM     11  H   UNL     1      58.581  29.240  60.851  1.00  0.00     0.211 HD
ENDBRANCH   7  10
ENDBRANCH   6   7
BRANCH   6  12
ATOM     12  O   UNL     1      62.032  27.785  62.336  1.00  0.00    -0.387 OA
ATOM     13  H   UNL     1      61.673  26.861  62.276  1.00  0.00     0.211 HD
ENDBRANCH   6  12
ENDBRANCH   1   6
BRANCH   1  14
ATOM     14  O   UNL     1      61.310  30.410  62.695  1.00  0.00    -0.388 OA
ATOM     15  H   UNL     1      60.735  31.213  62.598  1.00  0.00     0.211 HD
ENDBRANCH   1  14
TORSDOF 8
ENDMDL
MODEL 9
REMARK VINA RESULT:    -3.243      1.175      4.446
REMARK INTER + INTRA:          -4.907
REMARK INTER:                  -3.990
REMARK INTRA:                  -0.918
REMARK UNBOUND:                -0.527
REMARK SMILES C[C@H](O)[C@H](O)[C@@H](O)[C@H](O)C=O
REMARK SMILES IDX 4 1 2 2 1 3 3 4 6 6 8 7 10 8 11 9 9 10 7 12 5 14
REMARK H PARENT 3 5 9 11 7 13 5 15
REMARK Flexibility Score: inf
ROOT
ATOM      1  C   UNL     1      59.418  26.521  50.045  1.00  0.00     0.174 C 
ENDROOT
BRANCH   1   2
ATOM      2  C   UNL     1      60.414  27.604  49.546  1.00  0.00     0.142 C 
ATOM      3  C   UNL     1      60.897  28.501  50.693  1.00  0.00     0.041 C 
BRANCH   2   4
ATOM      4  O   UNL     1      59.841  28.392  48.532  1.00  0.00    -0.391 OA
ATOM      5  H   UNL     1      60.186  29.317  48.640  1.00  0.00     0.211 HD
ENDBRANCH   2   4
ENDBRANCH   1   2
BRANCH   1   6
ATOM      6  C   UNL     1      58.248  27.131  50.875  1.00  0.00     0.181 C 
BRANCH   6   7
ATOM      7  C   UNL     1      57.280  26.069  51.443  1.00  0.00     0.209 C 
BRANCH   7   8
ATOM      8  C   UNL     1      55.924  26.122  50.786  1.00  0.00     0.258 C 
ATOM      9  O   UNL     1      55.797  25.918  49.589  1.00  0.00    -0.300 OA
ENDBRANCH   7   8
BRANCH   7  10
ATOM     10  O   UNL     1      57.848  24.790  51.321  1.00  0.00    -0.383 OA
ATOM     11  H   UNL     1      58.482  24.682  52.079  1.00  0.00     0.211 HD
ENDBRANCH   7  10
ENDBRANCH   6   7
BRANCH   6  12
ATOM     12  O   UNL     1      57.524  28.059  50.105  1.00  0.00    -0.387 OA
ATOM     13  H   UNL     1      56.559  27.885  50.263  1.00  0.00     0.211 HD
ENDBRANCH   6  12
ENDBRANCH   1   6
BRANCH   1  14
ATOM     14  O   UNL     1      58.930  25.761  48.966  1.00  0.00    -0.388 OA
ATOM     15  H   UNL     1      59.705  25.322  48.529  1.00  0.00     0.211 HD
ENDBRANCH   1  14
TORSDOF 8
ENDMDL
