MODEL 1
REMARK VINA RESULT:    -3.109      0.000      0.000
REMARK INTER + INTRA:          -5.139
REMARK INTER:                  -4.563
REMARK INTRA:                  -0.576
REMARK UNBOUND:                -0.576
REMARK SMILES CCCCCC(=O)CCCCC
REMARK SMILES IDX 6 1 7 2 5 3 4 4 3 5 2 6 1 7 8 8 9 9 10 10 11 11 12 12
REMARK H PARENT
REMARK Flexibility Score: inf
ROOT
ATOM      1  C   UNL     1      -6.768  21.587  12.319  1.00  0.00     0.132 C 
ATOM      2  O   UNL     1      -6.127  20.566  12.511  1.00  0.00    -0.300 OA
ENDROOT
BRANCH   1   3
ATOM      3  C   UNL     1      -8.000  21.862  13.144  1.00  0.00     0.075 C 
BRANCH   3   4
ATOM      4  C   UNL     1      -8.684  20.570  13.612  1.00  0.00     0.008 C 
BRANCH   4   5
ATOM      5  C   UNL     1      -9.710  20.043  12.593  1.00  0.00     0.000 C 
BRANCH   5   6
ATOM      6  C   UNL     1     -10.229  21.146  11.657  1.00  0.00    -0.003 C 
ATOM      7  C   UNL     1     -10.421  20.662  10.220  1.00  0.00     0.004 C 
ENDBRANCH   5   6
ENDBRANCH   4   5
ENDBRANCH   3   4
ENDBRANCH   1   3
BRANCH   1   8
ATOM      8  C   UNL     1      -6.290  22.583  11.294  1.00  0.00     0.075 C 
BRANCH   8   9
ATOM      9  C   UNL     1      -6.676  22.171   9.866  1.00  0.00     0.008 C 
BRANCH   9  10
ATOM     10  C   UNL     1      -6.004  23.056   8.803  1.00  0.00     0.000 C 
BRANCH  10  11
ATOM     11  C   UNL     1      -4.901  23.950   9.392  1.00  0.00    -0.003 C 
ATOM     12  C   UNL     1      -3.594  23.877   8.601  1.00  0.00     0.004 C 
ENDBRANCH  10  11
ENDBRANCH   9  10
ENDBRANCH   8   9
ENDBRANCH   1   8
TORSDOF 8
ENDMDL
MODEL 2
REMARK VINA RESULT:    -3.033      2.577      4.532
REMARK INTER + INTRA:          -5.028
REMARK INTER:                  -4.154
REMARK INTRA:                  -0.874
REMARK UNBOUND:                -0.576
REMARK SMILES CCCCCC(=O)CCCCC
REMARK SMILES IDX 6 1 7 2 5 3 4 4 3 5 2 6 1 7 8 8 9 9 10 10 11 11 12 12
REMARK H PARENT
REMARK Flexibility Score: inf
ROOT
ATOM      1  C   UNL     1      -3.385  24.335   9.630  1.00  0.00     0.132 C 
ATOM      2  O   UNL     1      -2.252  24.581  10.015  1.00  0.00    -0.300 OA
ENDROOT
BRANCH   1   3
ATOM      3  C   UNL     1      -4.359  23.657  10.559  1.00  0.00     0.075 C 
BRANCH   3   4
ATOM      4  C   UNL     1      -5.770  23.570   9.958  1.00  0.00     0.008 C 
BRANCH   4   5
ATOM      5  C   UNL     1      -6.385  22.167  10.095  1.00  0.00     0.000 C 
BRANCH   5   6
ATOM      6  C   UNL     1      -7.454  22.098  11.197  1.00  0.00    -0.003 C 
ATOM      7  C   UNL     1      -6.968  21.372  12.450  1.00  0.00     0.004 C 
ENDBRANCH   5   6
ENDBRANCH   4   5
ENDBRANCH   3   4
ENDBRANCH   1   3
BRANCH   1   8
ATOM      8  C   UNL     1      -3.807  24.758   8.247  1.00  0.00     0.075 C 
BRANCH   8   9
ATOM      9  C   UNL     1      -2.957  24.094   7.155  1.00  0.00     0.008 C 
BRANCH   9  10
ATOM     10  C   UNL     1      -3.625  22.834   6.581  1.00  0.00     0.000 C 
BRANCH  10  11
ATOM     11  C   UNL     1      -5.115  23.044   6.274  1.00  0.00    -0.003 C 
ATOM     12  C   UNL     1      -5.943  21.773   6.461  1.00  0.00     0.004 C 
ENDBRANCH  10  11
ENDBRANCH   9  10
ENDBRANCH   8   9
ENDBRANCH   1   8
TORSDOF 8
ENDMDL
MODEL 3
REMARK VINA RESULT:    -3.017      0.282      5.237
REMARK INTER + INTRA:          -5.004
REMARK INTER:                  -4.383
REMARK INTRA:                  -0.621
REMARK UNBOUND:                -0.576
REMARK SMILES CCCCCC(=O)CCCCC
REMARK SMILES IDX 6 1 7 2 5 3 4 4 3 5 2 6 1 7 8 8 9 9 10 10 11 11 12 12
REMARK H PARENT
REMARK Flexibility Score: inf
ROOT
ATOM      1  C   UNL     1      -6.892  21.712  12.396  1.00  0.00     0.132 C 
ATOM      2  O   UNL     1      -6.214  20.697  12.431  1.00  0.00    -0.300 OA
ENDROOT
BRANCH   1   3
ATOM      3  C   UNL     1      -6.475  22.860  11.512  1.00  0.00     0.075 C 
BRANCH   3   4
ATOM      4  C   UNL     1      -6.984  22.697  10.072  1.00  0.00     0.008 C 
BRANCH   4   5
ATOM      5  C   UNL     1      -5.895  22.987   9.025  1.00  0.00     0.000 C 
BRANCH   5   6
ATOM      6  C   UNL     1      -4.894  24.053   9.497  1.00  0.00    -0.003 C 
ATOM      7  C   UNL     1      -3.541  23.949   8.795  1.00  0.00     0.004 C 
ENDBRANCH   5   6
ENDBRANCH   4   5
ENDBRANCH   3   4
ENDBRANCH   1   3
BRANCH   1   8
ATOM      8  C   UNL     1      -8.164  21.783  13.200  1.00  0.00     0.075 C 
BRANCH   8   9
ATOM      9  C   UNL     1      -8.730  20.389  13.510  1.00  0.00     0.008 C 
BRANCH   9  10
ATOM     10  C   UNL     1      -9.811  19.963  12.502  1.00  0.00     0.000 C 
BRANCH  10  11
ATOM     11  C   UNL     1     -10.341  21.141  11.671  1.00  0.00    -0.003 C 
ATOM     12  C   UNL     1     -10.304  20.869  10.167  1.00  0.00     0.004 C 
ENDBRANCH  10  11
ENDBRANCH   9  10
ENDBRANCH   8   9
ENDBRANCH   1   8
TORSDOF 8
ENDMDL
MODEL 4
REMARK VINA RESULT:    -3.002      1.359      1.871
REMARK INTER + INTRA:          -4.982
REMARK INTER:                  -4.554
REMARK INTRA:                  -0.428
REMARK UNBOUND:                -0.576
REMARK SMILES CCCCCC(=O)CCCCC
REMARK SMILES IDX 6 1 7 2 5 3 4 4 3 5 2 6 1 7 8 8 9 9 10 10 11 11 12 12
REMARK H PARENT
REMARK Flexibility Score: inf
ROOT
ATOM      1  C   UNL     1      -6.247  22.237  11.265  1.00  0.00     0.132 C 
ATOM      2  O   UNL     1      -5.213  22.881  11.352  1.00  0.00    -0.300 OA
ENDROOT
BRANCH   1   3
ATOM      3  C   UNL     1      -6.682  21.365  12.415  1.00  0.00     0.075 C 
BRANCH   3   4
ATOM      4  C   UNL     1      -8.159  21.581  12.780  1.00  0.00     0.008 C 
BRANCH   4   5
ATOM      5  C   UNL     1      -8.795  20.339  13.426  1.00  0.00     0.000 C 
BRANCH   5   6
ATOM      6  C   UNL     1     -10.061  19.876  12.688  1.00  0.00    -0.003 C 
ATOM      7  C   UNL     1     -10.249  20.569  11.339  1.00  0.00     0.004 C 
ENDBRANCH   5   6
ENDBRANCH   4   5
ENDBRANCH   3   4
ENDBRANCH   1   3
BRANCH   1   8
ATOM      8  C   UNL     1      -7.098  22.361  10.028  1.00  0.00     0.075 C 
BRANCH   8   9
ATOM      9  C   UNL     1      -6.296  22.879   8.825  1.00  0.00     0.008 C 
BRANCH   9  10
ATOM     10  C   UNL     1      -6.529  22.033   7.562  1.00  0.00     0.000 C 
BRANCH  10  11
ATOM     11  C   UNL     1      -5.573  22.406   6.418  1.00  0.00    -0.003 C 
ATOM     12  C   UNL     1      -4.300  23.095   6.911  1.00  0.00     0.004 C 
ENDBRANCH  10  11
ENDBRANCH   9  10
ENDBRANCH   8   9
ENDBRANCH   1   8
TORSDOF 8
ENDMDL
MODEL 5
REMARK VINA RESULT:    -2.978      2.527      4.749
REMARK INTER + INTRA:          -4.946
REMARK INTER:                  -3.974
REMARK INTRA:                  -0.972
REMARK UNBOUND:                -0.576
REMARK SMILES CCCCCC(=O)CCCCC
REMARK SMILES IDX 6 1 7 2 5 3 4 4 3 5 2 6 1 7 8 8 9 9 10 10 11 11 12 12
REMARK H PARENT
REMARK Flexibility Score: inf
ROOT
ATOM      1  C   UNL     1      -9.575  21.019  14.619  1.00  0.00     0.132 C 
ATOM      2  O   UNL     1     -10.291  20.353  15.351  1.00  0.00    -0.300 OA
ENDROOT
BRANCH   1   3
ATOM      3  C   UNL     1      -8.815  20.347  13.505  1.00  0.00     0.075 C 
BRANCH   3   4
ATOM      4  C   UNL     1      -8.300  21.353  12.464  1.00  0.00     0.008 C 
BRANCH   4   5
ATOM      5  C   UNL     1      -6.765  21.448  12.443  1.00  0.00     0.000 C 
BRANCH   5   6
ATOM      6  C   UNL     1      -6.253  22.469  11.416  1.00  0.00    -0.003 C 
ATOM      7  C   UNL     1      -6.712  22.159   9.991  1.00  0.00     0.004 C 
ENDBRANCH   5   6
ENDBRANCH   4   5
ENDBRANCH   3   4
ENDBRANCH   1   3
BRANCH   1   8
ATOM      8  C   UNL     1      -9.501  22.511  14.811  1.00  0.00     0.075 C 
BRANCH   8   9
ATOM      9  C   UNL     1      -8.388  22.914  15.789  1.00  0.00     0.008 C 
BRANCH   9  10
ATOM     10  C   UNL     1      -7.820  24.309  15.482  1.00  0.00     0.000 C 
BRANCH  10  11
ATOM     11  C   UNL     1      -8.246  24.829  14.101  1.00  0.00    -0.003 C 
ATOM     12  C   UNL     1      -7.098  25.486  13.335  1.00  0.00     0.004 C 
ENDBRANCH  10  11
ENDBRANCH   9  10
ENDBRANCH   8   9
ENDBRANCH   1   8
TORSDOF 8
ENDMDL
MODEL 6
REMARK VINA RESULT:    -2.969      2.728      5.018
REMARK INTER + INTRA:          -4.934
REMARK INTER:                  -3.853
REMARK INTRA:                  -1.081
REMARK UNBOUND:                -0.576
REMARK SMILES CCCCCC(=O)CCCCC
REMARK SMILES IDX 6 1 7 2 5 3 4 4 3 5 2 6 1 7 8 8 9 9 10 10 11 11 12 12
REMARK H PARENT
REMARK Flexibility Score: inf
ROOT
ATOM      1  C   UNL     1      -6.007  22.574  11.199  1.00  0.00     0.132 C 
ATOM      2  O   UNL     1      -6.074  21.829  12.164  1.00  0.00    -0.300 OA
ENDROOT
BRANCH   1   3
ATOM      3  C   UNL     1      -5.266  23.882  11.315  1.00  0.00     0.075 C 
BRANCH   3   4
ATOM      4  C   UNL     1      -3.766  23.727  11.025  1.00  0.00     0.008 C 
BRANCH   4   5
ATOM      5  C   UNL     1      -3.303  24.580   9.833  1.00  0.00     0.000 C 
BRANCH   5   6
ATOM      6  C   UNL     1      -3.426  23.836   8.494  1.00  0.00    -0.003 C 
ATOM      7  C   UNL     1      -3.385  24.774   7.288  1.00  0.00     0.004 C 
ENDBRANCH   5   6
ENDBRANCH   4   5
ENDBRANCH   3   4
ENDBRANCH   1   3
BRANCH   1   8
ATOM      8  C   UNL     1      -6.622  22.151   9.890  1.00  0.00     0.075 C 
BRANCH   8   9
ATOM      9  C   UNL     1      -7.013  23.354   9.020  1.00  0.00     0.008 C 
BRANCH   9  10
ATOM     10  C   UNL     1      -7.185  22.971   7.541  1.00  0.00     0.000 C 
BRANCH  10  11
ATOM     11  C   UNL     1      -6.414  21.696   7.168  1.00  0.00    -0.003 C 
ATOM     12  C   UNL     1      -5.464  21.902   5.988  1.00  0.00     0.004 C 
ENDBRANCH  10  11
ENDBRANCH   9  10
ENDBRANCH   8   9
ENDBRANCH   1   8
TORSDOF 8
ENDMDL
MODEL 7
REMARK VINA RESULT:    -2.964      2.804      5.834
REMARK INTER + INTRA:          -4.926
REMARK INTER:                  -3.772
REMARK INTRA:                  -1.154
REMARK UNBOUND:                -0.576
REMARK SMILES CCCCCC(=O)CCCCC
REMARK SMILES IDX 6 1 7 2 5 3 4 4 3 5 2 6 1 7 8 8 9 9 10 10 11 11 12 12
REMARK H PARENT
REMARK Flexibility Score: inf
ROOT
ATOM      1  C   UNL     1      -7.356  21.609  12.558  1.00  0.00     0.132 C 
ATOM      2  O   UNL     1      -6.325  20.960  12.474  1.00  0.00    -0.300 OA
ENDROOT
BRANCH   1   3
ATOM      3  C   UNL     1      -7.290  23.075  12.900  1.00  0.00     0.075 C 
BRANCH   3   4
ATOM      4  C   UNL     1      -8.683  23.719  12.967  1.00  0.00     0.008 C 
BRANCH   4   5
ATOM      5  C   UNL     1      -9.105  24.065  14.405  1.00  0.00     0.000 C 
BRANCH   5   6
ATOM      6  C   UNL     1      -7.942  23.955  15.403  1.00  0.00    -0.003 C 
ATOM      7  C   UNL     1      -8.396  23.537  16.801  1.00  0.00     0.004 C 
ENDBRANCH   5   6
ENDBRANCH   4   5
ENDBRANCH   3   4
ENDBRANCH   1   3
BRANCH   1   8
ATOM      8  C   UNL     1      -8.677  20.945  12.269  1.00  0.00     0.075 C 
BRANCH   8   9
ATOM      9  C   UNL     1      -9.153  20.071  13.438  1.00  0.00     0.008 C 
BRANCH   9  10
ATOM     10  C   UNL     1     -10.479  20.568  14.035  1.00  0.00     0.000 C 
BRANCH  10  11
ATOM     11  C   UNL     1     -10.444  20.642  15.570  1.00  0.00    -0.003 C 
ATOM     12  C   UNL     1     -11.593  21.466  16.150  1.00  0.00     0.004 C 
ENDBRANCH  10  11
ENDBRANCH   9  10
ENDBRANCH   8   9
ENDBRANCH   1   8
TORSDOF 8
ENDMDL
MODEL 8
REMARK VINA RESULT:    -2.922      3.432      4.344
REMARK INTER + INTRA:          -4.865
REMARK INTER:                  -3.631
REMARK INTRA:                  -1.235
REMARK UNBOUND:                -0.576
REMARK SMILES CCCCCC(=O)CCCCC
REMARK SMILES IDX 6 1 7 2 5 3 4 4 3 5 2 6 1 7 8 8 9 9 10 10 11 11 12 12
REMARK H PARENT
REMARK Flexibility Score: inf
ROOT
ATOM      1  C   UNL     1      -4.716  23.659  10.351  1.00  0.00     0.132 C 
ATOM      2  O   UNL     1      -4.854  23.004  11.372  1.00  0.00    -0.300 OA
ENDROOT
BRANCH   1   3
ATOM      3  C   UNL     1      -5.923  24.275   9.690  1.00  0.00     0.075 C 
BRANCH   3   4
ATOM      4  C   UNL     1      -7.001  23.231   9.363  1.00  0.00     0.008 C 
BRANCH   4   5
ATOM      5  C   UNL     1      -6.472  22.096   8.470  1.00  0.00     0.000 C 
BRANCH   5   6
ATOM      6  C   UNL     1      -7.232  21.992   7.139  1.00  0.00    -0.003 C 
ATOM      7  C   UNL     1      -6.622  20.965   6.185  1.00  0.00     0.004 C 
ENDBRANCH   5   6
ENDBRANCH   4   5
ENDBRANCH   3   4
ENDBRANCH   1   3
BRANCH   1   8
ATOM      8  C   UNL     1      -3.335  23.884   9.793  1.00  0.00     0.075 C 
BRANCH   8   9
ATOM      9  C   UNL     1      -3.371  24.549   8.410  1.00  0.00     0.008 C 
BRANCH   9  10
ATOM     10  C   UNL     1      -3.125  23.544   7.273  1.00  0.00     0.000 C 
BRANCH  10  11
ATOM     11  C   UNL     1      -4.121  23.708   6.115  1.00  0.00    -0.003 C 
ATOM     12  C   UNL     1      -4.895  25.024   6.181  1.00  0.00     0.004 C 
ENDBRANCH  10  11
ENDBRANCH   9  10
ENDBRANCH   8   9
ENDBRANCH   1   8
TORSDOF 8
ENDMDL
MODEL 9
REMARK VINA RESULT:    -2.922      1.510      2.638
REMARK INTER + INTRA:          -4.865
REMARK INTER:                  -4.332
REMARK INTRA:                  -0.533
REMARK UNBOUND:                -0.576
REMARK SMILES CCCCCC(=O)CCCCC
REMARK SMILES IDX 6 1 7 2 5 3 4 4 3 5 2 6 1 7 8 8 9 9 10 10 11 11 12 12
REMARK H PARENT
REMARK Flexibility Score: inf
ROOT
ATOM      1  C   UNL     1      -6.844  21.661  11.812  1.00  0.00     0.132 C 
ATOM      2  O   UNL     1      -6.022  21.098  12.519  1.00  0.00    -0.300 OA
ENDROOT
BRANCH   1   3
ATOM      3  C   UNL     1      -8.274  21.772  12.273  1.00  0.00     0.075 C 
BRANCH   3   4
ATOM      4  C   UNL     1      -8.629  20.708  13.323  1.00  0.00     0.008 C 
BRANCH   4   5
ATOM      5  C   UNL     1      -8.987  21.321  14.687  1.00  0.00     0.000 C 
BRANCH   5   6
ATOM      6  C   UNL     1      -8.859  22.852  14.696  1.00  0.00    -0.003 C 
ATOM      7  C   UNL     1      -7.989  23.368  15.843  1.00  0.00     0.004 C 
ENDBRANCH   5   6
ENDBRANCH   4   5
ENDBRANCH   3   4
ENDBRANCH   1   3
BRANCH   1   8
ATOM      8  C   UNL     1      -6.404  22.281  10.512  1.00  0.00     0.075 C 
BRANCH   8   9
ATOM      9  C   UNL     1      -6.410  23.816  10.572  1.00  0.00     0.008 C 
BRANCH   9  10
ATOM     10  C   UNL     1      -5.156  24.377  11.263  1.00  0.00     0.000 C 
BRANCH  10  11
ATOM     11  C   UNL     1      -3.870  23.661  10.821  1.00  0.00    -0.003 C 
ATOM     12  C   UNL     1      -3.359  24.145   9.464  1.00  0.00     0.004 C 
ENDBRANCH  10  11
ENDBRANCH   9  10
ENDBRANCH   8   9
ENDBRANCH   1   8
TORSDOF 8
ENDMDL
