MODEL 1
REMARK VINA RESULT:     2.960      0.000      0.000
REMARK INTER + INTRA:           4.420
REMARK INTER:                   4.517
REMARK INTRA:                  -0.097
REMARK UNBOUND:                -0.097
REMARK SMILES CC1=CCC[C@H](C)C(=O)C[C@@H](C(C)C)C(=O)C1
REMARK SMILES IDX 8 1 9 2 6 3 7 4 5 5 4 6 3 7 2 8 1 9 10 11 11 12 15 13 16 14
REMARK SMILES IDX 17 15 12 17 13 18 14 19
REMARK H PARENT
REMARK Flexibility Score: 70.00
ROOT
ATOM      1  C   UNL     1      23.575  26.696  27.980  1.00  0.00     0.136 C 
ATOM      2  O   UNL     1      22.712  26.483  28.821  1.00  0.00    -0.299 OA
ENDROOT
BRANCH   1   3
ATOM      3  C   UNL     1      24.248  28.066  27.980  1.00  0.00     0.053 C 
ATOM      4  C   UNL     1      23.809  28.918  29.187  1.00  0.00     0.016 C 
BRANCH   3   5
ATOM      5  C   UNL     1      25.786  28.104  27.775  1.00  0.00     0.015 C 
BRANCH   5   6
ATOM      6  C   UNL     1      26.353  27.960  26.350  1.00  0.00     0.028 C 
BRANCH   6   7
ATOM      7  C   UNL     1      27.579  27.090  26.209  1.00  0.00    -0.028 C 
ATOM      8  C   UNL     1      27.639  25.765  25.899  1.00  0.00    -0.070 CG0
ATOM      9  C   UNL     1      29.020  25.181  25.722  1.00  0.00     0.039 C 
ATOM     10  G   UNL     1      26.470  24.781  25.882  1.00  0.00     0.000 G0
ENDBRANCH   6   7
ENDBRANCH   5   6
ENDBRANCH   3   5
ENDBRANCH   1   3
BRANCH   1  11
ATOM     11  C   UNL     1      23.793  25.627  26.928  1.00  0.00     0.087 C 
BRANCH  11  12
ATOM     12  C   UNL     1      24.434  24.337  27.519  1.00  0.00     0.066 C 
BRANCH  12  13
ATOM     13  C   UNL     1      25.929  24.283  27.200  1.00  0.00     0.140 C 
ATOM     14  O   UNL     1      26.728  23.875  28.032  1.00  0.00    -0.299 OA
BRANCH  13  15
ATOM     15  C   UNL     1      26.450  24.769  25.874  1.00  0.00     0.106 CG0
ATOM     16  G   UNL     1      27.619  25.753  25.920  1.00  0.00     0.000 G0
ENDBRANCH  13  15
ENDBRANCH  12  13
BRANCH  12  17
ATOM     17  C   UNL     1      23.705  23.023  27.070  1.00  0.00    -0.006 C 
ATOM     18  C   UNL     1      23.606  22.882  25.539  1.00  0.00     0.008 C 
ATOM     19  C   UNL     1      22.281  22.956  27.658  1.00  0.00     0.008 C 
ENDBRANCH  12  17
ENDBRANCH  11  12
ENDBRANCH   1  11
TORSDOF 1
ENDMDL
MODEL 2
REMARK VINA RESULT:     5.542      1.693      4.079
REMARK INTER + INTRA:           8.361
REMARK INTER:                   8.353
REMARK INTRA:                   0.008
REMARK UNBOUND:                -0.097
REMARK SMILES CC1=CCC[C@H](C)C(=O)C[C@@H](C(C)C)C(=O)C1
REMARK SMILES IDX 8 1 9 2 6 3 7 4 5 5 4 6 3 7 2 8 1 9 10 11 11 12 15 13 16 14
REMARK SMILES IDX 17 15 12 17 13 18 14 19
REMARK H PARENT
REMARK Flexibility Score: 70.00
ROOT
ATOM      1  C   UNL     1      24.262  25.241  27.610  1.00  0.00     0.136 C 
ATOM      2  O   UNL     1      23.071  25.516  27.662  1.00  0.00    -0.299 OA
ENDROOT
BRANCH   1   3
ATOM      3  C   UNL     1      24.650  23.817  27.221  1.00  0.00     0.053 C 
ATOM      4  C   UNL     1      23.412  22.952  26.915  1.00  0.00     0.016 C 
BRANCH   3   5
ATOM      5  C   UNL     1      25.753  23.649  26.142  1.00  0.00     0.015 C 
BRANCH   5   6
ATOM      6  C   UNL     1      27.215  23.960  26.513  1.00  0.00     0.028 C 
BRANCH   6   7
ATOM      7  C   UNL     1      27.955  24.885  25.578  1.00  0.00    -0.028 C 
ATOM      8  C   UNL     1      28.283  26.193  25.773  1.00  0.00    -0.070 CG0
ATOM      9  C   UNL     1      29.124  26.840  24.699  1.00  0.00     0.039 C 
ATOM     10  G   UNL     1      27.746  27.110  26.872  1.00  0.00     0.000 G0
ENDBRANCH   6   7
ENDBRANCH   5   6
ENDBRANCH   3   5
ENDBRANCH   1   3
BRANCH   1  11
ATOM     11  C   UNL     1      25.237  26.304  28.076  1.00  0.00     0.087 C 
BRANCH  11  12
ATOM     12  C   UNL     1      25.149  27.604  27.222  1.00  0.00     0.066 C 
BRANCH  12  13
ATOM     13  C   UNL     1      26.493  27.904  26.559  1.00  0.00     0.140 C 
ATOM     14  O   UNL     1      26.589  28.791  25.721  1.00  0.00    -0.299 OA
BRANCH  13  15
ATOM     15  C   UNL     1      27.714  27.089  26.892  1.00  0.00     0.106 CG0
ATOM     16  G   UNL     1      28.292  26.235  25.764  1.00  0.00     0.000 G0
ENDBRANCH  13  15
ENDBRANCH  12  13
BRANCH  12  17
ATOM     17  C   UNL     1      24.619  28.839  28.030  1.00  0.00    -0.006 C 
ATOM     18  C   UNL     1      25.616  29.335  29.095  1.00  0.00     0.008 C 
ATOM     19  C   UNL     1      23.286  28.508  28.730  1.00  0.00     0.008 C 
ENDBRANCH  12  17
ENDBRANCH  11  12
ENDBRANCH   1  11
TORSDOF 1
ENDMDL
