MODEL 1
REMARK VINA RESULT:    -4.778      0.000      0.000
REMARK INTER + INTRA:          -6.167
REMARK INTER:                  -6.734
REMARK INTRA:                   0.567
REMARK UNBOUND:                 0.567
REMARK SMILES CC1=CCC(=C(C)C)C(=O)CC(C)=CCC1
REMARK SMILES IDX 12 1 14 2 13 3 15 4 16 5 2 6 1 7 3 8 11 10 9 11 10 12 5 13
REMARK SMILES IDX 6 14 7 15 8 16 4 17
REMARK H PARENT
REMARK Flexibility Score: 60.00
ROOT
ATOM      1  C   UNL     1      19.621  -9.626  64.734  1.00  0.00    -0.070 C 
ATOM      2  C   UNL     1      20.030  -9.680  66.020  1.00  0.00    -0.027 C 
ATOM      3  C   UNL     1      20.625  -9.955  63.659  1.00  0.00     0.039 C 
ENDROOT
BRANCH   2   4
ATOM      4  C   UNL     1      19.153  -9.480  67.237  1.00  0.00     0.032 C 
BRANCH   4   5
ATOM      5  C   UNL     1      18.990 -10.727  68.130  1.00  0.00     0.034 C 
BRANCH   5   6
ATOM      6  C   UNL     1      18.742 -12.000  67.338  1.00  0.00    -0.077 C 
ATOM      7  C   UNL     1      19.764 -13.103  67.447  1.00  0.00     0.039 C 
ATOM      8  C   UNL     1      17.631 -12.235  66.598  1.00  0.00    -0.023 CG0
ATOM      9  G   UNL     1      16.489 -11.273  66.332  1.00  0.00     0.000 G0
ENDBRANCH   5   6
ENDBRANCH   4   5
ENDBRANCH   2   4
BRANCH   1  10
ATOM     10  C   UNL     1      18.188  -9.344  64.329  1.00  0.00     0.111 C 
BRANCH  10  11
ATOM     11  C   UNL     1      17.434 -10.614  64.036  1.00  0.00     0.163 C 
ATOM     12  O   UNL     1      17.855 -11.353  63.104  1.00  0.00    -0.294 OA
BRANCH  11  13
ATOM     13  C   UNL     1      16.256 -11.053  64.843  1.00  0.00    -0.002 C 
ATOM     14  C   UNL     1      15.057 -11.318  64.242  1.00  0.00    -0.069 C 
ATOM     15  C   UNL     1      13.894 -11.913  65.006  1.00  0.00     0.039 C 
ATOM     16  C   UNL     1      14.834 -11.027  62.774  1.00  0.00     0.039 C 
BRANCH  13  17
ATOM     17  C   UNL     1      16.479 -11.280  66.329  1.00  0.00     0.066 CG0
ATOM     18  G   UNL     1      17.625 -12.234  66.601  1.00  0.00     0.000 G0
ENDBRANCH  13  17
ENDBRANCH  11  13
ENDBRANCH  10  11
ENDBRANCH   1  10
TORSDOF 0
ENDMDL
MODEL 2
REMARK VINA RESULT:    -4.634      1.895      3.716
REMARK INTER + INTRA:          -5.964
REMARK INTER:                  -6.663
REMARK INTRA:                   0.700
REMARK UNBOUND:                 0.567
REMARK SMILES CC1=CCC(=C(C)C)C(=O)CC(C)=CCC1
REMARK SMILES IDX 12 1 14 2 13 3 15 4 16 5 2 6 1 7 3 8 11 10 9 11 10 12 5 13
REMARK SMILES IDX 6 14 7 15 8 16 4 17
REMARK H PARENT
REMARK Flexibility Score: 60.00
ROOT
ATOM      1  C   UNL     1      15.381 -11.884  65.004  1.00  0.00    -0.070 C 
ATOM      2  C   UNL     1      16.023 -11.263  66.017  1.00  0.00    -0.027 C 
ATOM      3  C   UNL     1      13.911 -11.604  64.821  1.00  0.00     0.039 C 
ENDROOT
BRANCH   2   4
ATOM      4  C   UNL     1      17.507 -11.338  66.303  1.00  0.00     0.032 C 
BRANCH   4   5
ATOM      5  C   UNL     1      18.288 -10.039  66.019  1.00  0.00     0.034 C 
BRANCH   5   6
ATOM      6  C   UNL     1      18.977 -10.041  64.666  1.00  0.00    -0.077 C 
ATOM      7  C   UNL     1      20.453 -10.348  64.630  1.00  0.00     0.039 C 
ATOM      8  C   UNL     1      18.340  -9.852  63.484  1.00  0.00    -0.023 CG0
ATOM      9  G   UNL     1      16.876  -9.514  63.278  1.00  0.00     0.000 G0
ENDBRANCH   5   6
ENDBRANCH   4   5
ENDBRANCH   2   4
BRANCH   1  10
ATOM     10  C   UNL     1      16.083 -12.771  63.994  1.00  0.00     0.111 C 
BRANCH  10  11
ATOM     11  C   UNL     1      16.512 -11.995  62.777  1.00  0.00     0.163 C 
ATOM     12  O   UNL     1      17.203 -12.590  61.906  1.00  0.00    -0.294 OA
BRANCH  11  13
ATOM     13  C   UNL     1      16.097 -10.580  62.541  1.00  0.00    -0.002 C 
ATOM     14  C   UNL     1      15.015 -10.290  61.758  1.00  0.00    -0.069 C 
ATOM     15  C   UNL     1      14.476  -8.882  61.626  1.00  0.00     0.039 C 
ATOM     16  C   UNL     1      14.298 -11.372  60.980  1.00  0.00     0.039 C 
BRANCH  13  17
ATOM     17  C   UNL     1      16.868  -9.498  63.280  1.00  0.00     0.066 CG0
ATOM     18  G   UNL     1      18.323  -9.867  63.490  1.00  0.00     0.000 G0
ENDBRANCH  13  17
ENDBRANCH  11  13
ENDBRANCH  10  11
ENDBRANCH   1  10
TORSDOF 0
ENDMDL
MODEL 3
REMARK VINA RESULT:    -4.609      1.704      4.066
REMARK INTER + INTRA:          -5.928
REMARK INTER:                  -6.461
REMARK INTRA:                   0.533
REMARK UNBOUND:                 0.567
REMARK SMILES CC1=CCC(=C(C)C)C(=O)CC(C)=CCC1
REMARK SMILES IDX 12 1 14 2 13 3 15 4 16 5 2 6 1 7 3 8 11 10 9 11 10 12 5 13
REMARK SMILES IDX 6 14 7 15 8 16 4 17
REMARK H PARENT
REMARK Flexibility Score: 60.00
ROOT
ATOM      1  C   UNL     1      19.592  -9.712  64.378  1.00  0.00    -0.070 C 
ATOM      2  C   UNL     1      18.488  -9.645  63.603  1.00  0.00    -0.027 C 
ATOM      3  C   UNL     1      20.906 -10.026  63.710  1.00  0.00     0.039 C 
ENDROOT
BRANCH   2   4
ATOM      4  C   UNL     1      17.103  -9.251  64.068  1.00  0.00     0.032 C 
BRANCH   4   5
ATOM      5  C   UNL     1      16.203 -10.428  64.497  1.00  0.00     0.034 C 
BRANCH   5   6
ATOM      6  C   UNL     1      16.654 -11.762  63.927  1.00  0.00    -0.077 C 
ATOM      7  C   UNL     1      16.396 -12.023  62.465  1.00  0.00     0.039 C 
ATOM      8  C   UNL     1      17.333 -12.702  64.630  1.00  0.00    -0.023 CG0
ATOM      9  G   UNL     1      17.686 -12.665  66.104  1.00  0.00     0.000 G0
ENDBRANCH   5   6
ENDBRANCH   4   5
ENDBRANCH   2   4
BRANCH   1  10
ATOM     10  C   UNL     1      19.587  -9.396  65.861  1.00  0.00     0.111 C 
BRANCH  10  11
ATOM     11  C   UNL     1      18.836 -10.438  66.647  1.00  0.00     0.163 C 
ATOM     12  O   UNL     1      18.024 -10.045  67.529  1.00  0.00    -0.294 OA
BRANCH  11  13
ATOM     13  C   UNL     1      18.972 -11.900  66.377  1.00  0.00    -0.002 C 
ATOM     14  C   UNL     1      20.189 -12.517  66.468  1.00  0.00    -0.069 C 
ATOM     15  C   UNL     1      20.335 -14.019  66.356  1.00  0.00     0.039 C 
ATOM     16  C   UNL     1      21.457 -11.721  66.688  1.00  0.00     0.039 C 
BRANCH  13  17
ATOM     17  C   UNL     1      17.697 -12.676  66.095  1.00  0.00     0.066 CG0
ATOM     18  G   UNL     1      17.353 -12.704  64.619  1.00  0.00     0.000 G0
ENDBRANCH  13  17
ENDBRANCH  11  13
ENDBRANCH  10  11
ENDBRANCH   1  10
TORSDOF 0
ENDMDL
MODEL 4
REMARK VINA RESULT:    -4.490      2.285      5.886
REMARK INTER + INTRA:          -5.760
REMARK INTER:                  -5.901
REMARK INTRA:                   0.141
REMARK UNBOUND:                 0.567
REMARK SMILES CC1=CCC(=C(C)C)C(=O)CC(C)=CCC1
REMARK SMILES IDX 12 1 14 2 13 3 15 4 16 5 2 6 1 7 3 8 11 10 9 11 10 12 5 13
REMARK SMILES IDX 6 14 7 15 8 16 4 17
REMARK H PARENT
REMARK Flexibility Score: 60.00
ROOT
ATOM      1  C   UNL     1      13.022 -11.962  63.307  1.00  0.00    -0.070 C 
ATOM      2  C   UNL     1      12.647 -11.173  62.277  1.00  0.00    -0.027 C 
ATOM      3  C   UNL     1      12.670 -13.426  63.242  1.00  0.00     0.039 C 
ENDROOT
BRANCH   2   4
ATOM      4  C   UNL     1      12.990  -9.709  62.114  1.00  0.00     0.032 C 
BRANCH   4   5
ATOM      5  C   UNL     1      14.423  -9.430  61.616  1.00  0.00     0.034 C 
BRANCH   5   6
ATOM      6  C   UNL     1      15.168  -8.421  62.474  1.00  0.00    -0.077 C 
ATOM      7  C   UNL     1      14.659  -7.002  62.488  1.00  0.00     0.039 C 
ATOM      8  C   UNL     1      16.214  -8.729  63.279  1.00  0.00    -0.023 CG0
ATOM      9  G   UNL     1      16.901 -10.074  63.413  1.00  0.00     0.000 G0
ENDBRANCH   5   6
ENDBRANCH   4   5
ENDBRANCH   2   4
BRANCH   1  10
ATOM     10  C   UNL     1      13.855 -11.467  64.473  1.00  0.00     0.111 C 
BRANCH  10  11
ATOM     11  C   UNL     1      15.303 -11.855  64.327  1.00  0.00     0.163 C 
ATOM     12  O   UNL     1      15.566 -13.018  63.915  1.00  0.00    -0.294 OA
BRANCH  11  13
ATOM     13  C   UNL     1      16.420 -10.901  64.589  1.00  0.00    -0.002 C 
ATOM     14  C   UNL     1      17.013 -10.840  65.819  1.00  0.00    -0.069 C 
ATOM     15  C   UNL     1      18.246 -10.000  66.073  1.00  0.00     0.039 C 
ATOM     16  C   UNL     1      16.462 -11.617  66.995  1.00  0.00     0.039 C 
BRANCH  13  17
ATOM     17  C   UNL     1      16.923 -10.080  63.413  1.00  0.00     0.066 CG0
ATOM     18  G   UNL     1      16.218  -8.743  63.299  1.00  0.00     0.000 G0
ENDBRANCH  13  17
ENDBRANCH  11  13
ENDBRANCH  10  11
ENDBRANCH   1  10
TORSDOF 0
ENDMDL
MODEL 5
REMARK VINA RESULT:    -4.443      2.256      3.829
REMARK INTER + INTRA:          -5.695
REMARK INTER:                  -6.236
REMARK INTRA:                   0.540
REMARK UNBOUND:                 0.567
REMARK SMILES CC1=CCC(=C(C)C)C(=O)CC(C)=CCC1
REMARK SMILES IDX 12 1 14 2 13 3 15 4 16 5 2 6 1 7 3 8 11 10 9 11 10 12 5 13
REMARK SMILES IDX 6 14 7 15 8 16 4 17
REMARK H PARENT
REMARK Flexibility Score: 60.00
ROOT
ATOM      1  C   UNL     1      17.440 -12.647  65.654  1.00  0.00    -0.070 C 
ATOM      2  C   UNL     1      18.067 -13.269  66.676  1.00  0.00    -0.027 C 
ATOM      3  C   UNL     1      17.260 -13.410  64.367  1.00  0.00     0.039 C 
ENDROOT
BRANCH   2   4
ATOM      4  C   UNL     1      18.256 -12.708  68.069  1.00  0.00     0.032 C 
BRANCH   4   5
ATOM      5  C   UNL     1      19.726 -12.557  68.513  1.00  0.00     0.034 C 
BRANCH   5   6
ATOM      6  C   UNL     1      20.712 -12.678  67.363  1.00  0.00    -0.077 C 
ATOM      7  C   UNL     1      21.395 -14.006  67.162  1.00  0.00     0.039 C 
ATOM      8  C   UNL     1      20.964 -11.693  66.466  1.00  0.00    -0.023 CG0
ATOM      9  G   UNL     1      20.412 -10.281  66.479  1.00  0.00     0.000 G0
ENDBRANCH   5   6
ENDBRANCH   4   5
ENDBRANCH   2   4
BRANCH   1  10
ATOM     10  C   UNL     1      16.831 -11.264  65.770  1.00  0.00     0.111 C 
BRANCH  10  11
ATOM     11  C   UNL     1      17.853 -10.242  66.194  1.00  0.00     0.163 C 
ATOM     12  O   UNL     1      17.570  -9.488  67.166  1.00  0.00    -0.294 OA
BRANCH  11  13
ATOM     13  C   UNL     1      19.196 -10.135  65.551  1.00  0.00    -0.002 C 
ATOM     14  C   UNL     1      19.313  -9.841  64.221  1.00  0.00    -0.069 C 
ATOM     15  C   UNL     1      20.655  -9.572  63.576  1.00  0.00     0.039 C 
ATOM     16  C   UNL     1      18.097  -9.770  63.324  1.00  0.00     0.039 C 
BRANCH  13  17
ATOM     17  C   UNL     1      20.411 -10.272  66.454  1.00  0.00     0.066 CG0
ATOM     18  G   UNL     1      20.958 -11.685  66.473  1.00  0.00     0.000 G0
ENDBRANCH  13  17
ENDBRANCH  11  13
ENDBRANCH  10  11
ENDBRANCH   1  10
TORSDOF 0
ENDMDL
MODEL 6
REMARK VINA RESULT:    -4.360      1.747      3.466
REMARK INTER + INTRA:          -5.578
REMARK INTER:                  -5.918
REMARK INTRA:                   0.341
REMARK UNBOUND:                 0.567
REMARK SMILES CC1=CCC(=C(C)C)C(=O)CC(C)=CCC1
REMARK SMILES IDX 12 1 14 2 13 3 15 4 16 5 2 6 1 7 3 8 11 10 9 11 10 12 5 13
REMARK SMILES IDX 6 14 7 15 8 16 4 17
REMARK H PARENT
REMARK Flexibility Score: 60.00
ROOT
ATOM      1  C   UNL     1      18.100 -12.345  67.032  1.00  0.00    -0.070 C 
ATOM      2  C   UNL     1      19.278 -11.750  67.317  1.00  0.00    -0.027 C 
ATOM      3  C   UNL     1      17.244 -12.805  68.185  1.00  0.00     0.039 C 
ENDROOT
BRANCH   2   4
ATOM      4  C   UNL     1      20.226 -11.138  66.308  1.00  0.00     0.032 C 
BRANCH   4   5
ATOM      5  C   UNL     1      19.833  -9.728  65.822  1.00  0.00     0.034 C 
BRANCH   5   6
ATOM      6  C   UNL     1      19.679  -9.638  64.313  1.00  0.00    -0.077 C 
ATOM      7  C   UNL     1      20.924  -9.761  63.473  1.00  0.00     0.039 C 
ATOM      8  C   UNL     1      18.489  -9.525  63.673  1.00  0.00    -0.023 CG0
ATOM      9  G   UNL     1      17.121  -9.368  64.306  1.00  0.00     0.000 G0
ENDBRANCH   5   6
ENDBRANCH   4   5
ENDBRANCH   2   4
BRANCH   1  10
ATOM     10  C   UNL     1      17.559 -12.487  65.623  1.00  0.00     0.111 C 
BRANCH  10  11
ATOM     11  C   UNL     1      16.371 -11.591  65.392  1.00  0.00     0.163 C 
ATOM     12  O   UNL     1      15.441 -11.605  66.244  1.00  0.00    -0.294 OA
BRANCH  11  13
ATOM     13  C   UNL     1      16.288 -10.652  64.234  1.00  0.00    -0.002 C 
ATOM     14  C   UNL     1      15.436 -10.899  63.193  1.00  0.00    -0.069 C 
ATOM     15  C   UNL     1      15.214  -9.893  62.085  1.00  0.00     0.039 C 
ATOM     16  C   UNL     1      14.668 -12.200  63.100  1.00  0.00     0.039 C 
BRANCH  13  17
ATOM     17  C   UNL     1      17.114  -9.379  64.312  1.00  0.00     0.066 CG0
ATOM     18  G   UNL     1      18.475  -9.534  63.663  1.00  0.00     0.000 G0
ENDBRANCH  13  17
ENDBRANCH  11  13
ENDBRANCH  10  11
ENDBRANCH   1  10
TORSDOF 0
ENDMDL
MODEL 7
REMARK VINA RESULT:    -4.335      1.745      2.999
REMARK INTER + INTRA:          -5.542
REMARK INTER:                  -6.043
REMARK INTRA:                   0.501
REMARK UNBOUND:                 0.567
REMARK SMILES CC1=CCC(=C(C)C)C(=O)CC(C)=CCC1
REMARK SMILES IDX 12 1 14 2 13 3 15 4 16 5 2 6 1 7 3 8 11 10 9 11 10 12 5 13
REMARK SMILES IDX 6 14 7 15 8 16 4 17
REMARK H PARENT
REMARK Flexibility Score: 60.00
ROOT
ATOM      1  C   UNL     1      15.938  -9.387  62.936  1.00  0.00    -0.070 C 
ATOM      2  C   UNL     1      17.012  -9.221  63.738  1.00  0.00    -0.027 C 
ATOM      3  C   UNL     1      14.776  -8.443  63.108  1.00  0.00     0.039 C 
ENDROOT
BRANCH   2   4
ATOM      4  C   UNL     1      18.306 -10.001  63.655  1.00  0.00     0.032 C 
BRANCH   4   5
ATOM      5  C   UNL     1      18.664 -10.800  64.925  1.00  0.00     0.034 C 
BRANCH   5   6
ATOM      6  C   UNL     1      17.518 -10.889  65.917  1.00  0.00    -0.077 C 
ATOM      7  C   UNL     1      17.516  -9.923  67.075  1.00  0.00     0.039 C 
ATOM      8  C   UNL     1      16.463 -11.731  65.791  1.00  0.00    -0.023 CG0
ATOM      9  G   UNL     1      16.261 -12.792  64.728  1.00  0.00     0.000 G0
ENDBRANCH   5   6
ENDBRANCH   4   5
ENDBRANCH   2   4
BRANCH   1  10
ATOM     10  C   UNL     1      15.883 -10.412  61.820  1.00  0.00     0.111 C 
BRANCH  10  11
ATOM     11  C   UNL     1      16.056 -11.813  62.343  1.00  0.00     0.163 C 
ATOM     12  O   UNL     1      16.853 -12.579  61.736  1.00  0.00    -0.294 OA
BRANCH  11  13
ATOM     13  C   UNL     1      15.372 -12.298  63.578  1.00  0.00    -0.002 C 
ATOM     14  C   UNL     1      14.008 -12.370  63.639  1.00  0.00    -0.069 C 
ATOM     15  C   UNL     1      13.291 -13.003  64.813  1.00  0.00     0.039 C 
ATOM     16  C   UNL     1      13.143 -11.818  62.527  1.00  0.00     0.039 C 
BRANCH  13  17
ATOM     17  C   UNL     1      16.254 -12.792  64.713  1.00  0.00     0.066 CG0
ATOM     18  G   UNL     1      16.434 -11.749  65.798  1.00  0.00     0.000 G0
ENDBRANCH  13  17
ENDBRANCH  11  13
ENDBRANCH  10  11
ENDBRANCH   1  10
TORSDOF 0
ENDMDL
MODEL 8
REMARK VINA RESULT:    -4.241     15.360     17.072
REMARK INTER + INTRA:          -5.410
REMARK INTER:                  -5.562
REMARK INTRA:                   0.152
REMARK UNBOUND:                 0.567
REMARK SMILES CC1=CCC(=C(C)C)C(=O)CC(C)=CCC1
REMARK SMILES IDX 12 1 14 2 13 3 15 4 16 5 2 6 1 7 3 8 11 10 9 11 10 12 5 13
REMARK SMILES IDX 6 14 7 15 8 16 4 17
REMARK H PARENT
REMARK Flexibility Score: 60.00
ROOT
ATOM      1  C   UNL     1       9.591  -0.056  61.978  1.00  0.00    -0.070 C 
ATOM      2  C   UNL     1       8.440  -0.575  62.457  1.00  0.00    -0.027 C 
ATOM      3  C   UNL     1      10.301  -0.803  60.878  1.00  0.00     0.039 C 
ENDROOT
BRANCH   2   4
ATOM      4  C   UNL     1       7.538   0.072  63.485  1.00  0.00     0.032 C 
BRANCH   4   5
ATOM      5  C   UNL     1       6.405   0.939  62.899  1.00  0.00     0.034 C 
BRANCH   5   6
ATOM      6  C   UNL     1       6.315   2.314  63.538  1.00  0.00    -0.077 C 
ATOM      7  C   UNL     1       5.627   2.423  64.875  1.00  0.00     0.039 C 
ATOM      8  C   UNL     1       6.871   3.436  63.017  1.00  0.00    -0.023 CG0
ATOM      9  G   UNL     1       7.589   3.569  61.688  1.00  0.00     0.000 G0
ENDBRANCH   5   6
ENDBRANCH   4   5
ENDBRANCH   2   4
BRANCH   1  10
ATOM     10  C   UNL     1      10.151   1.280  62.427  1.00  0.00     0.111 C 
BRANCH  10  11
ATOM     11  C   UNL     1       9.837   2.373  61.440  1.00  0.00     0.163 C 
ATOM     12  O   UNL     1      10.171   2.198  60.236  1.00  0.00    -0.294 OA
BRANCH  11  13
ATOM     13  C   UNL     1       9.099   3.613  61.822  1.00  0.00    -0.002 C 
ATOM     14  C   UNL     1       9.773   4.740  62.199  1.00  0.00    -0.069 C 
ATOM     15  C   UNL     1       9.064   6.055  62.441  1.00  0.00     0.039 C 
ATOM     16  C   UNL     1      11.274   4.728  62.394  1.00  0.00     0.039 C 
BRANCH  13  17
ATOM     17  C   UNL     1       7.585   3.591  61.683  1.00  0.00     0.066 CG0
ATOM     18  G   UNL     1       6.885   3.432  63.018  1.00  0.00     0.000 G0
ENDBRANCH  13  17
ENDBRANCH  11  13
ENDBRANCH  10  11
ENDBRANCH   1  10
TORSDOF 0
ENDMDL
MODEL 9
REMARK VINA RESULT:    -4.226      2.089      5.535
REMARK INTER + INTRA:          -5.389
REMARK INTER:                  -6.013
REMARK INTRA:                   0.624
REMARK UNBOUND:                 0.567
REMARK SMILES CC1=CCC(=C(C)C)C(=O)CC(C)=CCC1
REMARK SMILES IDX 12 1 14 2 13 3 15 4 16 5 2 6 1 7 3 8 11 10 9 11 10 12 5 13
REMARK SMILES IDX 6 14 7 15 8 16 4 17
REMARK H PARENT
REMARK Flexibility Score: 60.00
ROOT
ATOM      1  C   UNL     1      15.136 -11.753  65.580  1.00  0.00    -0.070 C 
ATOM      2  C   UNL     1      14.478 -11.613  64.409  1.00  0.00    -0.027 C 
ATOM      3  C   UNL     1      14.318 -11.879  66.840  1.00  0.00     0.039 C 
ENDROOT
BRANCH   2   4
ATOM      4  C   UNL     1      15.114 -11.569  63.037  1.00  0.00     0.032 C 
BRANCH   4   5
ATOM      5  C   UNL     1      14.721 -10.348  62.179  1.00  0.00     0.034 C 
BRANCH   5   6
ATOM      6  C   UNL     1      15.287  -9.041  62.707  1.00  0.00    -0.077 C 
ATOM      7  C   UNL     1      14.361  -7.854  62.776  1.00  0.00     0.039 C 
ATOM      8  C   UNL     1      16.547  -8.891  63.184  1.00  0.00    -0.023 CG0
ATOM      9  G   UNL     1      17.650  -9.932  63.198  1.00  0.00     0.000 G0
ENDBRANCH   5   6
ENDBRANCH   4   5
ENDBRANCH   2   4
BRANCH   1  10
ATOM     10  C   UNL     1      16.643 -11.883  65.677  1.00  0.00     0.111 C 
BRANCH  10  11
ATOM     11  C   UNL     1      17.319 -10.538  65.659  1.00  0.00     0.163 C 
ATOM     12  O   UNL     1      17.118  -9.760  66.632  1.00  0.00    -0.294 OA
BRANCH  11  13
ATOM     13  C   UNL     1      18.256 -10.125  64.573  1.00  0.00    -0.002 C 
ATOM     14  C   UNL     1      19.599 -10.028  64.809  1.00  0.00    -0.069 C 
ATOM     15  C   UNL     1      20.591  -9.766  63.695  1.00  0.00     0.039 C 
ATOM     16  C   UNL     1      20.164 -10.179  66.204  1.00  0.00     0.039 C 
BRANCH  13  17
ATOM     17  C   UNL     1      17.666  -9.915  63.188  1.00  0.00     0.066 CG0
ATOM     18  G   UNL     1      16.550  -8.888  63.188  1.00  0.00     0.000 G0
ENDBRANCH  13  17
ENDBRANCH  11  13
ENDBRANCH  10  11
ENDBRANCH   1  10
TORSDOF 0
ENDMDL
