MODEL 1
REMARK VINA RESULT:    -3.811      0.000      0.000
REMARK INTER + INTRA:          -4.880
REMARK INTER:                  -4.814
REMARK INTRA:                  -0.066
REMARK UNBOUND:                -0.066
REMARK SMILES CSCC[C@@H]([NH3+])C(=O)[O-]
REMARK SMILES IDX 4 1 5 2 6 3 7 7 8 8 9 9 3 10 2 11 1 12
REMARK H PARENT 6 4 6 5 6 6
REMARK Flexibility Score: inf
ROOT
ATOM      1  C   UNL     1       3.373 -25.363 -27.279  1.00  0.00     0.082 C 
ENDROOT
BRANCH   1   2
ATOM      2  C   UNL     1       4.131 -24.423 -26.313  1.00  0.00     0.228 C 
BRANCH   2   3
ATOM      3  N   UNL     1       4.974 -23.459 -27.033  1.00  0.00    -0.350 N 
ATOM      4  H   UNL     1       5.908 -23.383 -26.567  1.00  0.00     0.345 HD
ATOM      5  H   UNL     1       5.138 -23.790 -28.011  1.00  0.00     0.345 HD
ATOM      6  H   UNL     1       4.525 -22.514 -27.052  1.00  0.00     0.345 HD
ENDBRANCH   2   3
BRANCH   2   7
ATOM      7  C   UNL     1       3.141 -23.693 -25.445  1.00  0.00     0.099 C 
ATOM      8  O   UNL     1       3.239 -23.743 -24.191  1.00  0.00    -0.544 OA
ATOM      9  O   UNL     1       2.096 -22.980 -26.022  1.00  0.00    -0.544 OA
ENDBRANCH   2   7
ENDBRANCH   1   2
BRANCH   1  10
ATOM     10  C   UNL     1       3.367 -24.874 -28.736  1.00  0.00     0.076 C 
BRANCH  10  11
ATOM     11  S   UNL     1       2.446 -26.027 -29.816  1.00  0.00    -0.165 SA
ATOM     12  C   UNL     1       1.168 -24.814 -30.273  1.00  0.00     0.085 C 
ENDBRANCH  10  11
ENDBRANCH   1  10
TORSDOF 5
ENDMDL
MODEL 2
REMARK VINA RESULT:    -3.772      1.804      2.298
REMARK INTER + INTRA:          -4.830
REMARK INTER:                  -4.656
REMARK INTRA:                  -0.174
REMARK UNBOUND:                -0.066
REMARK SMILES CSCC[C@@H]([NH3+])C(=O)[O-]
REMARK SMILES IDX 4 1 5 2 6 3 7 7 8 8 9 9 3 10 2 11 1 12
REMARK H PARENT 6 4 6 5 6 6
REMARK Flexibility Score: inf
ROOT
ATOM      1  C   UNL     1       3.984 -23.556 -29.256  1.00  0.00     0.082 C 
ENDROOT
BRANCH   1   2
ATOM      2  C   UNL     1       4.418 -24.302 -27.973  1.00  0.00     0.228 C 
BRANCH   2   3
ATOM      3  N   UNL     1       5.050 -23.401 -27.001  1.00  0.00    -0.350 N 
ATOM      4  H   UNL     1       5.775 -22.814 -27.478  1.00  0.00     0.345 HD
ATOM      5  H   UNL     1       4.336 -22.751 -26.600  1.00  0.00     0.345 HD
ATOM      6  H   UNL     1       5.504 -23.944 -26.231  1.00  0.00     0.345 HD
ENDBRANCH   2   3
BRANCH   2   7
ATOM      7  C   UNL     1       3.219 -24.969 -27.353  1.00  0.00     0.099 C 
ATOM      8  O   UNL     1       2.165 -24.313 -27.145  1.00  0.00    -0.544 OA
ATOM      9  O   UNL     1       3.275 -26.308 -26.984  1.00  0.00    -0.544 OA
ENDBRANCH   2   7
ENDBRANCH   1   2
BRANCH   1  10
ATOM     10  C   UNL     1       4.442 -24.241 -30.553  1.00  0.00     0.076 C 
BRANCH  10  11
ATOM     11  S   UNL     1       3.260 -25.538 -31.069  1.00  0.00    -0.165 SA
ATOM     12  C   UNL     1       1.793 -24.472 -30.917  1.00  0.00     0.085 C 
ENDBRANCH  10  11
ENDBRANCH   1  10
TORSDOF 5
ENDMDL
MODEL 3
REMARK VINA RESULT:    -3.730      2.068      2.491
REMARK INTER + INTRA:          -4.778
REMARK INTER:                  -4.540
REMARK INTRA:                  -0.237
REMARK UNBOUND:                -0.066
REMARK SMILES CSCC[C@@H]([NH3+])C(=O)[O-]
REMARK SMILES IDX 4 1 5 2 6 3 7 7 8 8 9 9 3 10 2 11 1 12
REMARK H PARENT 6 4 6 5 6 6
REMARK Flexibility Score: inf
ROOT
ATOM      1  C   UNL     1       4.087 -23.534 -29.157  1.00  0.00     0.082 C 
ENDROOT
BRANCH   1   2
ATOM      2  C   UNL     1       4.450 -24.265 -27.843  1.00  0.00     0.228 C 
BRANCH   2   3
ATOM      3  N   UNL     1       5.049 -23.356 -26.857  1.00  0.00    -0.350 N 
ATOM      4  H   UNL     1       4.734 -22.374 -27.039  1.00  0.00     0.345 HD
ATOM      5  H   UNL     1       4.731 -23.613 -25.895  1.00  0.00     0.345 HD
ATOM      6  H   UNL     1       6.094 -23.393 -26.903  1.00  0.00     0.345 HD
ENDBRANCH   2   3
BRANCH   2   7
ATOM      7  C   UNL     1       3.214 -24.906 -27.269  1.00  0.00     0.099 C 
ATOM      8  O   UNL     1       3.216 -26.128 -26.967  1.00  0.00    -0.544 OA
ATOM      9  O   UNL     1       2.056 -24.158 -27.091  1.00  0.00    -0.544 OA
ENDBRANCH   2   7
ENDBRANCH   1   2
BRANCH   1  10
ATOM     10  C   UNL     1       3.719 -24.483 -30.308  1.00  0.00     0.076 C 
BRANCH  10  11
ATOM     11  S   UNL     1       5.101 -25.615 -30.701  1.00  0.00    -0.165 SA
ATOM     12  C   UNL     1       4.189 -27.125 -30.253  1.00  0.00     0.085 C 
ENDBRANCH  10  11
ENDBRANCH   1  10
TORSDOF 5
ENDMDL
MODEL 4
REMARK VINA RESULT:    -3.707      2.097      2.537
REMARK INTER + INTRA:          -4.748
REMARK INTER:                  -4.630
REMARK INTRA:                  -0.118
REMARK UNBOUND:                -0.066
REMARK SMILES CSCC[C@@H]([NH3+])C(=O)[O-]
REMARK SMILES IDX 4 1 5 2 6 3 7 7 8 8 9 9 3 10 2 11 1 12
REMARK H PARENT 6 4 6 5 6 6
REMARK Flexibility Score: inf
ROOT
ATOM      1  C   UNL     1       3.378 -26.121 -29.030  1.00  0.00     0.082 C 
ENDROOT
BRANCH   1   2
ATOM      2  C   UNL     1       2.999 -25.895 -27.548  1.00  0.00     0.228 C 
BRANCH   2   3
ATOM      3  N   UNL     1       3.216 -27.100 -26.736  1.00  0.00    -0.350 N 
ATOM      4  H   UNL     1       3.558 -26.831 -25.783  1.00  0.00     0.345 HD
ATOM      5  H   UNL     1       2.314 -27.613 -26.611  1.00  0.00     0.345 HD
ATOM      6  H   UNL     1       3.920 -27.729 -27.185  1.00  0.00     0.345 HD
ENDBRANCH   2   3
BRANCH   2   7
ATOM      7  C   UNL     1       3.804 -24.749 -26.995  1.00  0.00     0.099 C 
ATOM      8  O   UNL     1       4.511 -24.043 -27.761  1.00  0.00    -0.544 OA
ATOM      9  O   UNL     1       3.792 -24.478 -25.632  1.00  0.00    -0.544 OA
ENDBRANCH   2   7
ENDBRANCH   1   2
BRANCH   1  10
ATOM     10  C   UNL     1       2.169 -26.148 -29.978  1.00  0.00     0.076 C 
BRANCH  10  11
ATOM     11  S   UNL     1       1.953 -24.539 -30.820  1.00  0.00    -0.165 SA
ATOM     12  C   UNL     1       0.241 -24.301 -30.248  1.00  0.00     0.085 C 
ENDBRANCH  10  11
ENDBRANCH   1  10
TORSDOF 5
ENDMDL
MODEL 5
REMARK VINA RESULT:    -3.706      2.474      2.910
REMARK INTER + INTRA:          -4.747
REMARK INTER:                  -4.656
REMARK INTRA:                  -0.091
REMARK UNBOUND:                -0.066
REMARK SMILES CSCC[C@@H]([NH3+])C(=O)[O-]
REMARK SMILES IDX 4 1 5 2 6 3 7 7 8 8 9 9 3 10 2 11 1 12
REMARK H PARENT 6 4 6 5 6 6
REMARK Flexibility Score: inf
ROOT
ATOM      1  C   UNL     1       4.275 -23.475 -29.178  1.00  0.00     0.082 C 
ENDROOT
BRANCH   1   2
ATOM      2  C   UNL     1       4.440 -24.219 -27.832  1.00  0.00     0.228 C 
BRANCH   2   3
ATOM      3  N   UNL     1       4.985 -23.343 -26.785  1.00  0.00    -0.350 N 
ATOM      4  H   UNL     1       5.560 -22.583 -27.219  1.00  0.00     0.345 HD
ATOM      5  H   UNL     1       4.205 -22.885 -26.262  1.00  0.00     0.345 HD
ATOM      6  H   UNL     1       5.584 -23.886 -26.121  1.00  0.00     0.345 HD
ENDBRANCH   2   3
BRANCH   2   7
ATOM      7  C   UNL     1       3.108 -24.772 -27.400  1.00  0.00     0.099 C 
ATOM      8  O   UNL     1       2.134 -23.999 -27.206  1.00  0.00    -0.544 OA
ATOM      9  O   UNL     1       2.952 -26.136 -27.188  1.00  0.00    -0.544 OA
ENDBRANCH   2   7
ENDBRANCH   1   2
BRANCH   1  10
ATOM     10  C   UNL     1       4.458 -24.379 -30.408  1.00  0.00     0.076 C 
BRANCH  10  11
ATOM     11  S   UNL     1       4.133 -23.464 -31.957  1.00  0.00    -0.165 SA
ATOM     12  C   UNL     1       4.367 -21.820 -31.210  1.00  0.00     0.085 C 
ENDBRANCH  10  11
ENDBRANCH   1  10
TORSDOF 5
ENDMDL
MODEL 6
REMARK VINA RESULT:    -3.700      2.570      2.964
REMARK INTER + INTRA:          -4.739
REMARK INTER:                  -4.501
REMARK INTRA:                  -0.238
REMARK UNBOUND:                -0.066
REMARK SMILES CSCC[C@@H]([NH3+])C(=O)[O-]
REMARK SMILES IDX 4 1 5 2 6 3 7 7 8 8 9 9 3 10 2 11 1 12
REMARK H PARENT 6 4 6 5 6 6
REMARK Flexibility Score: inf
ROOT
ATOM      1  C   UNL     1       2.308 -23.541 -26.921  1.00  0.00     0.082 C 
ENDROOT
BRANCH   1   2
ATOM      2  C   UNL     1       3.592 -23.888 -27.711  1.00  0.00     0.228 C 
BRANCH   2   3
ATOM      3  N   UNL     1       4.806 -23.474 -26.995  1.00  0.00    -0.350 N 
ATOM      4  H   UNL     1       5.054 -22.490 -27.252  1.00  0.00     0.345 HD
ATOM      5  H   UNL     1       4.635 -23.494 -25.964  1.00  0.00     0.345 HD
ATOM      6  H   UNL     1       5.609 -24.102 -27.231  1.00  0.00     0.345 HD
ENDBRANCH   2   3
BRANCH   2   7
ATOM      7  C   UNL     1       3.630 -25.369 -27.978  1.00  0.00     0.099 C 
ATOM      8  O   UNL     1       3.858 -25.798 -29.139  1.00  0.00    -0.544 OA
ATOM      9  O   UNL     1       3.389 -26.272 -26.948  1.00  0.00    -0.544 OA
ENDBRANCH   2   7
ENDBRANCH   1   2
BRANCH   1  10
ATOM     10  C   UNL     1       1.018 -23.692 -27.743  1.00  0.00     0.076 C 
BRANCH  10  11
ATOM     11  S   UNL     1       1.173 -22.880 -29.374  1.00  0.00    -0.165 SA
ATOM     12  C   UNL     1       0.751 -24.373 -30.325  1.00  0.00     0.085 C 
ENDBRANCH  10  11
ENDBRANCH   1  10
TORSDOF 5
ENDMDL
MODEL 7
REMARK VINA RESULT:    -3.647      3.005      4.301
REMARK INTER + INTRA:          -4.673
REMARK INTER:                  -4.529
REMARK INTRA:                  -0.144
REMARK UNBOUND:                -0.066
REMARK SMILES CSCC[C@@H]([NH3+])C(=O)[O-]
REMARK SMILES IDX 4 1 5 2 6 3 7 7 8 8 9 9 3 10 2 11 1 12
REMARK H PARENT 6 4 6 5 6 6
REMARK Flexibility Score: inf
ROOT
ATOM      1  C   UNL     1       3.813 -24.161 -24.804  1.00  0.00     0.082 C 
ENDROOT
BRANCH   1   2
ATOM      2  C   UNL     1       3.650 -23.773 -26.293  1.00  0.00     0.228 C 
BRANCH   2   3
ATOM      3  N   UNL     1       4.941 -23.469 -26.925  1.00  0.00    -0.350 N 
ATOM      4  H   UNL     1       5.722 -23.852 -26.342  1.00  0.00     0.345 HD
ATOM      5  H   UNL     1       4.996 -23.929 -27.862  1.00  0.00     0.345 HD
ATOM      6  H   UNL     1       5.069 -22.436 -27.031  1.00  0.00     0.345 HD
ENDBRANCH   2   3
BRANCH   2   7
ATOM      7  C   UNL     1       2.966 -24.894 -27.030  1.00  0.00     0.099 C 
ATOM      8  O   UNL     1       3.437 -26.060 -26.987  1.00  0.00    -0.544 OA
ATOM      9  O   UNL     1       1.824 -24.643 -27.781  1.00  0.00    -0.544 OA
ENDBRANCH   2   7
ENDBRANCH   1   2
BRANCH   1  10
ATOM     10  C   UNL     1       2.859 -23.409 -23.863  1.00  0.00     0.076 C 
BRANCH  10  11
ATOM     11  S   UNL     1       2.144 -21.938 -24.682  1.00  0.00    -0.165 SA
ATOM     12  C   UNL     1       2.780 -20.758 -23.450  1.00  0.00     0.085 C 
ENDBRANCH  10  11
ENDBRANCH   1  10
TORSDOF 5
ENDMDL
MODEL 8
REMARK VINA RESULT:    -3.638      2.180      2.779
REMARK INTER + INTRA:          -4.661
REMARK INTER:                  -4.477
REMARK INTRA:                  -0.185
REMARK UNBOUND:                -0.066
REMARK SMILES CSCC[C@@H]([NH3+])C(=O)[O-]
REMARK SMILES IDX 4 1 5 2 6 3 7 7 8 8 9 9 3 10 2 11 1 12
REMARK H PARENT 6 4 6 5 6 6
REMARK Flexibility Score: inf
ROOT
ATOM      1  C   UNL     1       3.197 -26.402 -29.009  1.00  0.00     0.082 C 
ENDROOT
BRANCH   1   2
ATOM      2  C   UNL     1       2.747 -26.143 -27.552  1.00  0.00     0.228 C 
BRANCH   2   3
ATOM      3  N   UNL     1       3.317 -27.125 -26.619  1.00  0.00    -0.350 N 
ATOM      4  H   UNL     1       4.316 -26.887 -26.417  1.00  0.00     0.345 HD
ATOM      5  H   UNL     1       2.799 -27.097 -25.712  1.00  0.00     0.345 HD
ATOM      6  H   UNL     1       3.271 -28.090 -27.021  1.00  0.00     0.345 HD
ENDBRANCH   2   3
BRANCH   2   7
ATOM      7  C   UNL     1       3.150 -24.751 -27.144  1.00  0.00     0.099 C 
ATOM      8  O   UNL     1       2.276 -23.862 -26.975  1.00  0.00    -0.544 OA
ATOM      9  O   UNL     1       4.493 -24.432 -26.976  1.00  0.00    -0.544 OA
ENDBRANCH   2   7
ENDBRANCH   1   2
BRANCH   1  10
ATOM     10  C   UNL     1       2.235 -25.829 -30.062  1.00  0.00     0.076 C 
BRANCH  10  11
ATOM     11  S   UNL     1       3.149 -25.147 -31.491  1.00  0.00    -0.165 SA
ATOM     12  C   UNL     1       4.762 -25.141 -30.648  1.00  0.00     0.085 C 
ENDBRANCH  10  11
ENDBRANCH   1  10
TORSDOF 5
ENDMDL
MODEL 9
REMARK VINA RESULT:    -3.614      3.028      3.230
REMARK INTER + INTRA:          -4.631
REMARK INTER:                  -4.406
REMARK INTRA:                  -0.225
REMARK UNBOUND:                -0.066
REMARK SMILES CSCC[C@@H]([NH3+])C(=O)[O-]
REMARK SMILES IDX 4 1 5 2 6 3 7 7 8 8 9 9 3 10 2 11 1 12
REMARK H PARENT 6 4 6 5 6 6
REMARK Flexibility Score: inf
ROOT
ATOM      1  C   UNL     1       3.309 -25.075 -27.578  1.00  0.00     0.082 C 
ENDROOT
BRANCH   1   2
ATOM      2  C   UNL     1       4.117 -23.791 -27.879  1.00  0.00     0.228 C 
BRANCH   2   3
ATOM      3  N   UNL     1       5.292 -23.664 -27.007  1.00  0.00    -0.350 N 
ATOM      4  H   UNL     1       6.168 -23.712 -27.580  1.00  0.00     0.345 HD
ATOM      5  H   UNL     1       5.283 -22.736 -26.528  1.00  0.00     0.345 HD
ATOM      6  H   UNL     1       5.310 -24.429 -26.294  1.00  0.00     0.345 HD
ENDBRANCH   2   3
BRANCH   2   7
ATOM      7  C   UNL     1       4.544 -23.796 -29.323  1.00  0.00     0.099 C 
ATOM      8  O   UNL     1       5.164 -24.784 -29.796  1.00  0.00    -0.544 OA
ATOM      9  O   UNL     1       4.279 -22.701 -30.136  1.00  0.00    -0.544 OA
ENDBRANCH   2   7
ENDBRANCH   1   2
BRANCH   1  10
ATOM     10  C   UNL     1       2.009 -25.190 -28.389  1.00  0.00     0.076 C 
BRANCH  10  11
ATOM     11  S   UNL     1       0.866 -23.814 -28.006  1.00  0.00    -0.165 SA
ATOM     12  C   UNL     1       0.759 -23.227 -29.726  1.00  0.00     0.085 C 
ENDBRANCH  10  11
ENDBRANCH   1  10
TORSDOF 5
ENDMDL
