MODEL 1
REMARK VINA RESULT:    -4.757      0.000      0.000
REMARK INTER + INTRA:          -7.676
REMARK INTER:                  -7.260
REMARK INTRA:                  -0.416
REMARK UNBOUND:                -0.416
REMARK SMILES O=C([O-])CCCCCCCCC(=O)[O-]
REMARK SMILES IDX 7 1 6 2 5 3 4 4 2 5 1 6 3 7 8 8 9 9 10 10 11 11 12 12 13 13
REMARK SMILES IDX 14 14
REMARK H PARENT
REMARK Flexibility Score: inf
ROOT
ATOM      1  C   UNL     1      20.345  -7.776  40.514  1.00  0.00     0.000 C 
ENDROOT
BRANCH   1   2
ATOM      2  C   UNL     1      19.611  -6.686  39.720  1.00  0.00     0.000 C 
BRANCH   2   3
ATOM      3  C   UNL     1      18.128  -6.628  40.108  1.00  0.00     0.006 C 
BRANCH   3   4
ATOM      4  C   UNL     1      17.955  -6.131  41.546  1.00  0.00     0.053 C 
BRANCH   4   5
ATOM      5  C   UNL     1      16.625  -6.549  42.088  1.00  0.00     0.041 C 
ATOM      6  O   UNL     1      15.605  -6.531  41.349  1.00  0.00    -0.550 OA
ATOM      7  O   UNL     1      16.521  -7.007  43.396  1.00  0.00    -0.550 OA
ENDBRANCH   4   5
ENDBRANCH   3   4
ENDBRANCH   2   3
ENDBRANCH   1   2
BRANCH   1   8
ATOM      8  C   UNL     1      21.787  -8.001  40.028  1.00  0.00     0.000 C 
BRANCH   8   9
ATOM      9  C   UNL     1      22.116  -7.394  38.649  1.00  0.00     0.000 C 
BRANCH   9  10
ATOM     10  C   UNL     1      23.557  -6.877  38.490  1.00  0.00     0.006 C 
BRANCH  10  11
ATOM     11  C   UNL     1      23.900  -5.755  39.478  1.00  0.00     0.053 C 
BRANCH  11  12
ATOM     12  C   UNL     1      25.265  -5.965  40.052  1.00  0.00     0.041 C 
ATOM     13  O   UNL     1      25.584  -5.423  41.143  1.00  0.00    -0.550 OA
ATOM     14  O   UNL     1      26.204  -6.719  39.359  1.00  0.00    -0.550 OA
ENDBRANCH  11  12
ENDBRANCH  10  11
ENDBRANCH   9  10
ENDBRANCH   8   9
ENDBRANCH   1   8
TORSDOF 9
ENDMDL
MODEL 2
REMARK VINA RESULT:    -4.721     11.488     13.245
REMARK INTER + INTRA:          -7.620
REMARK INTER:                  -7.276
REMARK INTRA:                  -0.344
REMARK UNBOUND:                -0.416
REMARK SMILES O=C([O-])CCCCCCCCC(=O)[O-]
REMARK SMILES IDX 7 1 6 2 5 3 4 4 2 5 1 6 3 7 8 8 9 9 10 10 11 11 12 12 13 13
REMARK SMILES IDX 14 14
REMARK H PARENT
REMARK Flexibility Score: inf
ROOT
ATOM      1  C   UNL     1      11.646   3.115  36.722  1.00  0.00     0.000 C 
ENDROOT
BRANCH   1   2
ATOM      2  C   UNL     1      12.224   2.442  37.975  1.00  0.00     0.000 C 
BRANCH   2   3
ATOM      3  C   UNL     1      12.857   3.477  38.912  1.00  0.00     0.006 C 
BRANCH   3   4
ATOM      4  C   UNL     1      11.784   4.307  39.622  1.00  0.00     0.053 C 
BRANCH   4   5
ATOM      5  C   UNL     1      11.776   5.709  39.102  1.00  0.00     0.041 C 
ATOM      6  O   UNL     1      10.795   6.131  38.433  1.00  0.00    -0.550 OA
ATOM      7  O   UNL     1      12.829   6.566  39.396  1.00  0.00    -0.550 OA
ENDBRANCH   4   5
ENDBRANCH   3   4
ENDBRANCH   2   3
ENDBRANCH   1   2
BRANCH   1   8
ATOM      8  C   UNL     1      12.155   2.483  35.415  1.00  0.00     0.000 C 
BRANCH   8   9
ATOM      9  C   UNL     1      13.217   1.379  35.592  1.00  0.00     0.000 C 
BRANCH   9  10
ATOM     10  C   UNL     1      14.425   1.476  34.642  1.00  0.00     0.006 C 
BRANCH  10  11
ATOM     11  C   UNL     1      15.370   0.274  34.756  1.00  0.00     0.053 C 
BRANCH  11  12
ATOM     12  C   UNL     1      15.691  -0.268  33.399  1.00  0.00     0.041 C 
ATOM     13  O   UNL     1      15.803   0.511  32.416  1.00  0.00    -0.550 OA
ATOM     14  O   UNL     1      15.818  -1.638  33.209  1.00  0.00    -0.550 OA
ENDBRANCH  11  12
ENDBRANCH  10  11
ENDBRANCH   9  10
ENDBRANCH   8   9
ENDBRANCH   1   8
TORSDOF 9
ENDMDL
MODEL 3
REMARK VINA RESULT:    -4.695     11.829     14.521
REMARK INTER + INTRA:          -7.581
REMARK INTER:                  -7.315
REMARK INTRA:                  -0.266
REMARK UNBOUND:                -0.416
REMARK SMILES O=C([O-])CCCCCCCCC(=O)[O-]
REMARK SMILES IDX 7 1 6 2 5 3 4 4 2 5 1 6 3 7 8 8 9 9 10 10 11 11 12 12 13 13
REMARK SMILES IDX 14 14
REMARK H PARENT
REMARK Flexibility Score: inf
ROOT
ATOM      1  C   UNL     1      12.638   1.786  36.632  1.00  0.00     0.000 C 
ENDROOT
BRANCH   1   2
ATOM      2  C   UNL     1      13.344   1.239  35.384  1.00  0.00     0.000 C 
BRANCH   2   3
ATOM      3  C   UNL     1      13.933  -0.152  35.650  1.00  0.00     0.006 C 
BRANCH   3   4
ATOM      4  C   UNL     1      14.546  -0.743  34.377  1.00  0.00     0.053 C 
BRANCH   4   5
ATOM      5  C   UNL     1      15.699   0.090  33.915  1.00  0.00     0.041 C 
ATOM      6  O   UNL     1      16.634   0.375  34.709  1.00  0.00    -0.550 OA
ATOM      7  O   UNL     1      15.765   0.512  32.593  1.00  0.00    -0.550 OA
ENDBRANCH   4   5
ENDBRANCH   3   4
ENDBRANCH   2   3
ENDBRANCH   1   2
BRANCH   1   8
ATOM      8  C   UNL     1      11.631   2.903  36.308  1.00  0.00     0.000 C 
BRANCH   8   9
ATOM      9  C   UNL     1      10.891   3.491  37.527  1.00  0.00     0.000 C 
BRANCH   9  10
ATOM     10  C   UNL     1      11.159   4.983  37.796  1.00  0.00     0.006 C 
BRANCH  10  11
ATOM     11  C   UNL     1      12.095   5.215  38.988  1.00  0.00     0.053 C 
BRANCH  11  12
ATOM     12  C   UNL     1      12.139   6.667  39.342  1.00  0.00     0.041 C 
ATOM     13  O   UNL     1      13.155   7.357  39.062  1.00  0.00    -0.550 OA
ATOM     14  O   UNL     1      11.079   7.250  40.024  1.00  0.00    -0.550 OA
ENDBRANCH  11  12
ENDBRANCH  10  11
ENDBRANCH   9  10
ENDBRANCH   8   9
ENDBRANCH   1   8
TORSDOF 9
ENDMDL
MODEL 4
REMARK VINA RESULT:    -4.649      1.339      7.694
REMARK INTER + INTRA:          -7.511
REMARK INTER:                  -7.168
REMARK INTRA:                  -0.343
REMARK UNBOUND:                -0.416
REMARK SMILES O=C([O-])CCCCCCCCC(=O)[O-]
REMARK SMILES IDX 7 1 6 2 5 3 4 4 2 5 1 6 3 7 8 8 9 9 10 10 11 11 12 12 13 13
REMARK SMILES IDX 14 14
REMARK H PARENT
REMARK Flexibility Score: inf
ROOT
ATOM      1  C   UNL     1      22.260  -6.940  38.983  1.00  0.00     0.000 C 
ENDROOT
BRANCH   1   2
ATOM      2  C   UNL     1      23.758  -6.730  38.718  1.00  0.00     0.000 C 
BRANCH   2   3
ATOM      3  C   UNL     1      24.557  -6.752  40.026  1.00  0.00     0.006 C 
BRANCH   3   4
ATOM      4  C   UNL     1      25.933  -7.392  39.821  1.00  0.00     0.053 C 
BRANCH   4   5
ATOM      5  C   UNL     1      26.985  -6.339  39.679  1.00  0.00     0.041 C 
ATOM      6  O   UNL     1      28.203  -6.640  39.790  1.00  0.00    -0.550 OA
ATOM      7  O   UNL     1      26.623  -5.032  39.375  1.00  0.00    -0.550 OA
ENDBRANCH   4   5
ENDBRANCH   3   4
ENDBRANCH   2   3
ENDBRANCH   1   2
BRANCH   1   8
ATOM      8  C   UNL     1      21.989  -7.919  40.139  1.00  0.00     0.000 C 
BRANCH   8   9
ATOM      9  C   UNL     1      20.513  -8.026  40.573  1.00  0.00     0.000 C 
BRANCH   9  10
ATOM     10  C   UNL     1      19.564  -7.005  39.918  1.00  0.00     0.006 C 
BRANCH  10  11
ATOM     11  C   UNL     1      18.531  -6.438  40.899  1.00  0.00     0.053 C 
BRANCH  11  12
ATOM     12  C   UNL     1      17.167  -6.452  40.286  1.00  0.00     0.041 C 
ATOM     13  O   UNL     1      16.174  -6.838  40.959  1.00  0.00    -0.550 OA
ATOM     14  O   UNL     1      16.997  -6.087  38.957  1.00  0.00    -0.550 OA
ENDBRANCH  11  12
ENDBRANCH  10  11
ENDBRANCH   9  10
ENDBRANCH   8   9
ENDBRANCH   1   8
TORSDOF 9
ENDMDL
MODEL 5
REMARK VINA RESULT:    -4.628      1.354      1.947
REMARK INTER + INTRA:          -7.479
REMARK INTER:                  -7.012
REMARK INTRA:                  -0.467
REMARK UNBOUND:                -0.416
REMARK SMILES O=C([O-])CCCCCCCCC(=O)[O-]
REMARK SMILES IDX 7 1 6 2 5 3 4 4 2 5 1 6 3 7 8 8 9 9 10 10 11 11 12 12 13 13
REMARK SMILES IDX 14 14
REMARK H PARENT
REMARK Flexibility Score: inf
ROOT
ATOM      1  C   UNL     1      21.873  -8.362  39.556  1.00  0.00     0.000 C 
ENDROOT
BRANCH   1   2
ATOM      2  C   UNL     1      20.613  -8.009  40.360  1.00  0.00     0.000 C 
BRANCH   2   3
ATOM      3  C   UNL     1      19.936  -6.754  39.796  1.00  0.00     0.006 C 
BRANCH   3   4
ATOM      4  C   UNL     1      18.411  -6.882  39.845  1.00  0.00     0.053 C 
BRANCH   4   5
ATOM      5  C   UNL     1      17.838  -5.934  40.851  1.00  0.00     0.041 C 
ATOM      6  O   UNL     1      17.274  -4.874  40.473  1.00  0.00    -0.550 OA
ATOM      7  O   UNL     1      17.883  -6.246  42.204  1.00  0.00    -0.550 OA
ENDBRANCH   4   5
ENDBRANCH   3   4
ENDBRANCH   2   3
ENDBRANCH   1   2
BRANCH   1   8
ATOM      8  C   UNL     1      22.349  -7.212  38.653  1.00  0.00     0.000 C 
BRANCH   8   9
ATOM      9  C   UNL     1      23.811  -6.772  38.870  1.00  0.00     0.000 C 
BRANCH   9  10
ATOM     10  C   UNL     1      24.511  -7.406  40.087  1.00  0.00     0.006 C 
BRANCH  10  11
ATOM     11  C   UNL     1      25.989  -7.719  39.827  1.00  0.00     0.053 C 
BRANCH  11  12
ATOM     12  C   UNL     1      26.846  -6.564  40.237  1.00  0.00     0.041 C 
ATOM     13  O   UNL     1      26.399  -5.692  41.027  1.00  0.00    -0.550 OA
ATOM     14  O   UNL     1      28.124  -6.423  39.709  1.00  0.00    -0.550 OA
ENDBRANCH  11  12
ENDBRANCH  10  11
ENDBRANCH   9  10
ENDBRANCH   8   9
ENDBRANCH   1   8
TORSDOF 9
ENDMDL
MODEL 6
REMARK VINA RESULT:    -4.544      9.657     12.722
REMARK INTER + INTRA:          -7.350
REMARK INTER:                  -7.094
REMARK INTRA:                  -0.256
REMARK UNBOUND:                -0.416
REMARK SMILES O=C([O-])CCCCCCCCC(=O)[O-]
REMARK SMILES IDX 7 1 6 2 5 3 4 4 2 5 1 6 3 7 8 8 9 9 10 10 11 11 12 12 13 13
REMARK SMILES IDX 14 14
REMARK H PARENT
REMARK Flexibility Score: inf
ROOT
ATOM      1  C   UNL     1      13.649   1.298  42.645  1.00  0.00     0.000 C 
ENDROOT
BRANCH   1   2
ATOM      2  C   UNL     1      15.108   1.100  43.081  1.00  0.00     0.000 C 
BRANCH   2   3
ATOM      3  C   UNL     1      15.342  -0.329  43.585  1.00  0.00     0.006 C 
BRANCH   3   4
ATOM      4  C   UNL     1      16.839  -0.637  43.690  1.00  0.00     0.053 C 
BRANCH   4   5
ATOM      5  C   UNL     1      17.304  -0.497  45.104  1.00  0.00     0.041 C 
ATOM      6  O   UNL     1      16.468  -0.437  46.044  1.00  0.00    -0.550 OA
ATOM      7  O   UNL     1      18.664  -0.481  45.390  1.00  0.00    -0.550 OA
ENDBRANCH   4   5
ENDBRANCH   3   4
ENDBRANCH   2   3
ENDBRANCH   1   2
BRANCH   1   8
ATOM      8  C   UNL     1      13.522   1.966  41.265  1.00  0.00     0.000 C 
BRANCH   8   9
ATOM      9  C   UNL     1      12.140   1.828  40.595  1.00  0.00     0.000 C 
BRANCH   9  10
ATOM     10  C   UNL     1      11.682   3.053  39.784  1.00  0.00     0.006 C 
BRANCH  10  11
ATOM     11  C   UNL     1      12.833   4.010  39.451  1.00  0.00     0.053 C 
BRANCH  11  12
ATOM     12  C   UNL     1      12.301   5.292  38.893  1.00  0.00     0.041 C 
ATOM     13  O   UNL     1      12.724   6.396  39.326  1.00  0.00    -0.550 OA
ATOM     14  O   UNL     1      11.301   5.269  37.928  1.00  0.00    -0.550 OA
ENDBRANCH  11  12
ENDBRANCH  10  11
ENDBRANCH   9  10
ENDBRANCH   8   9
ENDBRANCH   1   8
TORSDOF 9
ENDMDL
MODEL 7
REMARK VINA RESULT:    -4.511      9.669     11.957
REMARK INTER + INTRA:          -7.300
REMARK INTER:                  -7.029
REMARK INTRA:                  -0.272
REMARK UNBOUND:                -0.416
REMARK SMILES O=C([O-])CCCCCCCCC(=O)[O-]
REMARK SMILES IDX 7 1 6 2 5 3 4 4 2 5 1 6 3 7 8 8 9 9 10 10 11 11 12 12 13 13
REMARK SMILES IDX 14 14
REMARK H PARENT
REMARK Flexibility Score: inf
ROOT
ATOM      1  C   UNL     1      13.831   1.315  41.084  1.00  0.00     0.000 C 
ENDROOT
BRANCH   1   2
ATOM      2  C   UNL     1      12.713   2.169  40.470  1.00  0.00     0.000 C 
BRANCH   2   3
ATOM      3  C   UNL     1      13.255   3.520  39.987  1.00  0.00     0.006 C 
BRANCH   3   4
ATOM      4  C   UNL     1      12.245   4.642  40.245  1.00  0.00     0.053 C 
BRANCH   4   5
ATOM      5  C   UNL     1      12.073   5.483  39.021  1.00  0.00     0.041 C 
ATOM      6  O   UNL     1      12.435   6.690  39.025  1.00  0.00    -0.550 OA
ATOM      7  O   UNL     1      11.558   4.922  37.859  1.00  0.00    -0.550 OA
ENDBRANCH   4   5
ENDBRANCH   3   4
ENDBRANCH   2   3
ENDBRANCH   1   2
BRANCH   1   8
ATOM      8  C   UNL     1      13.705   1.173  42.611  1.00  0.00     0.000 C 
BRANCH   8   9
ATOM      9  C   UNL     1      15.041   1.021  43.366  1.00  0.00     0.000 C 
BRANCH   9  10
ATOM     10  C   UNL     1      15.462  -0.431  43.662  1.00  0.00     0.006 C 
BRANCH  10  11
ATOM     11  C   UNL     1      16.985  -0.610  43.713  1.00  0.00     0.053 C 
BRANCH  11  12
ATOM     12  C   UNL     1      17.477  -0.490  45.120  1.00  0.00     0.041 C 
ATOM     13  O   UNL     1      18.713  -0.495  45.362  1.00  0.00    -0.550 OA
ATOM     14  O   UNL     1      16.571  -0.421  46.171  1.00  0.00    -0.550 OA
ENDBRANCH  11  12
ENDBRANCH  10  11
ENDBRANCH   9  10
ENDBRANCH   8   9
ENDBRANCH   1   8
TORSDOF 9
ENDMDL
MODEL 8
REMARK VINA RESULT:    -4.491      4.767      7.157
REMARK INTER + INTRA:          -7.270
REMARK INTER:                  -6.673
REMARK INTRA:                  -0.596
REMARK UNBOUND:                -0.416
REMARK SMILES O=C([O-])CCCCCCCCC(=O)[O-]
REMARK SMILES IDX 7 1 6 2 5 3 4 4 2 5 1 6 3 7 8 8 9 9 10 10 11 11 12 12 13 13
REMARK SMILES IDX 14 14
REMARK H PARENT
REMARK Flexibility Score: inf
ROOT
ATOM      1  C   UNL     1      23.543  -4.310  38.350  1.00  0.00     0.000 C 
ENDROOT
BRANCH   1   2
ATOM      2  C   UNL     1      22.791  -5.542  38.875  1.00  0.00     0.000 C 
BRANCH   2   3
ATOM      3  C   UNL     1      23.734  -6.475  39.644  1.00  0.00     0.006 C 
BRANCH   3   4
ATOM      4  C   UNL     1      24.968  -5.719  40.146  1.00  0.00     0.053 C 
BRANCH   4   5
ATOM      5  C   UNL     1      26.163  -6.618  40.161  1.00  0.00     0.041 C 
ATOM      6  O   UNL     1      27.314  -6.138  40.341  1.00  0.00    -0.550 OA
ATOM      7  O   UNL     1      26.002  -7.991  40.025  1.00  0.00    -0.550 OA
ENDBRANCH   4   5
ENDBRANCH   3   4
ENDBRANCH   2   3
ENDBRANCH   1   2
BRANCH   1   8
ATOM      8  C   UNL     1      22.628  -3.089  38.154  1.00  0.00     0.000 C 
BRANCH   8   9
ATOM      9  C   UNL     1      23.035  -2.144  37.005  1.00  0.00     0.000 C 
BRANCH   9  10
ATOM     10  C   UNL     1      23.294  -2.833  35.653  1.00  0.00     0.006 C 
BRANCH  10  11
ATOM     11  C   UNL     1      22.007  -3.324  34.979  1.00  0.00     0.053 C 
BRANCH  11  12
ATOM     12  C   UNL     1      22.152  -4.752  34.557  1.00  0.00     0.041 C 
ATOM     13  O   UNL     1      22.417  -5.035  33.359  1.00  0.00    -0.550 OA
ATOM     14  O   UNL     1      21.947  -5.773  35.476  1.00  0.00    -0.550 OA
ENDBRANCH  11  12
ENDBRANCH  10  11
ENDBRANCH   9  10
ENDBRANCH   8   9
ENDBRANCH   1   8
TORSDOF 9
ENDMDL
MODEL 9
REMARK VINA RESULT:    -4.455      7.936      9.499
REMARK INTER + INTRA:          -7.215
REMARK INTER:                  -6.826
REMARK INTRA:                  -0.389
REMARK UNBOUND:                -0.416
REMARK SMILES O=C([O-])CCCCCCCCC(=O)[O-]
REMARK SMILES IDX 7 1 6 2 5 3 4 4 2 5 1 6 3 7 8 8 9 9 10 10 11 11 12 12 13 13
REMARK SMILES IDX 14 14
REMARK H PARENT
REMARK Flexibility Score: inf
ROOT
ATOM      1  C   UNL     1      23.034  -2.814  35.409  1.00  0.00     0.000 C 
ENDROOT
BRANCH   1   2
ATOM      2  C   UNL     1      22.715  -2.009  36.677  1.00  0.00     0.000 C 
BRANCH   2   3
ATOM      3  C   UNL     1      22.788  -0.502  36.404  1.00  0.00     0.006 C 
BRANCH   3   4
ATOM      4  C   UNL     1      21.969  -0.126  35.165  1.00  0.00     0.053 C 
BRANCH   4   5
ATOM      5  C   UNL     1      22.162   1.318  34.827  1.00  0.00     0.041 C 
ATOM      6  O   UNL     1      21.215   2.135  34.973  1.00  0.00    -0.550 OA
ATOM      7  O   UNL     1      23.403   1.771  34.399  1.00  0.00    -0.550 OA
ENDBRANCH   4   5
ENDBRANCH   3   4
ENDBRANCH   2   3
ENDBRANCH   1   2
BRANCH   1   8
ATOM      8  C   UNL     1      22.141  -4.056  35.248  1.00  0.00     0.000 C 
BRANCH   8   9
ATOM      9  C   UNL     1      21.744  -4.394  33.797  1.00  0.00     0.000 C 
BRANCH   9  10
ATOM     10  C   UNL     1      22.396  -5.664  33.221  1.00  0.00     0.006 C 
BRANCH  10  11
ATOM     11  C   UNL     1      22.426  -5.674  31.687  1.00  0.00     0.053 C 
BRANCH  11  12
ATOM     12  C   UNL     1      21.036  -5.723  31.139  1.00  0.00     0.041 C 
ATOM     13  O   UNL     1      20.614  -4.797  30.397  1.00  0.00    -0.550 OA
ATOM     14  O   UNL     1      20.187  -6.767  31.485  1.00  0.00    -0.550 OA
ENDBRANCH  11  12
ENDBRANCH  10  11
ENDBRANCH   9  10
ENDBRANCH   8   9
ENDBRANCH   1   8
TORSDOF 9
ENDMDL
