MODEL 1
REMARK VINA RESULT:    -2.495      0.000      0.000
REMARK INTER + INTRA:          -2.495
REMARK INTER:                  -2.495
REMARK INTRA:                   0.000
REMARK UNBOUND:                 0.000
REMARK SMILES CC(=O)[O-]
REMARK SMILES IDX 1 1 2 2 3 3 4 4
REMARK H PARENT
REMARK Flexibility Score: inf
ROOT
ATOM      1  C   UNL     1      38.224 104.957 259.720  1.00  0.00     0.063 C 
ATOM      2  C   UNL     1      37.060 105.830 260.045  1.00  0.00     0.038 C 
ATOM      3  O   UNL     1      36.686 105.964 261.240  1.00  0.00    -0.550 OA
ATOM      4  O   UNL     1      36.352 106.455 259.026  1.00  0.00    -0.550 OA
ENDROOT
TORSDOF 0
ENDMDL
MODEL 2
REMARK VINA RESULT:    -2.449      1.365      2.044
REMARK INTER + INTRA:          -2.449
REMARK INTER:                  -2.449
REMARK INTRA:                   0.000
REMARK UNBOUND:                 0.000
REMARK SMILES CC(=O)[O-]
REMARK SMILES IDX 1 1 2 2 3 3 4 4
REMARK H PARENT
REMARK Flexibility Score: inf
ROOT
ATOM      1  C   UNL     1      36.449 106.238 258.853  1.00  0.00     0.063 C 
ATOM      2  C   UNL     1      37.206 105.674 260.008  1.00  0.00     0.038 C 
ATOM      3  O   UNL     1      38.250 104.999 259.809  1.00  0.00    -0.550 OA
ATOM      4  O   UNL     1      36.732 105.847 261.302  1.00  0.00    -0.550 OA
ENDROOT
TORSDOF 0
ENDMDL
MODEL 3
REMARK VINA RESULT:    -2.349      1.359      2.004
REMARK INTER + INTRA:          -2.349
REMARK INTER:                  -2.349
REMARK INTRA:                   0.000
REMARK UNBOUND:                 0.000
REMARK SMILES CC(=O)[O-]
REMARK SMILES IDX 1 1 2 2 3 3 4 4
REMARK H PARENT
REMARK Flexibility Score: inf
ROOT
ATOM      1  C   UNL     1      36.859 105.869 261.328  1.00  0.00     0.063 C 
ATOM      2  C   UNL     1      37.178 105.834 259.871  1.00  0.00     0.038 C 
ATOM      3  O   UNL     1      36.433 106.425 259.048  1.00  0.00    -0.550 OA
ATOM      4  O   UNL     1      38.269 105.104 259.415  1.00  0.00    -0.550 OA
ENDROOT
TORSDOF 0
ENDMDL
MODEL 4
REMARK VINA RESULT:    -2.276      2.243      2.463
REMARK INTER + INTRA:          -2.276
REMARK INTER:                  -2.276
REMARK INTRA:                   0.000
REMARK UNBOUND:                 0.000
REMARK SMILES CC(=O)[O-]
REMARK SMILES IDX 1 1 2 2 3 3 4 4
REMARK H PARENT
REMARK Flexibility Score: inf
ROOT
ATOM      1  C   UNL     1      36.808 105.658 260.514  1.00  0.00     0.063 C 
ATOM      2  C   UNL     1      36.960 106.058 261.943  1.00  0.00     0.038 C 
ATOM      3  O   UNL     1      35.971 106.011 262.720  1.00  0.00    -0.550 OA
ATOM      4  O   UNL     1      38.180 106.534 262.406  1.00  0.00    -0.550 OA
ENDROOT
TORSDOF 0
ENDMDL
MODEL 5
REMARK VINA RESULT:    -2.187      3.733      4.244
REMARK INTER + INTRA:          -2.187
REMARK INTER:                  -2.187
REMARK INTRA:                   0.000
REMARK UNBOUND:                 0.000
REMARK SMILES CC(=O)[O-]
REMARK SMILES IDX 1 1 2 2 3 3 4 4
REMARK H PARENT
REMARK Flexibility Score: inf
ROOT
ATOM      1  C   UNL     1      34.875 104.310 263.949  1.00  0.00     0.063 C 
ATOM      2  C   UNL     1      35.322 105.704 263.659  1.00  0.00     0.038 C 
ATOM      3  O   UNL     1      34.876 106.664 264.338  1.00  0.00    -0.550 OA
ATOM      4  O   UNL     1      36.190 105.949 262.602  1.00  0.00    -0.550 OA
ENDROOT
TORSDOF 0
ENDMDL
MODEL 6
REMARK VINA RESULT:    -2.171      2.092      2.601
REMARK INTER + INTRA:          -2.171
REMARK INTER:                  -2.171
REMARK INTRA:                   0.000
REMARK UNBOUND:                 0.000
REMARK SMILES CC(=O)[O-]
REMARK SMILES IDX 1 1 2 2 3 3 4 4
REMARK H PARENT
REMARK Flexibility Score: inf
ROOT
ATOM      1  C   UNL     1      35.962 105.948 263.008  1.00  0.00     0.063 C 
ATOM      2  C   UNL     1      37.000 106.078 261.945  1.00  0.00     0.038 C 
ATOM      3  O   UNL     1      38.158 106.474 262.239  1.00  0.00    -0.550 OA
ATOM      4  O   UNL     1      36.677 105.815 260.620  1.00  0.00    -0.550 OA
ENDROOT
TORSDOF 0
ENDMDL
MODEL 7
REMARK VINA RESULT:    -2.132      3.836      4.679
REMARK INTER + INTRA:          -2.132
REMARK INTER:                  -2.132
REMARK INTRA:                   0.000
REMARK UNBOUND:                 0.000
REMARK SMILES CC(=O)[O-]
REMARK SMILES IDX 1 1 2 2 3 3 4 4
REMARK H PARENT
REMARK Flexibility Score: inf
ROOT
ATOM      1  C   UNL     1      34.875 106.594 264.703  1.00  0.00     0.063 C 
ATOM      2  C   UNL     1      35.313 105.582 263.698  1.00  0.00     0.038 C 
ATOM      3  O   UNL     1      36.038 105.928 262.730  1.00  0.00    -0.550 OA
ATOM      4  O   UNL     1      34.878 104.267 263.801  1.00  0.00    -0.550 OA
ENDROOT
TORSDOF 0
ENDMDL
MODEL 8
REMARK VINA RESULT:    -2.102      8.477      9.157
REMARK INTER + INTRA:          -2.102
REMARK INTER:                  -2.102
REMARK INTRA:                   0.000
REMARK UNBOUND:                 0.000
REMARK SMILES CC(=O)[O-]
REMARK SMILES IDX 1 1 2 2 3 3 4 4
REMARK H PARENT
REMARK Flexibility Score: inf
ROOT
ATOM      1  C   UNL     1      34.924 107.858 267.827  1.00  0.00     0.063 C 
ATOM      2  C   UNL     1      35.027 106.606 268.631  1.00  0.00     0.038 C 
ATOM      3  O   UNL     1      35.101 105.490 268.054  1.00  0.00    -0.550 OA
ATOM      4  O   UNL     1      34.989 106.665 270.018  1.00  0.00    -0.550 OA
ENDROOT
TORSDOF 0
ENDMDL
MODEL 9
REMARK VINA RESULT:    -2.090      8.000      8.608
REMARK INTER + INTRA:          -2.090
REMARK INTER:                  -2.090
REMARK INTRA:                   0.000
REMARK UNBOUND:                 0.000
REMARK SMILES CC(=O)[O-]
REMARK SMILES IDX 1 1 2 2 3 3 4 4
REMARK H PARENT
REMARK Flexibility Score: inf
ROOT
ATOM      1  C   UNL     1      35.250 106.251 269.368  1.00  0.00     0.063 C 
ATOM      2  C   UNL     1      34.994 106.935 268.067  1.00  0.00     0.038 C 
ATOM      3  O   UNL     1      34.931 106.265 267.004  1.00  0.00    -0.550 OA
ATOM      4  O   UNL     1      34.879 108.319 268.020  1.00  0.00    -0.550 OA
ENDROOT
TORSDOF 0
ENDMDL
