MODEL 1
REMARK VINA RESULT:    -2.515      0.000      0.000
REMARK INTER + INTRA:          -3.037
REMARK INTER:                  -2.956
REMARK INTRA:                  -0.081
REMARK UNBOUND:                -0.081
REMARK SMILES O=C([O-])CCC(=O)[O-]
REMARK SMILES IDX 4 1 2 2 1 3 3 4 5 5 6 6 7 7 8 8
REMARK H PARENT
REMARK Flexibility Score: inf
ROOT
ATOM      1  C   UNL     1     -46.013 -47.940  70.817  1.00  0.00     0.059 C 
ENDROOT
BRANCH   1   2
ATOM      2  C   UNL     1     -47.453 -47.563  70.649  1.00  0.00     0.042 C 
ATOM      3  O   UNL     1     -47.763 -46.462  70.125  1.00  0.00    -0.550 OA
ATOM      4  O   UNL     1     -48.453 -48.413  71.108  1.00  0.00    -0.550 OA
ENDBRANCH   1   2
BRANCH   1   5
ATOM      5  C   UNL     1     -45.190 -46.782  71.393  1.00  0.00     0.059 C 
BRANCH   5   6
ATOM      6  C   UNL     1     -44.109 -46.352  70.449  1.00  0.00     0.042 C 
ATOM      7  O   UNL     1     -43.709 -47.131  69.545  1.00  0.00    -0.550 OA
ATOM      8  O   UNL     1     -43.570 -45.075  70.546  1.00  0.00    -0.550 OA
ENDBRANCH   5   6
ENDBRANCH   1   5
TORSDOF 3
ENDMDL
MODEL 2
REMARK VINA RESULT:    -2.514      0.121      4.105
REMARK INTER + INTRA:          -3.035
REMARK INTER:                  -2.947
REMARK INTRA:                  -0.089
REMARK UNBOUND:                -0.081
REMARK SMILES O=C([O-])CCC(=O)[O-]
REMARK SMILES IDX 4 1 2 2 1 3 3 4 5 5 6 6 7 7 8 8
REMARK H PARENT
REMARK Flexibility Score: inf
ROOT
ATOM      1  C   UNL     1     -45.281 -46.731  71.442  1.00  0.00     0.059 C 
ENDROOT
BRANCH   1   2
ATOM      2  C   UNL     1     -44.192 -46.310  70.503  1.00  0.00     0.042 C 
ATOM      3  O   UNL     1     -43.857 -47.055  69.546  1.00  0.00    -0.550 OA
ATOM      4  O   UNL     1     -43.521 -45.110  70.710  1.00  0.00    -0.550 OA
ENDBRANCH   1   2
BRANCH   1   5
ATOM      5  C   UNL     1     -46.086 -47.909  70.881  1.00  0.00     0.059 C 
BRANCH   5   6
ATOM      6  C   UNL     1     -47.517 -47.536  70.645  1.00  0.00     0.042 C 
ATOM      7  O   UNL     1     -47.803 -46.451  70.073  1.00  0.00    -0.550 OA
ATOM      8  O   UNL     1     -48.533 -48.405  71.021  1.00  0.00    -0.550 OA
ENDBRANCH   5   6
ENDBRANCH   1   5
TORSDOF 3
ENDMDL
MODEL 3
REMARK VINA RESULT:    -2.455      1.281      1.893
REMARK INTER + INTRA:          -2.966
REMARK INTER:                  -2.865
REMARK INTRA:                  -0.101
REMARK UNBOUND:                -0.081
REMARK SMILES O=C([O-])CCC(=O)[O-]
REMARK SMILES IDX 4 1 2 2 1 3 3 4 5 5 6 6 7 7 8 8
REMARK H PARENT
REMARK Flexibility Score: inf
ROOT
ATOM      1  C   UNL     1     -46.618 -48.641  70.794  1.00  0.00     0.059 C 
ENDROOT
BRANCH   1   2
ATOM      2  C   UNL     1     -47.809 -47.731  70.777  1.00  0.00     0.042 C 
ATOM      3  O   UNL     1     -48.893 -48.097  71.300  1.00  0.00    -0.550 OA
ATOM      4  O   UNL     1     -47.730 -46.495  70.147  1.00  0.00    -0.550 OA
ENDBRANCH   1   2
BRANCH   1   5
ATOM      5  C   UNL     1     -45.304 -47.851  70.780  1.00  0.00     0.059 C 
BRANCH   5   6
ATOM      6  C   UNL     1     -44.628 -47.930  69.445  1.00  0.00     0.042 C 
ATOM      7  O   UNL     1     -45.172 -48.551  68.494  1.00  0.00    -0.550 OA
ATOM      8  O   UNL     1     -43.415 -47.284  69.241  1.00  0.00    -0.550 OA
ENDBRANCH   5   6
ENDBRANCH   1   5
TORSDOF 3
ENDMDL
MODEL 4
REMARK VINA RESULT:    -2.454      1.269      1.484
REMARK INTER + INTRA:          -2.965
REMARK INTER:                  -2.931
REMARK INTRA:                  -0.034
REMARK UNBOUND:                -0.081
REMARK SMILES O=C([O-])CCC(=O)[O-]
REMARK SMILES IDX 4 1 2 2 1 3 3 4 5 5 6 6 7 7 8 8
REMARK H PARENT
REMARK Flexibility Score: inf
ROOT
ATOM      1  C   UNL     1     -46.171 -48.579  70.730  1.00  0.00     0.059 C 
ENDROOT
BRANCH   1   2
ATOM      2  C   UNL     1     -47.581 -49.080  70.799  1.00  0.00     0.042 C 
ATOM      3  O   UNL     1     -48.542 -48.268  70.827  1.00  0.00    -0.550 OA
ATOM      4  O   UNL     1     -47.831 -50.446  70.873  1.00  0.00    -0.550 OA
ENDBRANCH   1   2
BRANCH   1   5
ATOM      5  C   UNL     1     -46.074 -47.106  71.144  1.00  0.00     0.059 C 
BRANCH   5   6
ATOM      6  C   UNL     1     -44.665 -46.604  71.070  1.00  0.00     0.042 C 
ATOM      7  O   UNL     1     -44.007 -46.713  70.002  1.00  0.00    -0.550 OA
ATOM      8  O   UNL     1     -44.091 -45.979  72.171  1.00  0.00    -0.550 OA
ENDBRANCH   5   6
ENDBRANCH   1   5
TORSDOF 3
ENDMDL
MODEL 5
REMARK VINA RESULT:    -2.443      1.559      3.925
REMARK INTER + INTRA:          -2.952
REMARK INTER:                  -2.834
REMARK INTRA:                  -0.118
REMARK UNBOUND:                -0.081
REMARK SMILES O=C([O-])CCC(=O)[O-]
REMARK SMILES IDX 4 1 2 2 1 3 3 4 5 5 6 6 7 7 8 8
REMARK H PARENT
REMARK Flexibility Score: inf
ROOT
ATOM      1  C   UNL     1     -45.361 -47.990  70.729  1.00  0.00     0.059 C 
ENDROOT
BRANCH   1   2
ATOM      2  C   UNL     1     -44.661 -48.212  69.423  1.00  0.00     0.042 C 
ATOM      3  O   UNL     1     -43.406 -48.155  69.358  1.00  0.00    -0.550 OA
ATOM      4  O   UNL     1     -45.401 -48.441  68.268  1.00  0.00    -0.550 OA
ENDBRANCH   1   2
BRANCH   1   5
ATOM      5  C   UNL     1     -46.711 -48.716  70.777  1.00  0.00     0.059 C 
BRANCH   5   6
ATOM      6  C   UNL     1     -47.856 -47.750  70.769  1.00  0.00     0.042 C 
ATOM      7  O   UNL     1     -48.940 -48.046  71.337  1.00  0.00    -0.550 OA
ATOM      8  O   UNL     1     -47.711 -46.506  70.167  1.00  0.00    -0.550 OA
ENDBRANCH   5   6
ENDBRANCH   1   5
TORSDOF 3
ENDMDL
MODEL 6
REMARK VINA RESULT:    -2.435      1.950      4.475
REMARK INTER + INTRA:          -2.943
REMARK INTER:                  -2.822
REMARK INTRA:                  -0.121
REMARK UNBOUND:                -0.081
REMARK SMILES O=C([O-])CCC(=O)[O-]
REMARK SMILES IDX 4 1 2 2 1 3 3 4 5 5 6 6 7 7 8 8
REMARK H PARENT
REMARK Flexibility Score: inf
ROOT
ATOM      1  C   UNL     1     -47.051 -47.279  70.218  1.00  0.00     0.059 C 
ENDROOT
BRANCH   1   2
ATOM      2  C   UNL     1     -45.734 -47.528  70.890  1.00  0.00     0.042 C 
ATOM      3  O   UNL     1     -45.190 -48.661  70.817  1.00  0.00    -0.550 OA
ATOM      4  O   UNL     1     -45.129 -46.519  71.629  1.00  0.00    -0.550 OA
ENDBRANCH   1   2
BRANCH   1   5
ATOM      5  C   UNL     1     -48.226 -47.716  71.101  1.00  0.00     0.059 C 
BRANCH   5   6
ATOM      6  C   UNL     1     -48.800 -49.023  70.646  1.00  0.00     0.042 C 
ATOM      7  O   UNL     1     -49.852 -49.047  69.953  1.00  0.00    -0.550 OA
ATOM      8  O   UNL     1     -48.152 -50.212  70.955  1.00  0.00    -0.550 OA
ENDBRANCH   5   6
ENDBRANCH   1   5
TORSDOF 3
ENDMDL
MODEL 7
REMARK VINA RESULT:    -2.432      1.841      2.621
REMARK INTER + INTRA:          -2.939
REMARK INTER:                  -2.750
REMARK INTRA:                  -0.189
REMARK UNBOUND:                -0.081
REMARK SMILES O=C([O-])CCC(=O)[O-]
REMARK SMILES IDX 4 1 2 2 1 3 3 4 5 5 6 6 7 7 8 8
REMARK H PARENT
REMARK Flexibility Score: inf
ROOT
ATOM      1  C   UNL     1     -46.024 -47.503  71.077  1.00  0.00     0.059 C 
ENDROOT
BRANCH   1   2
ATOM      2  C   UNL     1     -47.464 -47.397  70.675  1.00  0.00     0.042 C 
ATOM      3  O   UNL     1     -47.855 -46.431  69.970  1.00  0.00    -0.550 OA
ATOM      4  O   UNL     1     -48.380 -48.344  71.116  1.00  0.00    -0.550 OA
ENDBRANCH   1   2
BRANCH   1   5
ATOM      5  C   UNL     1     -45.412 -48.838  70.637  1.00  0.00     0.059 C 
BRANCH   5   6
ATOM      6  C   UNL     1     -45.474 -49.009  69.149  1.00  0.00     0.042 C 
ATOM      7  O   UNL     1     -44.784 -48.272  68.397  1.00  0.00    -0.550 OA
ATOM      8  O   UNL     1     -46.265 -50.008  68.597  1.00  0.00    -0.550 OA
ENDBRANCH   5   6
ENDBRANCH   1   5
TORSDOF 3
ENDMDL
MODEL 8
REMARK VINA RESULT:    -2.398      2.011      3.113
REMARK INTER + INTRA:          -2.900
REMARK INTER:                  -2.791
REMARK INTRA:                  -0.108
REMARK UNBOUND:                -0.081
REMARK SMILES O=C([O-])CCC(=O)[O-]
REMARK SMILES IDX 4 1 2 2 1 3 3 4 5 5 6 6 7 7 8 8
REMARK H PARENT
REMARK Flexibility Score: inf
ROOT
ATOM      1  C   UNL     1     -47.996 -49.313  69.889  1.00  0.00     0.059 C 
ENDROOT
BRANCH   1   2
ATOM      2  C   UNL     1     -49.031 -49.962  70.756  1.00  0.00     0.042 C 
ATOM      3  O   UNL     1     -50.049 -49.317  71.118  1.00  0.00    -0.550 OA
ATOM      4  O   UNL     1     -48.851 -51.268  71.196  1.00  0.00    -0.550 OA
ENDBRANCH   1   2
BRANCH   1   5
ATOM      5  C   UNL     1     -46.781 -48.856  70.706  1.00  0.00     0.059 C 
BRANCH   5   6
ATOM      6  C   UNL     1     -46.727 -47.364  70.824  1.00  0.00     0.042 C 
ATOM      7  O   UNL     1     -47.665 -46.657  70.371  1.00  0.00    -0.550 OA
ATOM      8  O   UNL     1     -45.657 -46.757  71.471  1.00  0.00    -0.550 OA
ENDBRANCH   5   6
ENDBRANCH   1   5
TORSDOF 3
ENDMDL
MODEL 9
REMARK VINA RESULT:    -2.350      2.194      4.214
REMARK INTER + INTRA:          -2.843
REMARK INTER:                  -2.726
REMARK INTRA:                  -0.117
REMARK UNBOUND:                -0.081
REMARK SMILES O=C([O-])CCC(=O)[O-]
REMARK SMILES IDX 4 1 2 2 1 3 3 4 5 5 6 6 7 7 8 8
REMARK H PARENT
REMARK Flexibility Score: inf
ROOT
ATOM      1  C   UNL     1     -46.305 -48.449  69.903  1.00  0.00     0.059 C 
ENDROOT
BRANCH   1   2
ATOM      2  C   UNL     1     -46.661 -47.420  70.933  1.00  0.00     0.042 C 
ATOM      3  O   UNL     1     -45.755 -46.790  71.539  1.00  0.00    -0.550 OA
ATOM      4  O   UNL     1     -47.993 -47.187  71.253  1.00  0.00    -0.550 OA
ENDBRANCH   1   2
BRANCH   1   5
ATOM      5  C   UNL     1     -46.311 -49.864  70.492  1.00  0.00     0.059 C 
BRANCH   5   6
ATOM      6  C   UNL     1     -47.632 -50.540  70.289  1.00  0.00     0.042 C 
ATOM      7  O   UNL     1     -48.005 -51.453  71.073  1.00  0.00    -0.550 OA
ATOM      8  O   UNL     1     -48.469 -50.134  69.257  1.00  0.00    -0.550 OA
ENDBRANCH   5   6
ENDBRANCH   1   5
TORSDOF 3
ENDMDL
