MODEL 1
REMARK VINA RESULT:    -3.655      0.000      0.000
REMARK INTER + INTRA:          -4.750
REMARK INTER:                  -4.403
REMARK INTRA:                  -0.347
REMARK UNBOUND:                -0.347
REMARK SMILES NC(=O)C[C@H]([NH3+])C(=O)[O-]
REMARK SMILES IDX 4 1 5 2 6 3 7 7 8 8 9 9 2 10 3 11 1 12
REMARK H PARENT 6 4 6 5 6 6 1 13 1 14
REMARK Flexibility Score: inf
ROOT
ATOM      1  C   UNL     1      27.943   0.989   5.570  1.00  0.00     0.171 C 
ENDROOT
BRANCH   1   2
ATOM      2  C   UNL     1      27.378  -0.150   6.443  1.00  0.00     0.237 C 
BRANCH   2   3
ATOM      3  N   UNL     1      25.909  -0.141   6.456  1.00  0.00    -0.350 N 
ATOM      4  H   UNL     1      25.560   0.707   6.957  1.00  0.00     0.345 HD
ATOM      5  H   UNL     1      25.546  -0.105   5.476  1.00  0.00     0.345 HD
ATOM      6  H   UNL     1      25.536  -0.997   6.928  1.00  0.00     0.345 HD
ENDBRANCH   2   3
BRANCH   2   7
ATOM      7  C   UNL     1      27.913  -0.031   7.845  1.00  0.00     0.100 C 
ATOM      8  O   UNL     1      29.006  -0.572   8.160  1.00  0.00    -0.544 OA
ATOM      9  O   UNL     1      27.190   0.663   8.807  1.00  0.00    -0.544 OA
ENDBRANCH   2   7
ENDBRANCH   1   2
BRANCH   1  10
ATOM     10  C   UNL     1      26.931   2.077   5.355  1.00  0.00     0.223 C 
ATOM     11  O   UNL     1      26.539   2.768   6.332  1.00  0.00    -0.275 OA
ATOM     12  N   UNL     1      26.435   2.358   4.046  1.00  0.00    -0.369 N 
ATOM     13  H   UNL     1      26.767   1.811   3.220  1.00  0.00     0.159 HD
ATOM     14  H   UNL     1      25.741   3.123   3.900  1.00  0.00     0.159 HD
ENDBRANCH   1  10
TORSDOF 4
ENDMDL
MODEL 2
REMARK VINA RESULT:    -3.650     12.065     13.035
REMARK INTER + INTRA:          -4.744
REMARK INTER:                  -4.226
REMARK INTRA:                  -0.519
REMARK UNBOUND:                -0.347
REMARK SMILES NC(=O)C[C@H]([NH3+])C(=O)[O-]
REMARK SMILES IDX 4 1 5 2 6 3 7 7 8 8 9 9 2 10 3 11 1 12
REMARK H PARENT 6 4 6 5 6 6 1 13 1 14
REMARK Flexibility Score: inf
ROOT
ATOM      1  C   UNL     1      25.872  -5.284  18.120  1.00  0.00     0.171 C 
ENDROOT
BRANCH   1   2
ATOM      2  C   UNL     1      24.690  -4.487  18.708  1.00  0.00     0.237 C 
BRANCH   2   3
ATOM      3  N   UNL     1      23.421  -5.208  18.547  1.00  0.00    -0.350 N 
ATOM      4  H   UNL     1      23.552  -6.221  18.769  1.00  0.00     0.345 HD
ATOM      5  H   UNL     1      22.709  -4.826  19.212  1.00  0.00     0.345 HD
ATOM      6  H   UNL     1      23.061  -5.115  17.569  1.00  0.00     0.345 HD
ENDBRANCH   2   3
BRANCH   2   7
ATOM      7  C   UNL     1      24.608  -3.135  18.050  1.00  0.00     0.100 C 
ATOM      8  O   UNL     1      24.971  -2.100  18.670  1.00  0.00    -0.544 OA
ATOM      9  O   UNL     1      24.112  -3.022  16.758  1.00  0.00    -0.544 OA
ENDBRANCH   2   7
ENDBRANCH   1   2
BRANCH   1  10
ATOM     10  C   UNL     1      25.429  -6.201  17.016  1.00  0.00     0.223 C 
ATOM     11  O   UNL     1      25.066  -7.376  17.289  1.00  0.00    -0.275 OA
ATOM     12  N   UNL     1      25.383  -5.742  15.665  1.00  0.00    -0.369 N 
ATOM     13  H   UNL     1      25.657  -4.763  15.425  1.00  0.00     0.159 HD
ATOM     14  H   UNL     1      25.063  -6.380  14.903  1.00  0.00     0.159 HD
ENDBRANCH   1  10
TORSDOF 4
ENDMDL
MODEL 3
REMARK VINA RESULT:    -3.618     12.377     13.490
REMARK INTER + INTRA:          -4.705
REMARK INTER:                  -4.217
REMARK INTRA:                  -0.488
REMARK UNBOUND:                -0.347
REMARK SMILES NC(=O)C[C@H]([NH3+])C(=O)[O-]
REMARK SMILES IDX 4 1 5 2 6 3 7 7 8 8 9 9 2 10 3 11 1 12
REMARK H PARENT 6 4 6 5 6 6 1 13 1 14
REMARK Flexibility Score: inf
ROOT
ATOM      1  C   UNL     1      23.712  -7.411  16.674  1.00  0.00     0.171 C 
ENDROOT
BRANCH   1   2
ATOM      2  C   UNL     1      24.672  -6.252  16.336  1.00  0.00     0.237 C 
BRANCH   2   3
ATOM      3  N   UNL     1      25.460  -6.541  15.131  1.00  0.00    -0.350 N 
ATOM      4  H   UNL     1      24.946  -7.213  14.517  1.00  0.00     0.345 HD
ATOM      5  H   UNL     1      25.608  -5.660  14.585  1.00  0.00     0.345 HD
ATOM      6  H   UNL     1      26.391  -6.948  15.384  1.00  0.00     0.345 HD
ENDBRANCH   2   3
BRANCH   2   7
ATOM      7  C   UNL     1      25.583  -5.987  17.504  1.00  0.00     0.100 C 
ATOM      8  O   UNL     1      25.930  -4.810  17.790  1.00  0.00    -0.544 OA
ATOM      9  O   UNL     1      26.064  -7.046  18.263  1.00  0.00    -0.544 OA
ENDBRANCH   2   7
ENDBRANCH   1   2
BRANCH   1  10
ATOM     10  C   UNL     1      24.155  -8.701  16.045  1.00  0.00     0.223 C 
ATOM     11  O   UNL     1      23.748  -9.005  14.893  1.00  0.00    -0.275 OA
ATOM     12  N   UNL     1      25.059  -9.569  16.728  1.00  0.00    -0.369 N 
ATOM     13  H   UNL     1      25.425  -9.320  17.674  1.00  0.00     0.159 HD
ATOM     14  H   UNL     1      25.373 -10.458  16.281  1.00  0.00     0.159 HD
ENDBRANCH   1  10
TORSDOF 4
ENDMDL
MODEL 4
REMARK VINA RESULT:    -3.583      1.816      2.024
REMARK INTER + INTRA:          -4.663
REMARK INTER:                  -4.401
REMARK INTRA:                  -0.262
REMARK UNBOUND:                -0.347
REMARK SMILES NC(=O)C[C@H]([NH3+])C(=O)[O-]
REMARK SMILES IDX 4 1 5 2 6 3 7 7 8 8 9 9 2 10 3 11 1 12
REMARK H PARENT 6 4 6 5 6 6 1 13 1 14
REMARK Flexibility Score: inf
ROOT
ATOM      1  C   UNL     1      27.757   0.577   5.436  1.00  0.00     0.171 C 
ENDROOT
BRANCH   1   2
ATOM      2  C   UNL     1      27.595  -0.118   6.802  1.00  0.00     0.237 C 
BRANCH   2   3
ATOM      3  N   UNL     1      28.618   0.328   7.758  1.00  0.00    -0.350 N 
ATOM      4  H   UNL     1      29.204   1.081   7.332  1.00  0.00     0.345 HD
ATOM      5  H   UNL     1      28.159   0.725   8.610  1.00  0.00     0.345 HD
ATOM      6  H   UNL     1      29.235  -0.469   8.041  1.00  0.00     0.345 HD
ENDBRANCH   2   3
BRANCH   2   7
ATOM      7  C   UNL     1      27.661  -1.611   6.627  1.00  0.00     0.100 C 
ATOM      8  O   UNL     1      28.320  -2.321   7.432  1.00  0.00    -0.544 OA
ATOM      9  O   UNL     1      27.008  -2.213   5.559  1.00  0.00    -0.544 OA
ENDBRANCH   2   7
ENDBRANCH   1   2
BRANCH   1  10
ATOM     10  C   UNL     1      27.045   1.899   5.396  1.00  0.00     0.223 C 
ATOM     11  O   UNL     1      26.893   2.558   6.458  1.00  0.00    -0.275 OA
ATOM     12  N   UNL     1      26.569   2.430   4.160  1.00  0.00    -0.369 N 
ATOM     13  H   UNL     1      26.708   1.908   3.265  1.00  0.00     0.159 HD
ATOM     14  H   UNL     1      26.085   3.354   4.136  1.00  0.00     0.159 HD
ENDBRANCH   1  10
TORSDOF 4
ENDMDL
MODEL 5
REMARK VINA RESULT:    -3.441     12.447     13.017
REMARK INTER + INTRA:          -4.493
REMARK INTER:                  -4.357
REMARK INTRA:                  -0.136
REMARK UNBOUND:                -0.347
REMARK SMILES NC(=O)C[C@H]([NH3+])C(=O)[O-]
REMARK SMILES IDX 4 1 5 2 6 3 7 7 8 8 9 9 2 10 3 11 1 12
REMARK H PARENT 6 4 6 5 6 6 1 13 1 14
REMARK Flexibility Score: inf
ROOT
ATOM      1  C   UNL     1      25.429  -4.779  17.310  1.00  0.00     0.171 C 
ENDROOT
BRANCH   1   2
ATOM      2  C   UNL     1      24.035  -4.141  17.148  1.00  0.00     0.237 C 
BRANCH   2   3
ATOM      3  N   UNL     1      24.110  -2.855  16.441  1.00  0.00    -0.350 N 
ATOM      4  H   UNL     1      25.108  -2.598  16.268  1.00  0.00     0.345 HD
ATOM      5  H   UNL     1      23.634  -2.933  15.513  1.00  0.00     0.345 HD
ATOM      6  H   UNL     1      23.652  -2.097  16.999  1.00  0.00     0.345 HD
ENDBRANCH   2   3
BRANCH   2   7
ATOM      7  C   UNL     1      23.398  -3.956  18.499  1.00  0.00     0.100 C 
ATOM      8  O   UNL     1      23.023  -2.815  18.879  1.00  0.00    -0.544 OA
ATOM      9  O   UNL     1      23.238  -5.046  19.345  1.00  0.00    -0.544 OA
ENDBRANCH   2   7
ENDBRANCH   1   2
BRANCH   1  10
ATOM     10  C   UNL     1      25.469  -6.176  16.760  1.00  0.00     0.223 C 
ATOM     11  O   UNL     1      25.432  -7.158  17.546  1.00  0.00    -0.275 OA
ATOM     12  N   UNL     1      25.513  -6.399  15.351  1.00  0.00    -0.369 N 
ATOM     13  H   UNL     1      25.520  -5.596  14.682  1.00  0.00     0.159 HD
ATOM     14  H   UNL     1      25.529  -7.372  14.972  1.00  0.00     0.159 HD
ENDBRANCH   1  10
TORSDOF 4
ENDMDL
MODEL 6
REMARK VINA RESULT:    -3.439     12.270     13.105
REMARK INTER + INTRA:          -4.490
REMARK INTER:                  -3.997
REMARK INTRA:                  -0.492
REMARK UNBOUND:                -0.347
REMARK SMILES NC(=O)C[C@H]([NH3+])C(=O)[O-]
REMARK SMILES IDX 4 1 5 2 6 3 7 7 8 8 9 9 2 10 3 11 1 12
REMARK H PARENT 6 4 6 5 6 6 1 13 1 14
REMARK Flexibility Score: inf
ROOT
ATOM      1  C   UNL     1      25.273  -5.446  18.279  1.00  0.00     0.171 C 
ENDROOT
BRANCH   1   2
ATOM      2  C   UNL     1      25.405  -6.370  17.051  1.00  0.00     0.237 C 
BRANCH   2   3
ATOM      3  N   UNL     1      25.408  -5.603  15.798  1.00  0.00    -0.350 N 
ATOM      4  H   UNL     1      24.522  -5.056  15.709  1.00  0.00     0.345 HD
ATOM      5  H   UNL     1      26.204  -4.923  15.801  1.00  0.00     0.345 HD
ATOM      6  H   UNL     1      25.505  -6.240  14.973  1.00  0.00     0.345 HD
ENDBRANCH   2   3
BRANCH   2   7
ATOM      7  C   UNL     1      24.283  -7.373  17.045  1.00  0.00     0.100 C 
ATOM      8  O   UNL     1      24.490  -8.561  16.680  1.00  0.00    -0.544 OA
ATOM      9  O   UNL     1      23.004  -6.987  17.427  1.00  0.00    -0.544 OA
ENDBRANCH   2   7
ENDBRANCH   1   2
BRANCH   1  10
ATOM     10  C   UNL     1      24.709  -4.105  17.907  1.00  0.00     0.223 C 
ATOM     11  O   UNL     1      25.483  -3.181  17.544  1.00  0.00    -0.275 OA
ATOM     12  N   UNL     1      23.300  -3.879  17.929  1.00  0.00    -0.369 N 
ATOM     13  H   UNL     1      22.641  -4.642  18.204  1.00  0.00     0.159 HD
ATOM     14  H   UNL     1      22.911  -2.949  17.658  1.00  0.00     0.159 HD
ENDBRANCH   1  10
TORSDOF 4
ENDMDL
MODEL 7
REMARK VINA RESULT:    -3.400      1.572      1.877
REMARK INTER + INTRA:          -4.443
REMARK INTER:                  -4.096
REMARK INTRA:                  -0.346
REMARK UNBOUND:                -0.347
REMARK SMILES NC(=O)C[C@H]([NH3+])C(=O)[O-]
REMARK SMILES IDX 4 1 5 2 6 3 7 7 8 8 9 9 2 10 3 11 1 12
REMARK H PARENT 6 4 6 5 6 6 1 13 1 14
REMARK Flexibility Score: inf
ROOT
ATOM      1  C   UNL     1      26.427   0.661   6.117  1.00  0.00     0.171 C 
ENDROOT
BRANCH   1   2
ATOM      2  C   UNL     1      26.312   1.152   7.575  1.00  0.00     0.237 C 
BRANCH   2   3
ATOM      3  N   UNL     1      26.522   2.603   7.672  1.00  0.00    -0.350 N 
ATOM      4  H   UNL     1      25.635   3.076   7.958  1.00  0.00     0.345 HD
ATOM      5  H   UNL     1      27.243   2.809   8.402  1.00  0.00     0.345 HD
ATOM      6  H   UNL     1      26.840   2.995   6.755  1.00  0.00     0.345 HD
ENDBRANCH   2   3
BRANCH   2   7
ATOM      7  C   UNL     1      27.305   0.423   8.439  1.00  0.00     0.100 C 
ATOM      8  O   UNL     1      27.225   0.482   9.694  1.00  0.00    -0.544 OA
ATOM      9  O   UNL     1      28.331  -0.307   7.852  1.00  0.00    -0.544 OA
ENDBRANCH   2   7
ENDBRANCH   1   2
BRANCH   1  10
ATOM     10  C   UNL     1      27.100   1.677   5.240  1.00  0.00     0.223 C 
ATOM     11  O   UNL     1      28.309   1.968   5.437  1.00  0.00    -0.275 OA
ATOM     12  N   UNL     1      26.391   2.290   4.163  1.00  0.00    -0.369 N 
ATOM     13  H   UNL     1      25.395   2.042   3.970  1.00  0.00     0.159 HD
ATOM     14  H   UNL     1      26.867   2.987   3.549  1.00  0.00     0.159 HD
ENDBRANCH   1  10
TORSDOF 4
ENDMDL
MODEL 8
REMARK VINA RESULT:    -3.384      2.071      2.511
REMARK INTER + INTRA:          -4.424
REMARK INTER:                  -4.064
REMARK INTRA:                  -0.361
REMARK UNBOUND:                -0.347
REMARK SMILES NC(=O)C[C@H]([NH3+])C(=O)[O-]
REMARK SMILES IDX 4 1 5 2 6 3 7 7 8 8 9 9 2 10 3 11 1 12
REMARK H PARENT 6 4 6 5 6 6 1 13 1 14
REMARK Flexibility Score: inf
ROOT
ATOM      1  C   UNL     1      27.645   2.233   6.799  1.00  0.00     0.171 C 
ENDROOT
BRANCH   1   2
ATOM      2  C   UNL     1      27.226   1.204   7.869  1.00  0.00     0.237 C 
BRANCH   2   3
ATOM      3  N   UNL     1      28.087   0.014   7.837  1.00  0.00    -0.350 N 
ATOM      4  H   UNL     1      29.091   0.298   7.771  1.00  0.00     0.345 HD
ATOM      5  H   UNL     1      27.968  -0.533   8.722  1.00  0.00     0.345 HD
ATOM      6  H   UNL     1      27.848  -0.597   7.022  1.00  0.00     0.345 HD
ENDBRANCH   2   3
BRANCH   2   7
ATOM      7  C   UNL     1      25.787   0.812   7.665  1.00  0.00     0.100 C 
ATOM      8  O   UNL     1      24.867   1.658   7.819  1.00  0.00    -0.544 OA
ATOM      9  O   UNL     1      25.466  -0.495   7.323  1.00  0.00    -0.544 OA
ENDBRANCH   2   7
ENDBRANCH   1   2
BRANCH   1  10
ATOM     10  C   UNL     1      27.460   1.695   5.409  1.00  0.00     0.223 C 
ATOM     11  O   UNL     1      28.018   0.616   5.078  1.00  0.00    -0.275 OA
ATOM     12  N   UNL     1      26.630   2.379   4.471  1.00  0.00    -0.369 N 
ATOM     13  H   UNL     1      26.140   3.263   4.737  1.00  0.00     0.159 HD
ATOM     14  H   UNL     1      26.495   1.996   3.510  1.00  0.00     0.159 HD
ENDBRANCH   1  10
TORSDOF 4
ENDMDL
MODEL 9
REMARK VINA RESULT:    -3.382      1.796      3.749
REMARK INTER + INTRA:          -4.421
REMARK INTER:                  -3.964
REMARK INTRA:                  -0.457
REMARK UNBOUND:                -0.347
REMARK SMILES NC(=O)C[C@H]([NH3+])C(=O)[O-]
REMARK SMILES IDX 4 1 5 2 6 3 7 7 8 8 9 9 2 10 3 11 1 12
REMARK H PARENT 6 4 6 5 6 6 1 13 1 14
REMARK Flexibility Score: inf
ROOT
ATOM      1  C   UNL     1      27.646  -0.478   6.656  1.00  0.00     0.171 C 
ENDROOT
BRANCH   1   2
ATOM      2  C   UNL     1      27.700   0.746   5.720  1.00  0.00     0.237 C 
BRANCH   2   3
ATOM      3  N   UNL     1      28.462   1.849   6.321  1.00  0.00    -0.350 N 
ATOM      4  H   UNL     1      28.603   2.612   5.620  1.00  0.00     0.345 HD
ATOM      5  H   UNL     1      27.930   2.251   7.127  1.00  0.00     0.345 HD
ATOM      6  H   UNL     1      29.395   1.516   6.658  1.00  0.00     0.345 HD
ENDBRANCH   2   3
BRANCH   2   7
ATOM      7  C   UNL     1      26.303   1.197   5.389  1.00  0.00     0.100 C 
ATOM      8  O   UNL     1      26.088   1.926   4.384  1.00  0.00    -0.544 OA
ATOM      9  O   UNL     1      25.243   0.826   6.206  1.00  0.00    -0.544 OA
ENDBRANCH   2   7
ENDBRANCH   1   2
BRANCH   1  10
ATOM     10  C   UNL     1      27.947  -0.104   8.079  1.00  0.00     0.223 C 
ATOM     11  O   UNL     1      29.125  -0.197   8.513  1.00  0.00    -0.275 OA
ATOM     12  N   UNL     1      26.914   0.388   8.933  1.00  0.00    -0.369 N 
ATOM     13  H   UNL     1      25.936   0.494   8.582  1.00  0.00     0.159 HD
ATOM     14  H   UNL     1      27.130   0.658   9.918  1.00  0.00     0.159 HD
ENDBRANCH   1  10
TORSDOF 4
ENDMDL
