MODEL 1
REMARK VINA RESULT:    -7.012      0.000      0.000
REMARK INTER + INTRA:          -8.508
REMARK INTER:                  -8.241
REMARK INTRA:                  -0.267
REMARK UNBOUND:                -0.267
REMARK SMILES O=c1cc(-c2ccc(O)c(O)c2)oc2cc(O)cc(O)c12
REMARK SMILES IDX 4 1 3 2 2 3 1 4 21 5 19 6 18 7 16 8 15 9 14 10 13 11 5 12
REMARK SMILES IDX 6 13 7 14 8 15 12 16 10 17 9 18 11 20 20 22 17 24
REMARK H PARENT 9 19 11 21 20 23 17 25
REMARK Flexibility Score: inf
ROOT
ATOM      1  C   UNL     1      81.962   1.895  -0.075  1.00  0.00     0.138 A 
ATOM      2  C   UNL     1      82.767   1.115   0.766  1.00  0.00     0.100 A 
ATOM      3  C   UNL     1      84.154   1.259   0.723  1.00  0.00     0.197 A 
ATOM      4  O   UNL     1      84.845   0.586   1.530  1.00  0.00    -0.289 OA
ATOM      5  C   UNL     1      84.740   2.165  -0.194  1.00  0.00     0.107 A 
ATOM      6  C   UNL     1      86.144   2.371  -0.352  1.00  0.00     0.134 A 
ATOM      7  C   UNL     1      86.601   3.366  -1.224  1.00  0.00     0.093 A 
ATOM      8  C   UNL     1      85.712   4.122  -1.986  1.00  0.00     0.123 A 
ATOM      9  C   UNL     1      84.340   3.895  -1.878  1.00  0.00     0.094 A 
ATOM     10  C   UNL     1      83.849   2.934  -0.991  1.00  0.00     0.146 A 
ATOM     11  O   UNL     1      82.535   2.762  -0.905  1.00  0.00    -0.456 OA
ENDROOT
BRANCH   1  12
ATOM     12  C   UNL     1      80.481   1.782  -0.073  1.00  0.00     0.021 A 
ATOM     13  C   UNL     1      79.704   2.903   0.262  1.00  0.00     0.016 A 
ATOM     14  C   UNL     1      78.308   2.823   0.279  1.00  0.00     0.051 A 
ATOM     15  C   UNL     1      77.669   1.616  -0.029  1.00  0.00     0.157 A 
ATOM     16  C   UNL     1      79.830   0.567  -0.369  1.00  0.00     0.062 A 
ATOM     17  C   UNL     1      78.430   0.486  -0.350  1.00  0.00     0.158 A 
BRANCH  15  18
ATOM     18  O   UNL     1      76.278   1.531  -0.015  1.00  0.00    -0.504 OA
ATOM     19  H   UNL     1      75.797   0.804   0.503  1.00  0.00     0.293 HD
ENDBRANCH  15  18
BRANCH  17  20
ATOM     20  O   UNL     1      77.790  -0.717  -0.644  1.00  0.00    -0.504 OA
ATOM     21  H   UNL     1      77.022  -1.061  -0.079  1.00  0.00     0.293 HD
ENDBRANCH  17  20
ENDBRANCH   1  12
BRANCH   6  22
ATOM     22  O   UNL     1      87.125   1.617   0.300  1.00  0.00    -0.507 OA
ATOM     23  H   UNL     1      87.240   0.619   0.216  1.00  0.00     0.293 HD
ENDBRANCH   6  22
BRANCH   8  24
ATOM     24  O   UNL     1      86.204   5.093  -2.855  1.00  0.00    -0.508 OA
ATOM     25  H   UNL     1      86.416   6.032  -2.538  1.00  0.00     0.293 HD
ENDBRANCH   8  24
TORSDOF 5
ENDMDL
MODEL 2
REMARK VINA RESULT:    -6.806      1.281      2.889
REMARK INTER + INTRA:          -8.266
REMARK INTER:                  -7.993
REMARK INTRA:                  -0.274
REMARK UNBOUND:                -0.267
REMARK SMILES O=c1cc(-c2ccc(O)c(O)c2)oc2cc(O)cc(O)c12
REMARK SMILES IDX 4 1 3 2 2 3 1 4 21 5 19 6 18 7 16 8 15 9 14 10 13 11 5 12
REMARK SMILES IDX 6 13 7 14 8 15 12 16 10 17 9 18 11 20 20 22 17 24
REMARK H PARENT 9 19 11 21 20 23 17 25
REMARK Flexibility Score: inf
ROOT
ATOM      1  C   UNL     1      82.057   1.892  -0.064  1.00  0.00     0.138 A 
ATOM      2  C   UNL     1      82.740   2.707  -0.977  1.00  0.00     0.100 A 
ATOM      3  C   UNL     1      84.133   2.770  -0.939  1.00  0.00     0.197 A 
ATOM      4  O   UNL     1      84.719   3.467  -1.807  1.00  0.00    -0.289 OA
ATOM      5  C   UNL     1      84.845   2.040   0.043  1.00  0.00     0.107 A 
ATOM      6  C   UNL     1      86.264   2.053   0.200  1.00  0.00     0.134 A 
ATOM      7  C   UNL     1      86.861   1.211   1.146  1.00  0.00     0.093 A 
ATOM      8  C   UNL     1      86.092   0.401   1.979  1.00  0.00     0.123 A 
ATOM      9  C   UNL     1      84.701   0.417   1.870  1.00  0.00     0.094 A 
ATOM     10  C   UNL     1      84.075   1.219   0.912  1.00  0.00     0.146 A 
ATOM     11  O   UNL     1      82.750   1.191   0.828  1.00  0.00    -0.456 OA
ENDROOT
BRANCH   1  12
ATOM     12  C   UNL     1      80.576   1.789  -0.057  1.00  0.00     0.021 A 
ATOM     13  C   UNL     1      79.807   2.922   0.261  1.00  0.00     0.016 A 
ATOM     14  C   UNL     1      78.411   2.852   0.281  1.00  0.00     0.051 A 
ATOM     15  C   UNL     1      77.762   1.645  -0.007  1.00  0.00     0.157 A 
ATOM     16  C   UNL     1      79.915   0.575  -0.333  1.00  0.00     0.062 A 
ATOM     17  C   UNL     1      78.515   0.505  -0.311  1.00  0.00     0.158 A 
BRANCH  15  18
ATOM     18  O   UNL     1      76.370   1.571   0.010  1.00  0.00    -0.504 OA
ATOM     19  H   UNL     1      75.885   0.867   0.555  1.00  0.00     0.293 HD
ENDBRANCH  15  18
BRANCH  17  20
ATOM     20  O   UNL     1      77.865  -0.697  -0.586  1.00  0.00    -0.504 OA
ATOM     21  H   UNL     1      78.353  -1.585  -0.550  1.00  0.00     0.293 HD
ENDBRANCH  17  20
ENDBRANCH   1  12
BRANCH   6  22
ATOM     22  O   UNL     1      87.125   2.883  -0.524  1.00  0.00    -0.507 OA
ATOM     23  H   UNL     1      86.880   3.374  -1.371  1.00  0.00     0.293 HD
ENDBRANCH   6  22
BRANCH   8  24
ATOM     24  O   UNL     1      86.720  -0.412   2.920  1.00  0.00    -0.508 OA
ATOM     25  H   UNL     1      87.216  -1.252   2.649  1.00  0.00     0.293 HD
ENDBRANCH   8  24
TORSDOF 5
ENDMDL
MODEL 3
REMARK VINA RESULT:    -6.284      8.219      9.404
REMARK INTER + INTRA:          -7.654
REMARK INTER:                  -7.357
REMARK INTRA:                  -0.296
REMARK UNBOUND:                -0.267
REMARK SMILES O=c1cc(-c2ccc(O)c(O)c2)oc2cc(O)cc(O)c12
REMARK SMILES IDX 4 1 3 2 2 3 1 4 21 5 19 6 18 7 16 8 15 9 14 10 13 11 5 12
REMARK SMILES IDX 6 13 7 14 8 15 12 16 10 17 9 18 11 20 20 22 17 24
REMARK H PARENT 9 19 11 21 20 23 17 25
REMARK Flexibility Score: inf
ROOT
ATOM      1  C   UNL     1      84.444  -2.128  -7.103  1.00  0.00     0.138 A 
ATOM      2  C   UNL     1      83.225  -1.826  -7.726  1.00  0.00     0.100 A 
ATOM      3  C   UNL     1      82.987  -0.530  -8.187  1.00  0.00     0.197 A 
ATOM      4  O   UNL     1      81.907  -0.305  -8.791  1.00  0.00    -0.289 OA
ATOM      5  C   UNL     1      83.962   0.477  -7.990  1.00  0.00     0.107 A 
ATOM      6  C   UNL     1      83.816   1.841  -8.386  1.00  0.00     0.134 A 
ATOM      7  C   UNL     1      84.890   2.725  -8.227  1.00  0.00     0.093 A 
ATOM      8  C   UNL     1      86.083   2.312  -7.634  1.00  0.00     0.123 A 
ATOM      9  C   UNL     1      86.219   0.994  -7.196  1.00  0.00     0.094 A 
ATOM     10  C   UNL     1      85.179   0.078  -7.373  1.00  0.00     0.146 A 
ATOM     11  O   UNL     1      85.356  -1.172  -6.959  1.00  0.00    -0.456 OA
ENDROOT
BRANCH   1  12
ATOM     12  C   UNL     1      84.749  -3.488  -6.592  1.00  0.00     0.021 A 
ATOM     13  C   UNL     1      86.041  -3.775  -6.121  1.00  0.00     0.016 A 
ATOM     14  C   UNL     1      86.358  -5.048  -5.641  1.00  0.00     0.051 A 
ATOM     15  C   UNL     1      85.389  -6.059  -5.633  1.00  0.00     0.157 A 
ATOM     16  C   UNL     1      83.783  -4.514  -6.593  1.00  0.00     0.062 A 
ATOM     17  C   UNL     1      84.101  -5.793  -6.112  1.00  0.00     0.158 A 
BRANCH  15  18
ATOM     18  O   UNL     1      85.699  -7.330  -5.154  1.00  0.00    -0.504 OA
ATOM     19  H   UNL     1      85.040  -7.862  -4.596  1.00  0.00     0.293 HD
ENDBRANCH  15  18
BRANCH  17  20
ATOM     20  O   UNL     1      83.143  -6.805  -6.114  1.00  0.00    -0.504 OA
ATOM     21  H   UNL     1      82.188  -6.632  -6.406  1.00  0.00     0.293 HD
ENDBRANCH  17  20
ENDBRANCH   1  12
BRANCH   6  22
ATOM     22  O   UNL     1      82.641   2.382  -8.916  1.00  0.00    -0.507 OA
ATOM     23  H   UNL     1      81.918   2.837  -8.378  1.00  0.00     0.293 HD
ENDBRANCH   6  22
BRANCH   8  24
ATOM     24  O   UNL     1      87.125   3.223  -7.476  1.00  0.00    -0.508 OA
ATOM     25  H   UNL     1      86.949   4.202  -7.285  1.00  0.00     0.293 HD
ENDBRANCH   8  24
TORSDOF 5
ENDMDL
MODEL 4
REMARK VINA RESULT:    -6.006      4.326      7.246
REMARK INTER + INTRA:          -7.326
REMARK INTER:                  -7.062
REMARK INTRA:                  -0.264
REMARK UNBOUND:                -0.267
REMARK SMILES O=c1cc(-c2ccc(O)c(O)c2)oc2cc(O)cc(O)c12
REMARK SMILES IDX 4 1 3 2 2 3 1 4 21 5 19 6 18 7 16 8 15 9 14 10 13 11 5 12
REMARK SMILES IDX 6 13 7 14 8 15 12 16 10 17 9 18 11 20 20 22 17 24
REMARK H PARENT 9 19 11 21 20 23 17 25
REMARK Flexibility Score: inf
ROOT
ATOM      1  C   UNL     1      86.072   1.141   2.669  1.00  0.00     0.138 A 
ATOM      2  C   UNL     1      86.570  -0.149   2.900  1.00  0.00     0.100 A 
ATOM      3  C   UNL     1      86.717  -0.608   4.210  1.00  0.00     0.197 A 
ATOM      4  O   UNL     1      87.114  -1.789   4.382  1.00  0.00    -0.289 OA
ATOM      5  C   UNL     1      86.397   0.243   5.294  1.00  0.00     0.107 A 
ATOM      6  C   UNL     1      86.540  -0.104   6.672  1.00  0.00     0.134 A 
ATOM      7  C   UNL     1      86.097   0.787   7.657  1.00  0.00     0.093 A 
ATOM      8  C   UNL     1      85.572   2.034   7.320  1.00  0.00     0.123 A 
ATOM      9  C   UNL     1      85.475   2.405   5.978  1.00  0.00     0.094 A 
ATOM     10  C   UNL     1      85.875   1.524   4.970  1.00  0.00     0.146 A 
ATOM     11  O   UNL     1      85.749   1.909   3.705  1.00  0.00    -0.456 OA
ENDROOT
BRANCH   1  12
ATOM     12  C   UNL     1      85.897   1.681   1.297  1.00  0.00     0.021 A 
ATOM     13  C   UNL     1      86.965   2.354   0.679  1.00  0.00     0.016 A 
ATOM     14  C   UNL     1      86.826   2.879  -0.608  1.00  0.00     0.051 A 
ATOM     15  C   UNL     1      85.613   2.747  -1.295  1.00  0.00     0.157 A 
ATOM     16  C   UNL     1      84.675   1.565   0.605  1.00  0.00     0.062 A 
ATOM     17  C   UNL     1      84.536   2.093  -0.687  1.00  0.00     0.158 A 
BRANCH  15  18
ATOM     18  O   UNL     1      85.470   3.267  -2.581  1.00  0.00    -0.504 OA
ATOM     19  H   UNL     1      85.856   4.170  -2.833  1.00  0.00     0.293 HD
ENDBRANCH  15  18
BRANCH  17  20
ATOM     20  O   UNL     1      83.326   1.975  -1.370  1.00  0.00    -0.504 OA
ATOM     21  H   UNL     1      82.833   2.788  -1.722  1.00  0.00     0.293 HD
ENDBRANCH  17  20
ENDBRANCH   1  12
BRANCH   6  22
ATOM     22  O   UNL     1      87.125  -1.290   7.126  1.00  0.00    -0.507 OA
ATOM     23  H   UNL     1      86.644  -2.171   7.230  1.00  0.00     0.293 HD
ENDBRANCH   6  22
BRANCH   8  24
ATOM     24  O   UNL     1      85.156   2.901   8.328  1.00  0.00    -0.508 OA
ATOM     25  H   UNL     1      84.229   2.841   8.731  1.00  0.00     0.293 HD
ENDBRANCH   8  24
TORSDOF 5
ENDMDL
MODEL 5
REMARK VINA RESULT:    -5.941      3.976      6.554
REMARK INTER + INTRA:          -7.250
REMARK INTER:                  -6.987
REMARK INTRA:                  -0.263
REMARK UNBOUND:                -0.267
REMARK SMILES O=c1cc(-c2ccc(O)c(O)c2)oc2cc(O)cc(O)c12
REMARK SMILES IDX 4 1 3 2 2 3 1 4 21 5 19 6 18 7 16 8 15 9 14 10 13 11 5 12
REMARK SMILES IDX 6 13 7 14 8 15 12 16 10 17 9 18 11 20 20 22 17 24
REMARK H PARENT 9 19 11 21 20 23 17 25
REMARK Flexibility Score: inf
ROOT
ATOM      1  C   UNL     1      86.064   2.531  -2.518  1.00  0.00     0.138 A 
ATOM      2  C   UNL     1      86.375   3.885  -2.700  1.00  0.00     0.100 A 
ATOM      3  C   UNL     1      86.526   4.393  -3.991  1.00  0.00     0.197 A 
ATOM      4  O   UNL     1      86.750   5.623  -4.122  1.00  0.00    -0.289 OA
ATOM      5  C   UNL     1      86.399   3.529  -5.106  1.00  0.00     0.107 A 
ATOM      6  C   UNL     1      86.566   3.927  -6.467  1.00  0.00     0.134 A 
ATOM      7  C   UNL     1      86.318   3.003  -7.490  1.00  0.00     0.093 A 
ATOM      8  C   UNL     1      85.967   1.685  -7.204  1.00  0.00     0.123 A 
ATOM      9  C   UNL     1      85.851   1.272  -5.876  1.00  0.00     0.094 A 
ATOM     10  C   UNL     1      86.057   2.177  -4.832  1.00  0.00     0.146 A 
ATOM     11  O   UNL     1      85.918   1.748  -3.583  1.00  0.00    -0.456 OA
ENDROOT
BRANCH   1  12
ATOM     12  C   UNL     1      85.894   1.938  -1.168  1.00  0.00     0.021 A 
ATOM     13  C   UNL     1      86.969   1.254  -0.575  1.00  0.00     0.016 A 
ATOM     14  C   UNL     1      86.835   0.680   0.693  1.00  0.00     0.051 A 
ATOM     15  C   UNL     1      85.621   0.773   1.383  1.00  0.00     0.157 A 
ATOM     16  C   UNL     1      84.671   2.016  -0.472  1.00  0.00     0.062 A 
ATOM     17  C   UNL     1      84.537   1.438   0.799  1.00  0.00     0.158 A 
BRANCH  15  18
ATOM     18  O   UNL     1      85.483   0.204   2.648  1.00  0.00    -0.504 OA
ATOM     19  H   UNL     1      86.003   0.552   3.445  1.00  0.00     0.293 HD
ENDBRANCH  15  18
BRANCH  17  20
ATOM     20  O   UNL     1      83.326   1.518   1.486  1.00  0.00    -0.504 OA
ATOM     21  H   UNL     1      82.539   2.038   1.115  1.00  0.00     0.293 HD
ENDBRANCH  17  20
ENDBRANCH   1  12
BRANCH   6  22
ATOM     22  O   UNL     1      86.991   5.197  -6.867  1.00  0.00    -0.507 OA
ATOM     23  H   UNL     1      86.393   5.917  -7.243  1.00  0.00     0.293 HD
ENDBRANCH   6  22
BRANCH   8  24
ATOM     24  O   UNL     1      85.744   0.790  -8.247  1.00  0.00    -0.508 OA
ATOM     25  H   UNL     1      86.498   0.473  -8.845  1.00  0.00     0.293 HD
ENDBRANCH   8  24
TORSDOF 5
ENDMDL
MODEL 6
REMARK VINA RESULT:    -5.642      6.356      8.138
REMARK INTER + INTRA:          -6.898
REMARK INTER:                  -6.620
REMARK INTRA:                  -0.278
REMARK UNBOUND:                -0.267
REMARK SMILES O=c1cc(-c2ccc(O)c(O)c2)oc2cc(O)cc(O)c12
REMARK SMILES IDX 4 1 3 2 2 3 1 4 21 5 19 6 18 7 16 8 15 9 14 10 13 11 5 12
REMARK SMILES IDX 6 13 7 14 8 15 12 16 10 17 9 18 11 20 20 22 17 24
REMARK H PARENT 9 19 11 21 20 23 17 25
REMARK Flexibility Score: inf
ROOT
ATOM      1  C   UNL     1      85.364   2.041   6.433  1.00  0.00     0.138 A 
ATOM      2  C   UNL     1      85.760   0.802   6.957  1.00  0.00     0.100 A 
ATOM      3  C   UNL     1      86.261  -0.181   6.103  1.00  0.00     0.197 A 
ATOM      4  O   UNL     1      86.660  -1.260   6.611  1.00  0.00    -0.289 OA
ATOM      5  C   UNL     1      86.332   0.066   4.710  1.00  0.00     0.107 A 
ATOM      6  C   UNL     1      86.793  -0.874   3.739  1.00  0.00     0.134 A 
ATOM      7  C   UNL     1      86.911  -0.480   2.400  1.00  0.00     0.093 A 
ATOM      8  C   UNL     1      86.531   0.796   1.987  1.00  0.00     0.123 A 
ATOM      9  C   UNL     1      86.031   1.706   2.919  1.00  0.00     0.094 A 
ATOM     10  C   UNL     1      85.935   1.357   4.268  1.00  0.00     0.146 A 
ATOM     11  O   UNL     1      85.471   2.259   5.126  1.00  0.00    -0.456 OA
ENDROOT
BRANCH   1  12
ATOM     12  C   UNL     1      84.822   3.121   7.295  1.00  0.00     0.021 A 
ATOM     13  C   UNL     1      85.275   4.439   7.117  1.00  0.00     0.016 A 
ATOM     14  C   UNL     1      84.787   5.474   7.919  1.00  0.00     0.051 A 
ATOM     15  C   UNL     1      83.844   5.206   8.918  1.00  0.00     0.157 A 
ATOM     16  C   UNL     1      83.882   2.857   8.312  1.00  0.00     0.062 A 
ATOM     17  C   UNL     1      83.394   3.896   9.117  1.00  0.00     0.158 A 
BRANCH  15  18
ATOM     18  O   UNL     1      83.353   6.235   9.720  1.00  0.00    -0.504 OA
ATOM     19  H   UNL     1      83.482   7.209   9.470  1.00  0.00     0.293 HD
ENDBRANCH  15  18
BRANCH  17  20
ATOM     20  O   UNL     1      82.463   3.632  10.122  1.00  0.00    -0.504 OA
ATOM     21  H   UNL     1      82.150   2.688  10.320  1.00  0.00     0.293 HD
ENDBRANCH  17  20
ENDBRANCH   1  12
BRANCH   6  22
ATOM     22  O   UNL     1      87.125  -2.201   4.027  1.00  0.00    -0.507 OA
ATOM     23  H   UNL     1      86.629  -2.795   4.675  1.00  0.00     0.293 HD
ENDBRANCH   6  22
BRANCH   8  24
ATOM     24  O   UNL     1      86.647   1.147   0.644  1.00  0.00    -0.508 OA
ATOM     25  H   UNL     1      87.372   1.777   0.320  1.00  0.00     0.293 HD
ENDBRANCH   8  24
TORSDOF 5
ENDMDL
MODEL 7
REMARK VINA RESULT:    -5.630      6.770      8.312
REMARK INTER + INTRA:          -6.884
REMARK INTER:                  -6.567
REMARK INTRA:                  -0.317
REMARK UNBOUND:                -0.267
REMARK SMILES O=c1cc(-c2ccc(O)c(O)c2)oc2cc(O)cc(O)c12
REMARK SMILES IDX 4 1 3 2 2 3 1 4 21 5 19 6 18 7 16 8 15 9 14 10 13 11 5 12
REMARK SMILES IDX 6 13 7 14 8 15 12 16 10 17 9 18 11 20 20 22 17 24
REMARK H PARENT 9 19 11 21 20 23 17 25
REMARK Flexibility Score: inf
ROOT
ATOM      1  C   UNL     1      84.710   2.694   6.973  1.00  0.00     0.138 A 
ATOM      2  C   UNL     1      85.006   1.593   7.789  1.00  0.00     0.100 A 
ATOM      3  C   UNL     1      85.676   0.494   7.250  1.00  0.00     0.197 A 
ATOM      4  O   UNL     1      85.976  -0.454   8.020  1.00  0.00    -0.289 OA
ATOM      5  C   UNL     1      86.020   0.483   5.877  1.00  0.00     0.107 A 
ATOM      6  C   UNL     1      86.673  -0.596   5.209  1.00  0.00     0.134 A 
ATOM      7  C   UNL     1      87.051  -0.450   3.868  1.00  0.00     0.093 A 
ATOM      8  C   UNL     1      86.748   0.708   3.155  1.00  0.00     0.123 A 
ATOM      9  C   UNL     1      86.065   1.750   3.783  1.00  0.00     0.094 A 
ATOM     10  C   UNL     1      85.705   1.651   5.129  1.00  0.00     0.146 A 
ATOM     11  O   UNL     1      85.072   2.673   5.694  1.00  0.00    -0.456 OA
ENDROOT
BRANCH   1  12
ATOM     12  C   UNL     1      83.997   3.888   7.494  1.00  0.00     0.021 A 
ATOM     13  C   UNL     1      83.432   3.848   8.780  1.00  0.00     0.016 A 
ATOM     14  C   UNL     1      82.749   4.955   9.292  1.00  0.00     0.051 A 
ATOM     15  C   UNL     1      82.612   6.116   8.522  1.00  0.00     0.157 A 
ATOM     16  C   UNL     1      83.843   5.055   6.720  1.00  0.00     0.062 A 
ATOM     17  C   UNL     1      83.156   6.165   7.233  1.00  0.00     0.158 A 
BRANCH  15  18
ATOM     18  O   UNL     1      81.934   7.223   9.028  1.00  0.00    -0.504 OA
ATOM     19  H   UNL     1      81.399   7.169   9.888  1.00  0.00     0.293 HD
ENDBRANCH  15  18
BRANCH  17  20
ATOM     20  O   UNL     1      83.008   7.319   6.465  1.00  0.00    -0.504 OA
ATOM     21  H   UNL     1      83.242   7.334   5.479  1.00  0.00     0.293 HD
ENDBRANCH  17  20
ENDBRANCH   1  12
BRANCH   6  22
ATOM     22  O   UNL     1      86.954  -1.831   5.802  1.00  0.00    -0.507 OA
ATOM     23  H   UNL     1      87.874  -2.157   6.055  1.00  0.00     0.293 HD
ENDBRANCH   6  22
BRANCH   8  24
ATOM     24  O   UNL     1      87.125   0.812   1.818  1.00  0.00    -0.508 OA
ATOM     25  H   UNL     1      86.440   0.802   1.071  1.00  0.00     0.293 HD
ENDBRANCH   8  24
TORSDOF 5
ENDMDL
MODEL 8
REMARK VINA RESULT:    -5.543      6.253      8.973
REMARK INTER + INTRA:          -6.783
REMARK INTER:                  -6.520
REMARK INTRA:                  -0.263
REMARK UNBOUND:                -0.267
REMARK SMILES O=c1cc(-c2ccc(O)c(O)c2)oc2cc(O)cc(O)c12
REMARK SMILES IDX 4 1 3 2 2 3 1 4 21 5 19 6 18 7 16 8 15 9 14 10 13 11 5 12
REMARK SMILES IDX 6 13 7 14 8 15 12 16 10 17 9 18 11 20 20 22 17 24
REMARK H PARENT 9 19 11 21 20 23 17 25
REMARK Flexibility Score: inf
ROOT
ATOM      1  C   UNL     1      85.872   1.702  -6.133  1.00  0.00     0.138 A 
ATOM      2  C   UNL     1      86.652   0.547  -5.987  1.00  0.00     0.100 A 
ATOM      3  C   UNL     1      86.315  -0.608  -6.693  1.00  0.00     0.197 A 
ATOM      4  O   UNL     1      87.067  -1.610  -6.584  1.00  0.00    -0.289 OA
ATOM      5  C   UNL     1      85.168  -0.617  -7.522  1.00  0.00     0.107 A 
ATOM      6  C   UNL     1      84.706  -1.747  -8.263  1.00  0.00     0.134 A 
ATOM      7  C   UNL     1      83.613  -1.605  -9.127  1.00  0.00     0.093 A 
ATOM      8  C   UNL     1      82.930  -0.395  -9.234  1.00  0.00     0.123 A 
ATOM      9  C   UNL     1      83.340   0.702  -8.477  1.00  0.00     0.094 A 
ATOM     10  C   UNL     1      84.449   0.605  -7.632  1.00  0.00     0.146 A 
ATOM     11  O   UNL     1      84.818   1.678  -6.942  1.00  0.00    -0.456 OA
ENDROOT
BRANCH   1  12
ATOM     12  C   UNL     1      86.184   2.958  -5.404  1.00  0.00     0.021 A 
ATOM     13  C   UNL     1      86.795   4.021  -6.091  1.00  0.00     0.016 A 
ATOM     14  C   UNL     1      87.106   5.211  -5.428  1.00  0.00     0.051 A 
ATOM     15  C   UNL     1      86.819   5.355  -4.066  1.00  0.00     0.157 A 
ATOM     16  C   UNL     1      85.910   3.105  -4.030  1.00  0.00     0.062 A 
ATOM     17  C   UNL     1      86.223   4.300  -3.365  1.00  0.00     0.158 A 
BRANCH  15  18
ATOM     18  O   UNL     1      87.125   6.541  -3.401  1.00  0.00    -0.504 OA
ATOM     19  H   UNL     1      86.940   6.656  -2.410  1.00  0.00     0.293 HD
ENDBRANCH  15  18
BRANCH  17  20
ATOM     20  O   UNL     1      85.950   4.442  -2.005  1.00  0.00    -0.504 OA
ATOM     21  H   UNL     1      86.247   5.261  -1.487  1.00  0.00     0.293 HD
ENDBRANCH  17  20
ENDBRANCH   1  12
BRANCH   6  22
ATOM     22  O   UNL     1      85.264  -3.025  -8.172  1.00  0.00    -0.507 OA
ATOM     23  H   UNL     1      85.604  -3.566  -8.953  1.00  0.00     0.293 HD
ENDBRANCH   6  22
BRANCH   8  24
ATOM     24  O   UNL     1      81.837  -0.296 -10.092  1.00  0.00    -0.508 OA
ATOM     25  H   UNL     1      81.205  -1.075 -10.240  1.00  0.00     0.293 HD
ENDBRANCH   8  24
TORSDOF 5
ENDMDL
MODEL 9
REMARK VINA RESULT:    -5.539      8.742     10.388
REMARK INTER + INTRA:          -6.778
REMARK INTER:                  -6.495
REMARK INTRA:                  -0.282
REMARK UNBOUND:                -0.267
REMARK SMILES O=c1cc(-c2ccc(O)c(O)c2)oc2cc(O)cc(O)c12
REMARK SMILES IDX 4 1 3 2 2 3 1 4 21 5 19 6 18 7 16 8 15 9 14 10 13 11 5 12
REMARK SMILES IDX 6 13 7 14 8 15 12 16 10 17 9 18 11 20 20 22 17 24
REMARK H PARENT 9 19 11 21 20 23 17 25
REMARK Flexibility Score: inf
ROOT
ATOM      1  C   UNL     1      84.731   5.419   7.121  1.00  0.00     0.138 A 
ATOM      2  C   UNL     1      83.482   5.312   7.748  1.00  0.00     0.100 A 
ATOM      3  C   UNL     1      83.046   4.071   8.213  1.00  0.00     0.197 A 
ATOM      4  O   UNL     1      81.946   4.019   8.820  1.00  0.00    -0.289 OA
ATOM      5  C   UNL     1      83.850   2.923   8.016  1.00  0.00     0.107 A 
ATOM      6  C   UNL     1      83.494   1.599   8.415  1.00  0.00     0.134 A 
ATOM      7  C   UNL     1      84.416   0.558   8.255  1.00  0.00     0.093 A 
ATOM      8  C   UNL     1      85.657   0.778   7.658  1.00  0.00     0.123 A 
ATOM      9  C   UNL     1      85.996   2.058   7.217  1.00  0.00     0.094 A 
ATOM     10  C   UNL     1      85.113   3.125   7.394  1.00  0.00     0.146 A 
ATOM     11  O   UNL     1      85.482   4.331   6.977  1.00  0.00    -0.456 OA
ENDROOT
BRANCH   1  12
ATOM     12  C   UNL     1      85.244   6.713   6.606  1.00  0.00     0.021 A 
ATOM     13  C   UNL     1      86.607   7.022   6.750  1.00  0.00     0.016 A 
ATOM     14  C   UNL     1      87.115   8.237   6.281  1.00  0.00     0.051 A 
ATOM     15  C   UNL     1      86.266   9.166   5.668  1.00  0.00     0.157 A 
ATOM     16  C   UNL     1      84.393   7.660   6.000  1.00  0.00     0.062 A 
ATOM     17  C   UNL     1      84.903   8.879   5.531  1.00  0.00     0.158 A 
BRANCH  15  18
ATOM     18  O   UNL     1      86.768  10.378   5.197  1.00  0.00    -0.504 OA
ATOM     19  H   UNL     1      87.701  10.694   5.437  1.00  0.00     0.293 HD
ENDBRANCH  15  18
BRANCH  17  20
ATOM     20  O   UNL     1      84.059   9.812   4.931  1.00  0.00    -0.504 OA
ATOM     21  H   UNL     1      84.294  10.251   4.048  1.00  0.00     0.293 HD
ENDBRANCH  17  20
ENDBRANCH   1  12
BRANCH   6  22
ATOM     22  O   UNL     1      82.250   1.250   8.950  1.00  0.00    -0.507 OA
ATOM     23  H   UNL     1      81.834   1.666   9.769  1.00  0.00     0.293 HD
ENDBRANCH   6  22
BRANCH   8  24
ATOM     24  O   UNL     1      86.543  -0.285   7.500  1.00  0.00    -0.508 OA
ATOM     25  H   UNL     1      86.419  -0.975   6.768  1.00  0.00     0.293 HD
ENDBRANCH   8  24
TORSDOF 5
ENDMDL
