MODEL 1
REMARK VINA RESULT:    -5.734      0.000      0.000
REMARK INTER + INTRA:          -6.069
REMARK INTER:                  -6.069
REMARK INTRA:                   0.000
REMARK UNBOUND:                 0.000
REMARK SMILES O=c1ccc2cc(O)c(O)cc2o1
REMARK SMILES IDX 4 1 3 2 2 3 1 4 13 5 12 6 11 7 9 8 7 9 6 10 5 11 8 12 10 14
REMARK H PARENT 8 13 10 15
REMARK Flexibility Score: inf
ROOT
ATOM      1  C   UNL     1      -1.656 -16.306  16.990  1.00  0.00     0.019 A 
ATOM      2  C   UNL     1      -1.205 -15.494  15.948  1.00  0.00     0.094 A 
ATOM      3  C   UNL     1       0.127 -15.066  15.952  1.00  0.00     0.336 A 
ATOM      4  O   UNL     1       0.554 -14.335  15.021  1.00  0.00    -0.246 OA
ATOM      5  O   UNL     1       0.948 -15.428  16.933  1.00  0.00    -0.423 OA
ATOM      6  C   UNL     1       0.559 -16.200  17.946  1.00  0.00     0.142 A 
ATOM      7  C   UNL     1       1.468 -16.548  18.950  1.00  0.00     0.098 A 
ATOM      8  C   UNL     1       1.061 -17.361  20.018  1.00  0.00     0.161 A 
ATOM      9  C   UNL     1      -0.259 -17.828  20.082  1.00  0.00     0.158 A 
ATOM     10  C   UNL     1      -1.175 -17.482  19.077  1.00  0.00     0.062 A 
ATOM     11  C   UNL     1      -0.771 -16.670  18.009  1.00  0.00     0.022 A 
ENDROOT
BRANCH   9  12
ATOM     12  O   UNL     1      -0.654 -18.636  21.147  1.00  0.00    -0.504 OA
ATOM     13  H   UNL     1      -1.630 -18.852  21.315  1.00  0.00     0.293 HD
ENDBRANCH   9  12
BRANCH   8  14
ATOM     14  O   UNL     1       1.965 -17.709  21.021  1.00  0.00    -0.504 OA
ATOM     15  H   UNL     1       2.685 -18.405  20.867  1.00  0.00     0.293 HD
ENDBRANCH   8  14
TORSDOF 2
ENDMDL
MODEL 2
REMARK VINA RESULT:    -5.489      1.018      2.260
REMARK INTER + INTRA:          -5.810
REMARK INTER:                  -5.810
REMARK INTRA:                   0.000
REMARK UNBOUND:                 0.000
REMARK SMILES O=c1ccc2cc(O)c(O)cc2o1
REMARK SMILES IDX 4 1 3 2 2 3 1 4 13 5 12 6 11 7 9 8 7 9 6 10 5 11 8 12 10 14
REMARK H PARENT 8 13 10 15
REMARK Flexibility Score: inf
ROOT
ATOM      1  C   UNL     1       1.879 -15.559  16.901  1.00  0.00     0.019 A 
ATOM      2  C   UNL     1       1.115 -15.199  15.791  1.00  0.00     0.094 A 
ATOM      3  C   UNL     1      -0.235 -15.566  15.749  1.00  0.00     0.336 A 
ATOM      4  O   UNL     1      -0.941 -15.250  14.756  1.00  0.00    -0.246 OA
ATOM      5  O   UNL     1      -0.779 -16.248  16.753  1.00  0.00    -0.423 OA
ATOM      6  C   UNL     1      -0.086 -16.612  17.830  1.00  0.00     0.142 A 
ATOM      7  C   UNL     1      -0.712 -17.328  18.855  1.00  0.00     0.098 A 
ATOM      8  C   UNL     1       0.014 -17.713  19.992  1.00  0.00     0.161 A 
ATOM      9  C   UNL     1       1.372 -17.380  20.104  1.00  0.00     0.158 A 
ATOM     10  C   UNL     1       2.005 -16.662  19.078  1.00  0.00     0.062 A 
ATOM     11  C   UNL     1       1.280 -16.276  17.942  1.00  0.00     0.022 A 
ENDROOT
BRANCH   9  12
ATOM     12  O   UNL     1       2.085 -17.767  21.237  1.00  0.00    -0.504 OA
ATOM     13  H   UNL     1       3.091 -17.658  21.293  1.00  0.00     0.293 HD
ENDBRANCH   9  12
BRANCH   8  14
ATOM     14  O   UNL     1      -0.608 -18.427  21.015  1.00  0.00    -0.504 OA
ATOM     15  H   UNL     1      -0.084 -18.787  21.804  1.00  0.00     0.293 HD
ENDBRANCH   8  14
TORSDOF 2
ENDMDL
MODEL 3
REMARK VINA RESULT:    -5.180      1.387      2.662
REMARK INTER + INTRA:          -5.482
REMARK INTER:                  -5.482
REMARK INTRA:                   0.000
REMARK UNBOUND:                 0.000
REMARK SMILES O=c1ccc2cc(O)c(O)cc2o1
REMARK SMILES IDX 4 1 3 2 2 3 1 4 13 5 12 6 11 7 9 8 7 9 6 10 5 11 8 12 10 14
REMARK H PARENT 8 13 10 15
REMARK Flexibility Score: inf
ROOT
ATOM      1  C   UNL     1       2.276 -16.191  18.683  1.00  0.00     0.019 A 
ATOM      2  C   UNL     1       2.567 -15.502  17.505  1.00  0.00     0.094 A 
ATOM      3  C   UNL     1       1.581 -15.403  16.517  1.00  0.00     0.336 A 
ATOM      4  O   UNL     1       1.825 -14.785  15.448  1.00  0.00    -0.246 OA
ATOM      5  O   UNL     1       0.387 -15.957  16.700  1.00  0.00    -0.423 OA
ATOM      6  C   UNL     1       0.067 -16.624  17.807  1.00  0.00     0.142 A 
ATOM      7  C   UNL     1      -1.206 -17.185  17.943  1.00  0.00     0.098 A 
ATOM      8  C   UNL     1      -1.547 -17.888  19.109  1.00  0.00     0.161 A 
ATOM      9  C   UNL     1      -0.610 -18.028  20.142  1.00  0.00     0.158 A 
ATOM     10  C   UNL     1       0.670 -17.467  20.011  1.00  0.00     0.062 A 
ATOM     11  C   UNL     1       1.011 -16.764  18.847  1.00  0.00     0.022 A 
ENDROOT
BRANCH   9  12
ATOM     12  O   UNL     1      -0.957 -18.728  21.296  1.00  0.00    -0.504 OA
ATOM     13  H   UNL     1      -0.676 -18.407  22.216  1.00  0.00     0.293 HD
ENDBRANCH   9  12
BRANCH   8  14
ATOM     14  O   UNL     1      -2.815 -18.449  19.246  1.00  0.00    -0.504 OA
ATOM     15  H   UNL     1      -2.949 -19.358  19.674  1.00  0.00     0.293 HD
ENDBRANCH   8  14
TORSDOF 2
ENDMDL
MODEL 4
REMARK VINA RESULT:    -4.972      1.841      4.514
REMARK INTER + INTRA:          -5.263
REMARK INTER:                  -5.263
REMARK INTRA:                   0.000
REMARK UNBOUND:                 0.000
REMARK SMILES O=c1ccc2cc(O)c(O)cc2o1
REMARK SMILES IDX 4 1 3 2 2 3 1 4 13 5 12 6 11 7 9 8 7 9 6 10 5 11 8 12 10 14
REMARK H PARENT 8 13 10 15
REMARK Flexibility Score: inf
ROOT
ATOM      1  C   UNL     1       0.300 -17.780  20.322  1.00  0.00     0.019 A 
ATOM      2  C   UNL     1      -0.904 -18.484  20.384  1.00  0.00     0.094 A 
ATOM      3  C   UNL     1      -1.769 -18.444  19.284  1.00  0.00     0.336 A 
ATOM      4  O   UNL     1      -2.859 -19.072  19.320  1.00  0.00    -0.246 OA
ATOM      5  O   UNL     1      -1.447 -17.745  18.200  1.00  0.00    -0.423 OA
ATOM      6  C   UNL     1      -0.310 -17.060  18.099  1.00  0.00     0.142 A 
ATOM      7  C   UNL     1      -0.025 -16.344  16.933  1.00  0.00     0.098 A 
ATOM      8  C   UNL     1       1.172 -15.621  16.823  1.00  0.00     0.161 A 
ATOM      9  C   UNL     1       2.088 -15.615  17.884  1.00  0.00     0.158 A 
ATOM     10  C   UNL     1       1.807 -16.331  19.058  1.00  0.00     0.062 A 
ATOM     11  C   UNL     1       0.612 -17.054  19.168  1.00  0.00     0.022 A 
ENDROOT
BRANCH   9  12
ATOM     12  O   UNL     1       3.274 -14.893  17.766  1.00  0.00    -0.504 OA
ATOM     13  H   UNL     1       3.290 -13.883  17.842  1.00  0.00     0.293 HD
ENDBRANCH   9  12
BRANCH   8  14
ATOM     14  O   UNL     1       1.458 -14.906  15.661  1.00  0.00    -0.504 OA
ATOM     15  H   UNL     1       1.660 -15.375  14.786  1.00  0.00     0.293 HD
ENDBRANCH   8  14
TORSDOF 2
ENDMDL
MODEL 5
REMARK VINA RESULT:    -4.964     15.275     16.830
REMARK INTER + INTRA:          -5.254
REMARK INTER:                  -5.254
REMARK INTRA:                   0.000
REMARK UNBOUND:                 0.000
REMARK SMILES O=c1ccc2cc(O)c(O)cc2o1
REMARK SMILES IDX 4 1 3 2 2 3 1 4 13 5 12 6 11 7 9 8 7 9 6 10 5 11 8 12 10 14
REMARK H PARENT 8 13 10 15
REMARK Flexibility Score: inf
ROOT
ATOM      1  C   UNL     1      16.917  -9.078  18.058  1.00  0.00     0.019 A 
ATOM      2  C   UNL     1      17.058  -8.303  19.209  1.00  0.00     0.094 A 
ATOM      3  C   UNL     1      15.947  -8.114  20.039  1.00  0.00     0.336 A 
ATOM      4  O   UNL     1      16.054  -7.418  21.082  1.00  0.00    -0.246 OA
ATOM      5  O   UNL     1      14.777  -8.667  19.733  1.00  0.00    -0.423 OA
ATOM      6  C   UNL     1      14.599  -9.413  18.645  1.00  0.00     0.142 A 
ATOM      7  C   UNL     1      13.345  -9.968  18.375  1.00  0.00     0.098 A 
ATOM      8  C   UNL     1      13.153 -10.756  17.230  1.00  0.00     0.161 A 
ATOM      9  C   UNL     1      14.221 -10.988  16.352  1.00  0.00     0.158 A 
ATOM     10  C   UNL     1      15.482 -10.433  16.617  1.00  0.00     0.062 A 
ATOM     11  C   UNL     1      15.674  -9.647  17.761  1.00  0.00     0.022 A 
ENDROOT
BRANCH   9  12
ATOM     12  O   UNL     1      14.021 -11.771  15.216  1.00  0.00    -0.504 OA
ATOM     13  H   UNL     1      13.110 -12.152  14.988  1.00  0.00     0.293 HD
ENDBRANCH   9  12
BRANCH   8  14
ATOM     14  O   UNL     1      11.903 -11.310  16.959  1.00  0.00    -0.504 OA
ATOM     15  H   UNL     1      11.201 -11.415  17.682  1.00  0.00     0.293 HD
ENDBRANCH   8  14
TORSDOF 2
ENDMDL
MODEL 6
REMARK VINA RESULT:    -4.919      1.757      2.417
REMARK INTER + INTRA:          -5.206
REMARK INTER:                  -5.206
REMARK INTRA:                   0.000
REMARK UNBOUND:                 0.000
REMARK SMILES O=c1ccc2cc(O)c(O)cc2o1
REMARK SMILES IDX 4 1 3 2 2 3 1 4 13 5 12 6 11 7 9 8 7 9 6 10 5 11 8 12 10 14
REMARK H PARENT 8 13 10 15
REMARK Flexibility Score: inf
ROOT
ATOM      1  C   UNL     1      -2.095 -18.195  18.361  1.00  0.00     0.019 A 
ATOM      2  C   UNL     1      -2.808 -17.911  17.196  1.00  0.00     0.094 A 
ATOM      3  C   UNL     1      -2.243 -17.052  16.248  1.00  0.00     0.336 A 
ATOM      4  O   UNL     1      -2.871 -16.784  15.190  1.00  0.00    -0.246 OA
ATOM      5  O   UNL     1      -1.044 -16.514  16.456  1.00  0.00    -0.423 OA
ATOM      6  C   UNL     1      -0.331 -16.758  17.553  1.00  0.00     0.142 A 
ATOM      7  C   UNL     1       0.925 -16.164  17.717  1.00  0.00     0.098 A 
ATOM      8  C   UNL     1       1.680 -16.418  18.871  1.00  0.00     0.161 A 
ATOM      9  C   UNL     1       1.178 -17.270  19.865  1.00  0.00     0.158 A 
ATOM     10  C   UNL     1      -0.081 -17.868  19.706  1.00  0.00     0.062 A 
ATOM     11  C   UNL     1      -0.837 -17.615  18.553  1.00  0.00     0.022 A 
ENDROOT
BRANCH   9  12
ATOM     12  O   UNL     1       1.935 -17.516  21.009  1.00  0.00    -0.504 OA
ATOM     13  H   UNL     1       2.944 -17.603  20.968  1.00  0.00     0.293 HD
ENDBRANCH   9  12
BRANCH   8  14
ATOM     14  O   UNL     1       2.932 -15.827  19.037  1.00  0.00    -0.504 OA
ATOM     15  H   UNL     1       3.073 -15.056  19.679  1.00  0.00     0.293 HD
ENDBRANCH   8  14
TORSDOF 2
ENDMDL
MODEL 7
REMARK VINA RESULT:    -4.860     15.552     16.853
REMARK INTER + INTRA:          -5.144
REMARK INTER:                  -5.144
REMARK INTRA:                   0.000
REMARK UNBOUND:                 0.000
REMARK SMILES O=c1ccc2cc(O)c(O)cc2o1
REMARK SMILES IDX 4 1 3 2 2 3 1 4 13 5 12 6 11 7 9 8 7 9 6 10 5 11 8 12 10 14
REMARK H PARENT 8 13 10 15
REMARK Flexibility Score: inf
ROOT
ATOM      1  C   UNL     1      16.608  -9.639  17.111  1.00  0.00     0.019 A 
ATOM      2  C   UNL     1      16.043 -10.394  16.082  1.00  0.00     0.094 A 
ATOM      3  C   UNL     1      14.694 -10.756  16.169  1.00  0.00     0.336 A 
ATOM      4  O   UNL     1      14.166 -11.436  15.251  1.00  0.00    -0.246 OA
ATOM      5  O   UNL     1      13.964 -10.385  17.217  1.00  0.00    -0.423 OA
ATOM      6  C   UNL     1      14.463  -9.666  18.220  1.00  0.00     0.142 A 
ATOM      7  C   UNL     1      13.646  -9.306  19.296  1.00  0.00     0.098 A 
ATOM      8  C   UNL     1      14.168  -8.547  20.355  1.00  0.00     0.161 A 
ATOM      9  C   UNL     1      15.512  -8.148  20.336  1.00  0.00     0.158 A 
ATOM     10  C   UNL     1      16.336  -8.507  19.259  1.00  0.00     0.062 A 
ATOM     11  C   UNL     1      15.816  -9.264  18.201  1.00  0.00     0.022 A 
ENDROOT
BRANCH   9  12
ATOM     12  O   UNL     1      16.021  -7.395  21.393  1.00  0.00    -0.504 OA
ATOM     13  H   UNL     1      16.703  -6.660  21.240  1.00  0.00     0.293 HD
ENDBRANCH   9  12
BRANCH   8  14
ATOM     14  O   UNL     1      13.356  -8.187  21.429  1.00  0.00    -0.504 OA
ATOM     15  H   UNL     1      13.166  -7.217  21.649  1.00  0.00     0.293 HD
ENDBRANCH   8  14
TORSDOF 2
ENDMDL
MODEL 8
REMARK VINA RESULT:    -4.771     15.802     16.993
REMARK INTER + INTRA:          -5.050
REMARK INTER:                  -5.050
REMARK INTRA:                   0.000
REMARK UNBOUND:                 0.000
REMARK SMILES O=c1ccc2cc(O)c(O)cc2o1
REMARK SMILES IDX 4 1 3 2 2 3 1 4 13 5 12 6 11 7 9 8 7 9 6 10 5 11 8 12 10 14
REMARK H PARENT 8 13 10 15
REMARK Flexibility Score: inf
ROOT
ATOM      1  C   UNL     1      14.041 -10.381  17.124  1.00  0.00     0.019 A 
ATOM      2  C   UNL     1      14.915 -10.701  16.085  1.00  0.00     0.094 A 
ATOM      3  C   UNL     1      16.243 -10.268  16.158  1.00  0.00     0.336 A 
ATOM      4  O   UNL     1      17.047 -10.547  15.231  1.00  0.00    -0.246 OA
ATOM      5  O   UNL     1      16.664  -9.563  17.204  1.00  0.00    -0.423 OA
ATOM      6  C   UNL     1      15.864  -9.235  18.217  1.00  0.00     0.142 A 
ATOM      7  C   UNL     1      16.364  -8.492  19.290  1.00  0.00     0.098 A 
ATOM      8  C   UNL     1      15.525  -8.145  20.360  1.00  0.00     0.161 A 
ATOM      9  C   UNL     1      14.181  -8.544  20.355  1.00  0.00     0.158 A 
ATOM     10  C   UNL     1      13.674  -9.291  19.280  1.00  0.00     0.062 A 
ATOM     11  C   UNL     1      14.512  -9.638  18.212  1.00  0.00     0.022 A 
ENDROOT
BRANCH   9  12
ATOM     12  O   UNL     1      13.355  -8.195  21.421  1.00  0.00    -0.504 OA
ATOM     13  H   UNL     1      13.169  -8.840  22.182  1.00  0.00     0.293 HD
ENDBRANCH   9  12
BRANCH   8  14
ATOM     14  O   UNL     1      16.020  -7.403  21.431  1.00  0.00    -0.504 OA
ATOM     15  H   UNL     1      15.479  -6.660  21.856  1.00  0.00     0.293 HD
ENDBRANCH   8  14
TORSDOF 2
ENDMDL
MODEL 9
REMARK VINA RESULT:    -4.760      1.214      5.037
REMARK INTER + INTRA:          -5.039
REMARK INTER:                  -5.039
REMARK INTRA:                   0.000
REMARK UNBOUND:                 0.000
REMARK SMILES O=c1ccc2cc(O)c(O)cc2o1
REMARK SMILES IDX 4 1 3 2 2 3 1 4 13 5 12 6 11 7 9 8 7 9 6 10 5 11 8 12 10 14
REMARK H PARENT 8 13 10 15
REMARK Flexibility Score: inf
ROOT
ATOM      1  C   UNL     1       1.641 -16.784  19.180  1.00  0.00     0.019 A 
ATOM      2  C   UNL     1       0.981 -17.531  20.156  1.00  0.00     0.094 A 
ATOM      3  C   UNL     1      -0.368 -17.852  19.967  1.00  0.00     0.336 A 
ATOM      4  O   UNL     1      -0.982 -18.525  20.835  1.00  0.00    -0.246 OA
ATOM      5  O   UNL     1      -1.009 -17.449  18.873  1.00  0.00    -0.423 OA
ATOM      6  C   UNL     1      -0.417 -16.734  17.918  1.00  0.00     0.142 A 
ATOM      7  C   UNL     1      -1.142 -16.339  16.790  1.00  0.00     0.098 A 
ATOM      8  C   UNL     1      -0.522 -15.586  15.781  1.00  0.00     0.161 A 
ATOM      9  C   UNL     1       0.828 -15.228  15.902  1.00  0.00     0.158 A 
ATOM     10  C   UNL     1       1.560 -15.622  17.032  1.00  0.00     0.062 A 
ATOM     11  C   UNL     1       0.942 -16.374  18.040  1.00  0.00     0.022 A 
ENDROOT
BRANCH   9  12
ATOM     12  O   UNL     1       1.435 -14.480  14.895  1.00  0.00    -0.504 OA
ATOM     13  H   UNL     1       1.285 -14.690  13.915  1.00  0.00     0.293 HD
ENDBRANCH   9  12
BRANCH   8  14
ATOM     14  O   UNL     1      -1.243 -15.190  14.655  1.00  0.00    -0.504 OA
ATOM     15  H   UNL     1      -1.181 -14.247  14.291  1.00  0.00     0.293 HD
ENDBRANCH   8  14
TORSDOF 2
ENDMDL
