MODEL 1
REMARK VINA RESULT:    -5.104      0.000      0.000
REMARK INTER + INTRA:         -19.324
REMARK INTER:                 -13.459
REMARK INTRA:                  -5.865
REMARK UNBOUND:                -5.865
REMARK SMILES CCCCCCCCCCCCCCCCCCCCCCCCCCCCCC(=O)[O-]
REMARK SMILES IDX 16 1 17 2 18 3 19 4 20 5 21 6 22 7 23 8 24 9 25 10 26 11
REMARK SMILES IDX 27 12 28 13 29 14 30 15 31 16 32 17 15 18 14 19 13 20 12 21
REMARK SMILES IDX 11 22 10 23 9 24 8 25 7 26 6 27 5 28 4 29 3 30 2 31 1 32
REMARK H PARENT
REMARK Flexibility Score: inf
ROOT
ATOM      1  C   UNL     1      10.751  14.137 -17.575  1.00  0.00     0.000 C 
ENDROOT
BRANCH   1   2
ATOM      2  C   UNL     1       9.969  15.000 -18.582  1.00  0.00     0.000 C 
BRANCH   2   3
ATOM      3  C   UNL     1       9.969  16.499 -18.217  1.00  0.00     0.000 C 
BRANCH   3   4
ATOM      4  C   UNL     1      11.008  16.890 -17.148  1.00  0.00     0.000 C 
BRANCH   4   5
ATOM      5  C   UNL     1      12.160  17.783 -17.645  1.00  0.00     0.000 C 
BRANCH   5   6
ATOM      6  C   UNL     1      12.353  17.816 -19.175  1.00  0.00     0.000 C 
BRANCH   6   7
ATOM      7  C   UNL     1      13.644  17.147 -19.683  1.00  0.00     0.000 C 
BRANCH   7   8
ATOM      8  C   UNL     1      13.466  15.648 -19.965  1.00  0.00     0.000 C 
BRANCH   8   9
ATOM      9  C   UNL     1      12.345  15.412 -20.987  1.00  0.00     0.000 C 
BRANCH   9  10
ATOM     10  C   UNL     1      12.843  15.518 -22.440  1.00  0.00     0.000 C 
BRANCH  10  11
ATOM     11  C   UNL     1      11.893  16.344 -23.324  1.00  0.00     0.000 C 
BRANCH  11  12
ATOM     12  C   UNL     1      11.440  17.657 -22.661  1.00  0.00     0.000 C 
BRANCH  12  13
ATOM     13  C   UNL     1       9.924  17.783 -22.429  1.00  0.00     0.006 C 
BRANCH  13  14
ATOM     14  C   UNL     1       9.104  16.794 -23.268  1.00  0.00     0.053 C 
BRANCH  14  15
ATOM     15  C   UNL     1       7.965  16.238 -22.471  1.00  0.00     0.041 C 
ATOM     16  O   UNL     1       7.142  15.452 -23.008  1.00  0.00    -0.550 OA
ATOM     17  O   UNL     1       7.813  16.591 -21.135  1.00  0.00    -0.550 OA
ENDBRANCH  14  15
ENDBRANCH  13  14
ENDBRANCH  12  13
ENDBRANCH  11  12
ENDBRANCH  10  11
ENDBRANCH   9  10
ENDBRANCH   8   9
ENDBRANCH   7   8
ENDBRANCH   6   7
ENDBRANCH   5   6
ENDBRANCH   4   5
ENDBRANCH   3   4
ENDBRANCH   2   3
ENDBRANCH   1   2
BRANCH   1  18
ATOM     18  C   UNL     1      10.960  12.695 -18.066  1.00  0.00     0.000 C 
BRANCH  18  19
ATOM     19  C   UNL     1      10.460  12.479 -19.504  1.00  0.00     0.000 C 
BRANCH  19  20
ATOM     20  C   UNL     1      11.297  11.443 -20.277  1.00  0.00     0.000 C 
BRANCH  20  21
ATOM     21  C   UNL     1      12.814  11.724 -20.309  1.00  0.00     0.000 C 
BRANCH  21  22
ATOM     22  C   UNL     1      13.456  11.695 -21.708  1.00  0.00     0.000 C 
BRANCH  22  23
ATOM     23  C   UNL     1      14.818  12.409 -21.754  1.00  0.00     0.000 C 
BRANCH  23  24
ATOM     24  C   UNL     1      15.360  12.754 -20.356  1.00  0.00    -0.000 C 
BRANCH  24  25
ATOM     25  C   UNL     1      16.800  13.306 -20.324  1.00  0.00    -0.000 C 
BRANCH  25  26
ATOM     26  C   UNL     1      17.136  14.199 -19.116  1.00  0.00    -0.000 C 
BRANCH  26  27
ATOM     27  C   UNL     1      17.470  13.390 -17.851  1.00  0.00    -0.000 C 
BRANCH  27  28
ATOM     28  C   UNL     1      16.751  13.918 -16.597  1.00  0.00    -0.000 C 
BRANCH  28  29
ATOM     29  C   UNL     1      15.230  14.134 -16.747  1.00  0.00    -0.000 C 
BRANCH  29  30
ATOM     30  C   UNL     1      14.743  15.567 -16.468  1.00  0.00    -0.000 C 
BRANCH  30  31
ATOM     31  C   UNL     1      15.879  16.512 -16.055  1.00  0.00    -0.003 C 
ATOM     32  C   UNL     1      16.170  17.534 -17.151  1.00  0.00     0.004 C 
ENDBRANCH  30  31
ENDBRANCH  29  30
ENDBRANCH  28  29
ENDBRANCH  27  28
ENDBRANCH  26  27
ENDBRANCH  25  26
ENDBRANCH  24  25
ENDBRANCH  23  24
ENDBRANCH  22  23
ENDBRANCH  21  22
ENDBRANCH  20  21
ENDBRANCH  19  20
ENDBRANCH  18  19
ENDBRANCH   1  18
TORSDOF 28
ENDMDL
MODEL 2
REMARK VINA RESULT:    -5.019      2.424      7.068
REMARK INTER + INTRA:         -19.099
REMARK INTER:                 -13.579
REMARK INTRA:                  -5.520
REMARK UNBOUND:                -5.865
REMARK SMILES CCCCCCCCCCCCCCCCCCCCCCCCCCCCCC(=O)[O-]
REMARK SMILES IDX 16 1 17 2 18 3 19 4 20 5 21 6 22 7 23 8 24 9 25 10 26 11
REMARK SMILES IDX 27 12 28 13 29 14 30 15 31 16 32 17 15 18 14 19 13 20 12 21
REMARK SMILES IDX 11 22 10 23 9 24 8 25 7 26 6 27 5 28 4 29 3 30 2 31 1 32
REMARK H PARENT
REMARK Flexibility Score: inf
ROOT
ATOM      1  C   UNL     1      12.409  12.195 -19.666  1.00  0.00     0.000 C 
ENDROOT
BRANCH   1   2
ATOM      2  C   UNL     1      13.236  11.273 -20.581  1.00  0.00     0.000 C 
BRANCH   2   3
ATOM      3  C   UNL     1      13.503  11.887 -21.972  1.00  0.00     0.000 C 
BRANCH   3   4
ATOM      4  C   UNL     1      14.911  12.492 -22.136  1.00  0.00     0.000 C 
BRANCH   4   5
ATOM      5  C   UNL     1      15.827  12.369 -20.905  1.00  0.00     0.000 C 
BRANCH   5   6
ATOM      6  C   UNL     1      15.868  13.609 -19.988  1.00  0.00     0.000 C 
BRANCH   6   7
ATOM      7  C   UNL     1      17.276  14.160 -19.700  1.00  0.00     0.000 C 
BRANCH   7   8
ATOM      8  C   UNL     1      17.442  14.643 -18.252  1.00  0.00     0.000 C 
BRANCH   8   9
ATOM      9  C   UNL     1      17.170  13.502 -17.261  1.00  0.00     0.000 C 
BRANCH   9  10
ATOM     10  C   UNL     1      16.292  13.948 -16.078  1.00  0.00     0.000 C 
BRANCH  10  11
ATOM     11  C   UNL     1      14.798  13.677 -16.325  1.00  0.00     0.000 C 
BRANCH  11  12
ATOM     12  C   UNL     1      14.066  14.874 -16.958  1.00  0.00     0.000 C 
BRANCH  12  13
ATOM     13  C   UNL     1      13.668  15.990 -15.976  1.00  0.00     0.006 C 
BRANCH  13  14
ATOM     14  C   UNL     1      13.986  17.395 -16.505  1.00  0.00     0.053 C 
BRANCH  14  15
ATOM     15  C   UNL     1      15.328  17.423 -17.167  1.00  0.00     0.041 C 
ATOM     16  O   UNL     1      16.377  17.390 -16.473  1.00  0.00    -0.550 OA
ATOM     17  O   UNL     1      15.420  17.485 -18.553  1.00  0.00    -0.550 OA
ENDBRANCH  14  15
ENDBRANCH  13  14
ENDBRANCH  12  13
ENDBRANCH  11  12
ENDBRANCH  10  11
ENDBRANCH   9  10
ENDBRANCH   8   9
ENDBRANCH   7   8
ENDBRANCH   6   7
ENDBRANCH   5   6
ENDBRANCH   4   5
ENDBRANCH   3   4
ENDBRANCH   2   3
ENDBRANCH   1   2
BRANCH   1  18
ATOM     18  C   UNL     1      10.917  11.825 -19.644  1.00  0.00     0.000 C 
BRANCH  18  19
ATOM     19  C   UNL     1      10.026  12.980 -19.155  1.00  0.00     0.000 C 
BRANCH  19  20
ATOM     20  C   UNL     1      10.370  13.432 -17.723  1.00  0.00     0.000 C 
BRANCH  20  21
ATOM     21  C   UNL     1      10.502  14.957 -17.535  1.00  0.00     0.000 C 
BRANCH  21  22
ATOM     22  C   UNL     1      10.401  15.789 -18.826  1.00  0.00     0.000 C 
BRANCH  22  23
ATOM     23  C   UNL     1      11.208  17.096 -18.758  1.00  0.00     0.000 C 
BRANCH  23  24
ATOM     24  C   UNL     1      12.237  17.224 -19.895  1.00  0.00    -0.000 C 
BRANCH  24  25
ATOM     25  C   UNL     1      12.863  15.898 -20.370  1.00  0.00    -0.000 C 
BRANCH  25  26
ATOM     26  C   UNL     1      12.569  15.519 -21.833  1.00  0.00    -0.000 C 
BRANCH  26  27
ATOM     27  C   UNL     1      12.005  16.693 -22.651  1.00  0.00    -0.000 C 
BRANCH  27  28
ATOM     28  C   UNL     1      10.836  16.279 -23.563  1.00  0.00    -0.000 C 
BRANCH  28  29
ATOM     29  C   UNL     1       9.499  17.002 -23.296  1.00  0.00    -0.000 C 
BRANCH  29  30
ATOM     30  C   UNL     1       9.015  16.965 -21.836  1.00  0.00    -0.000 C 
BRANCH  30  31
ATOM     31  C   UNL     1       8.014  15.833 -21.569  1.00  0.00    -0.003 C 
ATOM     32  C   UNL     1       7.215  15.499 -22.826  1.00  0.00     0.004 C 
ENDBRANCH  30  31
ENDBRANCH  29  30
ENDBRANCH  28  29
ENDBRANCH  27  28
ENDBRANCH  26  27
ENDBRANCH  25  26
ENDBRANCH  24  25
ENDBRANCH  23  24
ENDBRANCH  22  23
ENDBRANCH  21  22
ENDBRANCH  20  21
ENDBRANCH  19  20
ENDBRANCH  18  19
ENDBRANCH   1  18
TORSDOF 28
ENDMDL
MODEL 3
REMARK VINA RESULT:    -4.976      3.011      7.709
REMARK INTER + INTRA:         -18.987
REMARK INTER:                 -13.790
REMARK INTRA:                  -5.197
REMARK UNBOUND:                -5.865
REMARK SMILES CCCCCCCCCCCCCCCCCCCCCCCCCCCCCC(=O)[O-]
REMARK SMILES IDX 16 1 17 2 18 3 19 4 20 5 21 6 22 7 23 8 24 9 25 10 26 11
REMARK SMILES IDX 27 12 28 13 29 14 30 15 31 16 32 17 15 18 14 19 13 20 12 21
REMARK SMILES IDX 11 22 10 23 9 24 8 25 7 26 6 27 5 28 4 29 3 30 2 31 1 32
REMARK H PARENT
REMARK Flexibility Score: inf
ROOT
ATOM      1  C   UNL     1      10.576  12.969 -18.564  1.00  0.00     0.000 C 
ENDROOT
BRANCH   1   2
ATOM      2  C   UNL     1      11.858  12.248 -18.109  1.00  0.00     0.000 C 
BRANCH   2   3
ATOM      3  C   UNL     1      12.258  11.084 -19.041  1.00  0.00     0.000 C 
BRANCH   3   4
ATOM      4  C   UNL     1      12.178  11.422 -20.543  1.00  0.00     0.000 C 
BRANCH   4   5
ATOM      5  C   UNL     1      13.532  11.491 -21.274  1.00  0.00     0.000 C 
BRANCH   5   6
ATOM      6  C   UNL     1      13.797  12.802 -22.044  1.00  0.00     0.000 C 
BRANCH   6   7
ATOM      7  C   UNL     1      13.298  14.080 -21.344  1.00  0.00     0.000 C 
BRANCH   7   8
ATOM      8  C   UNL     1      14.206  14.516 -20.184  1.00  0.00     0.000 C 
BRANCH   8   9
ATOM      9  C   UNL     1      13.719  15.841 -19.578  1.00  0.00     0.000 C 
BRANCH   9  10
ATOM     10  C   UNL     1      14.846  16.882 -19.462  1.00  0.00     0.000 C 
BRANCH  10  11
ATOM     11  C   UNL     1      14.694  17.770 -18.214  1.00  0.00     0.000 C 
BRANCH  11  12
ATOM     12  C   UNL     1      14.693  16.968 -16.901  1.00  0.00     0.000 C 
BRANCH  12  13
ATOM     13  C   UNL     1      16.047  16.349 -16.512  1.00  0.00     0.006 C 
BRANCH  13  14
ATOM     14  C   UNL     1      16.048  14.816 -16.585  1.00  0.00     0.053 C 
BRANCH  14  15
ATOM     15  C   UNL     1      17.204  14.324 -17.399  1.00  0.00     0.041 C 
ATOM     16  O   UNL     1      17.429  14.810 -18.538  1.00  0.00    -0.550 OA
ATOM     17  O   UNL     1      18.034  13.327 -16.899  1.00  0.00    -0.550 OA
ENDBRANCH  14  15
ENDBRANCH  13  14
ENDBRANCH  12  13
ENDBRANCH  11  12
ENDBRANCH  10  11
ENDBRANCH   9  10
ENDBRANCH   8   9
ENDBRANCH   7   8
ENDBRANCH   6   7
ENDBRANCH   5   6
ENDBRANCH   4   5
ENDBRANCH   3   4
ENDBRANCH   2   3
ENDBRANCH   1   2
BRANCH   1  18
ATOM     18  C   UNL     1      10.734  14.497 -18.591  1.00  0.00     0.000 C 
BRANCH  18  19
ATOM     19  C   UNL     1      10.530  15.140 -17.208  1.00  0.00     0.000 C 
BRANCH  19  20
ATOM     20  C   UNL     1      10.950  16.621 -17.173  1.00  0.00     0.000 C 
BRANCH  20  21
ATOM     21  C   UNL     1       9.825  17.626 -17.495  1.00  0.00     0.000 C 
BRANCH  21  22
ATOM     22  C   UNL     1       9.788  18.123 -18.952  1.00  0.00     0.000 C 
BRANCH  22  23
ATOM     23  C   UNL     1       8.393  18.002 -19.588  1.00  0.00     0.000 C 
BRANCH  23  24
ATOM     24  C   UNL     1       7.750  16.623 -19.361  1.00  0.00    -0.000 C 
BRANCH  24  25
ATOM     25  C   UNL     1       8.129  15.540 -20.391  1.00  0.00    -0.000 C 
BRANCH  25  26
ATOM     26  C   UNL     1       7.015  15.153 -21.380  1.00  0.00    -0.000 C 
BRANCH  26  27
ATOM     27  C   UNL     1       7.356  15.520 -22.835  1.00  0.00    -0.000 C 
BRANCH  27  28
ATOM     28  C   UNL     1       7.291  17.035 -23.100  1.00  0.00    -0.000 C 
BRANCH  28  29
ATOM     29  C   UNL     1       8.654  17.752 -23.187  1.00  0.00    -0.000 C 
BRANCH  29  30
ATOM     30  C   UNL     1       9.867  16.828 -23.395  1.00  0.00    -0.000 C 
BRANCH  30  31
ATOM     31  C   UNL     1      10.894  16.929 -22.259  1.00  0.00    -0.003 C 
ATOM     32  C   UNL     1      12.288  17.229 -22.804  1.00  0.00     0.004 C 
ENDBRANCH  30  31
ENDBRANCH  29  30
ENDBRANCH  28  29
ENDBRANCH  27  28
ENDBRANCH  26  27
ENDBRANCH  25  26
ENDBRANCH  24  25
ENDBRANCH  23  24
ENDBRANCH  22  23
ENDBRANCH  21  22
ENDBRANCH  20  21
ENDBRANCH  19  20
ENDBRANCH  18  19
ENDBRANCH   1  18
TORSDOF 28
ENDMDL
MODEL 4
REMARK VINA RESULT:    -4.948      3.064      6.841
REMARK INTER + INTRA:         -18.913
REMARK INTER:                 -13.466
REMARK INTRA:                  -5.447
REMARK UNBOUND:                -5.865
REMARK SMILES CCCCCCCCCCCCCCCCCCCCCCCCCCCCCC(=O)[O-]
REMARK SMILES IDX 16 1 17 2 18 3 19 4 20 5 21 6 22 7 23 8 24 9 25 10 26 11
REMARK SMILES IDX 27 12 28 13 29 14 30 15 31 16 32 17 15 18 14 19 13 20 12 21
REMARK SMILES IDX 11 22 10 23 9 24 8 25 7 26 6 27 5 28 4 29 3 30 2 31 1 32
REMARK H PARENT
REMARK Flexibility Score: inf
ROOT
ATOM      1  C   UNL     1       8.064  15.250 -20.720  1.00  0.00     0.000 C 
ENDROOT
BRANCH   1   2
ATOM      2  C   UNL     1       7.156  15.048 -21.947  1.00  0.00     0.000 C 
BRANCH   2   3
ATOM      3  C   UNL     1       7.204  16.234 -22.934  1.00  0.00     0.000 C 
BRANCH   3   4
ATOM      4  C   UNL     1       8.624  16.606 -23.407  1.00  0.00     0.000 C 
BRANCH   4   5
ATOM      5  C   UNL     1       9.166  17.945 -22.874  1.00  0.00     0.000 C 
BRANCH   5   6
ATOM      6  C   UNL     1      10.605  17.897 -22.319  1.00  0.00     0.000 C 
BRANCH   6   7
ATOM      7  C   UNL     1      11.285  16.518 -22.392  1.00  0.00     0.000 C 
BRANCH   7   8
ATOM      8  C   UNL     1      11.554  15.911 -21.007  1.00  0.00     0.000 C 
BRANCH   8   9
ATOM      9  C   UNL     1      12.781  16.563 -20.353  1.00  0.00     0.000 C 
BRANCH   9  10
ATOM     10  C   UNL     1      13.898  15.548 -20.057  1.00  0.00     0.000 C 
BRANCH  10  11
ATOM     11  C   UNL     1      14.351  15.590 -18.587  1.00  0.00     0.000 C 
BRANCH  11  12
ATOM     12  C   UNL     1      14.491  14.192 -17.959  1.00  0.00     0.000 C 
BRANCH  12  13
ATOM     13  C   UNL     1      14.704  14.178 -16.435  1.00  0.00     0.006 C 
BRANCH  13  14
ATOM     14  C   UNL     1      15.991  13.455 -16.016  1.00  0.00     0.053 C 
BRANCH  14  15
ATOM     15  C   UNL     1      17.125  13.820 -16.922  1.00  0.00     0.041 C 
ATOM     16  O   UNL     1      17.800  12.920 -17.486  1.00  0.00    -0.550 OA
ATOM     17  O   UNL     1      17.437  15.157 -17.143  1.00  0.00    -0.550 OA
ENDBRANCH  14  15
ENDBRANCH  13  14
ENDBRANCH  12  13
ENDBRANCH  11  12
ENDBRANCH  10  11
ENDBRANCH   9  10
ENDBRANCH   8   9
ENDBRANCH   7   8
ENDBRANCH   6   7
ENDBRANCH   5   6
ENDBRANCH   4   5
ENDBRANCH   3   4
ENDBRANCH   2   3
ENDBRANCH   1   2
BRANCH   1  18
ATOM     18  C   UNL     1       7.480  16.248 -19.708  1.00  0.00     0.000 C 
BRANCH  18  19
ATOM     19  C   UNL     1       8.461  17.379 -19.354  1.00  0.00     0.000 C 
BRANCH  19  20
ATOM     20  C   UNL     1       8.112  18.075 -18.025  1.00  0.00     0.000 C 
BRANCH  20  21
ATOM     21  C   UNL     1       9.143  17.878 -16.895  1.00  0.00     0.000 C 
BRANCH  21  22
ATOM     22  C   UNL     1      10.611  17.809 -17.350  1.00  0.00     0.000 C 
BRANCH  22  23
ATOM     23  C   UNL     1      11.350  16.577 -16.798  1.00  0.00     0.000 C 
BRANCH  23  24
ATOM     24  C   UNL     1      10.481  15.307 -16.801  1.00  0.00    -0.000 C 
BRANCH  24  25
ATOM     25  C   UNL     1      10.434  14.543 -18.139  1.00  0.00    -0.000 C 
BRANCH  25  26
ATOM     26  C   UNL     1      11.007  13.114 -18.102  1.00  0.00    -0.000 C 
BRANCH  26  27
ATOM     27  C   UNL     1      10.644  12.293 -19.351  1.00  0.00    -0.000 C 
BRANCH  27  28
ATOM     28  C   UNL     1      11.801  11.402 -19.837  1.00  0.00    -0.000 C 
BRANCH  28  29
ATOM     29  C   UNL     1      12.649  11.985 -20.986  1.00  0.00    -0.000 C 
BRANCH  29  30
ATOM     30  C   UNL     1      14.100  11.476 -21.052  1.00  0.00    -0.000 C 
BRANCH  30  31
ATOM     31  C   UNL     1      15.066  12.509 -21.647  1.00  0.00    -0.003 C 
ATOM     32  C   UNL     1      16.398  12.510 -20.900  1.00  0.00     0.004 C 
ENDBRANCH  30  31
ENDBRANCH  29  30
ENDBRANCH  28  29
ENDBRANCH  27  28
ENDBRANCH  26  27
ENDBRANCH  25  26
ENDBRANCH  24  25
ENDBRANCH  23  24
ENDBRANCH  22  23
ENDBRANCH  21  22
ENDBRANCH  20  21
ENDBRANCH  19  20
ENDBRANCH  18  19
ENDBRANCH   1  18
TORSDOF 28
ENDMDL
MODEL 5
REMARK VINA RESULT:    -4.939      1.398      4.338
REMARK INTER + INTRA:         -18.888
REMARK INTER:                 -13.339
REMARK INTRA:                  -5.549
REMARK UNBOUND:                -5.865
REMARK SMILES CCCCCCCCCCCCCCCCCCCCCCCCCCCCCC(=O)[O-]
REMARK SMILES IDX 16 1 17 2 18 3 19 4 20 5 21 6 22 7 23 8 24 9 25 10 26 11
REMARK SMILES IDX 27 12 28 13 29 14 30 15 31 16 32 17 15 18 14 19 13 20 12 21
REMARK SMILES IDX 11 22 10 23 9 24 8 25 7 26 6 27 5 28 4 29 3 30 2 31 1 32
REMARK H PARENT
REMARK Flexibility Score: inf
ROOT
ATOM      1  C   UNL     1      13.630  11.400 -20.938  1.00  0.00     0.000 C 
ENDROOT
BRANCH   1   2
ATOM      2  C   UNL     1      12.092  11.374 -20.872  1.00  0.00     0.000 C 
BRANCH   2   3
ATOM      3  C   UNL     1      11.544  11.730 -19.474  1.00  0.00     0.000 C 
BRANCH   3   4
ATOM      4  C   UNL     1      10.249  12.566 -19.496  1.00  0.00     0.000 C 
BRANCH   4   5
ATOM      5  C   UNL     1      10.342  13.943 -18.814  1.00  0.00     0.000 C 
BRANCH   5   6
ATOM      6  C   UNL     1      11.469  14.085 -17.770  1.00  0.00     0.000 C 
BRANCH   6   7
ATOM      7  C   UNL     1      11.676  15.510 -17.225  1.00  0.00     0.000 C 
BRANCH   7   8
ATOM      8  C   UNL     1      10.363  16.176 -16.787  1.00  0.00     0.000 C 
BRANCH   8   9
ATOM      9  C   UNL     1      10.284  17.620 -17.303  1.00  0.00     0.000 C 
BRANCH   9  10
ATOM     10  C   UNL     1       9.739  17.701 -18.740  1.00  0.00     0.000 C 
BRANCH  10  11
ATOM     11  C   UNL     1       8.297  17.175 -18.849  1.00  0.00     0.000 C 
BRANCH  11  12
ATOM     12  C   UNL     1       7.781  17.127 -20.298  1.00  0.00     0.000 C 
BRANCH  12  13
ATOM     13  C   UNL     1       8.487  16.107 -21.209  1.00  0.00     0.006 C 
BRANCH  13  14
ATOM     14  C   UNL     1       8.537  16.549 -22.678  1.00  0.00     0.053 C 
BRANCH  14  15
ATOM     15  C   UNL     1       9.926  16.951 -23.064  1.00  0.00     0.041 C 
ATOM     16  O   UNL     1      10.574  16.267 -23.899  1.00  0.00    -0.550 OA
ATOM     17  O   UNL     1      10.506  18.082 -22.501  1.00  0.00    -0.550 OA
ENDBRANCH  14  15
ENDBRANCH  13  14
ENDBRANCH  12  13
ENDBRANCH  11  12
ENDBRANCH  10  11
ENDBRANCH   9  10
ENDBRANCH   8   9
ENDBRANCH   7   8
ENDBRANCH   6   7
ENDBRANCH   5   6
ENDBRANCH   4   5
ENDBRANCH   3   4
ENDBRANCH   2   3
ENDBRANCH   1   2
BRANCH   1  18
ATOM     18  C   UNL     1      14.176  12.705 -21.537  1.00  0.00     0.000 C 
BRANCH  18  19
ATOM     19  C   UNL     1      13.908  13.927 -20.642  1.00  0.00     0.000 C 
BRANCH  19  20
ATOM     20  C   UNL     1      13.017  14.981 -21.326  1.00  0.00     0.000 C 
BRANCH  20  21
ATOM     21  C   UNL     1      12.837  16.295 -20.538  1.00  0.00     0.000 C 
BRANCH  21  22
ATOM     22  C   UNL     1      14.089  16.786 -19.789  1.00  0.00     0.000 C 
BRANCH  22  23
ATOM     23  C   UNL     1      13.863  18.125 -19.065  1.00  0.00     0.000 C 
BRANCH  23  24
ATOM     24  C   UNL     1      14.324  18.096 -17.597  1.00  0.00    -0.000 C 
BRANCH  24  25
ATOM     25  C   UNL     1      15.843  17.940 -17.385  1.00  0.00    -0.000 C 
BRANCH  25  26
ATOM     26  C   UNL     1      16.266  16.749 -16.505  1.00  0.00    -0.000 C 
BRANCH  26  27
ATOM     27  C   UNL     1      15.073  15.888 -16.054  1.00  0.00    -0.000 C 
BRANCH  27  28
ATOM     28  C   UNL     1      15.143  14.445 -16.587  1.00  0.00    -0.000 C 
BRANCH  28  29
ATOM     29  C   UNL     1      16.395  13.646 -16.172  1.00  0.00    -0.000 C 
BRANCH  29  30
ATOM     30  C   UNL     1      17.573  13.716 -17.160  1.00  0.00    -0.000 C 
BRANCH  30  31
ATOM     31  C   UNL     1      17.143  13.495 -18.616  1.00  0.00    -0.003 C 
ATOM     32  C   UNL     1      17.366  14.752 -19.452  1.00  0.00     0.004 C 
ENDBRANCH  30  31
ENDBRANCH  29  30
ENDBRANCH  28  29
ENDBRANCH  27  28
ENDBRANCH  26  27
ENDBRANCH  25  26
ENDBRANCH  24  25
ENDBRANCH  23  24
ENDBRANCH  22  23
ENDBRANCH  21  22
ENDBRANCH  20  21
ENDBRANCH  19  20
ENDBRANCH  18  19
ENDBRANCH   1  18
TORSDOF 28
ENDMDL
MODEL 6
REMARK VINA RESULT:    -4.938      2.760      7.374
REMARK INTER + INTRA:         -18.887
REMARK INTER:                 -14.003
REMARK INTRA:                  -4.884
REMARK UNBOUND:                -5.865
REMARK SMILES CCCCCCCCCCCCCCCCCCCCCCCCCCCCCC(=O)[O-]
REMARK SMILES IDX 16 1 17 2 18 3 19 4 20 5 21 6 22 7 23 8 24 9 25 10 26 11
REMARK SMILES IDX 27 12 28 13 29 14 30 15 31 16 32 17 15 18 14 19 13 20 12 21
REMARK SMILES IDX 11 22 10 23 9 24 8 25 7 26 6 27 5 28 4 29 3 30 2 31 1 32
REMARK H PARENT
REMARK Flexibility Score: inf
ROOT
ATOM      1  C   UNL     1      13.626  11.481 -21.460  1.00  0.00     0.000 C 
ENDROOT
BRANCH   1   2
ATOM      2  C   UNL     1      13.657  12.908 -22.036  1.00  0.00     0.000 C 
BRANCH   2   3
ATOM      3  C   UNL     1      13.767  13.995 -20.946  1.00  0.00     0.000 C 
BRANCH   3   4
ATOM      4  C   UNL     1      12.692  15.095 -21.039  1.00  0.00     0.000 C 
BRANCH   4   5
ATOM      5  C   UNL     1      13.229  16.527 -21.219  1.00  0.00     0.000 C 
BRANCH   5   6
ATOM      6  C   UNL     1      14.012  17.092 -20.015  1.00  0.00     0.000 C 
BRANCH   6   7
ATOM      7  C   UNL     1      13.337  16.888 -18.646  1.00  0.00     0.000 C 
BRANCH   7   8
ATOM      8  C   UNL     1      14.286  17.152 -17.468  1.00  0.00     0.000 C 
BRANCH   8   9
ATOM      9  C   UNL     1      14.184  16.033 -16.421  1.00  0.00     0.000 C 
BRANCH   9  10
ATOM     10  C   UNL     1      14.559  14.656 -16.995  1.00  0.00     0.000 C 
BRANCH  10  11
ATOM     11  C   UNL     1      14.935  13.648 -15.894  1.00  0.00     0.000 C 
BRANCH  11  12
ATOM     12  C   UNL     1      16.445  13.356 -15.834  1.00  0.00     0.000 C 
BRANCH  12  13
ATOM     13  C   UNL     1      17.287  14.048 -16.921  1.00  0.00     0.006 C 
BRANCH  13  14
ATOM     14  C   UNL     1      17.635  13.119 -18.092  1.00  0.00     0.053 C 
BRANCH  14  15
ATOM     15  C   UNL     1      17.160  13.698 -19.388  1.00  0.00     0.041 C 
ATOM     16  O   UNL     1      17.006  12.958 -20.394  1.00  0.00    -0.550 OA
ATOM     17  O   UNL     1      16.889  15.058 -19.485  1.00  0.00    -0.550 OA
ENDBRANCH  14  15
ENDBRANCH  13  14
ENDBRANCH  12  13
ENDBRANCH  11  12
ENDBRANCH  10  11
ENDBRANCH   9  10
ENDBRANCH   8   9
ENDBRANCH   7   8
ENDBRANCH   6   7
ENDBRANCH   5   6
ENDBRANCH   4   5
ENDBRANCH   3   4
ENDBRANCH   2   3
ENDBRANCH   1   2
BRANCH   1  18
ATOM     18  C   UNL     1      12.714  11.358 -20.229  1.00  0.00     0.000 C 
BRANCH  18  19
ATOM     19  C   UNL     1      11.219  11.384 -20.592  1.00  0.00     0.000 C 
BRANCH  19  20
ATOM     20  C   UNL     1      10.367  12.133 -19.551  1.00  0.00     0.000 C 
BRANCH  20  21
ATOM     21  C   UNL     1      11.048  12.349 -18.184  1.00  0.00     0.000 C 
BRANCH  21  22
ATOM     22  C   UNL     1      11.404  13.809 -17.852  1.00  0.00     0.000 C 
BRANCH  22  23
ATOM     23  C   UNL     1      10.233  14.778 -18.089  1.00  0.00     0.000 C 
BRANCH  23  24
ATOM     24  C   UNL     1      10.141  15.880 -17.019  1.00  0.00    -0.000 C 
BRANCH  24  25
ATOM     25  C   UNL     1       9.315  17.120 -17.418  1.00  0.00    -0.000 C 
BRANCH  25  26
ATOM     26  C   UNL     1       8.096  16.837 -18.316  1.00  0.00    -0.000 C 
BRANCH  26  27
ATOM     27  C   UNL     1       7.979  17.823 -19.491  1.00  0.00    -0.000 C 
BRANCH  27  28
ATOM     28  C   UNL     1       9.160  17.723 -20.474  1.00  0.00    -0.000 C 
BRANCH  28  29
ATOM     29  C   UNL     1       9.251  16.403 -21.268  1.00  0.00    -0.000 C 
BRANCH  29  30
ATOM     30  C   UNL     1       8.704  16.464 -22.705  1.00  0.00    -0.000 C 
BRANCH  30  31
ATOM     31  C   UNL     1       7.315  15.827 -22.841  1.00  0.00    -0.003 C 
ATOM     32  C   UNL     1       7.077  14.791 -21.745  1.00  0.00     0.004 C 
ENDBRANCH  30  31
ENDBRANCH  29  30
ENDBRANCH  28  29
ENDBRANCH  27  28
ENDBRANCH  26  27
ENDBRANCH  25  26
ENDBRANCH  24  25
ENDBRANCH  23  24
ENDBRANCH  22  23
ENDBRANCH  21  22
ENDBRANCH  20  21
ENDBRANCH  19  20
ENDBRANCH  18  19
ENDBRANCH   1  18
TORSDOF 28
ENDMDL
MODEL 7
REMARK VINA RESULT:    -4.928      2.932      7.735
REMARK INTER + INTRA:         -18.859
REMARK INTER:                 -13.067
REMARK INTRA:                  -5.792
REMARK UNBOUND:                -5.865
REMARK SMILES CCCCCCCCCCCCCCCCCCCCCCCCCCCCCC(=O)[O-]
REMARK SMILES IDX 16 1 17 2 18 3 19 4 20 5 21 6 22 7 23 8 24 9 25 10 26 11
REMARK SMILES IDX 27 12 28 13 29 14 30 15 31 16 32 17 15 18 14 19 13 20 12 21
REMARK SMILES IDX 11 22 10 23 9 24 8 25 7 26 6 27 5 28 4 29 3 30 2 31 1 32
REMARK H PARENT
REMARK Flexibility Score: inf
ROOT
ATOM      1  C   UNL     1      14.010  14.811 -20.796  1.00  0.00     0.000 C 
ENDROOT
BRANCH   1   2
ATOM      2  C   UNL     1      14.558  13.374 -20.870  1.00  0.00     0.000 C 
BRANCH   2   3
ATOM      3  C   UNL     1      14.063  12.604 -22.112  1.00  0.00     0.000 C 
BRANCH   3   4
ATOM      4  C   UNL     1      13.237  11.344 -21.786  1.00  0.00     0.000 C 
BRANCH   4   5
ATOM      5  C   UNL     1      12.536  11.352 -20.415  1.00  0.00     0.000 C 
BRANCH   5   6
ATOM      6  C   UNL     1      10.999  11.476 -20.463  1.00  0.00     0.000 C 
BRANCH   6   7
ATOM      7  C   UNL     1      10.365  12.186 -19.252  1.00  0.00     0.000 C 
BRANCH   7   8
ATOM      8  C   UNL     1      11.009  13.548 -18.957  1.00  0.00     0.000 C 
BRANCH   8   9
ATOM      9  C   UNL     1      11.788  13.509 -17.634  1.00  0.00     0.000 C 
BRANCH   9  10
ATOM     10  C   UNL     1      13.269  13.887 -17.813  1.00  0.00     0.000 C 
BRANCH  10  11
ATOM     11  C   UNL     1      14.005  14.020 -16.468  1.00  0.00     0.000 C 
BRANCH  11  12
ATOM     12  C   UNL     1      14.629  15.410 -16.258  1.00  0.00     0.000 C 
BRANCH  12  13
ATOM     13  C   UNL     1      15.271  16.034 -17.509  1.00  0.00     0.006 C 
BRANCH  13  14
ATOM     14  C   UNL     1      16.802  15.930 -17.514  1.00  0.00     0.053 C 
BRANCH  14  15
ATOM     15  C   UNL     1      17.248  14.685 -18.214  1.00  0.00     0.041 C 
ATOM     16  O   UNL     1      17.394  13.614 -17.569  1.00  0.00    -0.550 OA
ATOM     17  O   UNL     1      17.503  14.707 -19.581  1.00  0.00    -0.550 OA
ENDBRANCH  14  15
ENDBRANCH  13  14
ENDBRANCH  12  13
ENDBRANCH  11  12
ENDBRANCH  10  11
ENDBRANCH   9  10
ENDBRANCH   8   9
ENDBRANCH   7   8
ENDBRANCH   6   7
ENDBRANCH   5   6
ENDBRANCH   4   5
ENDBRANCH   3   4
ENDBRANCH   2   3
ENDBRANCH   1   2
BRANCH   1  18
ATOM     18  C   UNL     1      12.973  15.107 -21.891  1.00  0.00     0.000 C 
BRANCH  18  19
ATOM     19  C   UNL     1      11.784  15.934 -21.375  1.00  0.00     0.000 C 
BRANCH  19  20
ATOM     20  C   UNL     1      12.074  17.447 -21.357  1.00  0.00     0.000 C 
BRANCH  20  21
ATOM     21  C   UNL     1      11.981  18.113 -19.969  1.00  0.00     0.000 C 
BRANCH  21  22
ATOM     22  C   UNL     1      11.863  17.141 -18.781  1.00  0.00     0.000 C 
BRANCH  22  23
ATOM     23  C   UNL     1      11.708  17.863 -17.432  1.00  0.00     0.000 C 
BRANCH  23  24
ATOM     24  C   UNL     1      11.426  16.899 -16.266  1.00  0.00    -0.000 C 
BRANCH  24  25
ATOM     25  C   UNL     1       9.952  16.480 -16.098  1.00  0.00    -0.000 C 
BRANCH  25  26
ATOM     26  C   UNL     1       8.920  17.441 -16.717  1.00  0.00    -0.000 C 
BRANCH  26  27
ATOM     27  C   UNL     1       8.149  16.813 -17.890  1.00  0.00    -0.000 C 
BRANCH  27  28
ATOM     28  C   UNL     1       8.090  17.729 -19.126  1.00  0.00    -0.000 C 
BRANCH  28  29
ATOM     29  C   UNL     1       8.348  17.035 -20.479  1.00  0.00    -0.000 C 
BRANCH  29  30
ATOM     30  C   UNL     1       7.923  15.557 -20.548  1.00  0.00    -0.000 C 
BRANCH  30  31
ATOM     31  C   UNL     1       7.308  15.178 -21.901  1.00  0.00    -0.003 C 
ATOM     32  C   UNL     1       7.579  16.255 -22.949  1.00  0.00     0.004 C 
ENDBRANCH  30  31
ENDBRANCH  29  30
ENDBRANCH  28  29
ENDBRANCH  27  28
ENDBRANCH  26  27
ENDBRANCH  25  26
ENDBRANCH  24  25
ENDBRANCH  23  24
ENDBRANCH  22  23
ENDBRANCH  21  22
ENDBRANCH  20  21
ENDBRANCH  19  20
ENDBRANCH  18  19
ENDBRANCH   1  18
TORSDOF 28
ENDMDL
MODEL 8
REMARK VINA RESULT:    -4.910      2.186      5.595
REMARK INTER + INTRA:         -18.812
REMARK INTER:                 -13.069
REMARK INTRA:                  -5.743
REMARK UNBOUND:                -5.865
REMARK SMILES CCCCCCCCCCCCCCCCCCCCCCCCCCCCCC(=O)[O-]
REMARK SMILES IDX 16 1 17 2 18 3 19 4 20 5 21 6 22 7 23 8 24 9 25 10 26 11
REMARK SMILES IDX 27 12 28 13 29 14 30 15 31 16 32 17 15 18 14 19 13 20 12 21
REMARK SMILES IDX 11 22 10 23 9 24 8 25 7 26 6 27 5 28 4 29 3 30 2 31 1 32
REMARK H PARENT
REMARK Flexibility Score: inf
ROOT
ATOM      1  C   UNL     1      12.864  15.670 -20.829  1.00  0.00     0.000 C 
ENDROOT
BRANCH   1   2
ATOM      2  C   UNL     1      12.828  15.206 -22.296  1.00  0.00     0.000 C 
BRANCH   2   3
ATOM      3  C   UNL     1      12.210  16.254 -23.245  1.00  0.00     0.000 C 
BRANCH   3   4
ATOM      4  C   UNL     1      10.903  16.885 -22.724  1.00  0.00     0.000 C 
BRANCH   4   5
ATOM      5  C   UNL     1       9.643  16.566 -23.550  1.00  0.00     0.000 C 
BRANCH   5   6
ATOM      6  C   UNL     1       8.304  16.909 -22.865  1.00  0.00     0.000 C 
BRANCH   6   7
ATOM      7  C   UNL     1       7.574  15.712 -22.228  1.00  0.00     0.000 C 
BRANCH   7   8
ATOM      8  C   UNL     1       7.376  15.873 -20.713  1.00  0.00     0.000 C 
BRANCH   8   9
ATOM      9  C   UNL     1       8.728  15.922 -19.987  1.00  0.00     0.000 C 
BRANCH   9  10
ATOM     10  C   UNL     1       9.442  14.559 -19.982  1.00  0.00     0.000 C 
BRANCH  10  11
ATOM     11  C   UNL     1      10.159  14.281 -18.649  1.00  0.00     0.000 C 
BRANCH  11  12
ATOM     12  C   UNL     1      10.677  12.836 -18.534  1.00  0.00     0.000 C 
BRANCH  12  13
ATOM     13  C   UNL     1      11.203  12.224 -19.844  1.00  0.00     0.006 C 
BRANCH  13  14
ATOM     14  C   UNL     1      12.654  11.734 -19.737  1.00  0.00     0.053 C 
BRANCH  14  15
ATOM     15  C   UNL     1      13.282  11.635 -21.092  1.00  0.00     0.041 C 
ATOM     16  O   UNL     1      12.670  11.063 -22.033  1.00  0.00    -0.550 OA
ATOM     17  O   UNL     1      14.544  12.172 -21.316  1.00  0.00    -0.550 OA
ENDBRANCH  14  15
ENDBRANCH  13  14
ENDBRANCH  12  13
ENDBRANCH  11  12
ENDBRANCH  10  11
ENDBRANCH   9  10
ENDBRANCH   8   9
ENDBRANCH   7   8
ENDBRANCH   6   7
ENDBRANCH   5   6
ENDBRANCH   4   5
ENDBRANCH   3   4
ENDBRANCH   2   3
ENDBRANCH   1   2
BRANCH   1  18
ATOM     18  C   UNL     1      13.833  16.842 -20.602  1.00  0.00     0.000 C 
BRANCH  18  19
ATOM     19  C   UNL     1      13.271  17.898 -19.635  1.00  0.00     0.000 C 
BRANCH  19  20
ATOM     20  C   UNL     1      11.760  17.735 -19.387  1.00  0.00     0.000 C 
BRANCH  20  21
ATOM     21  C   UNL     1      11.286  18.121 -17.971  1.00  0.00     0.000 C 
BRANCH  21  22
ATOM     22  C   UNL     1      12.380  18.118 -16.889  1.00  0.00     0.000 C 
BRANCH  22  23
ATOM     23  C   UNL     1      12.160  17.034 -15.821  1.00  0.00     0.000 C 
BRANCH  23  24
ATOM     24  C   UNL     1      13.214  15.915 -15.877  1.00  0.00    -0.000 C 
BRANCH  24  25
ATOM     25  C   UNL     1      13.265  15.123 -17.200  1.00  0.00    -0.000 C 
BRANCH  25  26
ATOM     26  C   UNL     1      14.065  13.809 -17.149  1.00  0.00    -0.000 C 
BRANCH  26  27
ATOM     27  C   UNL     1      14.911  13.675 -15.871  1.00  0.00    -0.000 C 
BRANCH  27  28
ATOM     28  C   UNL     1      16.416  13.878 -16.127  1.00  0.00    -0.000 C 
BRANCH  28  29
ATOM     29  C   UNL     1      16.812  14.109 -17.600  1.00  0.00    -0.000 C 
BRANCH  29  30
ATOM     30  C   UNL     1      16.966  15.583 -18.013  1.00  0.00    -0.000 C 
BRANCH  30  31
ATOM     31  C   UNL     1      16.747  16.554 -16.845  1.00  0.00    -0.003 C 
ATOM     32  C   UNL     1      15.983  17.795 -17.298  1.00  0.00     0.004 C 
ENDBRANCH  30  31
ENDBRANCH  29  30
ENDBRANCH  28  29
ENDBRANCH  27  28
ENDBRANCH  26  27
ENDBRANCH  25  26
ENDBRANCH  24  25
ENDBRANCH  23  24
ENDBRANCH  22  23
ENDBRANCH  21  22
ENDBRANCH  20  21
ENDBRANCH  19  20
ENDBRANCH  18  19
ENDBRANCH   1  18
TORSDOF 28
ENDMDL
MODEL 9
REMARK VINA RESULT:    -4.862      2.253      6.586
REMARK INTER + INTRA:         -18.685
REMARK INTER:                 -12.944
REMARK INTRA:                  -5.742
REMARK UNBOUND:                -5.865
REMARK SMILES CCCCCCCCCCCCCCCCCCCCCCCCCCCCCC(=O)[O-]
REMARK SMILES IDX 16 1 17 2 18 3 19 4 20 5 21 6 22 7 23 8 24 9 25 10 26 11
REMARK SMILES IDX 27 12 28 13 29 14 30 15 31 16 32 17 15 18 14 19 13 20 12 21
REMARK SMILES IDX 11 22 10 23 9 24 8 25 7 26 6 27 5 28 4 29 3 30 2 31 1 32
REMARK H PARENT
REMARK Flexibility Score: inf
ROOT
ATOM      1  C   UNL     1      11.575  16.148 -21.389  1.00  0.00     0.000 C 
ENDROOT
BRANCH   1   2
ATOM      2  C   UNL     1      13.097  15.929 -21.319  1.00  0.00     0.000 C 
BRANCH   2   3
ATOM      3  C   UNL     1      13.675  16.162 -19.907  1.00  0.00     0.000 C 
BRANCH   3   4
ATOM      4  C   UNL     1      14.575  17.408 -19.790  1.00  0.00     0.000 C 
BRANCH   4   5
ATOM      5  C   UNL     1      15.144  17.679 -18.385  1.00  0.00     0.000 C 
BRANCH   5   6
ATOM      6  C   UNL     1      14.131  17.550 -17.229  1.00  0.00     0.000 C 
BRANCH   6   7
ATOM      7  C   UNL     1      14.525  16.547 -16.128  1.00  0.00     0.000 C 
BRANCH   7   8
ATOM      8  C   UNL     1      15.976  16.061 -16.256  1.00  0.00     0.000 C 
BRANCH   8   9
ATOM      9  C   UNL     1      16.024  14.555 -16.550  1.00  0.00     0.000 C 
BRANCH   9  10
ATOM     10  C   UNL     1      17.055  14.201 -17.637  1.00  0.00     0.000 C 
BRANCH  10  11
ATOM     11  C   UNL     1      16.434  14.173 -19.045  1.00  0.00     0.000 C 
BRANCH  11  12
ATOM     12  C   UNL     1      17.116  13.163 -19.984  1.00  0.00     0.000 C 
BRANCH  12  13
ATOM     13  C   UNL     1      16.200  12.545 -21.054  1.00  0.00     0.006 C 
BRANCH  13  14
ATOM     14  C   UNL     1      14.708  12.715 -20.738  1.00  0.00     0.053 C 
BRANCH  14  15
ATOM     15  C   UNL     1      13.865  12.123 -21.824  1.00  0.00     0.041 C 
ATOM     16  O   UNL     1      12.830  11.467 -21.535  1.00  0.00    -0.550 OA
ATOM     17  O   UNL     1      14.222  12.297 -23.156  1.00  0.00    -0.550 OA
ENDBRANCH  14  15
ENDBRANCH  13  14
ENDBRANCH  12  13
ENDBRANCH  11  12
ENDBRANCH  10  11
ENDBRANCH   9  10
ENDBRANCH   8   9
ENDBRANCH   7   8
ENDBRANCH   6   7
ENDBRANCH   5   6
ENDBRANCH   4   5
ENDBRANCH   3   4
ENDBRANCH   2   3
ENDBRANCH   1   2
BRANCH   1  18
ATOM     18  C   UNL     1      11.185  17.633 -21.306  1.00  0.00     0.000 C 
BRANCH  18  19
ATOM     19  C   UNL     1      10.307  18.084 -22.486  1.00  0.00     0.000 C 
BRANCH  19  20
ATOM     20  C   UNL     1       9.593  16.909 -23.179  1.00  0.00     0.000 C 
BRANCH  20  21
ATOM     21  C   UNL     1       8.052  16.968 -23.142  1.00  0.00     0.000 C 
BRANCH  21  22
ATOM     22  C   UNL     1       7.369  15.821 -22.376  1.00  0.00     0.000 C 
BRANCH  22  23
ATOM     23  C   UNL     1       8.119  15.434 -21.090  1.00  0.00     0.000 C 
BRANCH  23  24
ATOM     24  C   UNL     1       7.544  16.112 -19.834  1.00  0.00    -0.000 C 
BRANCH  24  25
ATOM     25  C   UNL     1       8.212  17.445 -19.440  1.00  0.00    -0.000 C 
BRANCH  25  26
ATOM     26  C   UNL     1       8.000  17.880 -17.978  1.00  0.00    -0.000 C 
BRANCH  26  27
ATOM     27  C   UNL     1       8.995  17.217 -17.009  1.00  0.00    -0.000 C 
BRANCH  27  28
ATOM     28  C   UNL     1      10.360  16.928 -17.660  1.00  0.00    -0.000 C 
BRANCH  28  29
ATOM     29  C   UNL     1      10.965  15.545 -17.343  1.00  0.00    -0.000 C 
BRANCH  29  30
ATOM     30  C   UNL     1      10.398  14.377 -18.170  1.00  0.00    -0.000 C 
BRANCH  30  31
ATOM     31  C   UNL     1      11.493  13.481 -18.763  1.00  0.00    -0.003 C 
ATOM     32  C   UNL     1      12.664  13.331 -17.795  1.00  0.00     0.004 C 
ENDBRANCH  30  31
ENDBRANCH  29  30
ENDBRANCH  28  29
ENDBRANCH  27  28
ENDBRANCH  26  27
ENDBRANCH  25  26
ENDBRANCH  24  25
ENDBRANCH  23  24
ENDBRANCH  22  23
ENDBRANCH  21  22
ENDBRANCH  20  21
ENDBRANCH  19  20
ENDBRANCH  18  19
ENDBRANCH   1  18
TORSDOF 28
ENDMDL
