MODEL 1
REMARK VINA RESULT:    -3.412      0.000      0.000
REMARK INTER + INTRA:          -3.623
REMARK INTER:                  -3.611
REMARK INTRA:                  -0.012
REMARK UNBOUND:                -0.012
REMARK SMILES O=Cc1ccco1
REMARK SMILES IDX 5 1 6 2 7 3 3 4 4 5 2 6 1 7
REMARK H PARENT
REMARK Flexibility Score: inf
ROOT
ATOM      1  C   UNL     1       5.429  22.851  20.509  1.00  0.00     0.043 A 
ATOM      2  C   UNL     1       6.486  22.798  21.397  1.00  0.00     0.196 A 
ATOM      3  O   UNL     1       7.317  23.786  21.155  1.00  0.00    -0.462 OA
ATOM      4  C   UNL     1       6.850  24.485  20.147  1.00  0.00     0.166 A 
ATOM      5  C   UNL     1       5.664  23.941  19.699  1.00  0.00     0.054 A 
ENDROOT
BRANCH   4   6
ATOM      6  C   UNL     1       7.508  25.668  19.589  1.00  0.00     0.298 C 
ATOM      7  O   UNL     1       7.472  26.764  20.207  1.00  0.00    -0.294 OA
ENDBRANCH   4   6
TORSDOF 1
ENDMDL
MODEL 2
REMARK VINA RESULT:    -3.405      1.451      3.252
REMARK INTER + INTRA:          -3.616
REMARK INTER:                  -3.603
REMARK INTRA:                  -0.012
REMARK UNBOUND:                -0.012
REMARK SMILES O=Cc1ccco1
REMARK SMILES IDX 5 1 6 2 7 3 3 4 4 5 2 6 1 7
REMARK H PARENT
REMARK Flexibility Score: inf
ROOT
ATOM      1  C   UNL     1       8.524  25.142  20.931  1.00  0.00     0.043 A 
ATOM      2  C   UNL     1       8.007  25.873  19.879  1.00  0.00     0.196 A 
ATOM      3  O   UNL     1       6.869  25.345  19.490  1.00  0.00    -0.462 OA
ATOM      4  C   UNL     1       6.618  24.300  20.243  1.00  0.00     0.166 A 
ATOM      5  C   UNL     1       7.627  24.123  21.167  1.00  0.00     0.054 A 
ENDROOT
BRANCH   4   6
ATOM      6  C   UNL     1       5.432  23.452  20.106  1.00  0.00     0.298 C 
ATOM      7  O   UNL     1       5.305  22.419  20.814  1.00  0.00    -0.294 OA
ENDBRANCH   4   6
TORSDOF 1
ENDMDL
MODEL 3
REMARK VINA RESULT:    -3.399      1.647      3.294
REMARK INTER + INTRA:          -3.609
REMARK INTER:                  -3.599
REMARK INTRA:                  -0.011
REMARK UNBOUND:                -0.012
REMARK SMILES O=Cc1ccco1
REMARK SMILES IDX 5 1 6 2 7 3 3 4 4 5 2 6 1 7
REMARK H PARENT
REMARK Flexibility Score: inf
ROOT
ATOM      1  C   UNL     1       6.654  24.708  19.862  1.00  0.00     0.043 A 
ATOM      2  C   UNL     1       7.524  24.364  20.878  1.00  0.00     0.196 A 
ATOM      3  O   UNL     1       7.114  23.258  21.455  1.00  0.00    -0.462 OA
ATOM      4  C   UNL     1       6.013  22.862  20.861  1.00  0.00     0.166 A 
ATOM      5  C   UNL     1       5.676  23.738  19.850  1.00  0.00     0.054 A 
ENDROOT
BRANCH   4   6
ATOM      6  C   UNL     1       5.262  21.661  21.232  1.00  0.00     0.298 C 
ATOM      7  O   UNL     1       4.066  21.753  21.611  1.00  0.00    -0.294 OA
ENDBRANCH   4   6
TORSDOF 1
ENDMDL
MODEL 4
REMARK VINA RESULT:    -3.201      4.791      6.696
REMARK INTER + INTRA:          -3.400
REMARK INTER:                  -3.387
REMARK INTRA:                  -0.013
REMARK UNBOUND:                -0.012
REMARK SMILES O=Cc1ccco1
REMARK SMILES IDX 5 1 6 2 7 3 3 4 4 5 2 6 1 7
REMARK H PARENT
REMARK Flexibility Score: inf
ROOT
ATOM      1  C   UNL     1       7.554  30.710  15.987  1.00  0.00     0.043 A 
ATOM      2  C   UNL     1       8.746  30.012  15.996  1.00  0.00     0.196 A 
ATOM      3  O   UNL     1       8.817  29.270  17.077  1.00  0.00    -0.462 OA
ATOM      4  C   UNL     1       7.721  29.451  17.778  1.00  0.00     0.166 A 
ATOM      5  C   UNL     1       6.891  30.349  17.140  1.00  0.00     0.054 A 
ENDROOT
BRANCH   4   6
ATOM      6  C   UNL     1       7.439  28.788  19.053  1.00  0.00     0.298 C 
ATOM      7  O   UNL     1       7.521  27.536  19.148  1.00  0.00    -0.294 OA
ENDBRANCH   4   6
TORSDOF 1
ENDMDL
MODEL 5
REMARK VINA RESULT:    -3.033     14.923     15.966
REMARK INTER + INTRA:          -3.222
REMARK INTER:                  -3.212
REMARK INTRA:                  -0.011
REMARK UNBOUND:                -0.012
REMARK SMILES O=Cc1ccco1
REMARK SMILES IDX 5 1 6 2 7 3 3 4 4 5 2 6 1 7
REMARK H PARENT
REMARK Flexibility Score: inf
ROOT
ATOM      1  C   UNL     1      -6.820  14.684  18.255  1.00  0.00     0.043 A 
ATOM      2  C   UNL     1      -6.662  13.672  17.329  1.00  0.00     0.196 A 
ATOM      3  O   UNL     1      -5.887  14.083  16.352  1.00  0.00    -0.462 OA
ATOM      4  C   UNL     1      -5.529  15.321  16.598  1.00  0.00     0.166 A 
ATOM      5  C   UNL     1      -6.089  15.752  17.783  1.00  0.00     0.054 A 
ENDROOT
BRANCH   4   6
ATOM      6  C   UNL     1      -4.661  16.117  15.728  1.00  0.00     0.298 C 
ATOM      7  O   UNL     1      -5.161  16.896  14.876  1.00  0.00    -0.294 OA
ENDBRANCH   4   6
TORSDOF 1
ENDMDL
MODEL 6
REMARK VINA RESULT:    -2.973      5.088      6.519
REMARK INTER + INTRA:          -3.158
REMARK INTER:                  -3.146
REMARK INTRA:                  -0.013
REMARK UNBOUND:                -0.012
REMARK SMILES O=Cc1ccco1
REMARK SMILES IDX 5 1 6 2 7 3 3 4 4 5 2 6 1 7
REMARK H PARENT
REMARK Flexibility Score: inf
ROOT
ATOM      1  C   UNL     1       4.511  20.618  21.203  1.00  0.00     0.043 A 
ATOM      2  C   UNL     1       3.659  21.457  21.894  1.00  0.00     0.196 A 
ATOM      3  O   UNL     1       2.426  21.019  21.791  1.00  0.00    -0.462 OA
ATOM      4  C   UNL     1       2.433  19.927  21.062  1.00  0.00     0.166 A 
ATOM      5  C   UNL     1       3.719  19.628  20.663  1.00  0.00     0.054 A 
ENDROOT
BRANCH   4   6
ATOM      6  C   UNL     1       1.236  19.152  20.728  1.00  0.00     0.298 C 
ATOM      7  O   UNL     1       0.308  19.675  20.059  1.00  0.00    -0.294 OA
ENDBRANCH   4   6
TORSDOF 1
ENDMDL
MODEL 7
REMARK VINA RESULT:    -2.932      4.574      5.905
REMARK INTER + INTRA:          -3.115
REMARK INTER:                  -3.104
REMARK INTRA:                  -0.011
REMARK UNBOUND:                -0.012
REMARK SMILES O=Cc1ccco1
REMARK SMILES IDX 5 1 6 2 7 3 3 4 4 5 2 6 1 7
REMARK H PARENT
REMARK Flexibility Score: inf
ROOT
ATOM      1  C   UNL     1       2.336  18.432  20.144  1.00  0.00     0.043 A 
ATOM      2  C   UNL     1       1.428  19.321  20.686  1.00  0.00     0.196 A 
ATOM      3  O   UNL     1       2.068  20.264  21.339  1.00  0.00    -0.462 OA
ATOM      4  C   UNL     1       3.357  20.032  21.249  1.00  0.00     0.166 A 
ATOM      5  C   UNL     1       3.584  18.890  20.508  1.00  0.00     0.054 A 
ENDROOT
BRANCH   4   6
ATOM      6  C   UNL     1       4.390  20.874  21.855  1.00  0.00     0.298 C 
ATOM      7  O   UNL     1       5.336  21.319  21.155  1.00  0.00    -0.294 OA
ENDBRANCH   4   6
TORSDOF 1
ENDMDL
MODEL 8
REMARK VINA RESULT:    -2.881     14.340     15.614
REMARK INTER + INTRA:          -3.061
REMARK INTER:                  -3.050
REMARK INTRA:                  -0.011
REMARK UNBOUND:                -0.012
REMARK SMILES O=Cc1ccco1
REMARK SMILES IDX 5 1 6 2 7 3 3 4 4 5 2 6 1 7
REMARK H PARENT
REMARK Flexibility Score: inf
ROOT
ATOM      1  C   UNL     1      -4.014  15.633  16.362  1.00  0.00     0.043 A 
ATOM      2  C   UNL     1      -3.510  15.275  17.598  1.00  0.00     0.196 A 
ATOM      3  O   UNL     1      -4.490  14.882  18.379  1.00  0.00    -0.462 OA
ATOM      4  C   UNL     1      -5.615  14.965  17.708  1.00  0.00     0.166 A 
ATOM      5  C   UNL     1      -5.376  15.434  16.433  1.00  0.00     0.054 A 
ENDROOT
BRANCH   4   6
ATOM      6  C   UNL     1      -6.927  14.610  18.252  1.00  0.00     0.298 C 
ATOM      7  O   UNL     1      -7.761  15.509  18.534  1.00  0.00    -0.294 OA
ENDBRANCH   4   6
TORSDOF 1
ENDMDL
MODEL 9
REMARK VINA RESULT:    -2.877      1.768      2.327
REMARK INTER + INTRA:          -3.057
REMARK INTER:                  -3.045
REMARK INTRA:                  -0.012
REMARK UNBOUND:                -0.012
REMARK SMILES O=Cc1ccco1
REMARK SMILES IDX 5 1 6 2 7 3 3 4 4 5 2 6 1 7
REMARK H PARENT
REMARK Flexibility Score: inf
ROOT
ATOM      1  C   UNL     1       7.983  24.769  22.427  1.00  0.00     0.043 A 
ATOM      2  C   UNL     1       7.536  23.903  21.449  1.00  0.00     0.196 A 
ATOM      3  O   UNL     1       7.343  24.562  20.329  1.00  0.00    -0.462 OA
ATOM      4  C   UNL     1       7.647  25.823  20.531  1.00  0.00     0.166 A 
ATOM      5  C   UNL     1       8.055  26.012  21.835  1.00  0.00     0.054 A 
ENDROOT
BRANCH   4   6
ATOM      6  C   UNL     1       7.557  26.866  19.508  1.00  0.00     0.298 C 
ATOM      7  O   UNL     1       7.384  28.067  19.840  1.00  0.00    -0.294 OA
ENDBRANCH   4   6
TORSDOF 1
ENDMDL
