MODEL 1
REMARK VINA RESULT:     4.183      0.000      0.000
REMARK INTER + INTRA:           4.781
REMARK INTER:                   5.039
REMARK INTRA:                  -0.258
REMARK UNBOUND:                -0.258
REMARK SMILES O=c1c(O)c(-c2ccc(O)cc2O)oc2cc(O)cc(O)c12
REMARK SMILES IDX 5 1 3 2 2 3 1 4 22 5 20 6 19 7 17 8 16 9 15 10 14 11 6 12
REMARK SMILES IDX 8 13 7 14 9 15 11 16 12 17 10 18 13 20 4 22 21 24 18 26
REMARK H PARENT 10 19 13 21 4 23 21 25 18 27
REMARK Flexibility Score: inf
ROOT
ATOM      1  C   UNL     1       3.745   1.654  17.022  1.00  0.00     0.184 A 
ATOM      2  C   UNL     1       3.905   2.807  16.234  1.00  0.00     0.208 A 
ATOM      3  C   UNL     1       4.767   2.757  15.127  1.00  0.00     0.238 A 
ATOM      4  O   UNL     1       4.926   3.789  14.419  1.00  0.00    -0.285 OA
ATOM      5  C   UNL     1       5.436   1.555  14.819  1.00  0.00     0.111 A 
ATOM      6  C   UNL     1       6.319   1.421  13.722  1.00  0.00     0.134 A 
ATOM      7  C   UNL     1       6.941   0.187  13.476  1.00  0.00     0.093 A 
ATOM      8  C   UNL     1       6.698  -0.911  14.304  1.00  0.00     0.123 A 
ATOM      9  C   UNL     1       5.827  -0.784  15.391  1.00  0.00     0.094 A 
ATOM     10  C   UNL     1       5.198   0.437  15.654  1.00  0.00     0.146 A 
ATOM     11  O   UNL     1       4.379   0.532  16.695  1.00  0.00    -0.451 OA
ENDROOT
BRANCH   1  12
ATOM     12  C   UNL     1       2.862   1.641  18.207  1.00  0.00     0.063 A 
ATOM     13  C   UNL     1       0.652   2.003  19.154  1.00  0.00     0.047 A 
ATOM     14  C   UNL     1       1.516   2.009  18.056  1.00  0.00     0.020 A 
ATOM     15  C   UNL     1       1.120   1.613  20.415  1.00  0.00     0.119 A 
ATOM     16  C   UNL     1       2.453   1.222  20.569  1.00  0.00     0.093 A 
ATOM     17  C   UNL     1       3.326   1.221  19.471  1.00  0.00     0.130 A 
BRANCH  15  18
ATOM     18  O   UNL     1       0.269   1.607  21.517  1.00  0.00    -0.508 OA
ATOM     19  H   UNL     1       0.282   0.852  22.192  1.00  0.00     0.293 HD
ENDBRANCH  15  18
BRANCH  17  20
ATOM     20  O   UNL     1       4.641   0.780  19.629  1.00  0.00    -0.507 OA
ATOM     21  H   UNL     1       5.427   1.411  19.532  1.00  0.00     0.293 HD
ENDBRANCH  17  20
ENDBRANCH   1  12
BRANCH   2  22
ATOM     22  O   UNL     1       3.192   3.970  16.538  1.00  0.00    -0.502 OA
ATOM     23  H   UNL     1       2.605   4.046  17.359  1.00  0.00     0.293 HD
ENDBRANCH   2  22
BRANCH   6  24
ATOM     24  O   UNL     1       6.584   2.498  12.875  1.00  0.00    -0.507 OA
ATOM     25  H   UNL     1       6.087   2.624  12.002  1.00  0.00     0.293 HD
ENDBRANCH   6  24
BRANCH   8  26
ATOM     26  O   UNL     1       7.326  -2.125  14.038  1.00  0.00    -0.508 OA
ATOM     27  H   UNL     1       6.844  -3.008  14.152  1.00  0.00     0.293 HD
ENDBRANCH   8  26
TORSDOF 6
ENDMDL
MODEL 2
REMARK VINA RESULT:     4.670      2.479      5.321
REMARK INTER + INTRA:           5.368
REMARK INTER:                   5.307
REMARK INTRA:                   0.061
REMARK UNBOUND:                -0.258
REMARK SMILES O=c1c(O)c(-c2ccc(O)cc2O)oc2cc(O)cc(O)c12
REMARK SMILES IDX 5 1 3 2 2 3 1 4 22 5 20 6 19 7 17 8 16 9 15 10 14 11 6 12
REMARK SMILES IDX 8 13 7 14 9 15 11 16 12 17 10 18 13 20 4 22 21 24 18 26
REMARK H PARENT 10 19 13 21 4 23 21 25 18 27
REMARK Flexibility Score: inf
ROOT
ATOM      1  C   UNL     1       4.347   1.686  15.304  1.00  0.00     0.184 A 
ATOM      2  C   UNL     1       5.108   0.771  14.556  1.00  0.00     0.208 A 
ATOM      3  C   UNL     1       5.869  -0.193  15.234  1.00  0.00     0.238 A 
ATOM      4  O   UNL     1       6.565  -1.012  14.574  1.00  0.00    -0.285 OA
ATOM      5  C   UNL     1       5.840  -0.237  16.644  1.00  0.00     0.111 A 
ATOM      6  C   UNL     1       6.575  -1.178  17.404  1.00  0.00     0.134 A 
ATOM      7  C   UNL     1       6.487  -1.163  18.804  1.00  0.00     0.093 A 
ATOM      8  C   UNL     1       5.680  -0.229  19.457  1.00  0.00     0.123 A 
ATOM      9  C   UNL     1       4.952   0.704  18.711  1.00  0.00     0.094 A 
ATOM     10  C   UNL     1       5.027   0.707  17.315  1.00  0.00     0.146 A 
ATOM     11  O   UNL     1       4.329   1.607  16.631  1.00  0.00    -0.451 OA
ENDROOT
BRANCH   1  12
ATOM     12  C   UNL     1       3.532   2.732  14.653  1.00  0.00     0.063 A 
ATOM     13  C   UNL     1       1.398   3.882  14.459  1.00  0.00     0.047 A 
ATOM     14  C   UNL     1       2.195   2.898  15.049  1.00  0.00     0.020 A 
ATOM     15  C   UNL     1       1.932   4.722  13.474  1.00  0.00     0.119 A 
ATOM     16  C   UNL     1       3.269   4.579  13.090  1.00  0.00     0.093 A 
ATOM     17  C   UNL     1       4.077   3.598  13.682  1.00  0.00     0.130 A 
BRANCH  15  18
ATOM     18  O   UNL     1       1.146   5.703  12.876  1.00  0.00    -0.508 OA
ATOM     19  H   UNL     1       0.603   5.512  12.042  1.00  0.00     0.293 HD
ENDBRANCH  15  18
BRANCH  17  20
ATOM     20  O   UNL     1       5.423   3.498  13.326  1.00  0.00    -0.507 OA
ATOM     21  H   UNL     1       6.127   4.100  13.737  1.00  0.00     0.293 HD
ENDBRANCH  17  20
ENDBRANCH   1  12
BRANCH   2  22
ATOM     22  O   UNL     1       5.080   0.811  13.159  1.00  0.00    -0.502 OA
ATOM     23  H   UNL     1       5.500   1.566  12.631  1.00  0.00     0.293 HD
ENDBRANCH   2  22
BRANCH   6  24
ATOM     24  O   UNL     1       7.391  -2.125  16.782  1.00  0.00    -0.507 OA
ATOM     25  H   UNL     1       7.923  -2.802  17.315  1.00  0.00     0.293 HD
ENDBRANCH   6  24
BRANCH   8  26
ATOM     26  O   UNL     1       5.608  -0.235  20.848  1.00  0.00    -0.508 OA
ATOM     27  H   UNL     1       6.439  -0.331  21.421  1.00  0.00     0.293 HD
ENDBRANCH   8  26
TORSDOF 6
ENDMDL
MODEL 3
REMARK VINA RESULT:     4.833      1.247      2.904
REMARK INTER + INTRA:           5.564
REMARK INTER:                   5.749
REMARK INTRA:                  -0.185
REMARK UNBOUND:                -0.258
REMARK SMILES O=c1c(O)c(-c2ccc(O)cc2O)oc2cc(O)cc(O)c12
REMARK SMILES IDX 5 1 3 2 2 3 1 4 22 5 20 6 19 7 17 8 16 9 15 10 14 11 6 12
REMARK SMILES IDX 8 13 7 14 9 15 11 16 12 17 10 18 13 20 4 22 21 24 18 26
REMARK H PARENT 10 19 13 21 4 23 21 25 18 27
REMARK Flexibility Score: inf
ROOT
ATOM      1  C   UNL     1       3.752   1.325  17.031  1.00  0.00     0.184 A 
ATOM      2  C   UNL     1       4.218   0.093  16.538  1.00  0.00     0.208 A 
ATOM      3  C   UNL     1       4.967   0.078  15.352  1.00  0.00     0.238 A 
ATOM      4  O   UNL     1       5.382  -1.022  14.895  1.00  0.00    -0.285 OA
ATOM      5  C   UNL     1       5.252   1.291  14.692  1.00  0.00     0.111 A 
ATOM      6  C   UNL     1       6.001   1.363  13.494  1.00  0.00     0.134 A 
ATOM      7  C   UNL     1       6.249   2.611  12.902  1.00  0.00     0.093 A 
ATOM      8  C   UNL     1       5.764   3.785  13.484  1.00  0.00     0.123 A 
ATOM      9  C   UNL     1       5.022   3.720  14.667  1.00  0.00     0.094 A 
ATOM     10  C   UNL     1       4.762   2.486  15.272  1.00  0.00     0.146 A 
ATOM     11  O   UNL     1       4.051   2.452  16.394  1.00  0.00    -0.451 OA
ENDROOT
BRANCH   1  12
ATOM     12  C   UNL     1       2.949   1.411  18.269  1.00  0.00     0.063 A 
ATOM     13  C   UNL     1       0.840   1.973  19.340  1.00  0.00     0.047 A 
ATOM     14  C   UNL     1       1.629   1.884  18.191  1.00  0.00     0.020 A 
ATOM     15  C   UNL     1       1.356   1.576  20.580  1.00  0.00     0.119 A 
ATOM     16  C   UNL     1       2.661   1.082  20.663  1.00  0.00     0.093 A 
ATOM     17  C   UNL     1       3.458   0.985  19.513  1.00  0.00     0.130 A 
BRANCH  15  18
ATOM     18  O   UNL     1       0.580   1.665  21.733  1.00  0.00    -0.508 OA
ATOM     19  H   UNL     1      -0.409   1.444  21.724  1.00  0.00     0.293 HD
ENDBRANCH  15  18
BRANCH  17  20
ATOM     20  O   UNL     1       4.741   0.443  19.601  1.00  0.00    -0.507 OA
ATOM     21  H   UNL     1       5.346   0.637  20.390  1.00  0.00     0.293 HD
ENDBRANCH  17  20
ENDBRANCH   1  12
BRANCH   2  22
ATOM     22  O   UNL     1       3.958  -1.088  17.240  1.00  0.00    -0.502 OA
ATOM     23  H   UNL     1       3.594  -1.917  16.788  1.00  0.00     0.293 HD
ENDBRANCH   2  22
BRANCH   6  24
ATOM     24  O   UNL     1       6.501   0.210  12.887  1.00  0.00    -0.507 OA
ATOM     25  H   UNL     1       7.233  -0.343  13.316  1.00  0.00     0.293 HD
ENDBRANCH   6  24
BRANCH   8  26
ATOM     26  O   UNL     1       6.025   5.011  12.877  1.00  0.00    -0.508 OA
ATOM     27  H   UNL     1       6.288   5.074  11.901  1.00  0.00     0.293 HD
ENDBRANCH   8  26
TORSDOF 6
ENDMDL
MODEL 4
REMARK VINA RESULT:     5.786      2.571      4.843
REMARK INTER + INTRA:           6.712
REMARK INTER:                   6.479
REMARK INTRA:                   0.233
REMARK UNBOUND:                -0.258
REMARK SMILES O=c1c(O)c(-c2ccc(O)cc2O)oc2cc(O)cc(O)c12
REMARK SMILES IDX 5 1 3 2 2 3 1 4 22 5 20 6 19 7 17 8 16 9 15 10 14 11 6 12
REMARK SMILES IDX 8 13 7 14 9 15 11 16 12 17 10 18 13 20 4 22 21 24 18 26
REMARK H PARENT 10 19 13 21 4 23 21 25 18 27
REMARK Flexibility Score: inf
ROOT
ATOM      1  C   UNL     1       4.011   1.721  14.934  1.00  0.00     0.184 A 
ATOM      2  C   UNL     1       3.809   1.264  16.249  1.00  0.00     0.208 A 
ATOM      3  C   UNL     1       4.549   0.163  16.706  1.00  0.00     0.238 A 
ATOM      4  O   UNL     1       4.368  -0.262  17.879  1.00  0.00    -0.285 OA
ATOM      5  C   UNL     1       5.489  -0.448  15.850  1.00  0.00     0.111 A 
ATOM      6  C   UNL     1       6.276  -1.560  16.233  1.00  0.00     0.134 A 
ATOM      7  C   UNL     1       7.197  -2.106  15.326  1.00  0.00     0.093 A 
ATOM      8  C   UNL     1       7.345  -1.564  14.047  1.00  0.00     0.123 A 
ATOM      9  C   UNL     1       6.569  -0.466  13.662  1.00  0.00     0.094 A 
ATOM     10  C   UNL     1       5.645   0.092  14.551  1.00  0.00     0.146 A 
ATOM     11  O   UNL     1       4.917   1.132  14.159  1.00  0.00    -0.451 OA
ENDROOT
BRANCH   1  12
ATOM     12  C   UNL     1       3.258   2.867  14.387  1.00  0.00     0.063 A 
ATOM     13  C   UNL     1       1.250   4.239  14.419  1.00  0.00     0.047 A 
ATOM     14  C   UNL     1       1.988   3.159  14.909  1.00  0.00     0.020 A 
ATOM     15  C   UNL     1       1.780   5.050  13.408  1.00  0.00     0.119 A 
ATOM     16  C   UNL     1       3.053   4.782  12.898  1.00  0.00     0.093 A 
ATOM     17  C   UNL     1       3.802   3.703  13.389  1.00  0.00     0.130 A 
BRANCH  15  18
ATOM     18  O   UNL     1       1.051   6.127  12.909  1.00  0.00    -0.508 OA
ATOM     19  H   UNL     1       0.238   5.990  12.321  1.00  0.00     0.293 HD
ENDBRANCH  15  18
BRANCH  17  20
ATOM     20  O   UNL     1       5.092   3.476  12.907  1.00  0.00    -0.507 OA
ATOM     21  H   UNL     1       5.843   3.181  13.518  1.00  0.00     0.293 HD
ENDBRANCH  17  20
ENDBRANCH   1  12
BRANCH   2  22
ATOM     22  O   UNL     1       2.903   1.919  17.088  1.00  0.00    -0.502 OA
ATOM     23  H   UNL     1       2.278   1.418  17.706  1.00  0.00     0.293 HD
ENDBRANCH   2  22
BRANCH   6  24
ATOM     24  O   UNL     1       6.153  -2.124  17.503  1.00  0.00    -0.507 OA
ATOM     25  H   UNL     1       6.767  -1.862  18.265  1.00  0.00     0.293 HD
ENDBRANCH   6  24
BRANCH   8  26
ATOM     26  O   UNL     1       8.267  -2.124  13.166  1.00  0.00    -0.508 OA
ATOM     27  H   UNL     1       8.724  -1.568  12.453  1.00  0.00     0.293 HD
ENDBRANCH   8  26
TORSDOF 6
ENDMDL
MODEL 5
REMARK VINA RESULT:     5.792      3.137      5.242
REMARK INTER + INTRA:           6.720
REMARK INTER:                   7.046
REMARK INTRA:                  -0.326
REMARK UNBOUND:                -0.258
REMARK SMILES O=c1c(O)c(-c2ccc(O)cc2O)oc2cc(O)cc(O)c12
REMARK SMILES IDX 5 1 3 2 2 3 1 4 22 5 20 6 19 7 17 8 16 9 15 10 14 11 6 12
REMARK SMILES IDX 8 13 7 14 9 15 11 16 12 17 10 18 13 20 4 22 21 24 18 26
REMARK H PARENT 10 19 13 21 4 23 21 25 18 27
REMARK Flexibility Score: inf
ROOT
ATOM      1  C   UNL     1       4.234   0.030  16.924  1.00  0.00     0.184 A 
ATOM      2  C   UNL     1       3.203  -0.768  16.396  1.00  0.00     0.208 A 
ATOM      3  C   UNL     1       2.275  -0.184  15.521  1.00  0.00     0.238 A 
ATOM      4  O   UNL     1       1.340  -0.887  15.049  1.00  0.00    -0.285 OA
ATOM      5  C   UNL     1       2.404   1.177  15.176  1.00  0.00     0.111 A 
ATOM      6  C   UNL     1       1.512   1.841  14.300  1.00  0.00     0.134 A 
ATOM      7  C   UNL     1       1.713   3.197  13.998  1.00  0.00     0.093 A 
ATOM      8  C   UNL     1       2.785   3.899  14.554  1.00  0.00     0.123 A 
ATOM      9  C   UNL     1       3.669   3.249  15.421  1.00  0.00     0.094 A 
ATOM     10  C   UNL     1       3.485   1.899  15.735  1.00  0.00     0.146 A 
ATOM     11  O   UNL     1       4.337   1.306  16.566  1.00  0.00    -0.451 OA
ENDROOT
BRANCH   1  12
ATOM     12  C   UNL     1       5.238  -0.518  17.859  1.00  0.00     0.063 A 
ATOM     13  C   UNL     1       7.026  -2.109  18.286  1.00  0.00     0.047 A 
ATOM     14  C   UNL     1       6.063  -1.571  17.431  1.00  0.00     0.020 A 
ATOM     15  C   UNL     1       7.187  -1.593  19.578  1.00  0.00     0.119 A 
ATOM     16  C   UNL     1       6.386  -0.529  20.004  1.00  0.00     0.093 A 
ATOM     17  C   UNL     1       5.420   0.021  19.149  1.00  0.00     0.130 A 
BRANCH  15  18
ATOM     18  O   UNL     1       8.142  -2.124  20.441  1.00  0.00    -0.508 OA
ATOM     19  H   UNL     1       8.580  -1.560  21.160  1.00  0.00     0.293 HD
ENDBRANCH  15  18
BRANCH  17  20
ATOM     20  O   UNL     1       4.662   1.114  19.570  1.00  0.00    -0.507 OA
ATOM     21  H   UNL     1       5.076   2.030  19.695  1.00  0.00     0.293 HD
ENDBRANCH  17  20
ENDBRANCH   1  12
BRANCH   2  22
ATOM     22  O   UNL     1       3.130  -2.125  16.722  1.00  0.00    -0.502 OA
ATOM     23  H   UNL     1       3.163  -2.455  17.678  1.00  0.00     0.293 HD
ENDBRANCH   2  22
BRANCH   6  24
ATOM     24  O   UNL     1       0.432   1.168  13.727  1.00  0.00    -0.507 OA
ATOM     25  H   UNL     1       0.442   0.165  13.588  1.00  0.00     0.293 HD
ENDBRANCH   6  24
BRANCH   8  26
ATOM     26  O   UNL     1       2.963   5.244  14.238  1.00  0.00    -0.508 OA
ATOM     27  H   UNL     1       2.683   5.980  14.875  1.00  0.00     0.293 HD
ENDBRANCH   8  26
TORSDOF 6
ENDMDL
MODEL 6
REMARK VINA RESULT:     6.436      2.205      6.683
REMARK INTER + INTRA:           7.495
REMARK INTER:                   7.773
REMARK INTRA:                  -0.278
REMARK UNBOUND:                -0.258
REMARK SMILES O=c1c(O)c(-c2ccc(O)cc2O)oc2cc(O)cc(O)c12
REMARK SMILES IDX 5 1 3 2 2 3 1 4 22 5 20 6 19 7 17 8 16 9 15 10 14 11 6 12
REMARK SMILES IDX 8 13 7 14 9 15 11 16 12 17 10 18 13 20 4 22 21 24 18 26
REMARK H PARENT 10 19 13 21 4 23 21 25 18 27
REMARK Flexibility Score: inf
ROOT
ATOM      1  C   UNL     1       3.916  -0.054  15.584  1.00  0.00     0.184 A 
ATOM      2  C   UNL     1       2.648  -0.035  14.977  1.00  0.00     0.208 A 
ATOM      3  C   UNL     1       1.563   0.501  15.688  1.00  0.00     0.238 A 
ATOM      4  O   UNL     1       0.419   0.513  15.157  1.00  0.00    -0.285 OA
ATOM      5  C   UNL     1       1.768   1.024  16.981  1.00  0.00     0.111 A 
ATOM      6  C   UNL     1       0.731   1.583  17.764  1.00  0.00     0.134 A 
ATOM      7  C   UNL     1       1.018   2.092  19.039  1.00  0.00     0.093 A 
ATOM      8  C   UNL     1       2.318   2.052  19.547  1.00  0.00     0.123 A 
ATOM      9  C   UNL     1       3.348   1.499  18.779  1.00  0.00     0.094 A 
ATOM     10  C   UNL     1       3.083   0.986  17.505  1.00  0.00     0.146 A 
ATOM     11  O   UNL     1       4.079   0.462  16.798  1.00  0.00    -0.451 OA
ENDROOT
BRANCH   1  12
ATOM     12  C   UNL     1       5.097  -0.613  14.895  1.00  0.00     0.063 A 
ATOM     13  C   UNL     1       6.584  -0.590  12.971  1.00  0.00     0.047 A 
ATOM     14  C   UNL     1       5.469  -0.089  13.647  1.00  0.00     0.020 A 
ATOM     15  C   UNL     1       7.350  -1.613  13.542  1.00  0.00     0.119 A 
ATOM     16  C   UNL     1       7.002  -2.125  14.795  1.00  0.00     0.093 A 
ATOM     17  C   UNL     1       5.887  -1.623  15.483  1.00  0.00     0.130 A 
BRANCH  15  18
ATOM     18  O   UNL     1       8.461  -2.123  12.875  1.00  0.00    -0.508 OA
ATOM     19  H   UNL     1       9.293  -1.565  12.727  1.00  0.00     0.293 HD
ENDBRANCH  15  18
BRANCH  17  20
ATOM     20  O   UNL     1       5.579  -2.108  16.755  1.00  0.00    -0.507 OA
ATOM     21  H   UNL     1       5.001  -2.930  16.884  1.00  0.00     0.293 HD
ENDBRANCH  17  20
ENDBRANCH   1  12
BRANCH   2  22
ATOM     22  O   UNL     1       2.485  -0.520  13.675  1.00  0.00    -0.502 OA
ATOM     23  H   UNL     1       2.454   0.092  12.870  1.00  0.00     0.293 HD
ENDBRANCH   2  22
BRANCH   6  24
ATOM     24  O   UNL     1      -0.580   1.639  17.286  1.00  0.00    -0.507 OA
ATOM     25  H   UNL     1      -0.969   0.903  16.710  1.00  0.00     0.293 HD
ENDBRANCH   6  24
BRANCH   8  26
ATOM     26  O   UNL     1       2.577   2.564  20.815  1.00  0.00    -0.508 OA
ATOM     27  H   UNL     1       3.524   2.715  21.143  1.00  0.00     0.293 HD
ENDBRANCH   8  26
TORSDOF 6
ENDMDL
