MODEL 1
REMARK VINA RESULT:    -5.860      0.000      0.000
REMARK INTER + INTRA:          -7.166
REMARK INTER:                  -6.888
REMARK INTRA:                  -0.279
REMARK UNBOUND:                -0.279
REMARK SMILES O=c1cc(-c2ccc(O)c(O)c2)oc2cc(O)cc(O)c12
REMARK SMILES IDX 4 1 3 2 2 3 1 4 21 5 19 6 18 7 16 8 15 9 14 10 13 11 5 12
REMARK SMILES IDX 6 13 7 14 8 15 12 16 10 17 9 18 11 20 20 22 17 24
REMARK H PARENT 9 19 11 21 20 23 17 25
REMARK Flexibility Score: inf
ROOT
ATOM      1  C   UNL     1     -18.955 -19.279  -4.475  1.00  0.00     0.138 A 
ATOM      2  C   UNL     1     -18.634 -20.643  -4.447  1.00  0.00     0.100 A 
ATOM      3  C   UNL     1     -19.594 -21.585  -4.819  1.00  0.00     0.197 A 
ATOM      4  O   UNL     1     -19.257 -22.798  -4.835  1.00  0.00    -0.289 OA
ATOM      5  C   UNL     1     -20.892 -21.160  -5.188  1.00  0.00     0.107 A 
ATOM      6  C   UNL     1     -21.962 -22.032  -5.554  1.00  0.00     0.134 A 
ATOM      7  C   UNL     1     -23.174 -21.489  -5.996  1.00  0.00     0.093 A 
ATOM      8  C   UNL     1     -23.378 -20.111  -6.031  1.00  0.00     0.123 A 
ATOM      9  C   UNL     1     -22.356 -19.250  -5.628  1.00  0.00     0.094 A 
ATOM     10  C   UNL     1     -21.122 -19.758  -5.215  1.00  0.00     0.146 A 
ATOM     11  O   UNL     1     -20.171 -18.903  -4.856  1.00  0.00    -0.456 OA
ENDROOT
BRANCH   1  12
ATOM     12  C   UNL     1     -17.975 -18.233  -4.086  1.00  0.00     0.021 A 
ATOM     13  C   UNL     1     -16.747 -18.080  -4.762  1.00  0.00     0.016 A 
ATOM     14  C   UNL     1     -15.849 -17.080  -4.380  1.00  0.00     0.051 A 
ATOM     15  C   UNL     1     -16.161 -16.214  -3.324  1.00  0.00     0.157 A 
ATOM     16  C   UNL     1     -18.285 -17.350  -3.036  1.00  0.00     0.062 A 
ATOM     17  C   UNL     1     -17.382 -16.348  -2.653  1.00  0.00     0.158 A 
BRANCH  15  18
ATOM     18  O   UNL     1     -15.266 -15.217  -2.941  1.00  0.00    -0.504 OA
ATOM     19  H   UNL     1     -15.071 -15.027  -1.966  1.00  0.00     0.293 HD
ENDBRANCH  15  18
BRANCH  17  20
ATOM     20  O   UNL     1     -17.692 -15.482  -1.606  1.00  0.00    -0.504 OA
ATOM     21  H   UNL     1     -17.022 -15.275  -0.874  1.00  0.00     0.293 HD
ENDBRANCH  17  20
ENDBRANCH   1  12
BRANCH   6  22
ATOM     22  O   UNL     1     -21.895 -23.427  -5.481  1.00  0.00    -0.507 OA
ATOM     23  H   UNL     1     -22.422 -24.064  -6.059  1.00  0.00     0.293 HD
ENDBRANCH   6  22
BRANCH   8  24
ATOM     24  O   UNL     1     -24.603 -19.607  -6.461  1.00  0.00    -0.508 OA
ATOM     25  H   UNL     1     -25.303 -19.284  -5.804  1.00  0.00     0.293 HD
ENDBRANCH   8  24
TORSDOF 5
ENDMDL
MODEL 2
REMARK VINA RESULT:    -5.555      2.317      2.394
REMARK INTER + INTRA:          -6.809
REMARK INTER:                  -6.491
REMARK INTRA:                  -0.318
REMARK UNBOUND:                -0.279
REMARK SMILES O=c1cc(-c2ccc(O)c(O)c2)oc2cc(O)cc(O)c12
REMARK SMILES IDX 4 1 3 2 2 3 1 4 21 5 19 6 18 7 16 8 15 9 14 10 13 11 5 12
REMARK SMILES IDX 6 13 7 14 8 15 12 16 10 17 9 18 11 20 20 22 17 24
REMARK H PARENT 9 19 11 21 20 23 17 25
REMARK Flexibility Score: inf
ROOT
ATOM      1  C   UNL     1     -18.070 -19.523  -4.499  1.00  0.00     0.138 A 
ATOM      2  C   UNL     1     -17.692 -20.306  -5.598  1.00  0.00     0.100 A 
ATOM      3  C   UNL     1     -18.320 -21.532  -5.821  1.00  0.00     0.197 A 
ATOM      4  O   UNL     1     -17.995 -22.186  -6.847  1.00  0.00    -0.289 OA
ATOM      5  C   UNL     1     -19.307 -21.992  -4.918  1.00  0.00     0.107 A 
ATOM      6  C   UNL     1     -19.990 -23.241  -5.024  1.00  0.00     0.134 A 
ATOM      7  C   UNL     1     -21.020 -23.543  -4.125  1.00  0.00     0.093 A 
ATOM      8  C   UNL     1     -21.352 -22.672  -3.089  1.00  0.00     0.123 A 
ATOM      9  C   UNL     1     -20.656 -21.470  -2.944  1.00  0.00     0.094 A 
ATOM     10  C   UNL     1     -19.648 -21.123  -3.846  1.00  0.00     0.146 A 
ATOM     11  O   UNL     1     -19.022 -19.963  -3.683  1.00  0.00    -0.456 OA
ENDROOT
BRANCH   1  12
ATOM     12  C   UNL     1     -17.434 -18.212  -4.212  1.00  0.00     0.021 A 
ATOM     13  C   UNL     1     -16.415 -17.688  -5.032  1.00  0.00     0.016 A 
ATOM     14  C   UNL     1     -15.842 -16.447  -4.743  1.00  0.00     0.051 A 
ATOM     15  C   UNL     1     -16.278 -15.706  -3.638  1.00  0.00     0.157 A 
ATOM     16  C   UNL     1     -17.875 -17.455  -3.112  1.00  0.00     0.062 A 
ATOM     17  C   UNL     1     -17.298 -16.210  -2.822  1.00  0.00     0.158 A 
BRANCH  15  18
ATOM     18  O   UNL     1     -15.708 -14.469  -3.347  1.00  0.00    -0.504 OA
ATOM     19  H   UNL     1     -16.050 -13.615  -3.769  1.00  0.00     0.293 HD
ENDBRANCH  15  18
BRANCH  17  20
ATOM     20  O   UNL     1     -17.734 -15.469  -1.725  1.00  0.00    -0.504 OA
ATOM     21  H   UNL     1     -17.643 -14.460  -1.698  1.00  0.00     0.293 HD
ENDBRANCH  17  20
ENDBRANCH   1  12
BRANCH   6  22
ATOM     22  O   UNL     1     -19.686 -24.222  -5.973  1.00  0.00    -0.507 OA
ATOM     23  H   UNL     1     -19.585 -24.060  -6.962  1.00  0.00     0.293 HD
ENDBRANCH   6  22
BRANCH   8  24
ATOM     24  O   UNL     1     -22.371 -23.013  -2.202  1.00  0.00    -0.508 OA
ATOM     25  H   UNL     1     -23.042 -23.739  -2.421  1.00  0.00     0.293 HD
ENDBRANCH   8  24
TORSDOF 5
ENDMDL
MODEL 3
REMARK VINA RESULT:    -5.555      1.758      3.274
REMARK INTER + INTRA:          -6.808
REMARK INTER:                  -6.525
REMARK INTRA:                  -0.284
REMARK UNBOUND:                -0.279
REMARK SMILES O=c1cc(-c2ccc(O)c(O)c2)oc2cc(O)cc(O)c12
REMARK SMILES IDX 4 1 3 2 2 3 1 4 21 5 19 6 18 7 16 8 15 9 14 10 13 11 5 12
REMARK SMILES IDX 6 13 7 14 8 15 12 16 10 17 9 18 11 20 20 22 17 24
REMARK H PARENT 9 19 11 21 20 23 17 25
REMARK Flexibility Score: inf
ROOT
ATOM      1  C   UNL     1     -18.258 -19.350  -4.731  1.00  0.00     0.138 A 
ATOM      2  C   UNL     1     -19.654 -19.416  -4.628  1.00  0.00     0.100 A 
ATOM      3  C   UNL     1     -20.326 -20.554  -5.078  1.00  0.00     0.197 A 
ATOM      4  O   UNL     1     -21.574 -20.605  -4.923  1.00  0.00    -0.289 OA
ATOM      5  C   UNL     1     -19.597 -21.615  -5.666  1.00  0.00     0.107 A 
ATOM      6  C   UNL     1     -20.178 -22.809  -6.193  1.00  0.00     0.134 A 
ATOM      7  C   UNL     1     -19.345 -23.833  -6.660  1.00  0.00     0.093 A 
ATOM      8  C   UNL     1     -17.959 -23.685  -6.677  1.00  0.00     0.123 A 
ATOM      9  C   UNL     1     -17.383 -22.502  -6.212  1.00  0.00     0.094 A 
ATOM     10  C   UNL     1     -18.184 -21.475  -5.706  1.00  0.00     0.146 A 
ATOM     11  O   UNL     1     -17.594 -20.372  -5.258  1.00  0.00    -0.456 OA
ENDROOT
BRANCH   1  12
ATOM     12  C   UNL     1     -17.493 -18.163  -4.271  1.00  0.00     0.021 A 
ATOM     13  C   UNL     1     -16.306 -17.753  -4.910  1.00  0.00     0.016 A 
ATOM     14  C   UNL     1     -15.612 -16.626  -4.462  1.00  0.00     0.051 A 
ATOM     15  C   UNL     1     -16.093 -15.886  -3.374  1.00  0.00     0.157 A 
ATOM     16  C   UNL     1     -17.975 -17.405  -3.188  1.00  0.00     0.062 A 
ATOM     17  C   UNL     1     -17.278 -16.275  -2.738  1.00  0.00     0.158 A 
BRANCH  15  18
ATOM     18  O   UNL     1     -15.403 -14.762  -2.924  1.00  0.00    -0.504 OA
ATOM     19  H   UNL     1     -14.953 -14.124  -3.568  1.00  0.00     0.293 HD
ENDBRANCH  15  18
BRANCH  17  20
ATOM     20  O   UNL     1     -17.757 -15.534  -1.659  1.00  0.00    -0.504 OA
ATOM     21  H   UNL     1     -18.415 -14.775  -1.788  1.00  0.00     0.293 HD
ENDBRANCH  17  20
ENDBRANCH   1  12
BRANCH   6  22
ATOM     22  O   UNL     1     -21.554 -23.030  -6.298  1.00  0.00    -0.507 OA
ATOM     23  H   UNL     1     -22.006 -23.524  -7.051  1.00  0.00     0.293 HD
ENDBRANCH   6  22
BRANCH   8  24
ATOM     24  O   UNL     1     -17.163 -24.718  -7.165  1.00  0.00    -0.508 OA
ATOM     25  H   UNL     1     -16.272 -24.535  -7.611  1.00  0.00     0.293 HD
ENDBRANCH   8  24
TORSDOF 5
ENDMDL
MODEL 4
REMARK VINA RESULT:    -5.531      4.991      8.247
REMARK INTER + INTRA:          -6.780
REMARK INTER:                  -6.518
REMARK INTRA:                  -0.262
REMARK UNBOUND:                -0.279
REMARK SMILES O=c1cc(-c2ccc(O)c(O)c2)oc2cc(O)cc(O)c12
REMARK SMILES IDX 4 1 3 2 2 3 1 4 21 5 19 6 18 7 16 8 15 9 14 10 13 11 5 12
REMARK SMILES IDX 6 13 7 14 8 15 12 16 10 17 9 18 11 20 20 22 17 24
REMARK H PARENT 9 19 11 21 20 23 17 25
REMARK Flexibility Score: inf
ROOT
ATOM      1  C   UNL     1     -19.387 -25.464  -3.310  1.00  0.00     0.138 A 
ATOM      2  C   UNL     1     -18.974 -25.516  -4.648  1.00  0.00     0.100 A 
ATOM      3  C   UNL     1     -18.958 -24.348  -5.411  1.00  0.00     0.197 A 
ATOM      4  O   UNL     1     -18.531 -24.418  -6.593  1.00  0.00    -0.289 OA
ATOM      5  C   UNL     1     -19.392 -23.128  -4.840  1.00  0.00     0.107 A 
ATOM      6  C   UNL     1     -19.453 -21.880  -5.532  1.00  0.00     0.134 A 
ATOM      7  C   UNL     1     -19.805 -20.720  -4.832  1.00  0.00     0.093 A 
ATOM      8  C   UNL     1     -20.156 -20.768  -3.484  1.00  0.00     0.123 A 
ATOM      9  C   UNL     1     -20.150 -21.991  -2.810  1.00  0.00     0.094 A 
ATOM     10  C   UNL     1     -19.769 -23.161  -3.470  1.00  0.00     0.146 A 
ATOM     11  O   UNL     1     -19.760 -24.301  -2.788  1.00  0.00    -0.456 OA
ENDROOT
BRANCH   1  12
ATOM     12  C   UNL     1     -19.426 -26.677  -2.453  1.00  0.00     0.021 A 
ATOM     13  C   UNL     1     -20.610 -27.420  -2.275  1.00  0.00     0.016 A 
ATOM     14  C   UNL     1     -20.615 -28.563  -1.471  1.00  0.00     0.051 A 
ATOM     15  C   UNL     1     -19.440 -28.986  -0.837  1.00  0.00     0.157 A 
ATOM     16  C   UNL     1     -18.249 -27.118  -1.824  1.00  0.00     0.062 A 
ATOM     17  C   UNL     1     -18.254 -28.264  -1.016  1.00  0.00     0.158 A 
BRANCH  15  18
ATOM     18  O   UNL     1     -19.442 -30.125  -0.034  1.00  0.00    -0.504 OA
ATOM     19  H   UNL     1     -19.922 -30.144   0.857  1.00  0.00     0.293 HD
ENDBRANCH  15  18
BRANCH  17  20
ATOM     20  O   UNL     1     -17.085 -28.690  -0.388  1.00  0.00    -0.504 OA
ATOM     21  H   UNL     1     -17.039 -28.816   0.616  1.00  0.00     0.293 HD
ENDBRANCH  17  20
ENDBRANCH   1  12
BRANCH   6  22
ATOM     22  O   UNL     1     -19.200 -21.729  -6.898  1.00  0.00    -0.507 OA
ATOM     23  H   UNL     1     -19.375 -22.430  -7.601  1.00  0.00     0.293 HD
ENDBRANCH   6  22
BRANCH   8  24
ATOM     24  O   UNL     1     -20.518 -19.596  -2.824  1.00  0.00    -0.508 OA
ATOM     25  H   UNL     1     -20.572 -19.552  -1.813  1.00  0.00     0.293 HD
ENDBRANCH   8  24
TORSDOF 5
ENDMDL
MODEL 5
REMARK VINA RESULT:    -5.476     10.369     13.307
REMARK INTER + INTRA:          -6.715
REMARK INTER:                  -6.420
REMARK INTRA:                  -0.294
REMARK UNBOUND:                -0.279
REMARK SMILES O=c1cc(-c2ccc(O)c(O)c2)oc2cc(O)cc(O)c12
REMARK SMILES IDX 4 1 3 2 2 3 1 4 21 5 19 6 18 7 16 8 15 9 14 10 13 11 5 12
REMARK SMILES IDX 6 13 7 14 8 15 12 16 10 17 9 18 11 20 20 22 17 24
REMARK H PARENT 9 19 11 21 20 23 17 25
REMARK Flexibility Score: inf
ROOT
ATOM      1  C   UNL     1     -26.434 -15.526   3.515  1.00  0.00     0.138 A 
ATOM      2  C   UNL     1     -25.257 -16.048   2.962  1.00  0.00     0.100 A 
ATOM      3  C   UNL     1     -24.057 -15.350   3.108  1.00  0.00     0.197 A 
ATOM      4  O   UNL     1     -23.008 -15.873   2.647  1.00  0.00    -0.289 OA
ATOM      5  C   UNL     1     -24.044 -14.105   3.780  1.00  0.00     0.107 A 
ATOM      6  C   UNL     1     -22.887 -13.288   3.959  1.00  0.00     0.134 A 
ATOM      7  C   UNL     1     -22.978 -12.122   4.729  1.00  0.00     0.093 A 
ATOM      8  C   UNL     1     -24.192 -11.712   5.276  1.00  0.00     0.123 A 
ATOM      9  C   UNL     1     -25.341 -12.477   5.065  1.00  0.00     0.094 A 
ATOM     10  C   UNL     1     -25.276 -13.664   4.332  1.00  0.00     0.146 A 
ATOM     11  O   UNL     1     -26.389 -14.370   4.169  1.00  0.00    -0.456 OA
ENDROOT
BRANCH   1  12
ATOM     12  C   UNL     1     -27.738 -16.224   3.388  1.00  0.00     0.021 A 
ATOM     13  C   UNL     1     -28.909 -15.722   3.991  1.00  0.00     0.016 A 
ATOM     14  C   UNL     1     -30.125 -16.395   3.845  1.00  0.00     0.051 A 
ATOM     15  C   UNL     1     -30.195 -17.574   3.092  1.00  0.00     0.157 A 
ATOM     16  C   UNL     1     -27.822 -17.401   2.623  1.00  0.00     0.062 A 
ATOM     17  C   UNL     1     -29.041 -18.077   2.478  1.00  0.00     0.158 A 
BRANCH  15  18
ATOM     18  O   UNL     1     -31.406 -18.248   2.947  1.00  0.00    -0.504 OA
ATOM     19  H   UNL     1     -31.532 -18.965   2.243  1.00  0.00     0.293 HD
ENDBRANCH  15  18
BRANCH  17  20
ATOM     20  O   UNL     1     -29.115 -19.248   1.726  1.00  0.00    -0.504 OA
ATOM     21  H   UNL     1     -28.296 -19.642   1.278  1.00  0.00     0.293 HD
ENDBRANCH  17  20
ENDBRANCH   1  12
BRANCH   6  22
ATOM     22  O   UNL     1     -21.639 -13.561   3.390  1.00  0.00    -0.507 OA
ATOM     23  H   UNL     1     -20.868 -14.002   3.867  1.00  0.00     0.293 HD
ENDBRANCH   6  22
BRANCH   8  24
ATOM     24  O   UNL     1     -24.249 -10.537   6.023  1.00  0.00    -0.508 OA
ATOM     25  H   UNL     1     -23.692  -9.727   5.779  1.00  0.00     0.293 HD
ENDBRANCH   8  24
TORSDOF 5
ENDMDL
MODEL 6
REMARK VINA RESULT:    -5.414     10.690     12.039
REMARK INTER + INTRA:          -6.642
REMARK INTER:                  -6.333
REMARK INTRA:                  -0.309
REMARK UNBOUND:                -0.279
REMARK SMILES O=c1cc(-c2ccc(O)c(O)c2)oc2cc(O)cc(O)c12
REMARK SMILES IDX 4 1 3 2 2 3 1 4 21 5 19 6 18 7 16 8 15 9 14 10 13 11 5 12
REMARK SMILES IDX 6 13 7 14 8 15 12 16 10 17 9 18 11 20 20 22 17 24
REMARK H PARENT 9 19 11 21 20 23 17 25
REMARK Flexibility Score: inf
ROOT
ATOM      1  C   UNL     1     -26.932 -14.354   3.526  1.00  0.00     0.138 A 
ATOM      2  C   UNL     1     -28.117 -13.607   3.555  1.00  0.00     0.100 A 
ATOM      3  C   UNL     1     -29.327 -14.218   3.221  1.00  0.00     0.197 A 
ATOM      4  O   UNL     1     -30.380 -13.534   3.309  1.00  0.00    -0.289 OA
ATOM      5  C   UNL     1     -29.344 -15.575   2.823  1.00  0.00     0.107 A 
ATOM      6  C   UNL     1     -30.512 -16.294   2.427  1.00  0.00     0.134 A 
ATOM      7  C   UNL     1     -30.419 -17.663   2.149  1.00  0.00     0.093 A 
ATOM      8  C   UNL     1     -29.193 -18.327   2.193  1.00  0.00     0.123 A 
ATOM      9  C   UNL     1     -28.036 -17.623   2.530  1.00  0.00     0.094 A 
ATOM     10  C   UNL     1     -28.101 -16.264   2.847  1.00  0.00     0.146 A 
ATOM     11  O   UNL     1     -26.979 -15.636   3.179  1.00  0.00    -0.456 OA
ENDROOT
BRANCH   1  12
ATOM     12  C   UNL     1     -25.617 -13.755   3.868  1.00  0.00     0.021 A 
ATOM     13  C   UNL     1     -25.510 -12.645   4.730  1.00  0.00     0.016 A 
ATOM     14  C   UNL     1     -24.259 -12.109   5.043  1.00  0.00     0.051 A 
ATOM     15  C   UNL     1     -23.094 -12.673   4.507  1.00  0.00     0.157 A 
ATOM     16  C   UNL     1     -24.441 -14.322   3.347  1.00  0.00     0.062 A 
ATOM     17  C   UNL     1     -23.186 -13.783   3.660  1.00  0.00     0.158 A 
BRANCH  15  18
ATOM     18  O   UNL     1     -21.844 -12.139   4.816  1.00  0.00    -0.504 OA
ATOM     19  H   UNL     1     -21.207 -12.612   5.445  1.00  0.00     0.293 HD
ENDBRANCH  15  18
BRANCH  17  20
ATOM     20  O   UNL     1     -22.024 -14.346   3.132  1.00  0.00    -0.504 OA
ATOM     21  H   UNL     1     -21.196 -14.481   3.700  1.00  0.00     0.293 HD
ENDBRANCH  17  20
ENDBRANCH   1  12
BRANCH   6  22
ATOM     22  O   UNL     1     -31.774 -15.713   2.272  1.00  0.00    -0.507 OA
ATOM     23  H   UNL     1     -32.622 -16.043   2.706  1.00  0.00     0.293 HD
ENDBRANCH   6  22
BRANCH   8  24
ATOM     24  O   UNL     1     -29.136 -19.686   1.894  1.00  0.00    -0.508 OA
ATOM     25  H   UNL     1     -28.851 -20.016   0.979  1.00  0.00     0.293 HD
ENDBRANCH   8  24
TORSDOF 5
ENDMDL
MODEL 7
REMARK VINA RESULT:    -5.390      1.679      2.935
REMARK INTER + INTRA:          -6.614
REMARK INTER:                  -6.351
REMARK INTRA:                  -0.263
REMARK UNBOUND:                -0.279
REMARK SMILES O=c1cc(-c2ccc(O)c(O)c2)oc2cc(O)cc(O)c12
REMARK SMILES IDX 4 1 3 2 2 3 1 4 21 5 19 6 18 7 16 8 15 9 14 10 13 11 5 12
REMARK SMILES IDX 6 13 7 14 8 15 12 16 10 17 9 18 11 20 20 22 17 24
REMARK H PARENT 9 19 11 21 20 23 17 25
REMARK Flexibility Score: inf
ROOT
ATOM      1  C   UNL     1     -19.288 -19.629  -4.321  1.00  0.00     0.138 A 
ATOM      2  C   UNL     1     -20.415 -19.353  -5.107  1.00  0.00     0.100 A 
ATOM      3  C   UNL     1     -21.446 -20.290  -5.189  1.00  0.00     0.197 A 
ATOM      4  O   UNL     1     -22.468 -19.989  -5.859  1.00  0.00    -0.289 OA
ATOM      5  C   UNL     1     -21.330 -21.525  -4.508  1.00  0.00     0.107 A 
ATOM      6  C   UNL     1     -22.302 -22.570  -4.546  1.00  0.00     0.134 A 
ATOM      7  C   UNL     1     -22.122 -23.708  -3.750  1.00  0.00     0.093 A 
ATOM      8  C   UNL     1     -20.982 -23.867  -2.965  1.00  0.00     0.123 A 
ATOM      9  C   UNL     1     -20.001 -22.874  -2.959  1.00  0.00     0.094 A 
ATOM     10  C   UNL     1     -20.167 -21.710  -3.714  1.00  0.00     0.146 A 
ATOM     11  O   UNL     1     -19.217 -20.782  -3.666  1.00  0.00    -0.456 OA
ENDROOT
BRANCH   1  12
ATOM     12  C   UNL     1     -18.160 -18.670  -4.201  1.00  0.00     0.021 A 
ATOM     13  C   UNL     1     -17.062 -18.703  -5.083  1.00  0.00     0.016 A 
ATOM     14  C   UNL     1     -16.020 -17.780  -4.951  1.00  0.00     0.051 A 
ATOM     15  C   UNL     1     -16.060 -16.808  -3.945  1.00  0.00     0.157 A 
ATOM     16  C   UNL     1     -18.197 -17.680  -3.202  1.00  0.00     0.062 A 
ATOM     17  C   UNL     1     -17.151 -16.756  -3.070  1.00  0.00     0.158 A 
BRANCH  15  18
ATOM     18  O   UNL     1     -15.022 -15.888  -3.811  1.00  0.00    -0.504 OA
ATOM     19  H   UNL     1     -14.985 -15.045  -4.371  1.00  0.00     0.293 HD
ENDBRANCH  15  18
BRANCH  17  20
ATOM     20  O   UNL     1     -17.190 -15.784  -2.072  1.00  0.00    -0.504 OA
ATOM     21  H   UNL     1     -17.298 -16.031  -1.095  1.00  0.00     0.293 HD
ENDBRANCH  17  20
ENDBRANCH   1  12
BRANCH   6  22
ATOM     22  O   UNL     1     -23.440 -22.552  -5.357  1.00  0.00    -0.507 OA
ATOM     23  H   UNL     1     -23.702 -21.798  -5.973  1.00  0.00     0.293 HD
ENDBRANCH   6  22
BRANCH   8  24
ATOM     24  O   UNL     1     -20.829 -25.020  -2.199  1.00  0.00    -0.508 OA
ATOM     25  H   UNL     1     -20.984 -25.941  -2.591  1.00  0.00     0.293 HD
ENDBRANCH   8  24
TORSDOF 5
ENDMDL
MODEL 8
REMARK VINA RESULT:    -5.330     11.098     12.206
REMARK INTER + INTRA:          -6.544
REMARK INTER:                  -6.256
REMARK INTRA:                  -0.288
REMARK UNBOUND:                -0.279
REMARK SMILES O=c1cc(-c2ccc(O)c(O)c2)oc2cc(O)cc(O)c12
REMARK SMILES IDX 4 1 3 2 2 3 1 4 21 5 19 6 18 7 16 8 15 9 14 10 13 11 5 12
REMARK SMILES IDX 6 13 7 14 8 15 12 16 10 17 9 18 11 20 20 22 17 24
REMARK H PARENT 9 19 11 21 20 23 17 25
REMARK Flexibility Score: inf
ROOT
ATOM      1  C   UNL     1     -27.240 -15.414   3.465  1.00  0.00     0.138 A 
ATOM      2  C   UNL     1     -27.311 -16.804   3.300  1.00  0.00     0.100 A 
ATOM      3  C   UNL     1     -28.552 -17.415   3.117  1.00  0.00     0.197 A 
ATOM      4  O   UNL     1     -28.577 -18.657   2.917  1.00  0.00    -0.289 OA
ATOM      5  C   UNL     1     -29.731 -16.633   3.136  1.00  0.00     0.107 A 
ATOM      6  C   UNL     1     -31.055 -17.150   2.995  1.00  0.00     0.134 A 
ATOM      7  C   UNL     1     -32.138 -16.265   2.930  1.00  0.00     0.093 A 
ATOM      8  C   UNL     1     -31.955 -14.889   3.059  1.00  0.00     0.123 A 
ATOM      9  C   UNL     1     -30.671 -14.376   3.249  1.00  0.00     0.094 A 
ATOM     10  C   UNL     1     -29.566 -15.229   3.282  1.00  0.00     0.146 A 
ATOM     11  O   UNL     1     -28.359 -14.698   3.447  1.00  0.00    -0.456 OA
ENDROOT
BRANCH   1  12
ATOM     12  C   UNL     1     -25.947 -14.712   3.666  1.00  0.00     0.021 A 
ATOM     13  C   UNL     1     -25.869 -13.483   4.351  1.00  0.00     0.016 A 
ATOM     14  C   UNL     1     -24.637 -12.851   4.534  1.00  0.00     0.051 A 
ATOM     15  C   UNL     1     -23.462 -13.435   4.044  1.00  0.00     0.157 A 
ATOM     16  C   UNL     1     -24.761 -15.297   3.189  1.00  0.00     0.062 A 
ATOM     17  C   UNL     1     -23.524 -14.662   3.372  1.00  0.00     0.158 A 
BRANCH  15  18
ATOM     18  O   UNL     1     -22.232 -12.806   4.224  1.00  0.00    -0.504 OA
ATOM     19  H   UNL     1     -21.769 -12.321   3.465  1.00  0.00     0.293 HD
ENDBRANCH  15  18
BRANCH  17  20
ATOM     20  O   UNL     1     -22.353 -15.243   2.889  1.00  0.00    -0.504 OA
ATOM     21  H   UNL     1     -22.112 -16.204   3.103  1.00  0.00     0.293 HD
ENDBRANCH  17  20
ENDBRANCH   1  12
BRANCH   6  22
ATOM     22  O   UNL     1     -31.361 -18.513   2.936  1.00  0.00    -0.507 OA
ATOM     23  H   UNL     1     -30.849 -19.243   3.406  1.00  0.00     0.293 HD
ENDBRANCH   6  22
BRANCH   8  24
ATOM     24  O   UNL     1     -33.058 -14.041   3.007  1.00  0.00    -0.508 OA
ATOM     25  H   UNL     1     -33.076 -13.163   3.512  1.00  0.00     0.293 HD
ENDBRANCH   8  24
TORSDOF 5
ENDMDL
MODEL 9
REMARK VINA RESULT:    -5.304     10.964     11.969
REMARK INTER + INTRA:          -6.513
REMARK INTER:                  -6.244
REMARK INTRA:                  -0.270
REMARK UNBOUND:                -0.279
REMARK SMILES O=c1cc(-c2ccc(O)c(O)c2)oc2cc(O)cc(O)c12
REMARK SMILES IDX 4 1 3 2 2 3 1 4 21 5 19 6 18 7 16 8 15 9 14 10 13 11 5 12
REMARK SMILES IDX 6 13 7 14 8 15 12 16 10 17 9 18 11 20 20 22 17 24
REMARK H PARENT 9 19 11 21 20 23 17 25
REMARK Flexibility Score: inf
ROOT
ATOM      1  C   UNL     1     -26.805 -15.944   3.984  1.00  0.00     0.138 A 
ATOM      2  C   UNL     1     -27.249 -16.338   5.253  1.00  0.00     0.100 A 
ATOM      3  C   UNL     1     -28.528 -16.877   5.400  1.00  0.00     0.197 A 
ATOM      4  O   UNL     1     -28.877 -17.271   6.543  1.00  0.00    -0.289 OA
ATOM      5  C   UNL     1     -29.378 -16.988   4.274  1.00  0.00     0.107 A 
ATOM      6  C   UNL     1     -30.715 -17.490   4.309  1.00  0.00     0.134 A 
ATOM      7  C   UNL     1     -31.425 -17.645   3.112  1.00  0.00     0.093 A 
ATOM      8  C   UNL     1     -30.873 -17.263   1.891  1.00  0.00     0.123 A 
ATOM      9  C   UNL     1     -29.586 -16.725   1.851  1.00  0.00     0.094 A 
ATOM     10  C   UNL     1     -28.838 -16.589   3.022  1.00  0.00     0.146 A 
ATOM     11  O   UNL     1     -27.610 -16.088   2.938  1.00  0.00    -0.456 OA
ENDROOT
BRANCH   1  12
ATOM     12  C   UNL     1     -25.455 -15.361   3.770  1.00  0.00     0.021 A 
ATOM     13  C   UNL     1     -24.570 -15.877   2.802  1.00  0.00     0.016 A 
ATOM     14  C   UNL     1     -23.311 -15.301   2.616  1.00  0.00     0.051 A 
ATOM     15  C   UNL     1     -22.915 -14.201   3.387  1.00  0.00     0.157 A 
ATOM     16  C   UNL     1     -25.054 -14.248   4.529  1.00  0.00     0.062 A 
ATOM     17  C   UNL     1     -23.790 -13.671   4.343  1.00  0.00     0.158 A 
BRANCH  15  18
ATOM     18  O   UNL     1     -21.659 -13.626   3.204  1.00  0.00    -0.504 OA
ATOM     19  H   UNL     1     -21.331 -13.348   2.287  1.00  0.00     0.293 HD
ENDBRANCH  15  18
BRANCH  17  20
ATOM     20  O   UNL     1     -23.395 -12.573   5.105  1.00  0.00    -0.504 OA
ATOM     21  H   UNL     1     -24.025 -11.801   5.287  1.00  0.00     0.293 HD
ENDBRANCH  17  20
ENDBRANCH   1  12
BRANCH   6  22
ATOM     22  O   UNL     1     -31.394 -17.828   5.483  1.00  0.00    -0.507 OA
ATOM     23  H   UNL     1     -30.985 -17.849   6.404  1.00  0.00     0.293 HD
ENDBRANCH   6  22
BRANCH   8  24
ATOM     24  O   UNL     1     -31.615 -17.417   0.722  1.00  0.00    -0.508 OA
ATOM     25  H   UNL     1     -32.398 -16.811   0.508  1.00  0.00     0.293 HD
ENDBRANCH   8  24
TORSDOF 5
ENDMDL
