MODEL 1
REMARK VINA RESULT:    -4.736      0.000      0.000
REMARK INTER + INTRA:          -5.330
REMARK INTER:                  -5.290
REMARK INTRA:                  -0.040
REMARK UNBOUND:                -0.040
REMARK SMILES O=C([O-])c1ccc(O)c(O)c1
REMARK SMILES IDX 4 1 11 2 5 3 9 4 6 5 7 6 2 7 1 8 3 9 10 10 8 12
REMARK H PARENT 10 11 8 13
REMARK Flexibility Score: inf
ROOT
ATOM      1  C   UNL     1     178.530 181.110 176.679  1.00  0.00     0.001 A 
ATOM      2  C   UNL     1     179.143 181.565 177.861  1.00  0.00     0.060 A 
ATOM      3  C   UNL     1     179.029 179.955 176.052  1.00  0.00     0.014 A 
ATOM      4  C   UNL     1     180.236 180.877 178.406  1.00  0.00     0.158 A 
ATOM      5  C   UNL     1     180.119 179.270 176.596  1.00  0.00     0.051 A 
ATOM      6  C   UNL     1     180.725 179.728 177.773  1.00  0.00     0.157 A 
ENDROOT
BRANCH   1   7
ATOM      7  C   UNL     1     177.376 181.834 176.100  1.00  0.00     0.072 C 
ATOM      8  O   UNL     1     177.320 182.064 174.863  1.00  0.00    -0.545 OA
ATOM      9  O   UNL     1     176.337 182.270 176.914  1.00  0.00    -0.545 OA
ENDBRANCH   1   7
BRANCH   4  10
ATOM     10  O   UNL     1     180.842 181.330 179.577  1.00  0.00    -0.504 OA
ATOM     11  H   UNL     1     180.405 182.031 180.163  1.00  0.00     0.293 HD
ENDBRANCH   4  10
BRANCH   6  12
ATOM     12  O   UNL     1     181.812 179.047 178.318  1.00  0.00    -0.504 OA
ATOM     13  H   UNL     1     182.093 178.136 177.975  1.00  0.00     0.293 HD
ENDBRANCH   6  12
TORSDOF 3
ENDMDL
MODEL 2
REMARK VINA RESULT:    -4.708      2.302      4.599
REMARK INTER + INTRA:          -5.298
REMARK INTER:                  -5.258
REMARK INTRA:                  -0.040
REMARK UNBOUND:                -0.040
REMARK SMILES O=C([O-])c1ccc(O)c(O)c1
REMARK SMILES IDX 4 1 11 2 5 3 9 4 6 5 7 6 2 7 1 8 3 9 10 10 8 12
REMARK H PARENT 10 11 8 13
REMARK Flexibility Score: inf
ROOT
ATOM      1  C   UNL     1     182.144 179.652 176.624  1.00  0.00     0.001 A 
ATOM      2  C   UNL     1     181.527 179.209 177.809  1.00  0.00     0.060 A 
ATOM      3  C   UNL     1     181.647 180.802 175.985  1.00  0.00     0.014 A 
ATOM      4  C   UNL     1     180.434 179.904 178.346  1.00  0.00     0.158 A 
ATOM      5  C   UNL     1     180.557 181.494 176.521  1.00  0.00     0.051 A 
ATOM      6  C   UNL     1     179.948 181.047 177.701  1.00  0.00     0.157 A 
ENDROOT
BRANCH   1   7
ATOM      7  C   UNL     1     183.298 178.922 176.054  1.00  0.00     0.072 C 
ATOM      8  O   UNL     1     183.356 178.680 174.820  1.00  0.00    -0.545 OA
ATOM      9  O   UNL     1     184.335 178.492 176.875  1.00  0.00    -0.545 OA
ENDBRANCH   1   7
BRANCH   4  10
ATOM     10  O   UNL     1     179.826 179.463 179.520  1.00  0.00    -0.504 OA
ATOM     11  H   UNL     1     179.268 180.084 180.095  1.00  0.00     0.293 HD
ENDBRANCH   4  10
BRANCH   6  12
ATOM     12  O   UNL     1     178.860 181.735 178.238  1.00  0.00    -0.504 OA
ATOM     13  H   UNL     1     178.943 182.274 179.092  1.00  0.00     0.293 HD
ENDBRANCH   6  12
TORSDOF 3
ENDMDL
MODEL 3
REMARK VINA RESULT:    -4.576      2.340      4.793
REMARK INTER + INTRA:          -5.151
REMARK INTER:                  -5.110
REMARK INTRA:                  -0.041
REMARK UNBOUND:                -0.040
REMARK SMILES O=C([O-])c1ccc(O)c(O)c1
REMARK SMILES IDX 4 1 11 2 5 3 9 4 6 5 7 6 2 7 1 8 3 9 10 10 8 12
REMARK H PARENT 10 11 8 13
REMARK Flexibility Score: inf
ROOT
ATOM      1  C   UNL     1     182.166 179.577 176.665  1.00  0.00     0.001 A 
ATOM      2  C   UNL     1     181.558 180.605 175.920  1.00  0.00     0.060 A 
ATOM      3  C   UNL     1     181.657 179.264 177.937  1.00  0.00     0.014 A 
ATOM      4  C   UNL     1     180.461 181.306 176.439  1.00  0.00     0.158 A 
ATOM      5  C   UNL     1     180.563 179.964 178.453  1.00  0.00     0.051 A 
ATOM      6  C   UNL     1     179.963 180.986 177.707  1.00  0.00     0.157 A 
ENDROOT
BRANCH   1   7
ATOM      7  C   UNL     1     183.325 178.834 176.121  1.00  0.00     0.072 C 
ATOM      8  O   UNL     1     183.384 178.548 174.896  1.00  0.00    -0.545 OA
ATOM      9  O   UNL     1     184.364 178.439 176.956  1.00  0.00    -0.545 OA
ENDBRANCH   1   7
BRANCH   4  10
ATOM     10  O   UNL     1     179.861 182.324 175.698  1.00  0.00    -0.504 OA
ATOM     11  H   UNL     1     179.237 182.121 174.926  1.00  0.00     0.293 HD
ENDBRANCH   4  10
BRANCH   6  12
ATOM     12  O   UNL     1     178.872 181.686 178.219  1.00  0.00    -0.504 OA
ATOM     13  H   UNL     1     178.060 181.895 177.649  1.00  0.00     0.293 HD
ENDBRANCH   6  12
TORSDOF 3
ENDMDL
MODEL 4
REMARK VINA RESULT:    -4.562      0.896      2.075
REMARK INTER + INTRA:          -5.135
REMARK INTER:                  -5.094
REMARK INTRA:                  -0.041
REMARK UNBOUND:                -0.040
REMARK SMILES O=C([O-])c1ccc(O)c(O)c1
REMARK SMILES IDX 4 1 11 2 5 3 9 4 6 5 7 6 2 7 1 8 3 9 10 10 8 12
REMARK H PARENT 10 11 8 13
REMARK Flexibility Score: inf
ROOT
ATOM      1  C   UNL     1     178.551 181.158 176.683  1.00  0.00     0.001 A 
ATOM      2  C   UNL     1     179.147 180.144 175.912  1.00  0.00     0.060 A 
ATOM      3  C   UNL     1     179.070 181.440 177.959  1.00  0.00     0.014 A 
ATOM      4  C   UNL     1     180.243 179.423 176.408  1.00  0.00     0.158 A 
ATOM      5  C   UNL     1     180.162 180.721 178.453  1.00  0.00     0.051 A 
ATOM      6  C   UNL     1     180.751 179.711 177.680  1.00  0.00     0.157 A 
ENDROOT
BRANCH   1   7
ATOM      7  C   UNL     1     177.394 181.922 176.164  1.00  0.00     0.072 C 
ATOM      8  O   UNL     1     177.324 182.226 174.944  1.00  0.00    -0.545 OA
ATOM      9  O   UNL     1     176.369 182.315 177.016  1.00  0.00    -0.545 OA
ENDBRANCH   1   7
BRANCH   4  10
ATOM     10  O   UNL     1     180.831 178.418 175.642  1.00  0.00    -0.504 OA
ATOM     11  H   UNL     1     181.786 178.118 175.802  1.00  0.00     0.293 HD
ENDBRANCH   4  10
BRANCH   6  12
ATOM     12  O   UNL     1     181.840 178.992 178.170  1.00  0.00    -0.504 OA
ATOM     13  H   UNL     1     181.850 178.622 179.114  1.00  0.00     0.293 HD
ENDBRANCH   6  12
TORSDOF 3
ENDMDL
MODEL 5
REMARK VINA RESULT:    -4.390      2.754      4.029
REMARK INTER + INTRA:          -4.944
REMARK INTER:                  -4.901
REMARK INTRA:                  -0.043
REMARK UNBOUND:                -0.040
REMARK SMILES O=C([O-])c1ccc(O)c(O)c1
REMARK SMILES IDX 4 1 11 2 5 3 9 4 6 5 7 6 2 7 1 8 3 9 10 10 8 12
REMARK H PARENT 10 11 8 13
REMARK Flexibility Score: inf
ROOT
ATOM      1  C   UNL     1     180.768 180.208 177.899  1.00  0.00     0.001 A 
ATOM      2  C   UNL     1     181.801 179.344 177.492  1.00  0.00     0.060 A 
ATOM      3  C   UNL     1     180.438 181.308 177.088  1.00  0.00     0.014 A 
ATOM      4  C   UNL     1     182.492 179.575 176.293  1.00  0.00     0.158 A 
ATOM      5  C   UNL     1     181.128 181.538 175.894  1.00  0.00     0.051 A 
ATOM      6  C   UNL     1     182.155 180.673 175.494  1.00  0.00     0.157 A 
ENDROOT
BRANCH   1   7
ATOM      7  C   UNL     1     180.036 179.967 179.163  1.00  0.00     0.072 C 
ATOM      8  O   UNL     1     179.948 178.805 179.640  1.00  0.00    -0.545 OA
ATOM      9  O   UNL     1     179.435 181.022 179.841  1.00  0.00    -0.545 OA
ENDBRANCH   1   7
BRANCH   4  10
ATOM     10  O   UNL     1     183.515 178.717 175.892  1.00  0.00    -0.504 OA
ATOM     11  H   UNL     1     183.821 177.947 176.475  1.00  0.00     0.293 HD
ENDBRANCH   4  10
BRANCH   6  12
ATOM     12  O   UNL     1     182.845 180.900 174.304  1.00  0.00    -0.504 OA
ATOM     13  H   UNL     1     183.315 180.149 173.812  1.00  0.00     0.293 HD
ENDBRANCH   6  12
TORSDOF 3
ENDMDL
MODEL 6
REMARK VINA RESULT:    -4.365      1.114      4.057
REMARK INTER + INTRA:          -4.915
REMARK INTER:                  -4.874
REMARK INTRA:                  -0.042
REMARK UNBOUND:                -0.040
REMARK SMILES O=C([O-])c1ccc(O)c(O)c1
REMARK SMILES IDX 4 1 11 2 5 3 9 4 6 5 7 6 2 7 1 8 3 9 10 10 8 12
REMARK H PARENT 10 11 8 13
REMARK Flexibility Score: inf
ROOT
ATOM      1  C   UNL     1     179.913 180.503 177.820  1.00  0.00     0.001 A 
ATOM      2  C   UNL     1     178.886 181.367 177.398  1.00  0.00     0.060 A 
ATOM      3  C   UNL     1     180.243 179.394 177.022  1.00  0.00     0.014 A 
ATOM      4  C   UNL     1     178.202 181.127 176.199  1.00  0.00     0.158 A 
ATOM      5  C   UNL     1     179.560 179.155 175.826  1.00  0.00     0.051 A 
ATOM      6  C   UNL     1     178.539 180.020 175.411  1.00  0.00     0.157 A 
ENDROOT
BRANCH   1   7
ATOM      7  C   UNL     1     180.639 180.752 179.086  1.00  0.00     0.072 C 
ATOM      8  O   UNL     1     180.799 181.927 179.511  1.00  0.00    -0.545 OA
ATOM      9  O   UNL     1     181.155 179.693 179.824  1.00  0.00    -0.545 OA
ENDBRANCH   1   7
BRANCH   4  10
ATOM     10  O   UNL     1     177.185 181.985 175.783  1.00  0.00    -0.504 OA
ATOM     11  H   UNL     1     177.132 182.323 174.829  1.00  0.00     0.293 HD
ENDBRANCH   4  10
BRANCH   6  12
ATOM     12  O   UNL     1     177.855 179.784 174.220  1.00  0.00    -0.504 OA
ATOM     13  H   UNL     1     176.958 179.311 174.208  1.00  0.00     0.293 HD
ENDBRANCH   6  12
TORSDOF 3
ENDMDL
MODEL 7
REMARK VINA RESULT:    -4.192      1.511      4.266
REMARK INTER + INTRA:          -4.722
REMARK INTER:                  -4.680
REMARK INTRA:                  -0.042
REMARK UNBOUND:                -0.040
REMARK SMILES O=C([O-])c1ccc(O)c(O)c1
REMARK SMILES IDX 4 1 11 2 5 3 9 4 6 5 7 6 2 7 1 8 3 9 10 10 8 12
REMARK H PARENT 10 11 8 13
REMARK Flexibility Score: inf
ROOT
ATOM      1  C   UNL     1     179.919 180.664 178.053  1.00  0.00     0.001 A 
ATOM      2  C   UNL     1     180.191 179.550 177.238  1.00  0.00     0.060 A 
ATOM      3  C   UNL     1     178.938 181.584 177.646  1.00  0.00     0.014 A 
ATOM      4  C   UNL     1     179.493 179.359 176.037  1.00  0.00     0.158 A 
ATOM      5  C   UNL     1     178.243 181.394 176.449  1.00  0.00     0.051 A 
ATOM      6  C   UNL     1     178.518 180.282 175.642  1.00  0.00     0.157 A 
ENDROOT
BRANCH   1   7
ATOM      7  C   UNL     1     180.654 180.869 179.322  1.00  0.00     0.072 C 
ATOM      8  O   UNL     1     180.831 182.029 179.779  1.00  0.00    -0.545 OA
ATOM      9  O   UNL     1     181.160 179.783 180.027  1.00  0.00    -0.545 OA
ENDBRANCH   1   7
BRANCH   4  10
ATOM     10  O   UNL     1     179.764 178.254 175.232  1.00  0.00    -0.504 OA
ATOM     11  H   UNL     1     179.877 178.343 174.229  1.00  0.00     0.293 HD
ENDBRANCH   4  10
BRANCH   6  12
ATOM     12  O   UNL     1     177.826 180.089 174.447  1.00  0.00    -0.504 OA
ATOM     13  H   UNL     1     177.268 179.258 174.285  1.00  0.00     0.293 HD
ENDBRANCH   6  12
TORSDOF 3
ENDMDL
MODEL 8
REMARK VINA RESULT:    -4.182      2.474      3.897
REMARK INTER + INTRA:          -4.711
REMARK INTER:                  -4.669
REMARK INTRA:                  -0.042
REMARK UNBOUND:                -0.040
REMARK SMILES O=C([O-])c1ccc(O)c(O)c1
REMARK SMILES IDX 4 1 11 2 5 3 9 4 6 5 7 6 2 7 1 8 3 9 10 10 8 12
REMARK H PARENT 10 11 8 13
REMARK Flexibility Score: inf
ROOT
ATOM      1  C   UNL     1     180.686 180.131 178.123  1.00  0.00     0.001 A 
ATOM      2  C   UNL     1     180.351 181.280 177.383  1.00  0.00     0.060 A 
ATOM      3  C   UNL     1     181.651 179.246 177.611  1.00  0.00     0.014 A 
ATOM      4  C   UNL     1     180.971 181.540 176.153  1.00  0.00     0.158 A 
ATOM      5  C   UNL     1     182.269 179.507 176.384  1.00  0.00     0.051 A 
ATOM      6  C   UNL     1     181.931 180.653 175.653  1.00  0.00     0.157 A 
ENDROOT
BRANCH   1   7
ATOM      7  C   UNL     1     180.034 179.852 179.422  1.00  0.00     0.072 C 
ATOM      8  O   UNL     1     179.658 180.796 180.165  1.00  0.00    -0.545 OA
ATOM      9  O   UNL     1     179.829 178.542 179.841  1.00  0.00    -0.545 OA
ENDBRANCH   1   7
BRANCH   4  10
ATOM     10  O   UNL     1     180.637 182.680 175.423  1.00  0.00    -0.504 OA
ATOM     11  H   UNL     1     180.251 182.617 174.488  1.00  0.00     0.293 HD
ENDBRANCH   4  10
BRANCH   6  12
ATOM     12  O   UNL     1     182.544 180.915 174.428  1.00  0.00    -0.504 OA
ATOM     13  H   UNL     1     182.238 180.463 173.574  1.00  0.00     0.293 HD
ENDBRANCH   6  12
TORSDOF 3
ENDMDL
MODEL 9
REMARK VINA RESULT:    -4.137      2.006      3.183
REMARK INTER + INTRA:          -4.661
REMARK INTER:                  -4.620
REMARK INTRA:                  -0.041
REMARK UNBOUND:                -0.040
REMARK SMILES O=C([O-])c1ccc(O)c(O)c1
REMARK SMILES IDX 4 1 11 2 5 3 9 4 6 5 7 6 2 7 1 8 3 9 10 10 8 12
REMARK H PARENT 10 11 8 13
REMARK Flexibility Score: inf
ROOT
ATOM      1  C   UNL     1     179.675 179.429 176.461  1.00  0.00     0.001 A 
ATOM      2  C   UNL     1     180.492 178.958 177.505  1.00  0.00     0.060 A 
ATOM      3  C   UNL     1     179.105 180.710 176.565  1.00  0.00     0.014 A 
ATOM      4  C   UNL     1     180.736 179.753 178.633  1.00  0.00     0.158 A 
ATOM      5  C   UNL     1     179.348 181.502 177.691  1.00  0.00     0.051 A 
ATOM      6  C   UNL     1     180.163 181.026 178.727  1.00  0.00     0.157 A 
ENDROOT
BRANCH   1   7
ATOM      7  C   UNL     1     179.416 178.593 175.267  1.00  0.00     0.072 C 
ATOM      8  O   UNL     1     178.296 178.626 174.694  1.00  0.00    -0.545 OA
ATOM      9  O   UNL     1     180.408 177.758 174.763  1.00  0.00    -0.545 OA
ENDBRANCH   1   7
BRANCH   4  10
ATOM     10  O   UNL     1     181.546 179.283 179.666  1.00  0.00    -0.504 OA
ATOM     11  H   UNL     1     182.518 179.557 179.745  1.00  0.00     0.293 HD
ENDBRANCH   4  10
BRANCH   6  12
ATOM     12  O   UNL     1     180.406 181.814 179.852  1.00  0.00    -0.504 OA
ATOM     13  H   UNL     1     179.648 182.173 180.421  1.00  0.00     0.293 HD
ENDBRANCH   6  12
TORSDOF 3
ENDMDL
