MODEL 1
REMARK VINA RESULT:    -3.869      0.000      0.000
REMARK INTER + INTRA:          -8.988
REMARK INTER:                  -7.262
REMARK INTRA:                  -1.726
REMARK UNBOUND:                -1.726
REMARK SMILES O=C([O-])CCCCCCCCCCCCCCC(=O)[O-]
REMARK SMILES IDX 10 1 9 2 8 3 7 4 6 5 5 6 4 7 2 8 1 9 3 10 11 11 12 12 13 13
REMARK SMILES IDX 14 14 15 15 16 16 17 17 18 18 19 19 20 20
REMARK H PARENT
REMARK Flexibility Score: inf
ROOT
ATOM      1  C   UNL     1       2.342  -3.330  -6.067  1.00  0.00     0.000 C 
ENDROOT
BRANCH   1   2
ATOM      2  C   UNL     1       2.536  -4.743  -6.648  1.00  0.00     0.000 C 
BRANCH   2   3
ATOM      3  C   UNL     1       1.644  -5.083  -7.857  1.00  0.00     0.000 C 
BRANCH   3   4
ATOM      4  C   UNL     1       2.293  -4.715  -9.202  1.00  0.00     0.000 C 
BRANCH   4   5
ATOM      5  C   UNL     1       3.133  -5.860  -9.797  1.00  0.00     0.000 C 
BRANCH   5   6
ATOM      6  C   UNL     1       4.659  -5.673  -9.702  1.00  0.00     0.006 C 
BRANCH   6   7
ATOM      7  C   UNL     1       5.444  -6.921 -10.123  1.00  0.00     0.053 C 
BRANCH   7   8
ATOM      8  C   UNL     1       6.384  -7.339  -9.036  1.00  0.00     0.041 C 
ATOM      9  O   UNL     1       7.585  -6.959  -9.057  1.00  0.00    -0.550 OA
ATOM     10  O   UNL     1       5.924  -8.111  -7.976  1.00  0.00    -0.550 OA
ENDBRANCH   7   8
ENDBRANCH   6   7
ENDBRANCH   5   6
ENDBRANCH   4   5
ENDBRANCH   3   4
ENDBRANCH   2   3
ENDBRANCH   1   2
BRANCH   1  11
ATOM     11  C   UNL     1       0.958  -2.738  -6.375  1.00  0.00     0.000 C 
BRANCH  11  12
ATOM     12  C   UNL     1       1.025  -1.207  -6.463  1.00  0.00     0.000 C 
BRANCH  12  13
ATOM     13  C   UNL     1       0.657  -0.669  -7.859  1.00  0.00     0.000 C 
BRANCH  13  14
ATOM     14  C   UNL     1       1.220  -1.483  -9.039  1.00  0.00     0.000 C 
BRANCH  14  15
ATOM     15  C   UNL     1       2.538  -0.950  -9.634  1.00  0.00     0.000 C 
BRANCH  15  16
ATOM     16  C   UNL     1       3.801  -1.439  -8.893  1.00  0.00     0.006 C 
BRANCH  16  17
ATOM     17  C   UNL     1       5.048  -1.439  -9.788  1.00  0.00     0.053 C 
BRANCH  17  18
ATOM     18  C   UNL     1       5.885  -0.230  -9.517  1.00  0.00     0.041 C 
ATOM     19  O   UNL     1       6.947  -0.330  -8.847  1.00  0.00    -0.550 OA
ATOM     20  O   UNL     1       5.518   1.004 -10.043  1.00  0.00    -0.550 OA
ENDBRANCH  17  18
ENDBRANCH  16  17
ENDBRANCH  15  16
ENDBRANCH  14  15
ENDBRANCH  13  14
ENDBRANCH  12  13
ENDBRANCH  11  12
ENDBRANCH   1  11
TORSDOF 15
ENDMDL
MODEL 2
REMARK VINA RESULT:    -3.824     14.088     15.834
REMARK INTER + INTRA:          -8.903
REMARK INTER:                  -6.641
REMARK INTRA:                  -2.262
REMARK UNBOUND:                -1.726
REMARK SMILES O=C([O-])CCCCCCCCCCCCCCC(=O)[O-]
REMARK SMILES IDX 10 1 9 2 8 3 7 4 6 5 5 6 4 7 2 8 1 9 3 10 11 11 12 12 13 13
REMARK SMILES IDX 14 14 15 15 16 16 17 17 18 18 19 19 20 20
REMARK H PARENT
REMARK Flexibility Score: inf
ROOT
ATOM      1  C   UNL     1      -6.211  -6.612   5.589  1.00  0.00     0.000 C 
ENDROOT
BRANCH   1   2
ATOM      2  C   UNL     1      -5.307  -7.143   4.460  1.00  0.00     0.000 C 
BRANCH   2   3
ATOM      3  C   UNL     1      -5.665  -8.547   3.938  1.00  0.00     0.000 C 
BRANCH   3   4
ATOM      4  C   UNL     1      -5.569  -8.659   2.407  1.00  0.00     0.000 C 
BRANCH   4   5
ATOM      5  C   UNL     1      -6.913  -9.009   1.745  1.00  0.00     0.000 C 
BRANCH   5   6
ATOM      6  C   UNL     1      -6.953  -8.847   0.213  1.00  0.00     0.006 C 
BRANCH   6   7
ATOM      7  C   UNL     1      -8.288  -8.292  -0.297  1.00  0.00     0.053 C 
BRANCH   7   8
ATOM      8  C   UNL     1      -8.069  -7.023  -1.060  1.00  0.00     0.041 C 
ATOM      9  O   UNL     1      -9.052  -6.384  -1.522  1.00  0.00    -0.550 OA
ATOM     10  O   UNL     1      -6.782  -6.522  -1.223  1.00  0.00    -0.550 OA
ENDBRANCH   7   8
ENDBRANCH   6   7
ENDBRANCH   5   6
ENDBRANCH   4   5
ENDBRANCH   3   4
ENDBRANCH   2   3
ENDBRANCH   1   2
BRANCH   1  11
ATOM     11  C   UNL     1      -7.557  -7.348   5.676  1.00  0.00     0.000 C 
BRANCH  11  12
ATOM     12  C   UNL     1      -8.692  -6.481   5.112  1.00  0.00     0.000 C 
BRANCH  12  13
ATOM     13  C   UNL     1      -9.126  -6.908   3.696  1.00  0.00     0.000 C 
BRANCH  13  14
ATOM     14  C   UNL     1      -8.979  -5.821   2.615  1.00  0.00     0.000 C 
BRANCH  14  15
ATOM     15  C   UNL     1      -7.530  -5.469   2.230  1.00  0.00     0.000 C 
BRANCH  15  16
ATOM     16  C   UNL     1      -7.396  -4.147   1.445  1.00  0.00     0.006 C 
BRANCH  16  17
ATOM     17  C   UNL     1      -6.820  -3.008   2.300  1.00  0.00     0.053 C 
BRANCH  17  18
ATOM     18  C   UNL     1      -6.002  -2.084   1.457  1.00  0.00     0.041 C 
ATOM     19  O   UNL     1      -5.639  -2.432   0.302  1.00  0.00    -0.550 OA
ATOM     20  O   UNL     1      -5.677  -0.816   1.926  1.00  0.00    -0.550 OA
ENDBRANCH  17  18
ENDBRANCH  16  17
ENDBRANCH  15  16
ENDBRANCH  14  15
ENDBRANCH  13  14
ENDBRANCH  12  13
ENDBRANCH  11  12
ENDBRANCH   1  11
TORSDOF 15
ENDMDL
MODEL 3
REMARK VINA RESULT:    -3.808      5.579      7.263
REMARK INTER + INTRA:          -8.872
REMARK INTER:                  -7.672
REMARK INTRA:                  -1.200
REMARK UNBOUND:                -1.726
REMARK SMILES O=C([O-])CCCCCCCCCCCCCCC(=O)[O-]
REMARK SMILES IDX 10 1 9 2 8 3 7 4 6 5 5 6 4 7 2 8 1 9 3 10 11 11 12 12 13 13
REMARK SMILES IDX 14 14 15 15 16 16 17 17 18 18 19 19 20 20
REMARK H PARENT
REMARK Flexibility Score: inf
ROOT
ATOM      1  C   UNL     1       0.592  -5.615  -9.273  1.00  0.00     0.000 C 
ENDROOT
BRANCH   1   2
ATOM      2  C   UNL     1      -0.863  -6.014  -9.580  1.00  0.00     0.000 C 
BRANCH   2   3
ATOM      3  C   UNL     1      -1.448  -7.114  -8.674  1.00  0.00     0.000 C 
BRANCH   3   4
ATOM      4  C   UNL     1      -1.796  -8.400  -9.441  1.00  0.00     0.000 C 
BRANCH   4   5
ATOM      5  C   UNL     1      -3.171  -8.975  -9.057  1.00  0.00     0.000 C 
BRANCH   5   6
ATOM      6  C   UNL     1      -4.076  -8.028  -8.247  1.00  0.00     0.006 C 
BRANCH   6   7
ATOM      7  C   UNL     1      -5.118  -7.308  -9.113  1.00  0.00     0.053 C 
BRANCH   7   8
ATOM      8  C   UNL     1      -5.735  -6.175  -8.354  1.00  0.00     0.041 C 
ATOM      9  O   UNL     1      -5.720  -5.010  -8.834  1.00  0.00    -0.550 OA
ATOM     10  O   UNL     1      -6.365  -6.412  -7.138  1.00  0.00    -0.550 OA
ENDBRANCH   7   8
ENDBRANCH   6   7
ENDBRANCH   5   6
ENDBRANCH   4   5
ENDBRANCH   3   4
ENDBRANCH   2   3
ENDBRANCH   1   2
BRANCH   1  11
ATOM     11  C   UNL     1       0.964  -4.229  -9.821  1.00  0.00     0.000 C 
BRANCH  11  12
ATOM     12  C   UNL     1      -0.022  -3.161  -9.324  1.00  0.00     0.000 C 
BRANCH  12  13
ATOM     13  C   UNL     1       0.435  -1.726  -9.648  1.00  0.00     0.000 C 
BRANCH  13  14
ATOM     14  C   UNL     1       1.275  -1.047  -8.551  1.00  0.00     0.000 C 
BRANCH  14  15
ATOM     15  C   UNL     1       0.718  -1.181  -7.120  1.00  0.00     0.000 C 
BRANCH  15  16
ATOM     16  C   UNL     1       1.760  -1.661  -6.087  1.00  0.00     0.006 C 
BRANCH  16  17
ATOM     17  C   UNL     1       2.591  -2.849  -6.594  1.00  0.00     0.053 C 
BRANCH  17  18
ATOM     18  C   UNL     1       1.958  -4.141  -6.186  1.00  0.00     0.041 C 
ATOM     19  O   UNL     1       0.710  -4.219  -6.044  1.00  0.00    -0.550 OA
ATOM     20  O   UNL     1       2.743  -5.274  -6.007  1.00  0.00    -0.550 OA
ENDBRANCH  17  18
ENDBRANCH  16  17
ENDBRANCH  15  16
ENDBRANCH  14  15
ENDBRANCH  13  14
ENDBRANCH  12  13
ENDBRANCH  11  12
ENDBRANCH   1  11
TORSDOF 15
ENDMDL
MODEL 4
REMARK VINA RESULT:    -3.803     13.958     16.433
REMARK INTER + INTRA:          -8.863
REMARK INTER:                  -6.916
REMARK INTRA:                  -1.947
REMARK UNBOUND:                -1.726
REMARK SMILES O=C([O-])CCCCCCCCCCCCCCC(=O)[O-]
REMARK SMILES IDX 10 1 9 2 8 3 7 4 6 5 5 6 4 7 2 8 1 9 3 10 11 11 12 12 13 13
REMARK SMILES IDX 14 14 15 15 16 16 17 17 18 18 19 19 20 20
REMARK H PARENT
REMARK Flexibility Score: inf
ROOT
ATOM      1  C   UNL     1      -5.950  -7.617   5.494  1.00  0.00     0.000 C 
ENDROOT
BRANCH   1   2
ATOM      2  C   UNL     1      -7.207  -6.810   5.870  1.00  0.00     0.000 C 
BRANCH   2   3
ATOM      3  C   UNL     1      -7.988  -6.219   4.682  1.00  0.00     0.000 C 
BRANCH   3   4
ATOM      4  C   UNL     1      -7.077  -5.539   3.646  1.00  0.00     0.000 C 
BRANCH   4   5
ATOM      5  C   UNL     1      -7.862  -4.841   2.522  1.00  0.00     0.000 C 
BRANCH   5   6
ATOM      6  C   UNL     1      -7.774  -3.303   2.515  1.00  0.00     0.006 C 
BRANCH   6   7
ATOM      7  C   UNL     1      -6.339  -2.784   2.671  1.00  0.00     0.053 C 
BRANCH   7   8
ATOM      8  C   UNL     1      -5.889  -2.107   1.414  1.00  0.00     0.041 C 
ATOM      9  O   UNL     1      -5.919  -2.725   0.317  1.00  0.00    -0.550 OA
ATOM     10  O   UNL     1      -5.477  -0.780   1.448  1.00  0.00    -0.550 OA
ENDBRANCH   7   8
ENDBRANCH   6   7
ENDBRANCH   5   6
ENDBRANCH   4   5
ENDBRANCH   3   4
ENDBRANCH   2   3
ENDBRANCH   1   2
BRANCH   1  11
ATOM     11  C   UNL     1      -6.161  -9.136   5.589  1.00  0.00     0.000 C 
BRANCH  11  12
ATOM     12  C   UNL     1      -5.656  -9.840   4.322  1.00  0.00     0.000 C 
BRANCH  12  13
ATOM     13  C   UNL     1      -4.974  -8.877   3.331  1.00  0.00     0.000 C 
BRANCH  13  14
ATOM     14  C   UNL     1      -5.691  -8.720   1.978  1.00  0.00     0.000 C 
BRANCH  14  15
ATOM     15  C   UNL     1      -7.214  -8.958   2.010  1.00  0.00     0.000 C 
BRANCH  15  16
ATOM     16  C   UNL     1      -7.996  -8.138   0.961  1.00  0.00     0.006 C 
BRANCH  16  17
ATOM     17  C   UNL     1      -7.312  -8.133  -0.414  1.00  0.00     0.053 C 
BRANCH  17  18
ATOM     18  C   UNL     1      -7.471  -6.799  -1.071  1.00  0.00     0.041 C 
ATOM     19  O   UNL     1      -6.832  -5.802  -0.644  1.00  0.00    -0.550 OA
ATOM     20  O   UNL     1      -8.291  -6.665  -2.185  1.00  0.00    -0.550 OA
ENDBRANCH  17  18
ENDBRANCH  16  17
ENDBRANCH  15  16
ENDBRANCH  14  15
ENDBRANCH  13  14
ENDBRANCH  12  13
ENDBRANCH  11  12
ENDBRANCH   1  11
TORSDOF 15
ENDMDL
MODEL 5
REMARK VINA RESULT:    -3.763      3.823      4.818
REMARK INTER + INTRA:          -8.788
REMARK INTER:                  -7.551
REMARK INTRA:                  -1.236
REMARK UNBOUND:                -1.726
REMARK SMILES O=C([O-])CCCCCCCCCCCCCCC(=O)[O-]
REMARK SMILES IDX 10 1 9 2 8 3 7 4 6 5 5 6 4 7 2 8 1 9 3 10 11 11 12 12 13 13
REMARK SMILES IDX 14 14 15 15 16 16 17 17 18 18 19 19 20 20
REMARK H PARENT
REMARK Flexibility Score: inf
ROOT
ATOM      1  C   UNL     1       2.413  -3.478  -6.071  1.00  0.00     0.000 C 
ENDROOT
BRANCH   1   2
ATOM      2  C   UNL     1       2.151  -4.803  -6.813  1.00  0.00     0.000 C 
BRANCH   2   3
ATOM      3  C   UNL     1       0.701  -5.017  -7.283  1.00  0.00     0.000 C 
BRANCH   3   4
ATOM      4  C   UNL     1       0.566  -5.046  -8.814  1.00  0.00     0.000 C 
BRANCH   4   5
ATOM      5  C   UNL     1       0.024  -6.386  -9.344  1.00  0.00     0.000 C 
BRANCH   5   6
ATOM      6  C   UNL     1      -1.511  -6.484  -9.435  1.00  0.00     0.006 C 
BRANCH   6   7
ATOM      7  C   UNL     1      -2.068  -7.765  -8.802  1.00  0.00     0.053 C 
BRANCH   7   8
ATOM      8  C   UNL     1      -3.516  -7.594  -8.465  1.00  0.00     0.041 C 
ATOM      9  O   UNL     1      -4.213  -6.742  -9.080  1.00  0.00    -0.550 OA
ATOM     10  O   UNL     1      -4.108  -8.405  -7.504  1.00  0.00    -0.550 OA
ENDBRANCH   7   8
ENDBRANCH   6   7
ENDBRANCH   5   6
ENDBRANCH   4   5
ENDBRANCH   3   4
ENDBRANCH   2   3
ENDBRANCH   1   2
BRANCH   1  11
ATOM     11  C   UNL     1       1.211  -2.522  -6.109  1.00  0.00     0.000 C 
BRANCH  11  12
ATOM     12  C   UNL     1       1.563  -1.228  -6.857  1.00  0.00     0.000 C 
BRANCH  12  13
ATOM     13  C   UNL     1       1.189  -1.278  -8.351  1.00  0.00     0.000 C 
BRANCH  13  14
ATOM     14  C   UNL     1       2.378  -1.443  -9.315  1.00  0.00     0.000 C 
BRANCH  14  15
ATOM     15  C   UNL     1       3.746  -1.661  -8.638  1.00  0.00     0.000 C 
BRANCH  15  16
ATOM     16  C   UNL     1       4.948  -1.496  -9.593  1.00  0.00     0.006 C 
BRANCH  16  17
ATOM     17  C   UNL     1       5.164  -0.038 -10.023  1.00  0.00     0.053 C 
BRANCH  17  18
ATOM     18  C   UNL     1       6.405   0.513  -9.398  1.00  0.00     0.041 C 
ATOM     19  O   UNL     1       7.263  -0.263  -8.900  1.00  0.00    -0.550 OA
ATOM     20  O   UNL     1       6.640   1.883  -9.405  1.00  0.00    -0.550 OA
ENDBRANCH  17  18
ENDBRANCH  16  17
ENDBRANCH  15  16
ENDBRANCH  14  15
ENDBRANCH  13  14
ENDBRANCH  12  13
ENDBRANCH  11  12
ENDBRANCH   1  11
TORSDOF 15
ENDMDL
MODEL 6
REMARK VINA RESULT:    -3.761     14.172     15.611
REMARK INTER + INTRA:          -8.784
REMARK INTER:                  -6.814
REMARK INTRA:                  -1.970
REMARK UNBOUND:                -1.726
REMARK SMILES O=C([O-])CCCCCCCCCCCCCCC(=O)[O-]
REMARK SMILES IDX 10 1 9 2 8 3 7 4 6 5 5 6 4 7 2 8 1 9 3 10 11 11 12 12 13 13
REMARK SMILES IDX 14 14 15 15 16 16 17 17 18 18 19 19 20 20
REMARK H PARENT
REMARK Flexibility Score: inf
ROOT
ATOM      1  C   UNL     1      -5.108  -7.784   4.049  1.00  0.00     0.000 C 
ENDROOT
BRANCH   1   2
ATOM      2  C   UNL     1      -5.600  -9.138   3.503  1.00  0.00     0.000 C 
BRANCH   2   3
ATOM      3  C   UNL     1      -7.126  -9.340   3.528  1.00  0.00     0.000 C 
BRANCH   3   4
ATOM      4  C   UNL     1      -7.767  -9.240   2.133  1.00  0.00     0.000 C 
BRANCH   4   5
ATOM      5  C   UNL     1      -6.743  -8.951   1.021  1.00  0.00     0.000 C 
BRANCH   5   6
ATOM      6  C   UNL     1      -7.262  -9.143  -0.416  1.00  0.00     0.006 C 
BRANCH   6   7
ATOM      7  C   UNL     1      -8.562  -8.377  -0.692  1.00  0.00     0.053 C 
BRANCH   7   8
ATOM      8  C   UNL     1      -8.266  -7.070  -1.361  1.00  0.00     0.041 C 
ATOM      9  O   UNL     1      -7.073  -6.706  -1.539  1.00  0.00    -0.550 OA
ATOM     10  O   UNL     1      -9.307  -6.276  -1.827  1.00  0.00    -0.550 OA
ENDBRANCH   7   8
ENDBRANCH   6   7
ENDBRANCH   5   6
ENDBRANCH   4   5
ENDBRANCH   3   4
ENDBRANCH   2   3
ENDBRANCH   1   2
BRANCH   1  11
ATOM     11  C   UNL     1      -6.112  -7.121   5.003  1.00  0.00     0.000 C 
BRANCH  11  12
ATOM     12  C   UNL     1      -6.425  -5.685   4.558  1.00  0.00     0.000 C 
BRANCH  12  13
ATOM     13  C   UNL     1      -7.933  -5.432   4.366  1.00  0.00     0.000 C 
BRANCH  13  14
ATOM     14  C   UNL     1      -8.379  -5.237   2.905  1.00  0.00     0.000 C 
BRANCH  14  15
ATOM     15  C   UNL     1      -7.332  -5.623   1.842  1.00  0.00     0.000 C 
BRANCH  15  16
ATOM     16  C   UNL     1      -6.820  -4.431   1.007  1.00  0.00     0.006 C 
BRANCH  16  17
ATOM     17  C   UNL     1      -7.408  -3.090   1.470  1.00  0.00     0.053 C 
BRANCH  17  18
ATOM     18  C   UNL     1      -6.375  -2.011   1.391  1.00  0.00     0.041 C 
ATOM     19  O   UNL     1      -5.754  -1.805   0.315  1.00  0.00    -0.550 OA
ATOM     20  O   UNL     1      -6.129  -1.201   2.493  1.00  0.00    -0.550 OA
ENDBRANCH  17  18
ENDBRANCH  16  17
ENDBRANCH  15  16
ENDBRANCH  14  15
ENDBRANCH  13  14
ENDBRANCH  12  13
ENDBRANCH  11  12
ENDBRANCH   1  11
TORSDOF 15
ENDMDL
MODEL 7
REMARK VINA RESULT:    -3.726      5.874      8.948
REMARK INTER + INTRA:          -8.720
REMARK INTER:                  -7.497
REMARK INTRA:                  -1.222
REMARK UNBOUND:                -1.726
REMARK SMILES O=C([O-])CCCCCCCCCCCCCCC(=O)[O-]
REMARK SMILES IDX 10 1 9 2 8 3 7 4 6 5 5 6 4 7 2 8 1 9 3 10 11 11 12 12 13 13
REMARK SMILES IDX 14 14 15 15 16 16 17 17 18 18 19 19 20 20
REMARK H PARENT
REMARK Flexibility Score: inf
ROOT
ATOM      1  C   UNL     1       0.284  -1.446  -8.794  1.00  0.00     0.000 C 
ENDROOT
BRANCH   1   2
ATOM      2  C   UNL     1      -1.140  -1.433  -9.381  1.00  0.00     0.000 C 
BRANCH   2   3
ATOM      3  C   UNL     1      -2.063  -0.325  -8.841  1.00  0.00     0.000 C 
BRANCH   3   4
ATOM      4  C   UNL     1      -3.460  -0.343  -9.484  1.00  0.00     0.000 C 
BRANCH   4   5
ATOM      5  C   UNL     1      -4.183  -1.690  -9.311  1.00  0.00     0.000 C 
BRANCH   5   6
ATOM      6  C   UNL     1      -5.708  -1.596  -9.108  1.00  0.00     0.006 C 
BRANCH   6   7
ATOM      7  C   UNL     1      -6.183  -2.266  -7.812  1.00  0.00     0.053 C 
BRANCH   7   8
ATOM      8  C   UNL     1      -7.319  -1.497  -7.213  1.00  0.00     0.041 C 
ATOM      9  O   UNL     1      -7.284  -0.238  -7.182  1.00  0.00    -0.550 OA
ATOM     10  O   UNL     1      -8.434  -2.169  -6.728  1.00  0.00    -0.550 OA
ENDBRANCH   7   8
ENDBRANCH   6   7
ENDBRANCH   5   6
ENDBRANCH   4   5
ENDBRANCH   3   4
ENDBRANCH   2   3
ENDBRANCH   1   2
BRANCH   1  11
ATOM     11  C   UNL     1       0.405  -0.634  -7.495  1.00  0.00     0.000 C 
BRANCH  11  12
ATOM     12  C   UNL     1       1.163  -1.428  -6.421  1.00  0.00     0.000 C 
BRANCH  12  13
ATOM     13  C   UNL     1       2.350  -2.227  -6.991  1.00  0.00     0.000 C 
BRANCH  13  14
ATOM     14  C   UNL     1       2.588  -3.598  -6.333  1.00  0.00     0.000 C 
BRANCH  14  15
ATOM     15  C   UNL     1       2.124  -4.813  -7.159  1.00  0.00     0.000 C 
BRANCH  15  16
ATOM     16  C   UNL     1       0.604  -4.843  -7.427  1.00  0.00     0.006 C 
BRANCH  16  17
ATOM     17  C   UNL     1       0.270  -5.102  -8.903  1.00  0.00     0.053 C 
BRANCH  17  18
ATOM     18  C   UNL     1       0.319  -6.566  -9.200  1.00  0.00     0.041 C 
ATOM     19  O   UNL     1      -0.699  -7.285  -9.017  1.00  0.00    -0.550 OA
ATOM     20  O   UNL     1       1.475  -7.132  -9.725  1.00  0.00    -0.550 OA
ENDBRANCH  17  18
ENDBRANCH  16  17
ENDBRANCH  15  16
ENDBRANCH  14  15
ENDBRANCH  13  14
ENDBRANCH  12  13
ENDBRANCH  11  12
ENDBRANCH   1  11
TORSDOF 15
ENDMDL
MODEL 8
REMARK VINA RESULT:    -3.711     14.055     16.707
REMARK INTER + INTRA:          -8.692
REMARK INTER:                  -6.492
REMARK INTRA:                  -2.199
REMARK UNBOUND:                -1.726
REMARK SMILES O=C([O-])CCCCCCCCCCCCCCC(=O)[O-]
REMARK SMILES IDX 10 1 9 2 8 3 7 4 6 5 5 6 4 7 2 8 1 9 3 10 11 11 12 12 13 13
REMARK SMILES IDX 14 14 15 15 16 16 17 17 18 18 19 19 20 20
REMARK H PARENT
REMARK Flexibility Score: inf
ROOT
ATOM      1  C   UNL     1      -7.064  -5.912   0.661  1.00  0.00     0.000 C 
ENDROOT
BRANCH   1   2
ATOM      2  C   UNL     1      -8.471  -5.671   1.240  1.00  0.00     0.000 C 
BRANCH   2   3
ATOM      3  C   UNL     1      -8.547  -5.619   2.778  1.00  0.00     0.000 C 
BRANCH   3   4
ATOM      4  C   UNL     1      -8.979  -4.243   3.310  1.00  0.00     0.000 C 
BRANCH   4   5
ATOM      5  C   UNL     1      -7.902  -3.569   4.179  1.00  0.00     0.000 C 
BRANCH   5   6
ATOM      6  C   UNL     1      -6.578  -3.254   3.456  1.00  0.00     0.006 C 
BRANCH   6   7
ATOM      7  C   UNL     1      -6.605  -1.912   2.714  1.00  0.00     0.053 C 
BRANCH   7   8
ATOM      8  C   UNL     1      -6.784  -2.132   1.244  1.00  0.00     0.041 C 
ATOM      9  O   UNL     1      -7.942  -2.174   0.747  1.00  0.00    -0.550 OA
ATOM     10  O   UNL     1      -5.674  -2.246   0.416  1.00  0.00    -0.550 OA
ENDBRANCH   7   8
ENDBRANCH   6   7
ENDBRANCH   5   6
ENDBRANCH   4   5
ENDBRANCH   3   4
ENDBRANCH   2   3
ENDBRANCH   1   2
BRANCH   1  11
ATOM     11  C   UNL     1      -7.092  -6.482  -0.765  1.00  0.00     0.000 C 
BRANCH  11  12
ATOM     12  C   UNL     1      -7.795  -7.848  -0.796  1.00  0.00     0.000 C 
BRANCH  12  13
ATOM     13  C   UNL     1      -7.028  -8.935  -0.019  1.00  0.00     0.000 C 
BRANCH  13  14
ATOM     14  C   UNL     1      -7.856  -9.681   1.043  1.00  0.00     0.000 C 
BRANCH  14  15
ATOM     15  C   UNL     1      -7.721  -9.142   2.480  1.00  0.00     0.000 C 
BRANCH  15  16
ATOM     16  C   UNL     1      -6.299  -9.277   3.066  1.00  0.00     0.006 C 
BRANCH  16  17
ATOM     17  C   UNL     1      -5.616  -7.918   3.276  1.00  0.00     0.053 C 
BRANCH  17  18
ATOM     18  C   UNL     1      -5.735  -7.488   4.704  1.00  0.00     0.041 C 
ATOM     19  O   UNL     1      -6.173  -8.288   5.572  1.00  0.00    -0.550 OA
ATOM     20  O   UNL     1      -5.320  -6.218   5.086  1.00  0.00    -0.550 OA
ENDBRANCH  17  18
ENDBRANCH  16  17
ENDBRANCH  15  16
ENDBRANCH  14  15
ENDBRANCH  13  14
ENDBRANCH  12  13
ENDBRANCH  11  12
ENDBRANCH   1  11
TORSDOF 15
ENDMDL
MODEL 9
REMARK VINA RESULT:    -3.694     14.265     16.796
REMARK INTER + INTRA:          -8.658
REMARK INTER:                  -6.608
REMARK INTRA:                  -2.050
REMARK UNBOUND:                -1.726
REMARK SMILES O=C([O-])CCCCCCCCCCCCCCC(=O)[O-]
REMARK SMILES IDX 10 1 9 2 8 3 7 4 6 5 5 6 4 7 2 8 1 9 3 10 11 11 12 12 13 13
REMARK SMILES IDX 14 14 15 15 16 16 17 17 18 18 19 19 20 20
REMARK H PARENT
REMARK Flexibility Score: inf
ROOT
ATOM      1  C   UNL     1      -5.870  -6.232   5.180  1.00  0.00     0.000 C 
ENDROOT
BRANCH   1   2
ATOM      2  C   UNL     1      -6.566  -5.493   4.022  1.00  0.00     0.000 C 
BRANCH   2   3
ATOM      3  C   UNL     1      -8.105  -5.490   4.076  1.00  0.00     0.000 C 
BRANCH   3   4
ATOM      4  C   UNL     1      -8.711  -4.102   3.809  1.00  0.00     0.000 C 
BRANCH   4   5
ATOM      5  C   UNL     1      -7.882  -2.957   4.419  1.00  0.00     0.000 C 
BRANCH   5   6
ATOM      6  C   UNL     1      -7.705  -1.721   3.516  1.00  0.00     0.006 C 
BRANCH   6   7
ATOM      7  C   UNL     1      -6.410  -1.758   2.695  1.00  0.00     0.053 C 
BRANCH   7   8
ATOM      8  C   UNL     1      -6.712  -2.045   1.257  1.00  0.00     0.041 C 
ATOM      9  O   UNL     1      -7.906  -2.164   0.872  1.00  0.00    -0.550 OA
ATOM     10  O   UNL     1      -5.677  -2.138   0.334  1.00  0.00    -0.550 OA
ENDBRANCH   7   8
ENDBRANCH   6   7
ENDBRANCH   5   6
ENDBRANCH   4   5
ENDBRANCH   3   4
ENDBRANCH   2   3
ENDBRANCH   1   2
BRANCH   1  11
ATOM     11  C   UNL     1      -6.746  -7.329   5.805  1.00  0.00     0.000 C 
BRANCH  11  12
ATOM     12  C   UNL     1      -6.031  -8.688   5.770  1.00  0.00     0.000 C 
BRANCH  12  13
ATOM     13  C   UNL     1      -6.323  -9.486   4.485  1.00  0.00     0.000 C 
BRANCH  13  14
ATOM     14  C   UNL     1      -5.242  -9.380   3.393  1.00  0.00     0.000 C 
BRANCH  14  15
ATOM     15  C   UNL     1      -5.593  -8.458   2.210  1.00  0.00     0.000 C 
BRANCH  15  16
ATOM     16  C   UNL     1      -6.877  -8.867   1.457  1.00  0.00     0.006 C 
BRANCH  16  17
ATOM     17  C   UNL     1      -7.802  -7.675   1.175  1.00  0.00     0.053 C 
BRANCH  17  18
ATOM     18  C   UNL     1      -7.200  -6.782   0.137  1.00  0.00     0.041 C 
ATOM     19  O   UNL     1      -6.878  -7.245  -0.989  1.00  0.00    -0.550 OA
ATOM     20  O   UNL     1      -7.037  -5.426   0.395  1.00  0.00    -0.550 OA
ENDBRANCH  17  18
ENDBRANCH  16  17
ENDBRANCH  15  16
ENDBRANCH  14  15
ENDBRANCH  13  14
ENDBRANCH  12  13
ENDBRANCH  11  12
ENDBRANCH   1  11
TORSDOF 15
ENDMDL
