MODEL 1
REMARK VINA RESULT:    -4.491      0.000      0.000
REMARK INTER + INTRA:          -6.563
REMARK INTER:                  -6.066
REMARK INTRA:                  -0.496
REMARK UNBOUND:                -0.496
REMARK SMILES O=C[C@H](O)[C@H](O)[C@@H](O)CO
REMARK SMILES IDX 7 1 9 2 10 3 5 5 3 6 2 7 1 8 4 9 6 11 8 13
REMARK H PARENT 10 4 4 10 6 12 8 14
REMARK Flexibility Score: inf
ROOT
ATOM      1  C   UNL     1     -16.574  35.627 -21.849  1.00  0.00     0.171 C 
ENDROOT
BRANCH   1   2
ATOM      2  C   UNL     1     -16.764  36.159 -20.414  1.00  0.00     0.190 C 
BRANCH   2   3
ATOM      3  O   UNL     1     -17.232  35.141 -19.570  1.00  0.00    -0.394 OA
ATOM      4  H   UNL     1     -17.361  34.338 -20.138  1.00  0.00     0.210 HD
ENDBRANCH   2   3
ENDBRANCH   1   2
BRANCH   1   5
ATOM      5  C   UNL     1     -17.905  35.189 -22.527  1.00  0.00     0.181 C 
BRANCH   5   6
ATOM      6  C   UNL     1     -17.781  33.868 -23.333  1.00  0.00     0.209 C 
BRANCH   6   7
ATOM      7  C   UNL     1     -17.734  32.675 -22.414  1.00  0.00     0.258 C 
ATOM      8  O   UNL     1     -18.243  32.724 -21.306  1.00  0.00    -0.300 OA
ENDBRANCH   6   7
BRANCH   6   9
ATOM      9  O   UNL     1     -16.611  33.885 -24.109  1.00  0.00    -0.383 OA
ATOM     10  H   UNL     1     -16.808  34.435 -24.912  1.00  0.00     0.211 HD
ENDBRANCH   6   9
ENDBRANCH   5   6
BRANCH   5  11
ATOM     11  O   UNL     1     -18.367  36.227 -23.358  1.00  0.00    -0.387 OA
ATOM     12  H   UNL     1     -19.272  36.485 -23.040  1.00  0.00     0.211 HD
ENDBRANCH   5  11
ENDBRANCH   1   5
BRANCH   1  13
ATOM     13  O   UNL     1     -15.933  36.599 -22.638  1.00  0.00    -0.388 OA
ATOM     14  H   UNL     1     -14.990  36.311 -22.759  1.00  0.00     0.211 HD
ENDBRANCH   1  13
TORSDOF 8
ENDMDL
MODEL 2
REMARK VINA RESULT:    -4.458      1.216      2.007
REMARK INTER + INTRA:          -6.518
REMARK INTER:                  -5.752
REMARK INTRA:                  -0.766
REMARK UNBOUND:                -0.496
REMARK SMILES O=C[C@H](O)[C@H](O)[C@@H](O)CO
REMARK SMILES IDX 7 1 9 2 10 3 5 5 3 6 2 7 1 8 4 9 6 11 8 13
REMARK H PARENT 10 4 4 10 6 12 8 14
REMARK Flexibility Score: inf
ROOT
ATOM      1  C   UNL     1     -16.435  35.480 -21.823  1.00  0.00     0.171 C 
ENDROOT
BRANCH   1   2
ATOM      2  C   UNL     1     -17.003  36.203 -20.584  1.00  0.00     0.190 C 
BRANCH   2   3
ATOM      3  O   UNL     1     -17.152  35.306 -19.516  1.00  0.00    -0.394 OA
ATOM      4  H   UNL     1     -18.120  35.278 -19.301  1.00  0.00     0.210 HD
ENDBRANCH   2   3
ENDBRANCH   1   2
BRANCH   1   5
ATOM      5  C   UNL     1     -17.476  34.571 -22.539  1.00  0.00     0.181 C 
BRANCH   5   6
ATOM      6  C   UNL     1     -18.842  35.268 -22.779  1.00  0.00     0.209 C 
BRANCH   6   7
ATOM      7  C   UNL     1     -19.889  34.277 -23.215  1.00  0.00     0.258 C 
ATOM      8  O   UNL     1     -20.510  33.627 -22.389  1.00  0.00    -0.300 OA
ENDBRANCH   6   7
BRANCH   6   9
ATOM      9  O   UNL     1     -18.713  36.253 -23.772  1.00  0.00    -0.383 OA
ATOM     10  H   UNL     1     -18.852  35.800 -24.645  1.00  0.00     0.211 HD
ENDBRANCH   6   9
ENDBRANCH   5   6
BRANCH   5  11
ATOM     11  O   UNL     1     -17.654  33.391 -21.793  1.00  0.00    -0.387 OA
ATOM     12  H   UNL     1     -18.618  33.326 -21.561  1.00  0.00     0.211 HD
ENDBRANCH   5  11
ENDBRANCH   1   5
BRANCH   1  13
ATOM     13  O   UNL     1     -15.918  36.421 -22.730  1.00  0.00    -0.388 OA
ATOM     14  H   UNL     1     -14.978  36.606 -22.466  1.00  0.00     0.211 HD
ENDBRANCH   1  13
TORSDOF 8
ENDMDL
MODEL 3
REMARK VINA RESULT:    -4.333      1.354      3.495
REMARK INTER + INTRA:          -6.350
REMARK INTER:                  -5.841
REMARK INTRA:                  -0.508
REMARK UNBOUND:                -0.496
REMARK SMILES O=C[C@H](O)[C@H](O)[C@@H](O)CO
REMARK SMILES IDX 7 1 9 2 10 3 5 5 3 6 2 7 1 8 4 9 6 11 8 13
REMARK H PARENT 10 4 4 10 6 12 8 14
REMARK Flexibility Score: inf
ROOT
ATOM      1  C   UNL     1     -18.586  34.915 -22.937  1.00  0.00     0.171 C 
ENDROOT
BRANCH   1   2
ATOM      2  C   UNL     1     -19.532  33.739 -23.256  1.00  0.00     0.190 C 
BRANCH   2   3
ATOM      3  O   UNL     1     -19.161  33.122 -24.459  1.00  0.00    -0.394 OA
ATOM      4  H   UNL     1     -18.834  32.215 -24.225  1.00  0.00     0.210 HD
ENDBRANCH   2   3
ENDBRANCH   1   2
BRANCH   1   5
ATOM      5  C   UNL     1     -17.104  34.481 -22.739  1.00  0.00     0.181 C 
BRANCH   5   6
ATOM      6  C   UNL     1     -16.245  35.540 -21.997  1.00  0.00     0.209 C 
BRANCH   6   7
ATOM      7  C   UNL     1     -17.042  36.226 -20.919  1.00  0.00     0.258 C 
ATOM      8  O   UNL     1     -17.069  35.775 -19.784  1.00  0.00    -0.300 OA
ENDBRANCH   6   7
BRANCH   6   9
ATOM      9  O   UNL     1     -15.785  36.509 -22.902  1.00  0.00    -0.383 OA
ATOM     10  H   UNL     1     -15.883  36.122 -23.811  1.00  0.00     0.211 HD
ENDBRANCH   6   9
ENDBRANCH   5   6
BRANCH   5  11
ATOM     11  O   UNL     1     -16.536  34.182 -23.992  1.00  0.00    -0.387 OA
ATOM     12  H   UNL     1     -17.253  34.276 -24.674  1.00  0.00     0.211 HD
ENDBRANCH   5  11
ENDBRANCH   1   5
BRANCH   1  13
ATOM     13  O   UNL     1     -18.669  35.884 -23.953  1.00  0.00    -0.388 OA
ATOM     14  H   UNL     1     -17.762  35.983 -24.346  1.00  0.00     0.211 HD
ENDBRANCH   1  13
TORSDOF 8
ENDMDL
MODEL 4
REMARK VINA RESULT:    -4.275     13.315     14.024
REMARK INTER + INTRA:          -6.270
REMARK INTER:                  -5.593
REMARK INTRA:                  -0.678
REMARK UNBOUND:                -0.496
REMARK SMILES O=C[C@H](O)[C@H](O)[C@@H](O)CO
REMARK SMILES IDX 7 1 9 2 10 3 5 5 3 6 2 7 1 8 4 9 6 11 8 13
REMARK H PARENT 10 4 4 10 6 12 8 14
REMARK Flexibility Score: inf
ROOT
ATOM      1  C   UNL     1      -5.388  35.484 -14.337  1.00  0.00     0.171 C 
ENDROOT
BRANCH   1   2
ATOM      2  C   UNL     1      -5.145  36.709 -15.242  1.00  0.00     0.190 C 
BRANCH   2   3
ATOM      3  O   UNL     1      -6.336  37.101 -15.869  1.00  0.00    -0.394 OA
ATOM      4  H   UNL     1      -6.919  37.482 -15.161  1.00  0.00     0.210 HD
ENDBRANCH   2   3
ENDBRANCH   1   2
BRANCH   1   5
ATOM      5  C   UNL     1      -6.469  35.728 -13.242  1.00  0.00     0.181 C 
BRANCH   5   6
ATOM      6  C   UNL     1      -6.540  34.596 -12.183  1.00  0.00     0.209 C 
BRANCH   6   7
ATOM      7  C   UNL     1      -7.697  33.672 -12.453  1.00  0.00     0.258 C 
ATOM      8  O   UNL     1      -7.679  32.917 -13.413  1.00  0.00    -0.300 OA
ENDBRANCH   6   7
BRANCH   6   9
ATOM      9  O   UNL     1      -6.692  35.145 -10.899  1.00  0.00    -0.383 OA
ATOM     10  H   UNL     1      -7.450  35.784 -10.949  1.00  0.00     0.211 HD
ENDBRANCH   6   9
ENDBRANCH   5   6
BRANCH   5  11
ATOM     11  O   UNL     1      -7.723  35.901 -13.858  1.00  0.00    -0.387 OA
ATOM     12  H   UNL     1      -7.743  36.817 -14.242  1.00  0.00     0.211 HD
ENDBRANCH   5  11
ENDBRANCH   1   5
BRANCH   1  13
ATOM     13  O   UNL     1      -5.745  34.373 -15.122  1.00  0.00    -0.388 OA
ATOM     14  H   UNL     1      -5.765  33.579 -14.525  1.00  0.00     0.211 HD
ENDBRANCH   1  13
TORSDOF 8
ENDMDL
MODEL 5
REMARK VINA RESULT:    -4.261      1.777      2.717
REMARK INTER + INTRA:          -6.252
REMARK INTER:                  -5.548
REMARK INTRA:                  -0.703
REMARK UNBOUND:                -0.496
REMARK SMILES O=C[C@H](O)[C@H](O)[C@@H](O)CO
REMARK SMILES IDX 7 1 9 2 10 3 5 5 3 6 2 7 1 8 4 9 6 11 8 13
REMARK H PARENT 10 4 4 10 6 12 8 14
REMARK Flexibility Score: inf
ROOT
ATOM      1  C   UNL     1     -17.060  34.458 -22.813  1.00  0.00     0.171 C 
ENDROOT
BRANCH   1   2
ATOM      2  C   UNL     1     -16.225  35.503 -22.045  1.00  0.00     0.190 C 
BRANCH   2   3
ATOM      3  O   UNL     1     -15.605  36.390 -22.937  1.00  0.00    -0.394 OA
ATOM      4  H   UNL     1     -16.060  37.266 -22.828  1.00  0.00     0.210 HD
ENDBRANCH   2   3
ENDBRANCH   1   2
BRANCH   1   5
ATOM      5  C   UNL     1     -18.525  34.912 -23.079  1.00  0.00     0.181 C 
BRANCH   5   6
ATOM      6  C   UNL     1     -19.305  33.956 -24.022  1.00  0.00     0.209 C 
BRANCH   6   7
ATOM      7  C   UNL     1     -20.790  34.172 -23.906  1.00  0.00     0.258 C 
ATOM      8  O   UNL     1     -21.232  35.171 -23.360  1.00  0.00    -0.300 OA
ENDBRANCH   6   7
BRANCH   6   9
ATOM      9  O   UNL     1     -19.017  32.620 -23.700  1.00  0.00    -0.383 OA
ATOM     10  H   UNL     1     -18.527  32.238 -24.474  1.00  0.00     0.211 HD
ENDBRANCH   6   9
ENDBRANCH   5   6
BRANCH   5  11
ATOM     11  O   UNL     1     -18.519  36.218 -23.603  1.00  0.00    -0.387 OA
ATOM     12  H   UNL     1     -17.814  36.256 -24.303  1.00  0.00     0.211 HD
ENDBRANCH   5  11
ENDBRANCH   1   5
BRANCH   1  13
ATOM     13  O   UNL     1     -16.428  34.143 -24.029  1.00  0.00    -0.388 OA
ATOM     14  H   UNL     1     -16.426  33.153 -24.117  1.00  0.00     0.211 HD
ENDBRANCH   1  13
TORSDOF 8
ENDMDL
MODEL 6
REMARK VINA RESULT:    -4.216      2.129      3.465
REMARK INTER + INTRA:          -6.191
REMARK INTER:                  -5.272
REMARK INTRA:                  -0.919
REMARK UNBOUND:                -0.496
REMARK SMILES O=C[C@H](O)[C@H](O)[C@@H](O)CO
REMARK SMILES IDX 7 1 9 2 10 3 5 5 3 6 2 7 1 8 4 9 6 11 8 13
REMARK H PARENT 10 4 4 10 6 12 8 14
REMARK Flexibility Score: inf
ROOT
ATOM      1  C   UNL     1     -18.277  34.709 -22.153  1.00  0.00     0.171 C 
ENDROOT
BRANCH   1   2
ATOM      2  C   UNL     1     -16.878  34.765 -22.800  1.00  0.00     0.190 C 
BRANCH   2   3
ATOM      3  O   UNL     1     -16.856  34.019 -23.988  1.00  0.00    -0.394 OA
ATOM      4  H   UNL     1     -17.722  33.536 -24.037  1.00  0.00     0.210 HD
ENDBRANCH   2   3
ENDBRANCH   1   2
BRANCH   1   5
ATOM      5  C   UNL     1     -19.367  35.466 -22.967  1.00  0.00     0.181 C 
BRANCH   5   6
ATOM      6  C   UNL     1     -20.583  34.578 -23.345  1.00  0.00     0.209 C 
BRANCH   6   7
ATOM      7  C   UNL     1     -20.397  33.952 -24.702  1.00  0.00     0.258 C 
ATOM      8  O   UNL     1     -19.570  33.070 -24.871  1.00  0.00    -0.300 OA
ENDBRANCH   6   7
BRANCH   6   9
ATOM      9  O   UNL     1     -21.756  35.348 -23.360  1.00  0.00    -0.383 OA
ATOM     10  H   UNL     1     -22.090  35.344 -24.296  1.00  0.00     0.211 HD
ENDBRANCH   6   9
ENDBRANCH   5   6
BRANCH   5  11
ATOM     11  O   UNL     1     -18.783  36.015 -24.125  1.00  0.00    -0.387 OA
ATOM     12  H   UNL     1     -19.441  35.921 -24.864  1.00  0.00     0.211 HD
ENDBRANCH   5  11
ENDBRANCH   1   5
BRANCH   1  13
ATOM     13  O   UNL     1     -18.664  33.370 -21.966  1.00  0.00    -0.388 OA
ATOM     14  H   UNL     1     -19.287  33.343 -21.193  1.00  0.00     0.211 HD
ENDBRANCH   1  13
TORSDOF 8
ENDMDL
MODEL 7
REMARK VINA RESULT:    -4.214      1.537      3.809
REMARK INTER + INTRA:          -6.188
REMARK INTER:                  -5.673
REMARK INTRA:                  -0.516
REMARK UNBOUND:                -0.496
REMARK SMILES O=C[C@H](O)[C@H](O)[C@@H](O)CO
REMARK SMILES IDX 7 1 9 2 10 3 5 5 3 6 2 7 1 8 4 9 6 11 8 13
REMARK H PARENT 10 4 4 10 6 12 8 14
REMARK Flexibility Score: inf
ROOT
ATOM      1  C   UNL     1     -19.121  35.456 -22.710  1.00  0.00     0.171 C 
ENDROOT
BRANCH   1   2
ATOM      2  C   UNL     1     -20.246  34.569 -23.280  1.00  0.00     0.190 C 
BRANCH   2   3
ATOM      3  O   UNL     1     -21.378  35.341 -23.577  1.00  0.00    -0.394 OA
ATOM      4  H   UNL     1     -21.369  36.112 -22.952  1.00  0.00     0.210 HD
ENDBRANCH   2   3
ENDBRANCH   1   2
BRANCH   1   5
ATOM      5  C   UNL     1     -18.131  34.683 -21.789  1.00  0.00     0.181 C 
BRANCH   5   6
ATOM      6  C   UNL     1     -17.249  35.614 -20.914  1.00  0.00     0.209 C 
BRANCH   6   7
ATOM      7  C   UNL     1     -15.835  35.665 -21.429  1.00  0.00     0.258 C 
ATOM      8  O   UNL     1     -15.583  36.202 -22.496  1.00  0.00    -0.300 OA
ENDBRANCH   6   7
BRANCH   6   9
ATOM      9  O   UNL     1     -17.229  35.152 -19.588  1.00  0.00    -0.383 OA
ATOM     10  H   UNL     1     -17.768  35.791 -19.053  1.00  0.00     0.211 HD
ENDBRANCH   6   9
ENDBRANCH   5   6
BRANCH   5  11
ATOM     11  O   UNL     1     -17.322  33.843 -22.578  1.00  0.00    -0.387 OA
ATOM     12  H   UNL     1     -17.852  33.029 -22.787  1.00  0.00     0.211 HD
ENDBRANCH   5  11
ENDBRANCH   1   5
BRANCH   1  13
ATOM     13  O   UNL     1     -18.416  36.069 -23.761  1.00  0.00    -0.388 OA
ATOM     14  H   UNL     1     -18.028  36.913 -23.409  1.00  0.00     0.211 HD
ENDBRANCH   1  13
TORSDOF 8
ENDMDL
MODEL 8
REMARK VINA RESULT:    -4.197      1.880      2.808
REMARK INTER + INTRA:          -6.166
REMARK INTER:                  -5.687
REMARK INTRA:                  -0.478
REMARK UNBOUND:                -0.496
REMARK SMILES O=C[C@H](O)[C@H](O)[C@@H](O)CO
REMARK SMILES IDX 7 1 9 2 10 3 5 5 3 6 2 7 1 8 4 9 6 11 8 13
REMARK H PARENT 10 4 4 10 6 12 8 14
REMARK Flexibility Score: inf
ROOT
ATOM      1  C   UNL     1     -18.789  35.572 -22.561  1.00  0.00     0.171 C 
ENDROOT
BRANCH   1   2
ATOM      2  C   UNL     1     -20.206  35.543 -23.169  1.00  0.00     0.190 C 
BRANCH   2   3
ATOM      3  O   UNL     1     -20.696  36.846 -23.339  1.00  0.00    -0.394 OA
ATOM      4  H   UNL     1     -21.686  36.780 -23.335  1.00  0.00     0.210 HD
ENDBRANCH   2   3
ENDBRANCH   1   2
BRANCH   1   5
ATOM      5  C   UNL     1     -18.167  34.157 -22.374  1.00  0.00     0.181 C 
BRANCH   5   6
ATOM      6  C   UNL     1     -17.605  33.552 -23.688  1.00  0.00     0.209 C 
BRANCH   6   7
ATOM      7  C   UNL     1     -17.374  32.071 -23.549  1.00  0.00     0.258 C 
ATOM      8  O   UNL     1     -16.775  31.624 -22.583  1.00  0.00    -0.300 OA
ENDBRANCH   6   7
BRANCH   6   9
ATOM      9  O   UNL     1     -16.387  34.168 -24.021  1.00  0.00    -0.383 OA
ATOM     10  H   UNL     1     -16.149  34.762 -23.262  1.00  0.00     0.211 HD
ENDBRANCH   6   9
ENDBRANCH   5   6
BRANCH   5  11
ATOM     11  O   UNL     1     -19.129  33.298 -21.812  1.00  0.00    -0.387 OA
ATOM     12  H   UNL     1     -18.652  32.667 -21.211  1.00  0.00     0.211 HD
ENDBRANCH   5  11
ENDBRANCH   1   5
BRANCH   1  13
ATOM     13  O   UNL     1     -17.943  36.365 -23.358  1.00  0.00    -0.388 OA
ATOM     14  H   UNL     1     -18.110  37.315 -23.119  1.00  0.00     0.211 HD
ENDBRANCH   1  13
TORSDOF 8
ENDMDL
MODEL 9
REMARK VINA RESULT:    -4.187      0.804      2.418
REMARK INTER + INTRA:          -6.152
REMARK INTER:                  -5.389
REMARK INTRA:                  -0.764
REMARK UNBOUND:                -0.496
REMARK SMILES O=C[C@H](O)[C@H](O)[C@@H](O)CO
REMARK SMILES IDX 7 1 9 2 10 3 5 5 3 6 2 7 1 8 4 9 6 11 8 13
REMARK H PARENT 10 4 4 10 6 12 8 14
REMARK Flexibility Score: inf
ROOT
ATOM      1  C   UNL     1     -16.982  36.055 -20.939  1.00  0.00     0.171 C 
ENDROOT
BRANCH   1   2
ATOM      2  C   UNL     1     -15.559  35.743 -21.443  1.00  0.00     0.190 C 
BRANCH   2   3
ATOM      3  O   UNL     1     -15.365  36.271 -22.728  1.00  0.00    -0.394 OA
ATOM      4  H   UNL     1     -16.201  36.101 -23.235  1.00  0.00     0.210 HD
ENDBRANCH   2   3
ENDBRANCH   1   2
BRANCH   1   5
ATOM      5  C   UNL     1     -18.103  35.502 -21.869  1.00  0.00     0.181 C 
BRANCH   5   6
ATOM      6  C   UNL     1     -18.026  33.966 -22.079  1.00  0.00     0.209 C 
BRANCH   6   7
ATOM      7  C   UNL     1     -17.718  33.630 -23.515  1.00  0.00     0.258 C 
ATOM      8  O   UNL     1     -16.594  33.790 -23.963  1.00  0.00    -0.300 OA
ENDBRANCH   6   7
BRANCH   6   9
ATOM      9  O   UNL     1     -19.247  33.369 -21.729  1.00  0.00    -0.383 OA
ATOM     10  H   UNL     1     -19.965  33.960 -22.076  1.00  0.00     0.211 HD
ENDBRANCH   6   9
ENDBRANCH   5   6
BRANCH   5  11
ATOM     11  O   UNL     1     -18.050  36.169 -23.107  1.00  0.00    -0.387 OA
ATOM     12  H   UNL     1     -17.959  37.140 -22.919  1.00  0.00     0.211 HD
ENDBRANCH   5  11
ENDBRANCH   1   5
BRANCH   1  13
ATOM     13  O   UNL     1     -17.149  35.552 -19.637  1.00  0.00    -0.388 OA
ATOM     14  H   UNL     1     -17.906  36.043 -19.221  1.00  0.00     0.211 HD
ENDBRANCH   1  13
TORSDOF 8
ENDMDL
