MODEL 1
REMARK VINA RESULT:    -5.975      0.000      0.000
REMARK INTER + INTRA:         -12.799
REMARK INTER:                 -11.215
REMARK INTRA:                  -1.584
REMARK UNBOUND:                -1.584
REMARK SMILES O=C([O-])CCCCCCCCCCCCCCC(=O)[O-]
REMARK SMILES IDX 10 1 9 2 8 3 7 4 6 5 5 6 4 7 2 8 1 9 3 10 11 11 12 12 13 13
REMARK SMILES IDX 14 14 15 15 16 16 17 17 18 18 19 19 20 20
REMARK H PARENT
REMARK Flexibility Score: inf
ROOT
ATOM      1  C   UNL     1      -6.906 -13.517  -5.122  1.00  0.00     0.000 C 
ENDROOT
BRANCH   1   2
ATOM      2  C   UNL     1      -6.908 -12.985  -3.682  1.00  0.00     0.000 C 
BRANCH   2   3
ATOM      3  C   UNL     1      -6.273 -13.996  -2.720  1.00  0.00     0.000 C 
BRANCH   3   4
ATOM      4  C   UNL     1      -6.907 -15.385  -2.886  1.00  0.00     0.000 C 
BRANCH   4   5
ATOM      5  C   UNL     1      -5.898 -16.526  -2.685  1.00  0.00     0.000 C 
BRANCH   5   6
ATOM      6  C   UNL     1      -4.658 -16.088  -1.887  1.00  0.00     0.006 C 
BRANCH   6   7
ATOM      7  C   UNL     1      -4.279 -17.104  -0.802  1.00  0.00     0.053 C 
BRANCH   7   8
ATOM      8  C   UNL     1      -2.798 -17.333  -0.746  1.00  0.00     0.041 C 
ATOM      9  O   UNL     1      -2.255 -17.701   0.329  1.00  0.00    -0.550 OA
ATOM     10  O   UNL     1      -2.024 -17.168  -1.887  1.00  0.00    -0.550 OA
ENDBRANCH   7   8
ENDBRANCH   6   7
ENDBRANCH   5   6
ENDBRANCH   4   5
ENDBRANCH   3   4
ENDBRANCH   2   3
ENDBRANCH   1   2
BRANCH   1  11
ATOM     11  C   UNL     1      -8.337 -13.627  -5.669  1.00  0.00     0.000 C 
BRANCH  11  12
ATOM     12  C   UNL     1      -8.706 -15.063  -6.075  1.00  0.00     0.000 C 
BRANCH  12  13
ATOM     13  C   UNL     1      -7.592 -15.751  -6.887  1.00  0.00     0.000 C 
BRANCH  13  14
ATOM     14  C   UNL     1      -7.189 -17.110  -6.294  1.00  0.00     0.000 C 
BRANCH  14  15
ATOM     15  C   UNL     1      -8.243 -17.665  -5.320  1.00  0.00     0.000 C 
BRANCH  15  16
ATOM     16  C   UNL     1      -8.998 -18.873  -5.894  1.00  0.00     0.006 C 
BRANCH  16  17
ATOM     17  C   UNL     1      -9.298 -18.724  -7.392  1.00  0.00     0.053 C 
BRANCH  17  18
ATOM     18  C   UNL     1     -10.658 -18.137  -7.597  1.00  0.00     0.041 C 
ATOM     19  O   UNL     1     -11.050 -17.835  -8.755  1.00  0.00    -0.550 OA
ATOM     20  O   UNL     1     -11.476 -17.879  -6.504  1.00  0.00    -0.550 OA
ENDBRANCH  17  18
ENDBRANCH  16  17
ENDBRANCH  15  16
ENDBRANCH  14  15
ENDBRANCH  13  14
ENDBRANCH  12  13
ENDBRANCH  11  12
ENDBRANCH   1  11
TORSDOF 15
ENDMDL
MODEL 2
REMARK VINA RESULT:    -5.934      1.631      2.898
REMARK INTER + INTRA:         -12.720
REMARK INTER:                 -11.100
REMARK INTRA:                  -1.620
REMARK UNBOUND:                -1.584
REMARK SMILES O=C([O-])CCCCCCCCCCCCCCC(=O)[O-]
REMARK SMILES IDX 10 1 9 2 8 3 7 4 6 5 5 6 4 7 2 8 1 9 3 10 11 11 12 12 13 13
REMARK SMILES IDX 14 14 15 15 16 16 17 17 18 18 19 19 20 20
REMARK H PARENT
REMARK Flexibility Score: inf
ROOT
ATOM      1  C   UNL     1      -6.163 -13.967  -2.557  1.00  0.00     0.000 C 
ENDROOT
BRANCH   1   2
ATOM      2  C   UNL     1      -6.625 -15.430  -2.597  1.00  0.00     0.000 C 
BRANCH   2   3
ATOM      3  C   UNL     1      -5.441 -16.375  -2.837  1.00  0.00     0.000 C 
BRANCH   3   4
ATOM      4  C   UNL     1      -4.577 -16.504  -1.574  1.00  0.00     0.000 C 
BRANCH   4   5
ATOM      5  C   UNL     1      -3.127 -16.048  -1.797  1.00  0.00     0.000 C 
BRANCH   5   6
ATOM      6  C   UNL     1      -2.121 -17.210  -1.714  1.00  0.00     0.006 C 
BRANCH   6   7
ATOM      7  C   UNL     1      -2.127 -17.884  -0.336  1.00  0.00     0.053 C 
BRANCH   7   8
ATOM      8  C   UNL     1      -1.458 -17.035   0.702  1.00  0.00     0.041 C 
ATOM      9  O   UNL     1      -2.000 -16.865   1.826  1.00  0.00    -0.550 OA
ATOM     10  O   UNL     1      -0.223 -16.457   0.439  1.00  0.00    -0.550 OA
ENDBRANCH   7   8
ENDBRANCH   6   7
ENDBRANCH   5   6
ENDBRANCH   4   5
ENDBRANCH   3   4
ENDBRANCH   2   3
ENDBRANCH   1   2
BRANCH   1  11
ATOM     11  C   UNL     1      -7.062 -13.083  -3.434  1.00  0.00     0.000 C 
BRANCH  11  12
ATOM     12  C   UNL     1      -6.444 -12.795  -4.812  1.00  0.00     0.000 C 
BRANCH  12  13
ATOM     13  C   UNL     1      -7.137 -13.574  -5.944  1.00  0.00     0.000 C 
BRANCH  13  14
ATOM     14  C   UNL     1      -8.630 -13.813  -5.665  1.00  0.00     0.000 C 
BRANCH  14  15
ATOM     15  C   UNL     1      -8.997 -15.307  -5.662  1.00  0.00     0.000 C 
BRANCH  15  16
ATOM     16  C   UNL     1      -8.108 -16.136  -6.602  1.00  0.00     0.006 C 
BRANCH  16  17
ATOM     17  C   UNL     1      -7.432 -17.314  -5.887  1.00  0.00     0.053 C 
BRANCH  17  18
ATOM     18  C   UNL     1      -8.450 -18.145  -5.172  1.00  0.00     0.041 C 
ATOM     19  O   UNL     1      -9.362 -18.725  -5.818  1.00  0.00    -0.550 OA
ATOM     20  O   UNL     1      -8.421 -18.240  -3.786  1.00  0.00    -0.550 OA
ENDBRANCH  17  18
ENDBRANCH  16  17
ENDBRANCH  15  16
ENDBRANCH  14  15
ENDBRANCH  13  14
ENDBRANCH  12  13
ENDBRANCH  11  12
ENDBRANCH   1  11
TORSDOF 15
ENDMDL
MODEL 3
REMARK VINA RESULT:    -5.894      2.157      4.079
REMARK INTER + INTRA:         -12.646
REMARK INTER:                 -11.474
REMARK INTRA:                  -1.172
REMARK UNBOUND:                -1.584
REMARK SMILES O=C([O-])CCCCCCCCCCCCCCC(=O)[O-]
REMARK SMILES IDX 10 1 9 2 8 3 7 4 6 5 5 6 4 7 2 8 1 9 3 10 11 11 12 12 13 13
REMARK SMILES IDX 14 14 15 15 16 16 17 17 18 18 19 19 20 20
REMARK H PARENT
REMARK Flexibility Score: inf
ROOT
ATOM      1  C   UNL     1      -5.667 -16.365  -2.634  1.00  0.00     0.000 C 
ENDROOT
BRANCH   1   2
ATOM      2  C   UNL     1      -4.555 -15.770  -1.758  1.00  0.00     0.000 C 
BRANCH   2   3
ATOM      3  C   UNL     1      -3.742 -16.876  -1.075  1.00  0.00     0.000 C 
BRANCH   3   4
ATOM      4  C   UNL     1      -2.275 -16.838  -1.528  1.00  0.00     0.000 C 
BRANCH   4   5
ATOM      5  C   UNL     1      -1.558 -18.184  -1.336  1.00  0.00     0.000 C 
BRANCH   5   6
ATOM      6  C   UNL     1      -1.072 -18.395   0.108  1.00  0.00     0.006 C 
BRANCH   6   7
ATOM      7  C   UNL     1      -0.502 -17.110   0.722  1.00  0.00     0.053 C 
BRANCH   7   8
ATOM      8  C   UNL     1      -0.956 -16.919   2.137  1.00  0.00     0.041 C 
ATOM      9  O   UNL     1      -0.781 -17.831   2.988  1.00  0.00    -0.550 OA
ATOM     10  O   UNL     1      -1.547 -15.722   2.523  1.00  0.00    -0.550 OA
ENDBRANCH   7   8
ENDBRANCH   6   7
ENDBRANCH   5   6
ENDBRANCH   4   5
ENDBRANCH   3   4
ENDBRANCH   2   3
ENDBRANCH   1   2
BRANCH   1  11
ATOM     11  C   UNL     1      -6.859 -15.402  -2.737  1.00  0.00     0.000 C 
BRANCH  11  12
ATOM     12  C   UNL     1      -6.436 -13.927  -2.661  1.00  0.00     0.000 C 
BRANCH  12  13
ATOM     13  C   UNL     1      -6.791 -13.145  -3.940  1.00  0.00     0.000 C 
BRANCH  13  14
ATOM     14  C   UNL     1      -7.006 -14.067  -5.151  1.00  0.00     0.000 C 
BRANCH  14  15
ATOM     15  C   UNL     1      -8.459 -14.044  -5.658  1.00  0.00     0.000 C 
BRANCH  15  16
ATOM     16  C   UNL     1      -9.105 -15.437  -5.658  1.00  0.00     0.006 C 
BRANCH  16  17
ATOM     17  C   UNL     1      -8.280 -16.470  -6.439  1.00  0.00     0.053 C 
BRANCH  17  18
ATOM     18  C   UNL     1      -7.823 -17.567  -5.531  1.00  0.00     0.041 C 
ATOM     19  O   UNL     1      -8.531 -17.914  -4.549  1.00  0.00    -0.550 OA
ATOM     20  O   UNL     1      -6.591 -18.175  -5.741  1.00  0.00    -0.550 OA
ENDBRANCH  17  18
ENDBRANCH  16  17
ENDBRANCH  15  16
ENDBRANCH  14  15
ENDBRANCH  13  14
ENDBRANCH  12  13
ENDBRANCH  11  12
ENDBRANCH   1  11
TORSDOF 15
ENDMDL
MODEL 4
REMARK VINA RESULT:    -5.874      0.836      7.654
REMARK INTER + INTRA:         -12.608
REMARK INTER:                 -11.246
REMARK INTRA:                  -1.362
REMARK UNBOUND:                -1.584
REMARK SMILES O=C([O-])CCCCCCCCCCCCCCC(=O)[O-]
REMARK SMILES IDX 10 1 9 2 8 3 7 4 6 5 5 6 4 7 2 8 1 9 3 10 11 11 12 12 13 13
REMARK SMILES IDX 14 14 15 15 16 16 17 17 18 18 19 19 20 20
REMARK H PARENT
REMARK Flexibility Score: inf
ROOT
ATOM      1  C   UNL     1      -6.811 -13.328  -5.008  1.00  0.00     0.000 C 
ENDROOT
BRANCH   1   2
ATOM      2  C   UNL     1      -8.202 -13.428  -5.649  1.00  0.00     0.000 C 
BRANCH   2   3
ATOM      3  C   UNL     1      -8.583 -14.890  -5.915  1.00  0.00     0.000 C 
BRANCH   3   4
ATOM      4  C   UNL     1      -7.427 -15.645  -6.587  1.00  0.00     0.000 C 
BRANCH   4   5
ATOM      5  C   UNL     1      -7.196 -17.038  -5.982  1.00  0.00     0.000 C 
BRANCH   5   6
ATOM      6  C   UNL     1      -7.681 -18.172  -6.901  1.00  0.00     0.006 C 
BRANCH   6   7
ATOM      7  C   UNL     1      -9.012 -18.771  -6.429  1.00  0.00     0.053 C 
BRANCH   7   8
ATOM      8  C   UNL     1     -10.180 -18.176  -7.157  1.00  0.00     0.041 C 
ATOM      9  O   UNL     1     -10.014 -17.627  -8.279  1.00  0.00    -0.550 OA
ATOM     10  O   UNL     1     -11.454 -18.253  -6.610  1.00  0.00    -0.550 OA
ENDBRANCH   7   8
ENDBRANCH   6   7
ENDBRANCH   5   6
ENDBRANCH   4   5
ENDBRANCH   3   4
ENDBRANCH   2   3
ENDBRANCH   1   2
BRANCH   1  11
ATOM     11  C   UNL     1      -6.919 -13.011  -3.510  1.00  0.00     0.000 C 
BRANCH  11  12
ATOM     12  C   UNL     1      -6.136 -14.005  -2.637  1.00  0.00     0.000 C 
BRANCH  12  13
ATOM     13  C   UNL     1      -6.654 -15.448  -2.777  1.00  0.00     0.000 C 
BRANCH  13  14
ATOM     14  C   UNL     1      -5.585 -16.493  -2.424  1.00  0.00     0.000 C 
BRANCH  14  15
ATOM     15  C   UNL     1      -4.405 -15.889  -1.642  1.00  0.00     0.000 C 
BRANCH  15  16
ATOM     16  C   UNL     1      -3.726 -16.909  -0.716  1.00  0.00     0.006 C 
BRANCH  16  17
ATOM     17  C   UNL     1      -2.200 -16.930  -0.879  1.00  0.00     0.053 C 
BRANCH  17  18
ATOM     18  C   UNL     1      -1.667 -18.305  -0.629  1.00  0.00     0.041 C 
ATOM     19  O   UNL     1      -1.485 -18.710   0.550  1.00  0.00    -0.550 OA
ATOM     20  O   UNL     1      -1.324 -19.123  -1.699  1.00  0.00    -0.550 OA
ENDBRANCH  17  18
ENDBRANCH  16  17
ENDBRANCH  15  16
ENDBRANCH  14  15
ENDBRANCH  13  14
ENDBRANCH  12  13
ENDBRANCH  11  12
ENDBRANCH   1  11
TORSDOF 15
ENDMDL
MODEL 5
REMARK VINA RESULT:    -5.826      1.834      7.395
REMARK INTER + INTRA:         -12.518
REMARK INTER:                 -11.183
REMARK INTRA:                  -1.336
REMARK UNBOUND:                -1.584
REMARK SMILES O=C([O-])CCCCCCCCCCCCCCC(=O)[O-]
REMARK SMILES IDX 10 1 9 2 8 3 7 4 6 5 5 6 4 7 2 8 1 9 3 10 11 11 12 12 13 13
REMARK SMILES IDX 14 14 15 15 16 16 17 17 18 18 19 19 20 20
REMARK H PARENT
REMARK Flexibility Score: inf
ROOT
ATOM      1  C   UNL     1      -6.870 -13.011  -3.633  1.00  0.00     0.000 C 
ENDROOT
BRANCH   1   2
ATOM      2  C   UNL     1      -6.952 -13.629  -5.035  1.00  0.00     0.000 C 
BRANCH   2   3
ATOM      3  C   UNL     1      -8.361 -13.481  -5.621  1.00  0.00     0.000 C 
BRANCH   3   4
ATOM      4  C   UNL     1      -8.837 -14.800  -6.247  1.00  0.00     0.000 C 
BRANCH   4   5
ATOM      5  C   UNL     1      -7.675 -15.685  -6.724  1.00  0.00     0.000 C 
BRANCH   5   6
ATOM      6  C   UNL     1      -8.155 -16.979  -7.403  1.00  0.00     0.006 C 
BRANCH   6   7
ATOM      7  C   UNL     1      -8.933 -17.885  -6.439  1.00  0.00     0.053 C 
BRANCH   7   8
ATOM      8  C   UNL     1      -8.053 -18.430  -5.354  1.00  0.00     0.041 C 
ATOM      9  O   UNL     1      -8.432 -18.394  -4.153  1.00  0.00    -0.550 OA
ATOM     10  O   UNL     1      -6.828 -19.002  -5.672  1.00  0.00    -0.550 OA
ENDBRANCH   7   8
ENDBRANCH   6   7
ENDBRANCH   5   6
ENDBRANCH   4   5
ENDBRANCH   3   4
ENDBRANCH   2   3
ENDBRANCH   1   2
BRANCH   1  11
ATOM     11  C   UNL     1      -6.203 -13.979  -2.644  1.00  0.00     0.000 C 
BRANCH  11  12
ATOM     12  C   UNL     1      -6.784 -15.399  -2.725  1.00  0.00     0.000 C 
BRANCH  12  13
ATOM     13  C   UNL     1      -5.693 -16.485  -2.695  1.00  0.00     0.000 C 
BRANCH  13  14
ATOM     14  C   UNL     1      -4.466 -16.064  -1.872  1.00  0.00     0.000 C 
BRANCH  14  15
ATOM     15  C   UNL     1      -4.095 -17.098  -0.794  1.00  0.00     0.000 C 
BRANCH  15  16
ATOM     16  C   UNL     1      -2.627 -17.538  -0.880  1.00  0.00     0.006 C 
BRANCH  16  17
ATOM     17  C   UNL     1      -1.781 -16.605  -1.757  1.00  0.00     0.053 C 
BRANCH  17  18
ATOM     18  C   UNL     1      -0.423 -16.414  -1.158  1.00  0.00     0.041 C 
ATOM     19  O   UNL     1      -0.277 -16.408   0.093  1.00  0.00    -0.550 OA
ATOM     20  O   UNL     1       0.675 -16.193  -1.980  1.00  0.00    -0.550 OA
ENDBRANCH  17  18
ENDBRANCH  16  17
ENDBRANCH  15  16
ENDBRANCH  14  15
ENDBRANCH  13  14
ENDBRANCH  12  13
ENDBRANCH  11  12
ENDBRANCH   1  11
TORSDOF 15
ENDMDL
MODEL 6
REMARK VINA RESULT:    -5.790      2.704      3.355
REMARK INTER + INTRA:         -12.450
REMARK INTER:                 -11.536
REMARK INTRA:                  -0.914
REMARK UNBOUND:                -1.584
REMARK SMILES O=C([O-])CCCCCCCCCCCCCCC(=O)[O-]
REMARK SMILES IDX 10 1 9 2 8 3 7 4 6 5 5 6 4 7 2 8 1 9 3 10 11 11 12 12 13 13
REMARK SMILES IDX 14 14 15 15 16 16 17 17 18 18 19 19 20 20
REMARK H PARENT
REMARK Flexibility Score: inf
ROOT
ATOM      1  C   UNL     1      -8.474 -13.540  -5.600  1.00  0.00     0.000 C 
ENDROOT
BRANCH   1   2
ATOM      2  C   UNL     1      -7.000 -13.665  -5.190  1.00  0.00     0.000 C 
BRANCH   2   3
ATOM      3  C   UNL     1      -6.751 -13.015  -3.824  1.00  0.00     0.000 C 
BRANCH   3   4
ATOM      4  C   UNL     1      -6.508 -14.080  -2.745  1.00  0.00     0.000 C 
BRANCH   4   5
ATOM      5  C   UNL     1      -6.253 -15.476  -3.335  1.00  0.00     0.000 C 
BRANCH   5   6
ATOM      6  C   UNL     1      -5.633 -16.447  -2.316  1.00  0.00     0.006 C 
BRANCH   6   7
ATOM      7  C   UNL     1      -4.326 -15.905  -1.722  1.00  0.00     0.053 C 
BRANCH   7   8
ATOM      8  C   UNL     1      -3.596 -16.952  -0.934  1.00  0.00     0.041 C 
ATOM      9  O   UNL     1      -3.972 -17.243   0.232  1.00  0.00    -0.550 OA
ATOM     10  O   UNL     1      -2.520 -17.624  -1.499  1.00  0.00    -0.550 OA
ENDBRANCH   7   8
ENDBRANCH   6   7
ENDBRANCH   5   6
ENDBRANCH   4   5
ENDBRANCH   3   4
ENDBRANCH   2   3
ENDBRANCH   1   2
BRANCH   1  11
ATOM     11  C   UNL     1      -9.103 -14.925  -5.815  1.00  0.00     0.000 C 
BRANCH  11  12
ATOM     12  C   UNL     1      -8.185 -15.876  -6.598  1.00  0.00     0.000 C 
BRANCH  12  13
ATOM     13  C   UNL     1      -8.964 -16.778  -7.574  1.00  0.00     0.000 C 
BRANCH  13  14
ATOM     14  C   UNL     1      -8.491 -16.618  -9.027  1.00  0.00     0.000 C 
BRANCH  14  15
ATOM     15  C   UNL     1      -9.607 -16.910 -10.046  1.00  0.00     0.000 C 
BRANCH  15  16
ATOM     16  C   UNL     1      -9.563 -15.964 -11.256  1.00  0.00     0.006 C 
BRANCH  16  17
ATOM     17  C   UNL     1     -10.581 -14.821 -11.147  1.00  0.00     0.053 C 
BRANCH  17  18
ATOM     18  C   UNL     1     -11.722 -15.046 -12.088  1.00  0.00     0.041 C 
ATOM     19  O   UNL     1     -11.508 -15.480 -13.251  1.00  0.00    -0.550 OA
ATOM     20  O   UNL     1     -13.018 -14.733 -11.698  1.00  0.00    -0.550 OA
ENDBRANCH  17  18
ENDBRANCH  16  17
ENDBRANCH  15  16
ENDBRANCH  14  15
ENDBRANCH  13  14
ENDBRANCH  12  13
ENDBRANCH  11  12
ENDBRANCH   1  11
TORSDOF 15
ENDMDL
MODEL 7
REMARK VINA RESULT:    -5.785      1.767      7.597
REMARK INTER + INTRA:         -12.442
REMARK INTER:                 -11.014
REMARK INTRA:                  -1.428
REMARK UNBOUND:                -1.584
REMARK SMILES O=C([O-])CCCCCCCCCCCCCCC(=O)[O-]
REMARK SMILES IDX 10 1 9 2 8 3 7 4 6 5 5 6 4 7 2 8 1 9 3 10 11 11 12 12 13 13
REMARK SMILES IDX 14 14 15 15 16 16 17 17 18 18 19 19 20 20
REMARK H PARENT
REMARK Flexibility Score: inf
ROOT
ATOM      1  C   UNL     1      -6.058 -13.883  -2.799  1.00  0.00     0.000 C 
ENDROOT
BRANCH   1   2
ATOM      2  C   UNL     1      -6.870 -12.937  -3.694  1.00  0.00     0.000 C 
BRANCH   2   3
ATOM      3  C   UNL     1      -6.902 -13.441  -5.142  1.00  0.00     0.000 C 
BRANCH   3   4
ATOM      4  C   UNL     1      -8.347 -13.578  -5.644  1.00  0.00     0.000 C 
BRANCH   4   5
ATOM      5  C   UNL     1      -8.774 -15.042  -5.834  1.00  0.00     0.000 C 
BRANCH   5   6
ATOM      6  C   UNL     1      -7.770 -15.847  -6.677  1.00  0.00     0.006 C 
BRANCH   6   7
ATOM      7  C   UNL     1      -7.272 -17.099  -5.945  1.00  0.00     0.053 C 
BRANCH   7   8
ATOM      8  C   UNL     1      -8.401 -17.878  -5.340  1.00  0.00     0.041 C 
ATOM      9  O   UNL     1      -8.428 -18.092  -4.099  1.00  0.00    -0.550 OA
ATOM     10  O   UNL     1      -9.436 -18.341  -6.141  1.00  0.00    -0.550 OA
ENDBRANCH   7   8
ENDBRANCH   6   7
ENDBRANCH   5   6
ENDBRANCH   4   5
ENDBRANCH   3   4
ENDBRANCH   2   3
ENDBRANCH   1   2
BRANCH   1  11
ATOM     11  C   UNL     1      -6.759 -15.241  -2.656  1.00  0.00     0.000 C 
BRANCH  11  12
ATOM     12  C   UNL     1      -5.771 -16.418  -2.633  1.00  0.00     0.000 C 
BRANCH  12  13
ATOM     13  C   UNL     1      -4.479 -16.089  -1.865  1.00  0.00     0.000 C 
BRANCH  13  14
ATOM     14  C   UNL     1      -4.222 -17.063  -0.704  1.00  0.00     0.000 C 
BRANCH  14  15
ATOM     15  C   UNL     1      -2.721 -17.282  -0.439  1.00  0.00     0.000 C 
BRANCH  15  16
ATOM     16  C   UNL     1      -1.846 -16.875  -1.634  1.00  0.00     0.006 C 
BRANCH  16  17
ATOM     17  C   UNL     1      -1.072 -18.060  -2.228  1.00  0.00     0.053 C 
BRANCH  17  18
ATOM     18  C   UNL     1       0.402 -17.843  -2.091  1.00  0.00     0.041 C 
ATOM     19  O   UNL     1       1.191 -18.274  -2.973  1.00  0.00    -0.550 OA
ATOM     20  O   UNL     1       0.909 -17.205  -0.966  1.00  0.00    -0.550 OA
ENDBRANCH  17  18
ENDBRANCH  16  17
ENDBRANCH  15  16
ENDBRANCH  14  15
ENDBRANCH  13  14
ENDBRANCH  12  13
ENDBRANCH  11  12
ENDBRANCH   1  11
TORSDOF 15
ENDMDL
MODEL 8
REMARK VINA RESULT:    -5.767      2.012      8.133
REMARK INTER + INTRA:         -12.407
REMARK INTER:                 -11.151
REMARK INTRA:                  -1.256
REMARK UNBOUND:                -1.584
REMARK SMILES O=C([O-])CCCCCCCCCCCCCCC(=O)[O-]
REMARK SMILES IDX 10 1 9 2 8 3 7 4 6 5 5 6 4 7 2 8 1 9 3 10 11 11 12 12 13 13
REMARK SMILES IDX 14 14 15 15 16 16 17 17 18 18 19 19 20 20
REMARK H PARENT
REMARK Flexibility Score: inf
ROOT
ATOM      1  C   UNL     1      -6.979 -15.363  -2.783  1.00  0.00     0.000 C 
ENDROOT
BRANCH   1   2
ATOM      2  C   UNL     1      -6.486 -13.913  -2.684  1.00  0.00     0.000 C 
BRANCH   2   3
ATOM      3  C   UNL     1      -6.859 -13.116  -3.939  1.00  0.00     0.000 C 
BRANCH   3   4
ATOM      4  C   UNL     1      -6.967 -14.038  -5.163  1.00  0.00     0.000 C 
BRANCH   4   5
ATOM      5  C   UNL     1      -8.410 -14.183  -5.672  1.00  0.00     0.000 C 
BRANCH   5   6
ATOM      6  C   UNL     1      -8.695 -15.579  -6.252  1.00  0.00     0.006 C 
BRANCH   6   7
ATOM      7  C   UNL     1      -7.433 -16.448  -6.318  1.00  0.00     0.053 C 
BRANCH   7   8
ATOM      8  C   UNL     1      -7.625 -17.764  -5.626  1.00  0.00     0.041 C 
ATOM      9  O   UNL     1      -8.542 -17.903  -4.773  1.00  0.00    -0.550 OA
ATOM     10  O   UNL     1      -6.812 -18.844  -5.944  1.00  0.00    -0.550 OA
ENDBRANCH   7   8
ENDBRANCH   6   7
ENDBRANCH   5   6
ENDBRANCH   4   5
ENDBRANCH   3   4
ENDBRANCH   2   3
ENDBRANCH   1   2
BRANCH   1  11
ATOM     11  C   UNL     1      -5.811 -16.351  -2.653  1.00  0.00     0.000 C 
BRANCH  11  12
ATOM     12  C   UNL     1      -4.633 -15.772  -1.853  1.00  0.00     0.000 C 
BRANCH  12  13
ATOM     13  C   UNL     1      -3.654 -16.860  -1.374  1.00  0.00     0.000 C 
BRANCH  13  14
ATOM     14  C   UNL     1      -2.192 -16.517  -1.698  1.00  0.00     0.000 C 
BRANCH  14  15
ATOM     15  C   UNL     1      -1.263 -17.740  -1.599  1.00  0.00     0.000 C 
BRANCH  15  16
ATOM     16  C   UNL     1      -1.337 -18.428  -0.228  1.00  0.00     0.006 C 
BRANCH  16  17
ATOM     17  C   UNL     1      -0.247 -17.940   0.736  1.00  0.00     0.053 C 
BRANCH  17  18
ATOM     18  C   UNL     1      -0.831 -17.024   1.765  1.00  0.00     0.041 C 
ATOM     19  O   UNL     1      -2.079 -16.867   1.839  1.00  0.00    -0.550 OA
ATOM     20  O   UNL     1       0.004 -16.306   2.611  1.00  0.00    -0.550 OA
ENDBRANCH  17  18
ENDBRANCH  16  17
ENDBRANCH  15  16
ENDBRANCH  14  15
ENDBRANCH  13  14
ENDBRANCH  12  13
ENDBRANCH  11  12
ENDBRANCH   1  11
TORSDOF 15
ENDMDL
MODEL 9
REMARK VINA RESULT:    -5.762      1.803      7.709
REMARK INTER + INTRA:         -12.398
REMARK INTER:                 -10.906
REMARK INTRA:                  -1.491
REMARK UNBOUND:                -1.584
REMARK SMILES O=C([O-])CCCCCCCCCCCCCCC(=O)[O-]
REMARK SMILES IDX 10 1 9 2 8 3 7 4 6 5 5 6 4 7 2 8 1 9 3 10 11 11 12 12 13 13
REMARK SMILES IDX 14 14 15 15 16 16 17 17 18 18 19 19 20 20
REMARK H PARENT
REMARK Flexibility Score: inf
ROOT
ATOM      1  C   UNL     1      -7.076 -13.128  -3.409  1.00  0.00     0.000 C 
ENDROOT
BRANCH   1   2
ATOM      2  C   UNL     1      -6.448 -12.739  -4.754  1.00  0.00     0.000 C 
BRANCH   2   3
ATOM      3  C   UNL     1      -6.938 -13.660  -5.879  1.00  0.00     0.000 C 
BRANCH   3   4
ATOM      4  C   UNL     1      -8.394 -14.089  -5.641  1.00  0.00     0.000 C 
BRANCH   4   5
ATOM      5  C   UNL     1      -8.600 -15.604  -5.797  1.00  0.00     0.000 C 
BRANCH   5   6
ATOM      6  C   UNL     1      -7.360 -16.315  -6.366  1.00  0.00     0.006 C 
BRANCH   6   7
ATOM      7  C   UNL     1      -6.995 -17.571  -5.564  1.00  0.00     0.053 C 
BRANCH   7   8
ATOM      8  C   UNL     1      -8.194 -18.429  -5.295  1.00  0.00     0.041 C 
ATOM      9  O   UNL     1      -8.778 -19.017  -6.244  1.00  0.00    -0.550 OA
ATOM     10  O   UNL     1      -8.649 -18.603  -3.995  1.00  0.00    -0.550 OA
ENDBRANCH   7   8
ENDBRANCH   6   7
ENDBRANCH   5   6
ENDBRANCH   4   5
ENDBRANCH   3   4
ENDBRANCH   2   3
ENDBRANCH   1   2
BRANCH   1  11
ATOM     11  C   UNL     1      -6.143 -14.055  -2.616  1.00  0.00     0.000 C 
BRANCH  11  12
ATOM     12  C   UNL     1      -6.632 -15.512  -2.598  1.00  0.00     0.000 C 
BRANCH  12  13
ATOM     13  C   UNL     1      -5.485 -16.518  -2.392  1.00  0.00     0.000 C 
BRANCH  13  14
ATOM     14  C   UNL     1      -4.336 -15.934  -1.555  1.00  0.00     0.000 C 
BRANCH  14  15
ATOM     15  C   UNL     1      -3.005 -16.672  -1.784  1.00  0.00     0.000 C 
BRANCH  15  16
ATOM     16  C   UNL     1      -2.566 -17.491  -0.561  1.00  0.00     0.006 C 
BRANCH  16  17
ATOM     17  C   UNL     1      -1.068 -17.346  -0.261  1.00  0.00     0.053 C 
BRANCH  17  18
ATOM     18  C   UNL     1      -0.857 -16.937   1.163  1.00  0.00     0.041 C 
ATOM     19  O   UNL     1       0.298 -16.651   1.576  1.00  0.00    -0.550 OA
ATOM     20  O   UNL     1      -1.929 -16.920   2.047  1.00  0.00    -0.550 OA
ENDBRANCH  17  18
ENDBRANCH  16  17
ENDBRANCH  15  16
ENDBRANCH  14  15
ENDBRANCH  13  14
ENDBRANCH  12  13
ENDBRANCH  11  12
ENDBRANCH   1  11
TORSDOF 15
ENDMDL
