MODEL 1
REMARK VINA RESULT:    -3.410      0.000      0.000
REMARK INTER + INTRA:          -3.484
REMARK INTER:                  -3.709
REMARK INTRA:                   0.225
REMARK UNBOUND:                 0.225
REMARK SMILES C[C@@H]1[C@@H](C)CC[C@]2(C(=O)[O-])CC[C@@]3(C)C(=CC[C@H]4[C@@]5(C)CC[C@@H](O)C(C)(C)[C@H]5CC[C@]43C)[C@@H]12
REMARK SMILES IDX 7 1 6 2 11 3 33 4 5 5 12 6 15 7 2 8 3 9 13 10 16 11 1 12
REMARK SMILES IDX 4 13 14 14 31 15 17 16 18 17 30 18 32 19 19 20 29 21 28 22
REMARK SMILES IDX 21 23 20 24 25 25 22 26 23 27 26 28 27 29 8 30 9 31 10 32
REMARK SMILES IDX 24 33
REMARK H PARENT 24 34
REMARK Flexibility Score: inf
ROOT
ATOM      1  C   UNL     1       2.444  -8.806  -8.562  1.00  0.00     0.017 C 
ATOM      2  C   UNL     1       1.331  -9.178  -7.552  1.00  0.00     0.014 C 
ATOM      3  C   UNL     1       3.188 -10.125  -8.992  1.00  0.00     0.014 C 
ATOM      4  C   UNL     1       3.465  -7.842  -7.881  1.00  0.00     0.030 C 
ATOM      5  C   UNL     1       0.616  -7.939  -7.019  1.00  0.00     0.004 C 
ATOM      6  C   UNL     1       4.737 -10.038  -9.043  1.00  0.00     0.013 C 
ATOM      7  C   UNL     1       4.593  -7.530  -8.893  1.00  0.00    -0.063 C 
ATOM      8  C   UNL     1       2.824  -6.625  -7.115  1.00  0.00    -0.003 C 
ATOM      9  C   UNL     1       1.595  -7.047  -6.245  1.00  0.00    -0.011 C 
ATOM     10  C   UNL     1       5.294  -8.686  -9.609  1.00  0.00    -0.006 C 
ATOM     11  C   UNL     1       4.998  -6.280  -9.171  1.00  0.00    -0.027 C 
ATOM     12  C   UNL     1       3.872  -5.956  -6.186  1.00  0.00     0.008 C 
ATOM     13  C   UNL     1       0.833  -5.824  -5.701  1.00  0.00     0.008 C 
ATOM     14  C   UNL     1       4.899  -8.630 -11.120  1.00  0.00     0.017 C 
ATOM     15  C   UNL     1       6.885  -8.524  -9.423  1.00  0.00    -0.020 C 
ATOM     16  C   UNL     1       6.437  -5.964  -9.466  1.00  0.00     0.032 C 
ATOM     17  C   UNL     1       7.350  -7.124  -9.996  1.00  0.00     0.006 C 
ATOM     18  C   UNL     1       7.280  -8.601  -7.907  1.00  0.00     0.008 C 
ATOM     19  C   UNL     1       7.603  -9.681 -10.194  1.00  0.00     0.012 C 
ATOM     20  C   UNL     1       8.939  -6.829  -9.855  1.00  0.00    -0.025 C 
ATOM     21  C   UNL     1       8.449  -7.691  -7.456  1.00  0.00     0.005 C 
ATOM     22  C   UNL     1       9.548  -7.502  -8.535  1.00  0.00     0.003 C 
ATOM     23  C   UNL     1       9.213  -5.279  -9.901  1.00  0.00     0.010 C 
ATOM     24  C   UNL     1       9.649  -7.421 -11.125  1.00  0.00     0.012 C 
ATOM     25  C   UNL     1      10.922  -6.887  -7.989  1.00  0.00    -0.006 C 
ATOM     26  C   UNL     1      10.628  -4.857  -9.510  1.00  0.00     0.033 C 
ATOM     27  C   UNL     1      10.957  -5.337  -8.094  1.00  0.00     0.120 C 
ATOM     28  C   UNL     1      11.198  -7.269  -6.506  1.00  0.00     0.014 C 
ATOM     29  C   UNL     1      12.124  -7.489  -8.773  1.00  0.00     0.014 C 
ENDROOT
BRANCH   1  30
ATOM     30  C   UNL     1       1.777  -8.172  -9.786  1.00  0.00     0.048 C 
ATOM     31  O   UNL     1       1.585  -8.861 -10.824  1.00  0.00    -0.550 OA
ATOM     32  O   UNL     1       1.347  -6.850  -9.777  1.00  0.00    -0.550 OA
ENDBRANCH   1  30
BRANCH  27  33
ATOM     33  O   UNL     1      10.059  -4.764  -7.176  1.00  0.00    -0.393 OA
ATOM     34  H   UNL     1      10.594  -4.197  -6.561  1.00  0.00     0.210 HD
ENDBRANCH  27  33
TORSDOF 2
ENDMDL
MODEL 2
REMARK VINA RESULT:    -1.677      1.932      7.484
REMARK INTER + INTRA:          -1.600
REMARK INTER:                  -1.730
REMARK INTRA:                   0.131
REMARK UNBOUND:                 0.225
REMARK SMILES C[C@@H]1[C@@H](C)CC[C@]2(C(=O)[O-])CC[C@@]3(C)C(=CC[C@H]4[C@@]5(C)CC[C@@H](O)C(C)(C)[C@H]5CC[C@]43C)[C@@H]12
REMARK SMILES IDX 7 1 6 2 11 3 33 4 5 5 12 6 15 7 2 8 3 9 13 10 16 11 1 12
REMARK SMILES IDX 4 13 14 14 31 15 17 16 18 17 30 18 32 19 19 20 29 21 28 22
REMARK SMILES IDX 21 23 20 24 25 25 22 26 23 27 26 28 27 29 8 30 9 31 10 32
REMARK SMILES IDX 24 33
REMARK H PARENT 24 34
REMARK Flexibility Score: inf
ROOT
ATOM      1  C   UNL     1       9.830  -5.480  -9.792  1.00  0.00     0.017 C 
ATOM      2  C   UNL     1      10.647  -4.170  -9.682  1.00  0.00     0.014 C 
ATOM      3  C   UNL     1       8.993  -5.436 -11.124  1.00  0.00     0.014 C 
ATOM      4  C   UNL     1       8.854  -5.589  -8.578  1.00  0.00     0.030 C 
ATOM      5  C   UNL     1      11.423  -4.097  -8.370  1.00  0.00     0.004 C 
ATOM      6  C   UNL     1       7.517  -5.906 -11.008  1.00  0.00     0.013 C 
ATOM      7  C   UNL     1       8.014  -6.879  -8.740  1.00  0.00    -0.063 C 
ATOM      8  C   UNL     1       9.509  -5.326  -7.171  1.00  0.00    -0.003 C 
ATOM      9  C   UNL     1      10.459  -4.084  -7.177  1.00  0.00    -0.011 C 
ATOM     10  C   UNL     1       7.300  -7.142 -10.068  1.00  0.00    -0.006 C 
ATOM     11  C   UNL     1       7.872  -7.784  -7.759  1.00  0.00    -0.027 C 
ATOM     12  C   UNL     1       8.412  -5.096  -6.097  1.00  0.00     0.008 C 
ATOM     13  C   UNL     1      11.276  -3.982  -5.876  1.00  0.00     0.008 C 
ATOM     14  C   UNL     1       7.994  -8.362 -10.756  1.00  0.00     0.017 C 
ATOM     15  C   UNL     1       5.750  -7.454  -9.771  1.00  0.00    -0.020 C 
ATOM     16  C   UNL     1       6.587  -8.539  -7.563  1.00  0.00     0.032 C 
ATOM     17  C   UNL     1       5.630  -8.694  -8.796  1.00  0.00     0.006 C 
ATOM     18  C   UNL     1       5.052  -6.220  -9.099  1.00  0.00     0.008 C 
ATOM     19  C   UNL     1       5.030  -7.768 -11.125  1.00  0.00     0.012 C 
ATOM     20  C   UNL     1       4.111  -9.104  -8.405  1.00  0.00    -0.025 C 
ATOM     21  C   UNL     1       3.971  -6.538  -8.036  1.00  0.00     0.005 C 
ATOM     22  C   UNL     1       3.153  -7.822  -8.341  1.00  0.00     0.003 C 
ATOM     23  C   UNL     1       4.095  -9.915  -7.054  1.00  0.00     0.010 C 
ATOM     24  C   UNL     1       3.586 -10.100  -9.500  1.00  0.00     0.012 C 
ATOM     25  C   UNL     1       1.810  -7.976  -7.483  1.00  0.00    -0.006 C 
ATOM     26  C   UNL     1       2.712 -10.125  -6.438  1.00  0.00     0.033 C 
ATOM     27  C   UNL     1       2.036  -8.778  -6.171  1.00  0.00     0.120 C 
ATOM     28  C   UNL     1       1.186  -6.603  -7.099  1.00  0.00     0.014 C 
ATOM     29  C   UNL     1       0.710  -8.674  -8.335  1.00  0.00     0.014 C 
ENDROOT
BRANCH   1  30
ATOM     30  C   UNL     1      10.818  -6.649  -9.847  1.00  0.00     0.048 C 
ATOM     31  O   UNL     1      11.252  -7.053 -10.959  1.00  0.00    -0.550 OA
ATOM     32  O   UNL     1      11.278  -7.267  -8.690  1.00  0.00    -0.550 OA
ENDBRANCH   1  30
BRANCH  27  33
ATOM     33  O   UNL     1       2.810  -8.027  -5.267  1.00  0.00    -0.393 OA
ATOM     34  H   UNL     1       2.231  -7.296  -4.926  1.00  0.00     0.210 HD
ENDBRANCH  27  33
TORSDOF 2
ENDMDL
