MODEL 1
REMARK VINA RESULT:    -4.131      0.000      0.000
REMARK INTER + INTRA:          -4.895
REMARK INTER:                  -4.855
REMARK INTRA:                  -0.039
REMARK UNBOUND:                -0.039
REMARK SMILES O=C([O-])CCC(=O)[O-]
REMARK SMILES IDX 4 1 2 2 1 3 3 4 5 5 6 6 7 7 8 8
REMARK H PARENT
REMARK Flexibility Score: inf
ROOT
ATOM      1  C   UNL     1      21.628  -1.087  26.523  1.00  0.00     0.059 C 
ENDROOT
BRANCH   1   2
ATOM      2  C   UNL     1      22.553  -0.010  26.044  1.00  0.00     0.042 C 
ATOM      3  O   UNL     1      22.111   1.145  25.803  1.00  0.00    -0.550 OA
ATOM      4  O   UNL     1      23.895  -0.292  25.827  1.00  0.00    -0.550 OA
ENDBRANCH   1   2
BRANCH   1   5
ATOM      5  C   UNL     1      20.954  -0.704  27.846  1.00  0.00     0.059 C 
BRANCH   5   6
ATOM      6  C   UNL     1      21.269  -1.688  28.930  1.00  0.00     0.042 C 
ATOM      7  O   UNL     1      20.856  -2.875  28.848  1.00  0.00    -0.550 OA
ATOM      8  O   UNL     1      22.054  -1.305  30.011  1.00  0.00    -0.550 OA
ENDBRANCH   5   6
ENDBRANCH   1   5
TORSDOF 3
ENDMDL
MODEL 2
REMARK VINA RESULT:    -3.951     13.503     14.168
REMARK INTER + INTRA:          -4.684
REMARK INTER:                  -4.645
REMARK INTRA:                  -0.039
REMARK UNBOUND:                -0.039
REMARK SMILES O=C([O-])CCC(=O)[O-]
REMARK SMILES IDX 4 1 2 2 1 3 3 4 5 5 6 6 7 7 8 8
REMARK H PARENT
REMARK Flexibility Score: inf
ROOT
ATOM      1  C   UNL     1      35.504   0.375  32.729  1.00  0.00     0.059 C 
ENDROOT
BRANCH   1   2
ATOM      2  C   UNL     1      35.290  -0.661  31.668  1.00  0.00     0.042 C 
ATOM      3  O   UNL     1      35.822  -1.797  31.774  1.00  0.00    -0.550 OA
ATOM      4  O   UNL     1      34.534  -0.358  30.543  1.00  0.00    -0.550 OA
ENDBRANCH   1   2
BRANCH   1   5
ATOM      5  C   UNL     1      34.976  -0.094  34.089  1.00  0.00     0.059 C 
BRANCH   5   6
ATOM      6  C   UNL     1      33.921   0.829  34.619  1.00  0.00     0.042 C 
ATOM      7  O   UNL     1      34.204   2.027  34.885  1.00  0.00    -0.550 OA
ATOM      8  O   UNL     1      32.618   0.377  34.782  1.00  0.00    -0.550 OA
ENDBRANCH   5   6
ENDBRANCH   1   5
TORSDOF 3
ENDMDL
MODEL 3
REMARK VINA RESULT:    -3.932     13.492     14.398
REMARK INTER + INTRA:          -4.661
REMARK INTER:                  -4.623
REMARK INTRA:                  -0.038
REMARK UNBOUND:                -0.039
REMARK SMILES O=C([O-])CCC(=O)[O-]
REMARK SMILES IDX 4 1 2 2 1 3 3 4 5 5 6 6 7 7 8 8
REMARK H PARENT
REMARK Flexibility Score: inf
ROOT
ATOM      1  C   UNL     1      34.960  -0.157  34.018  1.00  0.00     0.059 C 
ENDROOT
BRANCH   1   2
ATOM      2  C   UNL     1      33.944   0.800  34.563  1.00  0.00     0.042 C 
ATOM      3  O   UNL     1      34.281   1.972  34.876  1.00  0.00    -0.550 OA
ATOM      4  O   UNL     1      32.634   0.384  34.761  1.00  0.00    -0.550 OA
ENDBRANCH   1   2
BRANCH   1   5
ATOM      5  C   UNL     1      35.540   0.334  32.687  1.00  0.00     0.059 C 
BRANCH   5   6
ATOM      6  C   UNL     1      35.322  -0.661  31.589  1.00  0.00     0.042 C 
ATOM      7  O   UNL     1      35.891  -1.784  31.630  1.00  0.00    -0.550 OA
ATOM      8  O   UNL     1      34.458  -0.365  30.542  1.00  0.00    -0.550 OA
ENDBRANCH   5   6
ENDBRANCH   1   5
TORSDOF 3
ENDMDL
MODEL 4
REMARK VINA RESULT:    -3.792     13.332     13.948
REMARK INTER + INTRA:          -4.497
REMARK INTER:                  -4.432
REMARK INTRA:                  -0.065
REMARK UNBOUND:                -0.039
REMARK SMILES O=C([O-])CCC(=O)[O-]
REMARK SMILES IDX 4 1 2 2 1 3 3 4 5 5 6 6 7 7 8 8
REMARK H PARENT
REMARK Flexibility Score: inf
ROOT
ATOM      1  C   UNL     1      35.548  -1.342  31.551  1.00  0.00     0.059 C 
ENDROOT
BRANCH   1   2
ATOM      2  C   UNL     1      34.542  -1.455  30.446  1.00  0.00     0.042 C 
ATOM      3  O   UNL     1      33.866  -0.450  30.099  1.00  0.00    -0.550 OA
ATOM      4  O   UNL     1      34.325  -2.678  29.826  1.00  0.00    -0.550 OA
ENDBRANCH   1   2
BRANCH   1   5
ATOM      5  C   UNL     1      35.504   0.039  32.214  1.00  0.00     0.059 C 
BRANCH   5   6
ATOM      6  C   UNL     1      35.219  -0.062  33.681  1.00  0.00     0.042 C 
ATOM      7  O   UNL     1      35.519  -1.109  34.314  1.00  0.00    -0.550 OA
ATOM      8  O   UNL     1      34.660   1.015  34.358  1.00  0.00    -0.550 OA
ENDBRANCH   5   6
ENDBRANCH   1   5
TORSDOF 3
ENDMDL
MODEL 5
REMARK VINA RESULT:    -3.769      1.472      2.359
REMARK INTER + INTRA:          -4.469
REMARK INTER:                  -4.390
REMARK INTRA:                  -0.079
REMARK UNBOUND:                -0.039
REMARK SMILES O=C([O-])CCC(=O)[O-]
REMARK SMILES IDX 4 1 2 2 1 3 3 4 5 5 6 6 7 7 8 8
REMARK H PARENT
REMARK Flexibility Score: inf
ROOT
ATOM      1  C   UNL     1      21.060  -0.835  28.307  1.00  0.00     0.059 C 
ENDROOT
BRANCH   1   2
ATOM      2  C   UNL     1      21.399  -1.193  26.892  1.00  0.00     0.042 C 
ATOM      3  O   UNL     1      21.163  -2.351  26.457  1.00  0.00    -0.550 OA
ATOM      4  O   UNL     1      22.010  -0.259  26.066  1.00  0.00    -0.550 OA
ENDBRANCH   1   2
BRANCH   1   5
ATOM      5  C   UNL     1      20.919  -2.083  29.186  1.00  0.00     0.059 C 
BRANCH   5   6
ATOM      6  C   UNL     1      22.095  -2.252  30.097  1.00  0.00     0.042 C 
ATOM      7  O   UNL     1      22.714  -1.243  30.526  1.00  0.00    -0.550 OA
ATOM      8  O   UNL     1      22.483  -3.522  30.506  1.00  0.00    -0.550 OA
ENDBRANCH   5   6
ENDBRANCH   1   5
TORSDOF 3
ENDMDL
MODEL 6
REMARK VINA RESULT:    -3.441      9.767     10.602
REMARK INTER + INTRA:          -4.084
REMARK INTER:                  -3.929
REMARK INTRA:                  -0.155
REMARK UNBOUND:                -0.039
REMARK SMILES O=C([O-])CCC(=O)[O-]
REMARK SMILES IDX 4 1 2 2 1 3 3 4 5 5 6 6 7 7 8 8
REMARK H PARENT
REMARK Flexibility Score: inf
ROOT
ATOM      1  C   UNL     1      28.834  -7.853  31.448  1.00  0.00     0.059 C 
ENDROOT
BRANCH   1   2
ATOM      2  C   UNL     1      28.857  -6.491  30.823  1.00  0.00     0.042 C 
ATOM      3  O   UNL     1      29.916  -5.811  30.825  1.00  0.00    -0.550 OA
ATOM      4  O   UNL     1      27.698  -5.959  30.274  1.00  0.00    -0.550 OA
ENDBRANCH   1   2
BRANCH   1   5
ATOM      5  C   UNL     1      29.592  -8.877  30.595  1.00  0.00     0.059 C 
BRANCH   5   6
ATOM      6  C   UNL     1      28.845  -9.211  29.340  1.00  0.00     0.042 C 
ATOM      7  O   UNL     1      27.819  -9.939  29.389  1.00  0.00    -0.550 OA
ATOM      8  O   UNL     1      29.259  -8.686  28.123  1.00  0.00    -0.550 OA
ENDBRANCH   5   6
ENDBRANCH   1   5
TORSDOF 3
ENDMDL
MODEL 7
REMARK VINA RESULT:    -3.423      9.700     10.590
REMARK INTER + INTRA:          -4.062
REMARK INTER:                  -3.905
REMARK INTRA:                  -0.158
REMARK UNBOUND:                -0.039
REMARK SMILES O=C([O-])CCC(=O)[O-]
REMARK SMILES IDX 4 1 2 2 1 3 3 4 5 5 6 6 7 7 8 8
REMARK H PARENT
REMARK Flexibility Score: inf
ROOT
ATOM      1  C   UNL     1      29.498  -8.800  30.667  1.00  0.00     0.059 C 
ENDROOT
BRANCH   1   2
ATOM      2  C   UNL     1      28.748  -9.110  29.407  1.00  0.00     0.042 C 
ATOM      3  O   UNL     1      27.712  -9.824  29.445  1.00  0.00    -0.550 OA
ATOM      4  O   UNL     1      29.216  -8.640  28.187  1.00  0.00    -0.550 OA
ENDBRANCH   1   2
BRANCH   1   5
ATOM      5  C   UNL     1      28.784  -7.729  31.499  1.00  0.00     0.059 C 
BRANCH   5   6
ATOM      6  C   UNL     1      28.906  -6.373  30.874  1.00  0.00     0.042 C 
ATOM      7  O   UNL     1      30.023  -5.793  30.832  1.00  0.00    -0.550 OA
ATOM      8  O   UNL     1      27.794  -5.768  30.302  1.00  0.00    -0.550 OA
ENDBRANCH   5   6
ENDBRANCH   1   5
TORSDOF 3
ENDMDL
MODEL 8
REMARK VINA RESULT:    -3.419      9.745     10.470
REMARK INTER + INTRA:          -4.058
REMARK INTER:                  -3.873
REMARK INTRA:                  -0.185
REMARK UNBOUND:                -0.039
REMARK SMILES O=C([O-])CCC(=O)[O-]
REMARK SMILES IDX 4 1 2 2 1 3 3 4 5 5 6 6 7 7 8 8
REMARK H PARENT
REMARK Flexibility Score: inf
ROOT
ATOM      1  C   UNL     1      28.880  -7.055  29.443  1.00  0.00     0.059 C 
ENDROOT
BRANCH   1   2
ATOM      2  C   UNL     1      29.106  -5.991  30.473  1.00  0.00     0.042 C 
ATOM      3  O   UNL     1      30.272  -5.589  30.725  1.00  0.00    -0.550 OA
ATOM      4  O   UNL     1      28.031  -5.470  31.182  1.00  0.00    -0.550 OA
ENDBRANCH   1   2
BRANCH   1   5
ATOM      5  C   UNL     1      28.239  -8.305  30.056  1.00  0.00     0.059 C 
BRANCH   5   6
ATOM      6  C   UNL     1      29.082  -8.876  31.155  1.00  0.00     0.042 C 
ATOM      7  O   UNL     1      30.204  -9.385  30.892  1.00  0.00    -0.550 OA
ATOM      8  O   UNL     1      28.647  -8.810  32.472  1.00  0.00    -0.550 OA
ENDBRANCH   5   6
ENDBRANCH   1   5
TORSDOF 3
ENDMDL
MODEL 9
REMARK VINA RESULT:    -3.415      9.215      9.975
REMARK INTER + INTRA:          -4.053
REMARK INTER:                  -4.023
REMARK INTRA:                  -0.031
REMARK UNBOUND:                -0.039
REMARK SMILES O=C([O-])CCC(=O)[O-]
REMARK SMILES IDX 4 1 2 2 1 3 3 4 5 5 6 6 7 7 8 8
REMARK H PARENT
REMARK Flexibility Score: inf
ROOT
ATOM      1  C   UNL     1      28.383   6.674  30.004  1.00  0.00     0.059 C 
ENDROOT
BRANCH   1   2
ATOM      2  C   UNL     1      27.995   8.080  30.346  1.00  0.00     0.042 C 
ATOM      3  O   UNL     1      28.850   9.004  30.300  1.00  0.00    -0.550 OA
ATOM      4  O   UNL     1      26.698   8.363  30.754  1.00  0.00    -0.550 OA
ENDBRANCH   1   2
BRANCH   1   5
ATOM      5  C   UNL     1      27.307   5.671  30.434  1.00  0.00     0.059 C 
BRANCH   5   6
ATOM      6  C   UNL     1      27.817   4.263  30.393  1.00  0.00     0.042 C 
ATOM      7  O   UNL     1      28.325   3.743  31.421  1.00  0.00    -0.550 OA
ATOM      8  O   UNL     1      27.694   3.512  29.231  1.00  0.00    -0.550 OA
ENDBRANCH   5   6
ENDBRANCH   1   5
TORSDOF 3
ENDMDL
