MODEL 1
REMARK VINA RESULT:    -4.253      0.000      0.000
REMARK INTER + INTRA:          -9.987
REMARK INTER:                  -7.983
REMARK INTRA:                  -2.004
REMARK UNBOUND:                -2.004
REMARK SMILES O=C([O-])CCCCCCCCCCCCCCC(=O)[O-]
REMARK SMILES IDX 10 1 9 2 8 3 7 4 6 5 5 6 4 7 2 8 1 9 3 10 11 11 12 12 13 13
REMARK SMILES IDX 14 14 15 15 16 16 17 17 18 18 19 19 20 20
REMARK H PARENT
REMARK Flexibility Score: inf
ROOT
ATOM      1  C   UNL     1       6.705  28.322  28.881  1.00  0.00     0.000 C 
ENDROOT
BRANCH   1   2
ATOM      2  C   UNL     1       6.309  29.404  29.907  1.00  0.00     0.000 C 
BRANCH   2   3
ATOM      3  C   UNL     1       7.456  29.911  30.801  1.00  0.00     0.000 C 
BRANCH   3   4
ATOM      4  C   UNL     1       8.248  31.101  30.228  1.00  0.00     0.000 C 
BRANCH   4   5
ATOM      5  C   UNL     1       9.365  31.581  31.166  1.00  0.00     0.000 C 
BRANCH   5   6
ATOM      6  C   UNL     1      10.591  32.041  30.369  1.00  0.00     0.006 C 
BRANCH   6   7
ATOM      7  C   UNL     1      11.832  31.229  30.752  1.00  0.00     0.053 C 
BRANCH   7   8
ATOM      8  C   UNL     1      13.028  31.709  29.991  1.00  0.00     0.041 C 
ATOM      9  O   UNL     1      13.814  32.545  30.509  1.00  0.00    -0.550 OA
ATOM     10  O   UNL     1      13.246  31.271  28.692  1.00  0.00    -0.550 OA
ENDBRANCH   7   8
ENDBRANCH   6   7
ENDBRANCH   5   6
ENDBRANCH   4   5
ENDBRANCH   3   4
ENDBRANCH   2   3
ENDBRANCH   1   2
BRANCH   1  11
ATOM     11  C   UNL     1       6.511  28.723  27.408  1.00  0.00     0.000 C 
BRANCH  11  12
ATOM     12  C   UNL     1       7.840  28.889  26.656  1.00  0.00     0.000 C 
BRANCH  12  13
ATOM     13  C   UNL     1       9.013  28.353  27.491  1.00  0.00     0.000 C 
BRANCH  13  14
ATOM     14  C   UNL     1      10.102  29.413  27.742  1.00  0.00     0.000 C 
BRANCH  14  15
ATOM     15  C   UNL     1      10.382  30.356  26.554  1.00  0.00     0.000 C 
BRANCH  15  16
ATOM     16  C   UNL     1       9.862  31.794  26.727  1.00  0.00     0.006 C 
BRANCH  16  17
ATOM     17  C   UNL     1      10.937  32.853  26.454  1.00  0.00     0.053 C 
BRANCH  17  18
ATOM     18  C   UNL     1      10.637  33.586  25.185  1.00  0.00     0.041 C 
ATOM     19  O   UNL     1       9.771  33.142  24.385  1.00  0.00    -0.550 OA
ATOM     20  O   UNL     1      11.347  34.736  24.860  1.00  0.00    -0.550 OA
ENDBRANCH  17  18
ENDBRANCH  16  17
ENDBRANCH  15  16
ENDBRANCH  14  15
ENDBRANCH  13  14
ENDBRANCH  12  13
ENDBRANCH  11  12
ENDBRANCH   1  11
TORSDOF 15
ENDMDL
MODEL 2
REMARK VINA RESULT:    -4.197      2.642      5.359
REMARK INTER + INTRA:          -9.882
REMARK INTER:                  -8.107
REMARK INTRA:                  -1.775
REMARK UNBOUND:                -2.004
REMARK SMILES O=C([O-])CCCCCCCCCCCCCCC(=O)[O-]
REMARK SMILES IDX 10 1 9 2 8 3 7 4 6 5 5 6 4 7 2 8 1 9 3 10 11 11 12 12 13 13
REMARK SMILES IDX 14 14 15 15 16 16 17 17 18 18 19 19 20 20
REMARK H PARENT
REMARK Flexibility Score: inf
ROOT
ATOM      1  C   UNL     1      11.390  32.290  30.075  1.00  0.00     0.000 C 
ENDROOT
BRANCH   1   2
ATOM      2  C   UNL     1       9.995  32.428  29.433  1.00  0.00     0.000 C 
BRANCH   2   3
ATOM      3  C   UNL     1       8.885  31.584  30.090  1.00  0.00     0.000 C 
BRANCH   3   4
ATOM      4  C   UNL     1       8.513  30.297  29.332  1.00  0.00     0.000 C 
BRANCH   4   5
ATOM      5  C   UNL     1       7.065  30.305  28.818  1.00  0.00     0.000 C 
BRANCH   5   6
ATOM      6  C   UNL     1       7.020  30.070  27.303  1.00  0.00     0.006 C 
BRANCH   6   7
ATOM      7  C   UNL     1       5.763  30.694  26.689  1.00  0.00     0.053 C 
BRANCH   7   8
ATOM      8  C   UNL     1       4.778  29.630  26.320  1.00  0.00     0.041 C 
ATOM      9  O   UNL     1       4.523  29.395  25.109  1.00  0.00    -0.550 OA
ATOM     10  O   UNL     1       4.104  28.932  27.313  1.00  0.00    -0.550 OA
ENDBRANCH   7   8
ENDBRANCH   6   7
ENDBRANCH   5   6
ENDBRANCH   4   5
ENDBRANCH   3   4
ENDBRANCH   2   3
ENDBRANCH   1   2
BRANCH   1  11
ATOM     11  C   UNL     1      11.887  30.843  30.240  1.00  0.00     0.000 C 
BRANCH  11  12
ATOM     12  C   UNL     1      12.196  30.162  28.899  1.00  0.00     0.000 C 
BRANCH  12  13
ATOM     13  C   UNL     1      12.685  31.187  27.864  1.00  0.00     0.000 C 
BRANCH  13  14
ATOM     14  C   UNL     1      12.206  30.869  26.435  1.00  0.00     0.000 C 
BRANCH  14  15
ATOM     15  C   UNL     1      10.736  30.414  26.324  1.00  0.00     0.000 C 
BRANCH  15  16
ATOM     16  C   UNL     1       9.875  31.228  25.342  1.00  0.00     0.006 C 
BRANCH  16  17
ATOM     17  C   UNL     1       9.871  32.729  25.656  1.00  0.00     0.053 C 
BRANCH  17  18
ATOM     18  C   UNL     1      10.703  33.472  24.660  1.00  0.00     0.041 C 
ATOM     19  O   UNL     1      11.059  34.659  24.890  1.00  0.00    -0.550 OA
ATOM     20  O   UNL     1      11.048  32.873  23.454  1.00  0.00    -0.550 OA
ENDBRANCH  17  18
ENDBRANCH  16  17
ENDBRANCH  15  16
ENDBRANCH  14  15
ENDBRANCH  13  14
ENDBRANCH  12  13
ENDBRANCH  11  12
ENDBRANCH   1  11
TORSDOF 15
ENDMDL
MODEL 3
REMARK VINA RESULT:    -4.156      2.694      5.895
REMARK INTER + INTRA:          -9.803
REMARK INTER:                  -7.629
REMARK INTRA:                  -2.175
REMARK UNBOUND:                -2.004
REMARK SMILES O=C([O-])CCCCCCCCCCCCCCC(=O)[O-]
REMARK SMILES IDX 10 1 9 2 8 3 7 4 6 5 5 6 4 7 2 8 1 9 3 10 11 11 12 12 13 13
REMARK SMILES IDX 14 14 15 15 16 16 17 17 18 18 19 19 20 20
REMARK H PARENT
REMARK Flexibility Score: inf
ROOT
ATOM      1  C   UNL     1      12.659  31.272  29.911  1.00  0.00     0.000 C 
ENDROOT
BRANCH   1   2
ATOM      2  C   UNL     1      12.225  30.045  29.083  1.00  0.00     0.000 C 
BRANCH   2   3
ATOM      3  C   UNL     1      11.697  30.361  27.671  1.00  0.00     0.000 C 
BRANCH   3   4
ATOM      4  C   UNL     1      11.846  31.830  27.235  1.00  0.00     0.000 C 
BRANCH   4   5
ATOM      5  C   UNL     1      10.495  32.518  26.988  1.00  0.00     0.000 C 
BRANCH   5   6
ATOM      6  C   UNL     1       9.986  32.234  25.570  1.00  0.00     0.006 C 
BRANCH   6   7
ATOM      7  C   UNL     1       8.933  31.122  25.577  1.00  0.00     0.053 C 
BRANCH   7   8
ATOM      8  C   UNL     1       9.380  29.972  24.730  1.00  0.00     0.041 C 
ATOM      9  O   UNL     1      10.549  29.945  24.265  1.00  0.00    -0.550 OA
ATOM     10  O   UNL     1       8.489  28.955  24.413  1.00  0.00    -0.550 OA
ENDBRANCH   7   8
ENDBRANCH   6   7
ENDBRANCH   5   6
ENDBRANCH   4   5
ENDBRANCH   3   4
ENDBRANCH   2   3
ENDBRANCH   1   2
BRANCH   1  11
ATOM     11  C   UNL     1      11.748  31.602  31.106  1.00  0.00     0.000 C 
BRANCH  11  12
ATOM     12  C   UNL     1      10.400  32.202  30.680  1.00  0.00     0.000 C 
BRANCH  12  13
ATOM     13  C   UNL     1       9.234  31.470  31.362  1.00  0.00     0.000 C 
BRANCH  13  14
ATOM     14  C   UNL     1       8.021  31.282  30.433  1.00  0.00     0.000 C 
BRANCH  14  15
ATOM     15  C   UNL     1       8.294  30.456  29.159  1.00  0.00     0.000 C 
BRANCH  15  16
ATOM     16  C   UNL     1       7.486  29.152  29.042  1.00  0.00     0.006 C 
BRANCH  16  17
ATOM     17  C   UNL     1       6.687  29.061  27.736  1.00  0.00     0.053 C 
BRANCH  17  18
ATOM     18  C   UNL     1       5.617  30.107  27.706  1.00  0.00     0.041 C 
ATOM     19  O   UNL     1       5.625  30.997  26.815  1.00  0.00    -0.550 OA
ATOM     20  O   UNL     1       4.637  30.129  28.690  1.00  0.00    -0.550 OA
ENDBRANCH  17  18
ENDBRANCH  16  17
ENDBRANCH  15  16
ENDBRANCH  14  15
ENDBRANCH  13  14
ENDBRANCH  12  13
ENDBRANCH  11  12
ENDBRANCH   1  11
TORSDOF 15
ENDMDL
MODEL 4
REMARK VINA RESULT:    -4.140      1.601      2.175
REMARK INTER + INTRA:          -9.775
REMARK INTER:                  -7.453
REMARK INTRA:                  -2.322
REMARK UNBOUND:                -2.004
REMARK SMILES O=C([O-])CCCCCCCCCCCCCCC(=O)[O-]
REMARK SMILES IDX 10 1 9 2 8 3 7 4 6 5 5 6 4 7 2 8 1 9 3 10 11 11 12 12 13 13
REMARK SMILES IDX 14 14 15 15 16 16 17 17 18 18 19 19 20 20
REMARK H PARENT
REMARK Flexibility Score: inf
ROOT
ATOM      1  C   UNL     1       5.197  30.225  26.463  1.00  0.00     0.000 C 
ENDROOT
BRANCH   1   2
ATOM      2  C   UNL     1       5.154  30.240  28.004  1.00  0.00     0.000 C 
BRANCH   2   3
ATOM      3  C   UNL     1       5.757  28.999  28.689  1.00  0.00     0.000 C 
BRANCH   3   4
ATOM      4  C   UNL     1       7.004  29.274  29.550  1.00  0.00     0.000 C 
BRANCH   4   5
ATOM      5  C   UNL     1       7.635  30.645  29.265  1.00  0.00     0.000 C 
BRANCH   5   6
ATOM      6  C   UNL     1       8.726  30.971  30.291  1.00  0.00     0.006 C 
BRANCH   6   7
ATOM      7  C   UNL     1      10.117  30.908  29.653  1.00  0.00     0.053 C 
BRANCH   7   8
ATOM      8  C   UNL     1      10.817  32.223  29.793  1.00  0.00     0.041 C 
ATOM      9  O   UNL     1      11.861  32.315  30.490  1.00  0.00    -0.550 OA
ATOM     10  O   UNL     1      10.288  33.359  29.192  1.00  0.00    -0.550 OA
ENDBRANCH   7   8
ENDBRANCH   6   7
ENDBRANCH   5   6
ENDBRANCH   4   5
ENDBRANCH   3   4
ENDBRANCH   2   3
ENDBRANCH   1   2
BRANCH   1  11
ATOM     11  C   UNL     1       5.308  28.826  25.832  1.00  0.00     0.000 C 
BRANCH  11  12
ATOM     12  C   UNL     1       6.561  28.664  24.959  1.00  0.00     0.000 C 
BRANCH  12  13
ATOM     13  C   UNL     1       7.686  27.965  25.738  1.00  0.00     0.000 C 
BRANCH  13  14
ATOM     14  C   UNL     1       8.765  28.943  26.237  1.00  0.00     0.000 C 
BRANCH  14  15
ATOM     15  C   UNL     1       9.044  30.141  25.305  1.00  0.00     0.000 C 
BRANCH  15  16
ATOM     16  C   UNL     1       9.256  31.487  26.020  1.00  0.00     0.006 C 
BRANCH  16  17
ATOM     17  C   UNL     1      10.706  31.979  25.947  1.00  0.00     0.053 C 
BRANCH  17  18
ATOM     18  C   UNL     1      10.782  33.271  25.197  1.00  0.00     0.041 C 
ATOM     19  O   UNL     1      10.408  33.330  23.996  1.00  0.00    -0.550 OA
ATOM     20  O   UNL     1      11.311  34.401  25.808  1.00  0.00    -0.550 OA
ENDBRANCH  17  18
ENDBRANCH  16  17
ENDBRANCH  15  16
ENDBRANCH  14  15
ENDBRANCH  13  14
ENDBRANCH  12  13
ENDBRANCH  11  12
ENDBRANCH   1  11
TORSDOF 15
ENDMDL
MODEL 5
REMARK VINA RESULT:    -4.127      3.355      5.867
REMARK INTER + INTRA:          -9.751
REMARK INTER:                  -7.551
REMARK INTRA:                  -2.199
REMARK UNBOUND:                -2.004
REMARK SMILES O=C([O-])CCCCCCCCCCCCCCC(=O)[O-]
REMARK SMILES IDX 10 1 9 2 8 3 7 4 6 5 5 6 4 7 2 8 1 9 3 10 11 11 12 12 13 13
REMARK SMILES IDX 14 14 15 15 16 16 17 17 18 18 19 19 20 20
REMARK H PARENT
REMARK Flexibility Score: inf
ROOT
ATOM      1  C   UNL     1       7.577  27.341  28.147  1.00  0.00     0.000 C 
ENDROOT
BRANCH   1   2
ATOM      2  C   UNL     1       7.451  28.870  28.306  1.00  0.00     0.000 C 
BRANCH   2   3
ATOM      3  C   UNL     1       8.626  29.688  27.736  1.00  0.00     0.000 C 
BRANCH   3   4
ATOM      4  C   UNL     1       8.316  30.450  26.435  1.00  0.00     0.000 C 
BRANCH   4   5
ATOM      5  C   UNL     1       9.249  30.060  25.279  1.00  0.00     0.000 C 
BRANCH   5   6
ATOM      6  C   UNL     1      10.391  31.073  25.130  1.00  0.00     0.006 C 
BRANCH   6   7
ATOM      7  C   UNL     1       9.858  32.509  25.155  1.00  0.00     0.053 C 
BRANCH   7   8
ATOM      8  C   UNL     1      10.803  33.431  24.452  1.00  0.00     0.041 C 
ATOM      9  O   UNL     1      11.129  34.527  24.978  1.00  0.00    -0.550 OA
ATOM     10  O   UNL     1      11.286  33.101  23.192  1.00  0.00    -0.550 OA
ENDBRANCH   7   8
ENDBRANCH   6   7
ENDBRANCH   5   6
ENDBRANCH   4   5
ENDBRANCH   3   4
ENDBRANCH   2   3
ENDBRANCH   1   2
BRANCH   1  11
ATOM     11  C   UNL     1       8.809  26.872  27.352  1.00  0.00     0.000 C 
BRANCH  11  12
ATOM     12  C   UNL     1       8.438  26.182  26.031  1.00  0.00     0.000 C 
BRANCH  12  13
ATOM     13  C   UNL     1       6.925  26.263  25.777  1.00  0.00     0.000 C 
BRANCH  13  14
ATOM     14  C   UNL     1       6.583  26.773  24.365  1.00  0.00     0.000 C 
BRANCH  14  15
ATOM     15  C   UNL     1       6.216  28.269  24.281  1.00  0.00     0.000 C 
BRANCH  15  16
ATOM     16  C   UNL     1       4.755  28.602  24.629  1.00  0.00     0.006 C 
BRANCH  16  17
ATOM     17  C   UNL     1       4.619  29.398  25.933  1.00  0.00     0.053 C 
BRANCH  17  18
ATOM     18  C   UNL     1       4.024  28.542  27.006  1.00  0.00     0.041 C 
ATOM     19  O   UNL     1       3.888  28.993  28.174  1.00  0.00    -0.550 OA
ATOM     20  O   UNL     1       3.665  27.229  26.730  1.00  0.00    -0.550 OA
ENDBRANCH  17  18
ENDBRANCH  16  17
ENDBRANCH  15  16
ENDBRANCH  14  15
ENDBRANCH  13  14
ENDBRANCH  12  13
ENDBRANCH  11  12
ENDBRANCH   1  11
TORSDOF 15
ENDMDL
MODEL 6
REMARK VINA RESULT:    -4.077      3.043      5.172
REMARK INTER + INTRA:          -9.655
REMARK INTER:                  -7.100
REMARK INTRA:                  -2.556
REMARK UNBOUND:                -2.004
REMARK SMILES O=C([O-])CCCCCCCCCCCCCCC(=O)[O-]
REMARK SMILES IDX 10 1 9 2 8 3 7 4 6 5 5 6 4 7 2 8 1 9 3 10 11 11 12 12 13 13
REMARK SMILES IDX 14 14 15 15 16 16 17 17 18 18 19 19 20 20
REMARK H PARENT
REMARK Flexibility Score: inf
ROOT
ATOM      1  C   UNL     1       6.962  27.077  25.282  1.00  0.00     0.000 C 
ENDROOT
BRANCH   1   2
ATOM      2  C   UNL     1       8.389  26.618  25.645  1.00  0.00     0.000 C 
BRANCH   2   3
ATOM      3  C   UNL     1       8.525  25.915  27.010  1.00  0.00     0.000 C 
BRANCH   3   4
ATOM      4  C   UNL     1       7.198  25.688  27.757  1.00  0.00     0.000 C 
BRANCH   4   5
ATOM      5  C   UNL     1       7.058  26.571  29.006  1.00  0.00     0.000 C 
BRANCH   5   6
ATOM      6  C   UNL     1       5.751  27.372  28.966  1.00  0.00     0.006 C 
BRANCH   6   7
ATOM      7  C   UNL     1       5.780  28.519  29.981  1.00  0.00     0.053 C 
BRANCH   7   8
ATOM      8  C   UNL     1       4.932  29.658  29.508  1.00  0.00     0.041 C 
ATOM      9  O   UNL     1       4.695  29.804  28.280  1.00  0.00    -0.550 OA
ATOM     10  O   UNL     1       4.445  30.587  30.418  1.00  0.00    -0.550 OA
ENDBRANCH   7   8
ENDBRANCH   6   7
ENDBRANCH   5   6
ENDBRANCH   4   5
ENDBRANCH   3   4
ENDBRANCH   2   3
ENDBRANCH   1   2
BRANCH   1  11
ATOM     11  C   UNL     1       6.680  28.570  25.528  1.00  0.00     0.000 C 
BRANCH  11  12
ATOM     12  C   UNL     1       7.962  29.401  25.683  1.00  0.00     0.000 C 
BRANCH  12  13
ATOM     13  C   UNL     1       7.895  30.282  26.940  1.00  0.00     0.000 C 
BRANCH  13  14
ATOM     14  C   UNL     1       8.703  29.706  28.118  1.00  0.00     0.000 C 
BRANCH  14  15
ATOM     15  C   UNL     1      10.123  29.220  27.761  1.00  0.00     0.000 C 
BRANCH  15  16
ATOM     16  C   UNL     1      11.258  30.184  28.147  1.00  0.00     0.006 C 
BRANCH  16  17
ATOM     17  C   UNL     1      11.730  31.050  26.972  1.00  0.00     0.053 C 
BRANCH  17  18
ATOM     18  C   UNL     1      11.034  32.374  26.987  1.00  0.00     0.041 C 
ATOM     19  O   UNL     1      10.586  32.843  28.067  1.00  0.00    -0.550 OA
ATOM     20  O   UNL     1      10.835  33.070  25.801  1.00  0.00    -0.550 OA
ENDBRANCH  17  18
ENDBRANCH  16  17
ENDBRANCH  15  16
ENDBRANCH  14  15
ENDBRANCH  13  14
ENDBRANCH  12  13
ENDBRANCH  11  12
ENDBRANCH   1  11
TORSDOF 15
ENDMDL
MODEL 7
REMARK VINA RESULT:    -4.076      3.317      5.510
REMARK INTER + INTRA:          -9.654
REMARK INTER:                  -7.264
REMARK INTRA:                  -2.390
REMARK UNBOUND:                -2.004
REMARK SMILES O=C([O-])CCCCCCCCCCCCCCC(=O)[O-]
REMARK SMILES IDX 10 1 9 2 8 3 7 4 6 5 5 6 4 7 2 8 1 9 3 10 11 11 12 12 13 13
REMARK SMILES IDX 14 14 15 15 16 16 17 17 18 18 19 19 20 20
REMARK H PARENT
REMARK Flexibility Score: inf
ROOT
ATOM      1  C   UNL     1       5.775  30.624  28.064  1.00  0.00     0.000 C 
ENDROOT
BRANCH   1   2
ATOM      2  C   UNL     1       5.138  30.621  26.660  1.00  0.00     0.000 C 
BRANCH   2   3
ATOM      3  C   UNL     1       4.666  29.242  26.158  1.00  0.00     0.000 C 
BRANCH   3   4
ATOM      4  C   UNL     1       5.348  28.752  24.868  1.00  0.00     0.000 C 
BRANCH   4   5
ATOM      5  C   UNL     1       6.405  27.668  25.127  1.00  0.00     0.000 C 
BRANCH   5   6
ATOM      6  C   UNL     1       5.745  26.339  25.512  1.00  0.00     0.006 C 
BRANCH   6   7
ATOM      7  C   UNL     1       6.794  25.241  25.709  1.00  0.00     0.053 C 
BRANCH   7   8
ATOM      8  C   UNL     1       7.518  25.436  27.004  1.00  0.00     0.041 C 
ATOM      9  O   UNL     1       6.893  25.376  28.095  1.00  0.00    -0.550 OA
ATOM     10  O   UNL     1       8.875  25.732  27.003  1.00  0.00    -0.550 OA
ENDBRANCH   7   8
ENDBRANCH   6   7
ENDBRANCH   5   6
ENDBRANCH   4   5
ENDBRANCH   3   4
ENDBRANCH   2   3
ENDBRANCH   1   2
BRANCH   1  11
ATOM     11  C   UNL     1       5.886  29.241  28.729  1.00  0.00     0.000 C 
BRANCH  11  12
ATOM     12  C   UNL     1       7.338  28.757  28.860  1.00  0.00     0.000 C 
BRANCH  12  13
ATOM     13  C   UNL     1       8.315  29.795  28.287  1.00  0.00     0.000 C 
BRANCH  13  14
ATOM     14  C   UNL     1       9.129  29.256  27.096  1.00  0.00     0.000 C 
BRANCH  14  15
ATOM     15  C   UNL     1       9.119  30.150  25.839  1.00  0.00     0.000 C 
BRANCH  15  16
ATOM     16  C   UNL     1       8.889  31.647  26.106  1.00  0.00     0.006 C 
BRANCH  16  17
ATOM     17  C   UNL     1      10.166  32.483  25.954  1.00  0.00     0.053 C 
BRANCH  17  18
ATOM     18  C   UNL     1      10.922  32.519  27.245  1.00  0.00     0.041 C 
ATOM     19  O   UNL     1      10.374  32.962  28.289  1.00  0.00    -0.550 OA
ATOM     20  O   UNL     1      12.249  32.108  27.286  1.00  0.00    -0.550 OA
ENDBRANCH  17  18
ENDBRANCH  16  17
ENDBRANCH  15  16
ENDBRANCH  14  15
ENDBRANCH  13  14
ENDBRANCH  12  13
ENDBRANCH  11  12
ENDBRANCH   1  11
TORSDOF 15
ENDMDL
MODEL 8
REMARK VINA RESULT:    -4.062      2.731      5.518
REMARK INTER + INTRA:          -9.629
REMARK INTER:                  -7.454
REMARK INTRA:                  -2.175
REMARK UNBOUND:                -2.004
REMARK SMILES O=C([O-])CCCCCCCCCCCCCCC(=O)[O-]
REMARK SMILES IDX 10 1 9 2 8 3 7 4 6 5 5 6 4 7 2 8 1 9 3 10 11 11 12 12 13 13
REMARK SMILES IDX 14 14 15 15 16 16 17 17 18 18 19 19 20 20
REMARK H PARENT
REMARK Flexibility Score: inf
ROOT
ATOM      1  C   UNL     1       9.249  31.349  30.602  1.00  0.00     0.000 C 
ENDROOT
BRANCH   1   2
ATOM      2  C   UNL     1      10.642  31.982  30.409  1.00  0.00     0.000 C 
BRANCH   2   3
ATOM      3  C   UNL     1      11.824  30.995  30.469  1.00  0.00     0.000 C 
BRANCH   3   4
ATOM      4  C   UNL     1      12.353  30.531  29.099  1.00  0.00     0.000 C 
BRANCH   4   5
ATOM      5  C   UNL     1      12.629  31.698  28.140  1.00  0.00     0.000 C 
BRANCH   5   6
ATOM      6  C   UNL     1      11.969  31.457  26.777  1.00  0.00     0.006 C 
BRANCH   6   7
ATOM      7  C   UNL     1      11.006  32.595  26.425  1.00  0.00     0.053 C 
BRANCH   7   8
ATOM      8  C   UNL     1      10.564  32.483  25.000  1.00  0.00     0.041 C 
ATOM      9  O   UNL     1      11.079  31.620  24.242  1.00  0.00    -0.550 OA
ATOM     10  O   UNL     1       9.618  33.366  24.495  1.00  0.00    -0.550 OA
ENDBRANCH   7   8
ENDBRANCH   6   7
ENDBRANCH   5   6
ENDBRANCH   4   5
ENDBRANCH   3   4
ENDBRANCH   2   3
ENDBRANCH   1   2
BRANCH   1  11
ATOM     11  C   UNL     1       8.506  31.007  29.298  1.00  0.00     0.000 C 
BRANCH  11  12
ATOM     12  C   UNL     1       8.677  29.538  28.883  1.00  0.00     0.000 C 
BRANCH  12  13
ATOM     13  C   UNL     1       9.190  29.433  27.439  1.00  0.00     0.000 C 
BRANCH  13  14
ATOM     14  C   UNL     1       8.191  29.988  26.407  1.00  0.00     0.000 C 
BRANCH  14  15
ATOM     15  C   UNL     1       6.911  29.149  26.219  1.00  0.00     0.000 C 
BRANCH  15  16
ATOM     16  C   UNL     1       7.136  27.736  25.651  1.00  0.00     0.006 C 
BRANCH  16  17
ATOM     17  C   UNL     1       6.577  26.633  26.558  1.00  0.00     0.053 C 
BRANCH  17  18
ATOM     18  C   UNL     1       7.612  26.197  27.547  1.00  0.00     0.041 C 
ATOM     19  O   UNL     1       7.351  26.195  28.779  1.00  0.00    -0.550 OA
ATOM     20  O   UNL     1       8.882  25.838  27.112  1.00  0.00    -0.550 OA
ENDBRANCH  17  18
ENDBRANCH  16  17
ENDBRANCH  15  16
ENDBRANCH  14  15
ENDBRANCH  13  14
ENDBRANCH  12  13
ENDBRANCH  11  12
ENDBRANCH   1  11
TORSDOF 15
ENDMDL
MODEL 9
REMARK VINA RESULT:    -4.044      3.302      5.329
REMARK INTER + INTRA:          -9.594
REMARK INTER:                  -7.381
REMARK INTRA:                  -2.213
REMARK UNBOUND:                -2.004
REMARK SMILES O=C([O-])CCCCCCCCCCCCCCC(=O)[O-]
REMARK SMILES IDX 10 1 9 2 8 3 7 4 6 5 5 6 4 7 2 8 1 9 3 10 11 11 12 12 13 13
REMARK SMILES IDX 14 14 15 15 16 16 17 17 18 18 19 19 20 20
REMARK H PARENT
REMARK Flexibility Score: inf
ROOT
ATOM      1  C   UNL     1       4.578  27.240  25.571  1.00  0.00     0.000 C 
ENDROOT
BRANCH   1   2
ATOM      2  C   UNL     1       3.993  27.168  26.996  1.00  0.00     0.000 C 
BRANCH   2   3
ATOM      3  C   UNL     1       4.811  26.332  27.999  1.00  0.00     0.000 C 
BRANCH   3   4
ATOM      4  C   UNL     1       5.684  27.151  28.967  1.00  0.00     0.000 C 
BRANCH   4   5
ATOM      5  C   UNL     1       7.167  27.165  28.567  1.00  0.00     0.000 C 
BRANCH   5   6
ATOM      6  C   UNL     1       7.565  25.848  27.890  1.00  0.00     0.006 C 
BRANCH   6   7
ATOM      7  C   UNL     1       8.533  26.097  26.730  1.00  0.00     0.053 C 
BRANCH   7   8
ATOM      8  C   UNL     1       7.924  25.659  25.436  1.00  0.00     0.041 C 
ATOM      9  O   UNL     1       8.101  26.337  24.391  1.00  0.00    -0.550 OA
ATOM     10  O   UNL     1       7.121  24.527  25.395  1.00  0.00    -0.550 OA
ENDBRANCH   7   8
ENDBRANCH   6   7
ENDBRANCH   5   6
ENDBRANCH   4   5
ENDBRANCH   3   4
ENDBRANCH   2   3
ENDBRANCH   1   2
BRANCH   1  11
ATOM     11  C   UNL     1       4.996  28.648  25.112  1.00  0.00     0.000 C 
BRANCH  11  12
ATOM     12  C   UNL     1       4.949  29.683  26.246  1.00  0.00     0.000 C 
BRANCH  12  13
ATOM     13  C   UNL     1       6.354  30.220  26.557  1.00  0.00     0.000 C 
BRANCH  13  14
ATOM     14  C   UNL     1       7.454  29.531  25.729  1.00  0.00     0.000 C 
BRANCH  14  15
ATOM     15  C   UNL     1       8.881  30.074  25.956  1.00  0.00     0.000 C 
BRANCH  15  16
ATOM     16  C   UNL     1       8.968  31.589  26.208  1.00  0.00     0.006 C 
BRANCH  16  17
ATOM     17  C   UNL     1       9.582  32.355  25.030  1.00  0.00     0.053 C 
BRANCH  17  18
ATOM     18  C   UNL     1      10.712  33.216  25.499  1.00  0.00     0.041 C 
ATOM     19  O   UNL     1      10.991  34.283  24.890  1.00  0.00    -0.550 OA
ATOM     20  O   UNL     1      11.489  32.818  26.579  1.00  0.00    -0.550 OA
ENDBRANCH  17  18
ENDBRANCH  16  17
ENDBRANCH  15  16
ENDBRANCH  14  15
ENDBRANCH  13  14
ENDBRANCH  12  13
ENDBRANCH  11  12
ENDBRANCH   1  11
TORSDOF 15
ENDMDL
