MODEL 1
REMARK VINA RESULT:    12.478      0.000      0.000
REMARK INTER + INTRA:          18.290
REMARK INTER:                  17.220
REMARK INTRA:                   1.070
REMARK UNBOUND:                 1.070
REMARK SMILES CC[C@@H](CC[C@@H](C)[C@@H]1CC[C@@H]2[C@@H]3CC=C4C[C@@H](O)CC[C@@]4(C)[C@@H]3CC[C@@]21C)C(C)C
REMARK SMILES IDX 5 1 4 2 3 3 2 4 1 5 28 6 29 7 30 8 6 9 7 10 8 11 9 12 26 13
REMARK SMILES IDX 10 14 11 15 25 16 27 17 12 18 24 19 23 20 13 21 21 22 14 23
REMARK SMILES IDX 15 24 20 25 22 26 16 27 19 28 17 29 18 30
REMARK H PARENT 18 31
REMARK Flexibility Score: inf
ROOT
ATOM      1  C   UNL     1       8.207 -37.243  14.423  1.00  0.00     0.004 C 
ENDROOT
BRANCH   1   2
ATOM      2  C   UNL     1       8.599 -36.758  13.008  1.00  0.00     0.004 C 
BRANCH   2   3
ATOM      3  C   UNL     1      10.072 -36.251  12.888  1.00  0.00    -0.009 C 
BRANCH   3   4
ATOM      4  C   UNL     1      11.058 -37.360  13.355  1.00  0.00     0.000 C 
ATOM      5  C   UNL     1      12.536 -36.964  13.257  1.00  0.00     0.004 C 
ENDBRANCH   3   4
BRANCH   3   6
ATOM      6  C   UNL     1      10.299 -34.883  13.618  1.00  0.00    -0.014 C 
ATOM      7  C   UNL     1      11.484 -34.104  13.019  1.00  0.00     0.007 C 
ATOM      8  C   UNL     1      10.547 -35.067  15.128  1.00  0.00     0.007 C 
ENDBRANCH   3   6
ENDBRANCH   2   3
ENDBRANCH   1   2
BRANCH   1   9
ATOM      9  C   UNL     1       6.696 -37.149  14.792  1.00  0.00    -0.011 C 
ATOM     10  C   UNL     1       6.338 -38.115  15.939  1.00  0.00     0.008 C 
BRANCH   9  11
ATOM     11  C   UNL     1       6.190 -35.664  14.960  1.00  0.00    -0.002 C 
ATOM     12  C   UNL     1       6.162 -34.798  13.686  1.00  0.00     0.005 C 
ATOM     13  C   UNL     1       6.833 -34.784  16.113  1.00  0.00    -0.026 C 
ATOM     14  C   UNL     1       6.996 -33.578  13.977  1.00  0.00     0.005 C 
ATOM     15  C   UNL     1       6.901 -33.353  15.491  1.00  0.00    -0.001 C 
ATOM     16  C   UNL     1       8.268 -35.189  16.552  1.00  0.00     0.007 C 
ATOM     17  C   UNL     1       5.882 -34.872  17.344  1.00  0.00     0.012 C 
ATOM     18  C   UNL     1       8.000 -32.371  16.054  1.00  0.00     0.000 C 
ATOM     19  C   UNL     1       8.930 -34.199  17.549  1.00  0.00     0.005 C 
ATOM     20  C   UNL     1       8.388 -32.735  17.499  1.00  0.00     0.003 C 
ATOM     21  C   UNL     1       9.285 -32.235  15.206  1.00  0.00     0.031 C 
ATOM     22  C   UNL     1       9.338 -31.651  18.157  1.00  0.00    -0.008 C 
ATOM     23  C   UNL     1      10.282 -31.308  15.835  1.00  0.00    -0.027 C 
ATOM     24  C   UNL     1      10.356 -31.082  17.164  1.00  0.00    -0.065 C 
ATOM     25  C   UNL     1       8.477 -30.446  18.660  1.00  0.00     0.014 C 
ATOM     26  C   UNL     1      10.076 -32.262  19.380  1.00  0.00     0.016 C 
ATOM     27  C   UNL     1      11.240 -29.954  17.654  1.00  0.00     0.063 C 
ATOM     28  C   UNL     1       9.306 -29.233  19.139  1.00  0.00     0.033 C 
ATOM     29  C   UNL     1      10.360 -28.781  18.111  1.00  0.00     0.118 C 
BRANCH  29  30
ATOM     30  O   UNL     1       9.714 -28.207  17.000  1.00  0.00    -0.393 OA
ATOM     31  H   UNL     1      10.428 -27.916  16.376  1.00  0.00     0.210 HD
ENDBRANCH  29  30
ENDBRANCH   9  11
ENDBRANCH   1   9
TORSDOF 7
ENDMDL
MODEL 2
REMARK VINA RESULT:    15.286      1.755      2.321
REMARK INTER + INTRA:          22.165
REMARK INTER:                  21.436
REMARK INTRA:                   0.728
REMARK UNBOUND:                 1.070
REMARK SMILES CC[C@@H](CC[C@@H](C)[C@@H]1CC[C@@H]2[C@@H]3CC=C4C[C@@H](O)CC[C@@]4(C)[C@@H]3CC[C@@]21C)C(C)C
REMARK SMILES IDX 5 1 4 2 3 3 2 4 1 5 28 6 29 7 30 8 6 9 7 10 8 11 9 12 26 13
REMARK SMILES IDX 10 14 11 15 25 16 27 17 12 18 24 19 23 20 13 21 21 22 14 23
REMARK SMILES IDX 15 24 20 25 22 26 16 27 19 28 17 29 18 30
REMARK H PARENT 18 31
REMARK Flexibility Score: inf
ROOT
ATOM      1  C   UNL     1       9.337 -36.131  13.815  1.00  0.00     0.004 C 
ENDROOT
BRANCH   1   2
ATOM      2  C   UNL     1      10.554 -36.356  12.885  1.00  0.00     0.004 C 
BRANCH   2   3
ATOM      3  C   UNL     1      11.618 -35.213  12.932  1.00  0.00    -0.009 C 
BRANCH   3   4
ATOM      4  C   UNL     1      12.944 -35.743  13.550  1.00  0.00     0.000 C 
ATOM      5  C   UNL     1      12.838 -37.153  14.142  1.00  0.00     0.004 C 
ENDBRANCH   3   4
BRANCH   3   6
ATOM      6  C   UNL     1      11.084 -33.923  13.644  1.00  0.00    -0.014 C 
ATOM      7  C   UNL     1       9.667 -33.554  13.170  1.00  0.00     0.007 C 
ATOM      8  C   UNL     1      12.008 -32.711  13.417  1.00  0.00     0.007 C 
ENDBRANCH   3   6
ENDBRANCH   2   3
ENDBRANCH   1   2
BRANCH   1   9
ATOM      9  C   UNL     1       7.950 -36.563  13.253  1.00  0.00    -0.011 C 
ATOM     10  C   UNL     1       7.736 -38.083  13.399  1.00  0.00     0.008 C 
BRANCH   9  11
ATOM     11  C   UNL     1       6.766 -35.649  13.755  1.00  0.00    -0.002 C 
ATOM     12  C   UNL     1       6.418 -34.431  12.879  1.00  0.00     0.005 C 
ATOM     13  C   UNL     1       6.796 -35.153  15.262  1.00  0.00    -0.026 C 
ATOM     14  C   UNL     1       6.515 -33.219  13.769  1.00  0.00     0.005 C 
ATOM     15  C   UNL     1       6.199 -33.711  15.187  1.00  0.00    -0.001 C 
ATOM     16  C   UNL     1       8.204 -35.060  15.916  1.00  0.00     0.007 C 
ATOM     17  C   UNL     1       5.917 -36.138  16.090  1.00  0.00     0.012 C 
ATOM     18  C   UNL     1       6.622 -32.694  16.317  1.00  0.00     0.000 C 
ATOM     19  C   UNL     1       8.209 -34.402  17.322  1.00  0.00     0.005 C 
ATOM     20  C   UNL     1       7.022 -33.428  17.611  1.00  0.00     0.003 C 
ATOM     21  C   UNL     1       7.737 -31.690  15.942  1.00  0.00     0.031 C 
ATOM     22  C   UNL     1       7.257 -32.431  18.820  1.00  0.00    -0.008 C 
ATOM     23  C   UNL     1       8.092 -30.789  17.086  1.00  0.00    -0.027 C 
ATOM     24  C   UNL     1       7.938 -31.130  18.383  1.00  0.00    -0.065 C 
ATOM     25  C   UNL     1       5.877 -32.032  19.436  1.00  0.00     0.014 C 
ATOM     26  C   UNL     1       8.099 -33.125  19.925  1.00  0.00     0.016 C 
ATOM     27  C   UNL     1       8.108 -30.056  19.436  1.00  0.00     0.063 C 
ATOM     28  C   UNL     1       5.958 -30.908  20.493  1.00  0.00     0.033 C 
ATOM     29  C   UNL     1       6.730 -29.671  19.996  1.00  0.00     0.118 C 
BRANCH  29  30
ATOM     30  O   UNL     1       5.977 -29.015  19.005  1.00  0.00    -0.393 OA
ATOM     31  H   UNL     1       5.246 -28.536  19.474  1.00  0.00     0.210 HD
ENDBRANCH  29  30
ENDBRANCH   9  11
ENDBRANCH   1   9
TORSDOF 7
ENDMDL
