MODEL 1
REMARK VINA RESULT:    -3.579      0.000      0.000
REMARK INTER + INTRA:          -5.668
REMARK INTER:                  -5.044
REMARK INTRA:                  -0.624
REMARK UNBOUND:                -0.624
REMARK SMILES C=CCCCCCCC(=O)[O-]
REMARK SMILES IDX 6 1 7 2 8 3 9 4 10 5 11 6 5 7 4 8 3 9 2 10 1 11
REMARK H PARENT
REMARK Flexibility Score: inf
ROOT
ATOM      1  C   UNL     1      48.236   7.183 111.282  1.00  0.00     0.000 C 
ENDROOT
BRANCH   1   2
ATOM      2  C   UNL     1      47.624   6.507 112.514  1.00  0.00     0.006 C 
BRANCH   2   3
ATOM      3  C   UNL     1      46.961   7.537 113.435  1.00  0.00     0.053 C 
BRANCH   3   4
ATOM      4  C   UNL     1      47.857   7.863 114.587  1.00  0.00     0.041 C 
ATOM      5  O   UNL     1      47.490   7.609 115.766  1.00  0.00    -0.550 OA
ATOM      6  O   UNL     1      49.075   8.492 114.366  1.00  0.00    -0.550 OA
ENDBRANCH   3   4
ENDBRANCH   2   3
ENDBRANCH   1   2
BRANCH   1   7
ATOM      7  C   UNL     1      49.420   6.374 110.742  1.00  0.00     0.000 C 
BRANCH   7   8
ATOM      8  C   UNL     1      49.472   4.978 111.383  1.00  0.00     0.004 C 
BRANCH   8   9
ATOM      9  C   UNL     1      50.795   4.730 112.123  1.00  0.00     0.027 C 
BRANCH   9  10
ATOM     10  C   UNL     1      50.585   4.365 113.568  1.00  0.00    -0.035 C 
ATOM     11  C   UNL     1      50.533   5.292 114.528  1.00  0.00     0.004 C 
ENDBRANCH   9  10
ENDBRANCH   8   9
ENDBRANCH   7   8
ENDBRANCH   1   7
TORSDOF 7
ENDMDL
MODEL 2
REMARK VINA RESULT:    -3.564      2.562      3.787
REMARK INTER + INTRA:          -5.647
REMARK INTER:                  -5.337
REMARK INTRA:                  -0.310
REMARK UNBOUND:                -0.624
REMARK SMILES C=CCCCCCCC(=O)[O-]
REMARK SMILES IDX 6 1 7 2 8 3 9 4 10 5 11 6 5 7 4 8 3 9 2 10 1 11
REMARK H PARENT
REMARK Flexibility Score: inf
ROOT
ATOM      1  C   UNL     1      45.674   7.540 113.666  1.00  0.00     0.000 C 
ENDROOT
BRANCH   1   2
ATOM      2  C   UNL     1      44.702   6.509 114.252  1.00  0.00     0.006 C 
BRANCH   2   3
ATOM      3  C   UNL     1      43.447   7.188 114.806  1.00  0.00     0.053 C 
BRANCH   3   4
ATOM      4  C   UNL     1      43.791   8.047 115.981  1.00  0.00     0.041 C 
ATOM      5  O   UNL     1      43.439   9.257 116.006  1.00  0.00    -0.550 OA
ATOM      6  O   UNL     1      44.542   7.527 117.026  1.00  0.00    -0.550 OA
ENDBRANCH   3   4
ENDBRANCH   2   3
ENDBRANCH   1   2
BRANCH   1   7
ATOM      7  C   UNL     1      46.951   6.864 113.153  1.00  0.00     0.000 C 
BRANCH   7   8
ATOM      8  C   UNL     1      47.566   7.661 111.993  1.00  0.00     0.004 C 
BRANCH   8   9
ATOM      9  C   UNL     1      48.619   6.847 111.226  1.00  0.00     0.027 C 
BRANCH   9  10
ATOM     10  C   UNL     1      48.855   5.492 111.838  1.00  0.00    -0.035 C 
ATOM     11  C   UNL     1      49.552   4.545 111.204  1.00  0.00     0.004 C 
ENDBRANCH   9  10
ENDBRANCH   8   9
ENDBRANCH   7   8
ENDBRANCH   1   7
TORSDOF 7
ENDMDL
MODEL 3
REMARK VINA RESULT:    -3.552      7.252     10.022
REMARK INTER + INTRA:          -5.630
REMARK INTER:                  -5.053
REMARK INTRA:                  -0.578
REMARK UNBOUND:                -0.624
REMARK SMILES C=CCCCCCCC(=O)[O-]
REMARK SMILES IDX 6 1 7 2 8 3 9 4 10 5 11 6 5 7 4 8 3 9 2 10 1 11
REMARK H PARENT
REMARK Flexibility Score: inf
ROOT
ATOM      1  C   UNL     1      42.718  10.311 119.707  1.00  0.00     0.000 C 
ENDROOT
BRANCH   1   2
ATOM      2  C   UNL     1      43.936   9.727 118.983  1.00  0.00     0.006 C 
BRANCH   2   3
ATOM      3  C   UNL     1      43.541   9.143 117.623  1.00  0.00     0.053 C 
BRANCH   3   4
ATOM      4  C   UNL     1      44.085   9.983 116.513  1.00  0.00     0.041 C 
ATOM      5  O   UNL     1      43.379  10.893 116.000  1.00  0.00    -0.550 OA
ATOM      6  O   UNL     1      45.354   9.731 116.008  1.00  0.00    -0.550 OA
ENDBRANCH   3   4
ENDBRANCH   2   3
ENDBRANCH   1   2
BRANCH   1   7
ATOM      7  C   UNL     1      42.713  11.842 119.631  1.00  0.00     0.000 C 
BRANCH   7   8
ATOM      8  C   UNL     1      42.571  12.462 121.029  1.00  0.00     0.004 C 
BRANCH   8   9
ATOM      9  C   UNL     1      43.771  12.137 121.931  1.00  0.00     0.027 C 
BRANCH   9  10
ATOM     10  C   UNL     1      45.025  12.848 121.497  1.00  0.00    -0.035 C 
ATOM     11  C   UNL     1      46.138  12.181 121.179  1.00  0.00     0.004 C 
ENDBRANCH   9  10
ENDBRANCH   8   9
ENDBRANCH   7   8
ENDBRANCH   1   7
TORSDOF 7
ENDMDL
MODEL 4
REMARK VINA RESULT:    -3.533      1.814      3.492
REMARK INTER + INTRA:          -5.603
REMARK INTER:                  -4.850
REMARK INTRA:                  -0.753
REMARK UNBOUND:                -0.624
REMARK SMILES C=CCCCCCCC(=O)[O-]
REMARK SMILES IDX 6 1 7 2 8 3 9 4 10 5 11 6 5 7 4 8 3 9 2 10 1 11
REMARK H PARENT
REMARK Flexibility Score: inf
ROOT
ATOM      1  C   UNL     1      50.960   4.802 112.276  1.00  0.00     0.000 C 
ENDROOT
BRANCH   1   2
ATOM      2  C   UNL     1      49.724   4.703 111.373  1.00  0.00     0.006 C 
BRANCH   2   3
ATOM      3  C   UNL     1      49.337   6.076 110.817  1.00  0.00     0.053 C 
BRANCH   3   4
ATOM      4  C   UNL     1      48.224   6.671 111.617  1.00  0.00     0.041 C 
ATOM      5  O   UNL     1      47.685   6.009 112.544  1.00  0.00    -0.550 OA
ATOM      6  O   UNL     1      47.745   7.938 111.309  1.00  0.00    -0.550 OA
ENDBRANCH   3   4
ENDBRANCH   2   3
ENDBRANCH   1   2
BRANCH   1   7
ATOM      7  C   UNL     1      50.664   4.251 113.675  1.00  0.00     0.000 C 
BRANCH   7   8
ATOM      8  C   UNL     1      50.616   5.383 114.713  1.00  0.00     0.004 C 
BRANCH   8   9
ATOM      9  C   UNL     1      51.063   6.729 114.123  1.00  0.00     0.027 C 
BRANCH   9  10
ATOM     10  C   UNL     1      50.540   7.902 114.908  1.00  0.00    -0.035 C 
ATOM     11  C   UNL     1      49.473   8.599 114.508  1.00  0.00     0.004 C 
ENDBRANCH   9  10
ENDBRANCH   8   9
ENDBRANCH   7   8
ENDBRANCH   1   7
TORSDOF 7
ENDMDL
MODEL 5
REMARK VINA RESULT:    -3.527      2.120      2.797
REMARK INTER + INTRA:          -5.595
REMARK INTER:                  -5.253
REMARK INTRA:                  -0.342
REMARK UNBOUND:                -0.624
REMARK SMILES C=CCCCCCCC(=O)[O-]
REMARK SMILES IDX 6 1 7 2 8 3 9 4 10 5 11 6 5 7 4 8 3 9 2 10 1 11
REMARK H PARENT
REMARK Flexibility Score: inf
ROOT
ATOM      1  C   UNL     1      47.504   6.547 112.597  1.00  0.00     0.000 C 
ENDROOT
BRANCH   1   2
ATOM      2  C   UNL     1      46.502   7.511 113.243  1.00  0.00     0.006 C 
BRANCH   2   3
ATOM      3  C   UNL     1      45.352   6.746 113.906  1.00  0.00     0.053 C 
BRANCH   3   4
ATOM      4  C   UNL     1      44.205   7.664 114.187  1.00  0.00     0.041 C 
ATOM      5  O   UNL     1      44.060   8.721 113.516  1.00  0.00    -0.550 OA
ATOM      6  O   UNL     1      43.324   7.380 115.222  1.00  0.00    -0.550 OA
ENDBRANCH   3   4
ENDBRANCH   2   3
ENDBRANCH   1   2
BRANCH   1   7
ATOM      7  C   UNL     1      48.158   7.180 111.363  1.00  0.00     0.000 C 
BRANCH   7   8
ATOM      8  C   UNL     1      49.386   6.371 110.916  1.00  0.00     0.004 C 
BRANCH   8   9
ATOM      9  C   UNL     1      49.363   4.935 111.462  1.00  0.00     0.027 C 
BRANCH   9  10
ATOM     10  C   UNL     1      50.564   4.627 112.316  1.00  0.00    -0.035 C 
ATOM     11  C   UNL     1      50.457   4.414 113.630  1.00  0.00     0.004 C 
ENDBRANCH   9  10
ENDBRANCH   8   9
ENDBRANCH   7   8
ENDBRANCH   1   7
TORSDOF 7
ENDMDL
MODEL 6
REMARK VINA RESULT:    -3.519      9.009     11.571
REMARK INTER + INTRA:          -5.583
REMARK INTER:                  -5.131
REMARK INTRA:                  -0.452
REMARK UNBOUND:                -0.624
REMARK SMILES C=CCCCCCCC(=O)[O-]
REMARK SMILES IDX 6 1 7 2 8 3 9 4 10 5 11 6 5 7 4 8 3 9 2 10 1 11
REMARK H PARENT
REMARK Flexibility Score: inf
ROOT
ATOM      1  C   UNL     1      42.233  14.081 113.819  1.00  0.00     0.000 C 
ENDROOT
BRANCH   1   2
ATOM      2  C   UNL     1      41.420  12.919 114.402  1.00  0.00     0.006 C 
BRANCH   2   3
ATOM      3  C   UNL     1      41.296  11.773 113.394  1.00  0.00     0.053 C 
BRANCH   3   4
ATOM      4  C   UNL     1      42.431  10.811 113.552  1.00  0.00     0.041 C 
ATOM      5  O   UNL     1      42.910  10.225 112.544  1.00  0.00    -0.550 OA
ATOM      6  O   UNL     1      42.926  10.522 114.816  1.00  0.00    -0.550 OA
ENDBRANCH   3   4
ENDBRANCH   2   3
ENDBRANCH   1   2
BRANCH   1   7
ATOM      7  C   UNL     1      41.332  15.051 113.046  1.00  0.00     0.000 C 
BRANCH   7   8
ATOM      8  C   UNL     1      40.293  15.695 113.976  1.00  0.00     0.004 C 
BRANCH   8   9
ATOM      9  C   UNL     1      40.349  17.229 113.931  1.00  0.00     0.027 C 
BRANCH   9  10
ATOM     10  C   UNL     1      40.788  17.826 115.242  1.00  0.00    -0.035 C 
ATOM     11  C   UNL     1      41.160  17.064 116.273  1.00  0.00     0.004 C 
ENDBRANCH   9  10
ENDBRANCH   8   9
ENDBRANCH   7   8
ENDBRANCH   1   7
TORSDOF 7
ENDMDL
MODEL 7
REMARK VINA RESULT:    -3.507      6.151      9.007
REMARK INTER + INTRA:          -5.566
REMARK INTER:                  -5.205
REMARK INTRA:                  -0.361
REMARK UNBOUND:                -0.624
REMARK SMILES C=CCCCCCCC(=O)[O-]
REMARK SMILES IDX 6 1 7 2 8 3 9 4 10 5 11 6 5 7 4 8 3 9 2 10 1 11
REMARK H PARENT
REMARK Flexibility Score: inf
ROOT
ATOM      1  C   UNL     1      43.838   8.486 117.605  1.00  0.00     0.000 C 
ENDROOT
BRANCH   1   2
ATOM      2  C   UNL     1      44.123   9.827 116.919  1.00  0.00     0.006 C 
BRANCH   2   3
ATOM      3  C   UNL     1      45.049   9.642 115.713  1.00  0.00     0.053 C 
BRANCH   3   4
ATOM      4  C   UNL     1      46.452   9.389 116.162  1.00  0.00     0.041 C 
ATOM      5  O   UNL     1      47.055  10.241 116.870  1.00  0.00    -0.550 OA
ATOM      6  O   UNL     1      47.115   8.237 115.760  1.00  0.00    -0.550 OA
ENDBRANCH   3   4
ENDBRANCH   2   3
ENDBRANCH   1   2
BRANCH   1   7
ATOM      7  C   UNL     1      43.177   8.696 118.972  1.00  0.00     0.000 C 
BRANCH   7   8
ATOM      8  C   UNL     1      43.008  10.192 119.277  1.00  0.00     0.004 C 
BRANCH   8   9
ATOM      9  C   UNL     1      42.198  10.434 120.560  1.00  0.00     0.027 C 
BRANCH   9  10
ATOM     10  C   UNL     1      42.175  11.885 120.960  1.00  0.00    -0.035 C 
ATOM     11  C   UNL     1      42.605  12.848 120.141  1.00  0.00     0.004 C 
ENDBRANCH   9  10
ENDBRANCH   8   9
ENDBRANCH   7   8
ENDBRANCH   1   7
TORSDOF 7
ENDMDL
MODEL 8
REMARK VINA RESULT:    -3.492      1.687      3.949
REMARK INTER + INTRA:          -5.545
REMARK INTER:                  -5.035
REMARK INTRA:                  -0.511
REMARK UNBOUND:                -0.624
REMARK SMILES C=CCCCCCCC(=O)[O-]
REMARK SMILES IDX 6 1 7 2 8 3 9 4 10 5 11 6 5 7 4 8 3 9 2 10 1 11
REMARK H PARENT
REMARK Flexibility Score: inf
ROOT
ATOM      1  C   UNL     1      49.025   4.946 111.715  1.00  0.00     0.000 C 
ENDROOT
BRANCH   1   2
ATOM      2  C   UNL     1      50.461   4.614 112.137  1.00  0.00     0.006 C 
BRANCH   2   3
ATOM      3  C   UNL     1      50.529   4.269 113.628  1.00  0.00     0.053 C 
BRANCH   3   4
ATOM      4  C   UNL     1      50.894   5.477 114.430  1.00  0.00     0.041 C 
ATOM      5  O   UNL     1      51.221   6.547 113.851  1.00  0.00    -0.550 OA
ATOM      6  O   UNL     1      50.923   5.408 115.817  1.00  0.00    -0.550 OA
ENDBRANCH   3   4
ENDBRANCH   2   3
ENDBRANCH   1   2
BRANCH   1   7
ATOM      7  C   UNL     1      48.971   6.266 110.937  1.00  0.00     0.000 C 
BRANCH   7   8
ATOM      8  C   UNL     1      48.127   7.311 111.683  1.00  0.00     0.004 C 
BRANCH   8   9
ATOM      9  C   UNL     1      47.481   6.734 112.952  1.00  0.00     0.027 C 
BRANCH   9  10
ATOM     10  C   UNL     1      46.215   7.456 113.330  1.00  0.00    -0.035 C 
ATOM     11  C   UNL     1      45.336   6.932 114.189  1.00  0.00     0.004 C 
ENDBRANCH   9  10
ENDBRANCH   8   9
ENDBRANCH   7   8
ENDBRANCH   1   7
TORSDOF 7
ENDMDL
MODEL 9
REMARK VINA RESULT:    -3.480      5.980      8.685
REMARK INTER + INTRA:          -5.529
REMARK INTER:                  -5.175
REMARK INTRA:                  -0.354
REMARK UNBOUND:                -0.624
REMARK SMILES C=CCCCCCCC(=O)[O-]
REMARK SMILES IDX 6 1 7 2 8 3 9 4 10 5 11 6 5 7 4 8 3 9 2 10 1 11
REMARK H PARENT
REMARK Flexibility Score: inf
ROOT
ATOM      1  C   UNL     1      43.758   9.836 116.922  1.00  0.00     0.000 C 
ENDROOT
BRANCH   1   2
ATOM      2  C   UNL     1      43.748   9.303 115.485  1.00  0.00     0.006 C 
BRANCH   2   3
ATOM      3  C   UNL     1      43.671   7.773 115.466  1.00  0.00     0.053 C 
BRANCH   3   4
ATOM      4  C   UNL     1      44.363   7.228 114.258  1.00  0.00     0.041 C 
ATOM      5  O   UNL     1      44.175   6.033 113.904  1.00  0.00    -0.550 OA
ATOM      6  O   UNL     1      45.255   8.023 113.550  1.00  0.00    -0.550 OA
ENDBRANCH   3   4
ENDBRANCH   2   3
ENDBRANCH   1   2
BRANCH   1   7
ATOM      7  C   UNL     1      43.461   8.717 117.927  1.00  0.00     0.000 C 
BRANCH   7   8
ATOM      8  C   UNL     1      43.323   9.277 119.351  1.00  0.00     0.004 C 
BRANCH   8   9
ATOM      9  C   UNL     1      43.056  10.790 119.354  1.00  0.00     0.027 C 
BRANCH   9  10
ATOM     10  C   UNL     1      42.238  11.226 120.540  1.00  0.00    -0.035 C 
ATOM     11  C   UNL     1      41.494  10.364 121.238  1.00  0.00     0.004 C 
ENDBRANCH   9  10
ENDBRANCH   8   9
ENDBRANCH   7   8
ENDBRANCH   1   7
TORSDOF 7
ENDMDL
