MODEL 1
REMARK VINA RESULT:    -4.336      0.000      0.000
REMARK INTER + INTRA:          -4.825
REMARK INTER:                  -5.349
REMARK INTRA:                   0.524
REMARK UNBOUND:                 0.524
REMARK SMILES C=C1[C@H]2CC[C@@H]3[C@@H]2C(C)(C)CCC[C@]13C
REMARK SMILES IDX 14 1 6 2 7 3 3 4 2 5 1 6 4 7 5 8 15 9 8 10 9 11 10 12 11 13
REMARK SMILES IDX 13 15 12 16
REMARK H PARENT
REMARK Flexibility Score: 80.00
ROOT
ATOM      1  C   UNL     1      30.823  11.001  31.432  1.00  0.00    -0.008 C 
ATOM      2  C   UNL     1      30.775  10.455  32.851  1.00  0.00     0.003 C 
ATOM      3  C   UNL     1      31.951   9.464  32.768  1.00  0.00     0.006 C 
ATOM      4  C   UNL     1      32.995  10.548  32.563  1.00  0.00     0.019 C 
ATOM      5  C   UNL     1      32.342  11.214  31.330  1.00  0.00    -0.068 C 
ATOM      6  C   UNL     1      32.998  11.800  30.324  1.00  0.00     0.009 C 
ATOM      7  C   UNL     1      32.779  11.476  33.751  1.00  0.00     0.008 C 
ATOM      8  C   UNL     1      31.261  11.437  33.943  1.00  0.00     0.005 C 
ATOM      9  C   UNL     1      30.067  12.337  31.268  1.00  0.00     0.016 C 
ENDROOT
BRANCH   3  10
ATOM     10  C   UNL     1      31.492   8.043  33.161  1.00  0.00    -0.032 C 
ATOM     11  C   UNL     1      32.629   7.000  32.977  1.00  0.00     0.011 C 
ATOM     12  C   UNL     1      31.055   7.989  34.641  1.00  0.00     0.011 C 
BRANCH  10  13
ATOM     13  C   UNL     1      30.264   7.705  32.195  1.00  0.00     0.007 CG0
ATOM     14  G   UNL     1      30.320   8.312  30.726  1.00  0.00     0.000 G0
ENDBRANCH  10  13
ENDBRANCH   3  10
BRANCH   1  15
ATOM     15  C   UNL     1      30.167   9.893  30.488  1.00  0.00     0.011 C 
BRANCH  15  16
ATOM     16  C   UNL     1      30.319   8.322  30.732  1.00  0.00     0.001 CG0
ATOM     17  G   UNL     1      30.261   7.711  32.199  1.00  0.00     0.000 G0
ENDBRANCH  15  16
ENDBRANCH   1  15
TORSDOF 0
ENDMDL
MODEL 2
REMARK VINA RESULT:    -4.322      1.236      3.750
REMARK INTER + INTRA:          -4.808
REMARK INTER:                  -5.317
REMARK INTRA:                   0.509
REMARK UNBOUND:                 0.524
REMARK SMILES C=C1[C@H]2CC[C@@H]3[C@@H]2C(C)(C)CCC[C@]13C
REMARK SMILES IDX 14 1 6 2 7 3 3 4 2 5 1 6 4 7 5 8 15 9 8 10 9 11 10 12 11 13
REMARK SMILES IDX 13 15 12 16
REMARK H PARENT
REMARK Flexibility Score: 80.00
ROOT
ATOM      1  C   UNL     1      31.360   8.450  32.449  1.00  0.00    -0.008 C 
ATOM      2  C   UNL     1      32.283   9.527  31.899  1.00  0.00     0.003 C 
ATOM      3  C   UNL     1      31.221  10.550  31.454  1.00  0.00     0.006 C 
ATOM      4  C   UNL     1      30.731  10.824  32.865  1.00  0.00     0.019 C 
ATOM      5  C   UNL     1      30.411   9.360  33.245  1.00  0.00    -0.068 C 
ATOM      6  C   UNL     1      29.430   8.965  34.062  1.00  0.00     0.009 C 
ATOM      7  C   UNL     1      32.000  11.220  33.608  1.00  0.00     0.008 C 
ATOM      8  C   UNL     1      33.064  10.324  32.970  1.00  0.00     0.005 C 
ATOM      9  C   UNL     1      32.079   7.451  33.381  1.00  0.00     0.016 C 
ENDROOT
BRANCH   3  10
ATOM     10  C   UNL     1      31.394  10.896  29.958  1.00  0.00    -0.032 C 
ATOM     11  C   UNL     1      30.294  11.875  29.464  1.00  0.00     0.011 C 
ATOM     12  C   UNL     1      32.760  11.571  29.699  1.00  0.00     0.011 C 
BRANCH  10  13
ATOM     13  C   UNL     1      31.294   9.504  29.180  1.00  0.00     0.007 CG0
ATOM     14  G   UNL     1      30.365   8.387  29.827  1.00  0.00     0.000 G0
ENDBRANCH  10  13
ENDBRANCH   3  10
BRANCH   1  15
ATOM     15  C   UNL     1      30.758   7.671  31.192  1.00  0.00     0.011 C 
BRANCH  15  16
ATOM     16  C   UNL     1      30.371   8.383  29.815  1.00  0.00     0.001 CG0
ATOM     17  G   UNL     1      31.299   9.512  29.186  1.00  0.00     0.000 G0
ENDBRANCH  15  16
ENDBRANCH   1  15
TORSDOF 0
ENDMDL
MODEL 3
REMARK VINA RESULT:    -4.109      2.049      2.973
REMARK INTER + INTRA:          -4.546
REMARK INTER:                  -5.067
REMARK INTRA:                   0.522
REMARK UNBOUND:                 0.524
REMARK SMILES C=C1[C@H]2CC[C@@H]3[C@@H]2C(C)(C)CCC[C@]13C
REMARK SMILES IDX 14 1 6 2 7 3 3 4 2 5 1 6 4 7 5 8 15 9 8 10 9 11 10 12 11 13
REMARK SMILES IDX 13 15 12 16
REMARK H PARENT
REMARK Flexibility Score: 80.00
ROOT
ATOM      1  C   UNL     1      30.070  10.570  32.722  1.00  0.00    -0.008 C 
ATOM      2  C   UNL     1      30.956  10.902  33.913  1.00  0.00     0.003 C 
ATOM      3  C   UNL     1      31.331   9.470  34.340  1.00  0.00     0.006 C 
ATOM      4  C   UNL     1      32.102   9.172  33.066  1.00  0.00     0.019 C 
ATOM      5  C   UNL     1      30.966   9.503  32.071  1.00  0.00    -0.068 C 
ATOM      6  C   UNL     1      30.765   8.907  30.892  1.00  0.00     0.009 C 
ATOM      7  C   UNL     1      33.117  10.305  32.993  1.00  0.00     0.008 C 
ATOM      8  C   UNL     1      32.337  11.498  33.550  1.00  0.00     0.005 C 
ATOM      9  C   UNL     1      29.856  11.766  31.770  1.00  0.00     0.016 C 
ENDROOT
BRANCH   3  10
ATOM     10  C   UNL     1      30.961   9.232  35.821  1.00  0.00    -0.032 C 
ATOM     11  C   UNL     1      31.225   7.763  36.250  1.00  0.00     0.011 C 
ATOM     12  C   UNL     1      31.792  10.140  36.754  1.00  0.00     0.011 C 
BRANCH  10  13
ATOM     13  C   UNL     1      29.404   9.575  35.936  1.00  0.00     0.007 CG0
ATOM     14  G   UNL     1      28.505   9.261  34.661  1.00  0.00     0.000 G0
ENDBRANCH  10  13
ENDBRANCH   3  10
BRANCH   1  15
ATOM     15  C   UNL     1      28.663  10.096  33.311  1.00  0.00     0.011 C 
BRANCH  15  16
ATOM     16  C   UNL     1      28.509   9.263  34.665  1.00  0.00     0.001 CG0
ATOM     17  G   UNL     1      29.414   9.584  35.933  1.00  0.00     0.000 G0
ENDBRANCH  15  16
ENDBRANCH   1  15
TORSDOF 0
ENDMDL
MODEL 4
REMARK VINA RESULT:    -4.080      1.704      3.731
REMARK INTER + INTRA:          -4.509
REMARK INTER:                  -5.030
REMARK INTRA:                   0.521
REMARK UNBOUND:                 0.524
REMARK SMILES C=C1[C@H]2CC[C@@H]3[C@@H]2C(C)(C)CCC[C@]13C
REMARK SMILES IDX 14 1 6 2 7 3 3 4 2 5 1 6 4 7 5 8 15 9 8 10 9 11 10 12 11 13
REMARK SMILES IDX 13 15 12 16
REMARK H PARENT
REMARK Flexibility Score: 80.00
ROOT
ATOM      1  C   UNL     1      30.047   9.912  33.147  1.00  0.00    -0.008 C 
ATOM      2  C   UNL     1      30.404   9.068  31.933  1.00  0.00     0.003 C 
ATOM      3  C   UNL     1      31.559   9.923  31.377  1.00  0.00     0.006 C 
ATOM      4  C   UNL     1      32.461   9.686  32.576  1.00  0.00     0.019 C 
ATOM      5  C   UNL     1      31.473  10.174  33.660  1.00  0.00    -0.068 C 
ATOM      6  C   UNL     1      31.808  10.783  34.801  1.00  0.00     0.009 C 
ATOM      7  C   UNL     1      32.529   8.167  32.671  1.00  0.00     0.008 C 
ATOM      8  C   UNL     1      31.121   7.735  32.254  1.00  0.00     0.005 C 
ATOM      9  C   UNL     1      29.215   9.145  34.197  1.00  0.00     0.016 C 
ENDROOT
BRANCH   3  10
ATOM     10  C   UNL     1      31.285  10.315  29.908  1.00  0.00    -0.032 C 
ATOM     11  C   UNL     1      32.385  11.261  29.352  1.00  0.00     0.011 C 
ATOM     12  C   UNL     1      31.249   9.068  28.998  1.00  0.00     0.011 C 
BRANCH  10  13
ATOM     13  C   UNL     1      29.868  11.052  29.916  1.00  0.00     0.007 CG0
ATOM     14  G   UNL     1      29.504  11.893  31.217  1.00  0.00     0.000 G0
ENDBRANCH  10  13
ENDBRANCH   3  10
BRANCH   1  15
ATOM     15  C   UNL     1      29.212  11.163  32.611  1.00  0.00     0.011 C 
BRANCH  15  16
ATOM     16  C   UNL     1      29.503  11.888  31.218  1.00  0.00     0.001 CG0
ATOM     17  G   UNL     1      29.866  11.047  29.917  1.00  0.00     0.000 G0
ENDBRANCH  15  16
ENDBRANCH   1  15
TORSDOF 0
ENDMDL
MODEL 5
REMARK VINA RESULT:    -4.037      1.667      3.173
REMARK INTER + INTRA:          -4.457
REMARK INTER:                  -4.946
REMARK INTRA:                   0.490
REMARK UNBOUND:                 0.524
REMARK SMILES C=C1[C@H]2CC[C@@H]3[C@@H]2C(C)(C)CCC[C@]13C
REMARK SMILES IDX 14 1 6 2 7 3 3 4 2 5 1 6 4 7 5 8 15 9 8 10 9 11 10 12 11 13
REMARK SMILES IDX 13 15 12 16
REMARK H PARENT
REMARK Flexibility Score: 80.00
ROOT
ATOM      1  C   UNL     1      29.619  11.442  30.231  1.00  0.00    -0.008 C 
ATOM      2  C   UNL     1      31.042  11.623  30.736  1.00  0.00     0.003 C 
ATOM      3  C   UNL     1      31.406  10.143  30.966  1.00  0.00     0.006 C 
ATOM      4  C   UNL     1      31.319   9.778  29.494  1.00  0.00     0.019 C 
ATOM      5  C   UNL     1      29.878  10.283  29.255  1.00  0.00    -0.068 C 
ATOM      6  C   UNL     1      28.998   9.749  28.402  1.00  0.00     0.009 C 
ATOM      7  C   UNL     1      32.266  10.767  28.828  1.00  0.00     0.008 C 
ATOM      8  C   UNL     1      32.069  12.039  29.656  1.00  0.00     0.005 C 
ATOM      9  C   UNL     1      29.077  12.680  29.485  1.00  0.00     0.016 C 
ENDROOT
BRANCH   3  10
ATOM     10  C   UNL     1      31.869   9.918  32.422  1.00  0.00    -0.032 C 
ATOM     11  C   UNL     1      32.231   8.431  32.687  1.00  0.00     0.011 C 
ATOM     12  C   UNL     1      33.125  10.760  32.741  1.00  0.00     0.011 C 
BRANCH  10  13
ATOM     13  C   UNL     1      30.640  10.366  33.339  1.00  0.00     0.007 CG0
ATOM     14  G   UNL     1      29.185  10.203  32.716  1.00  0.00     0.000 G0
ENDBRANCH  10  13
ENDBRANCH   3  10
BRANCH   1  15
ATOM     15  C   UNL     1      28.709  11.144  31.508  1.00  0.00     0.011 C 
BRANCH  15  16
ATOM     16  C   UNL     1      29.172  10.220  32.726  1.00  0.00     0.001 CG0
ATOM     17  G   UNL     1      30.632  10.350  33.345  1.00  0.00     0.000 G0
ENDBRANCH  15  16
ENDBRANCH   1  15
TORSDOF 0
ENDMDL
MODEL 6
REMARK VINA RESULT:    -4.034      1.679      3.349
REMARK INTER + INTRA:          -4.453
REMARK INTER:                  -4.960
REMARK INTRA:                   0.507
REMARK UNBOUND:                 0.524
REMARK SMILES C=C1[C@H]2CC[C@@H]3[C@@H]2C(C)(C)CCC[C@]13C
REMARK SMILES IDX 14 1 6 2 7 3 3 4 2 5 1 6 4 7 5 8 15 9 8 10 9 11 10 12 11 13
REMARK SMILES IDX 13 15 12 16
REMARK H PARENT
REMARK Flexibility Score: 80.00
ROOT
ATOM      1  C   UNL     1      30.445  10.309  33.317  1.00  0.00    -0.008 C 
ATOM      2  C   UNL     1      30.141   9.026  32.559  1.00  0.00     0.003 C 
ATOM      3  C   UNL     1      31.084   9.228  31.357  1.00  0.00     0.006 C 
ATOM      4  C   UNL     1      32.349   9.160  32.195  1.00  0.00     0.019 C 
ATOM      5  C   UNL     1      31.977  10.279  33.195  1.00  0.00    -0.068 C 
ATOM      6  C   UNL     1      32.839  11.115  33.782  1.00  0.00     0.009 C 
ATOM      7  C   UNL     1      32.217   7.832  32.928  1.00  0.00     0.008 C 
ATOM      8  C   UNL     1      30.713   7.740  33.201  1.00  0.00     0.005 C 
ATOM      9  C   UNL     1      30.009  10.260  34.797  1.00  0.00     0.016 C 
ENDROOT
BRANCH   3  10
ATOM     10  C   UNL     1      30.297   9.141  30.031  1.00  0.00    -0.032 C 
ATOM     11  C   UNL     1      31.211   9.402  28.802  1.00  0.00     0.011 C 
ATOM     12  C   UNL     1      29.670   7.742  29.847  1.00  0.00     0.011 C 
BRANCH  10  13
ATOM     13  C   UNL     1      29.162  10.262  30.130  1.00  0.00     0.007 CG0
ATOM     14  G   UNL     1      29.510  11.561  30.979  1.00  0.00     0.000 G0
ENDBRANCH  10  13
ENDBRANCH   3  10
BRANCH   1  15
ATOM     15  C   UNL     1      29.666  11.485  32.568  1.00  0.00     0.011 C 
BRANCH  15  16
ATOM     16  C   UNL     1      29.494  11.558  30.981  1.00  0.00     0.001 CG0
ATOM     17  G   UNL     1      29.165  10.255  30.131  1.00  0.00     0.000 G0
ENDBRANCH  15  16
ENDBRANCH   1  15
TORSDOF 0
ENDMDL
MODEL 7
REMARK VINA RESULT:    -3.994      1.837      3.553
REMARK INTER + INTRA:          -4.404
REMARK INTER:                  -4.913
REMARK INTRA:                   0.509
REMARK UNBOUND:                 0.524
REMARK SMILES C=C1[C@H]2CC[C@@H]3[C@@H]2C(C)(C)CCC[C@]13C
REMARK SMILES IDX 14 1 6 2 7 3 3 4 2 5 1 6 4 7 5 8 15 9 8 10 9 11 10 12 11 13
REMARK SMILES IDX 13 15 12 16
REMARK H PARENT
REMARK Flexibility Score: 80.00
ROOT
ATOM      1  C   UNL     1      31.634  10.978  29.881  1.00  0.00    -0.008 C 
ATOM      2  C   UNL     1      31.632   9.536  30.365  1.00  0.00     0.003 C 
ATOM      3  C   UNL     1      30.697   9.691  31.580  1.00  0.00     0.006 C 
ATOM      4  C   UNL     1      29.485  10.058  30.740  1.00  0.00     0.019 C 
ATOM      5  C   UNL     1      30.124  11.248  29.989  1.00  0.00    -0.068 C 
ATOM      6  C   UNL     1      29.481  12.346  29.579  1.00  0.00     0.009 C 
ATOM      7  C   UNL     1      29.375   8.902  29.755  1.00  0.00     0.008 C 
ATOM      8  C   UNL     1      30.838   8.551  29.475  1.00  0.00     0.005 C 
ATOM      9  C   UNL     1      32.119  11.130  28.423  1.00  0.00     0.016 C 
ENDROOT
BRANCH   3  10
ATOM     10  C   UNL     1      31.387   9.182  32.864  1.00  0.00    -0.032 C 
ATOM     11  C   UNL     1      30.495   9.393  34.118  1.00  0.00     0.011 C 
ATOM     12  C   UNL     1      31.694   7.671  32.768  1.00  0.00     0.011 C 
BRANCH  10  13
ATOM     13  C   UNL     1      32.737  10.027  32.991  1.00  0.00     0.007 CG0
ATOM     14  G   UNL     1      32.713  11.509  32.412  1.00  0.00     0.000 G0
ENDBRANCH  10  13
ENDBRANCH   3  10
BRANCH   1  15
ATOM     15  C   UNL     1      32.602  11.792  30.855  1.00  0.00     0.011 C 
BRANCH  15  16
ATOM     16  C   UNL     1      32.718  11.510  32.423  1.00  0.00     0.001 CG0
ATOM     17  G   UNL     1      32.737  10.023  32.989  1.00  0.00     0.000 G0
ENDBRANCH  15  16
ENDBRANCH   1  15
TORSDOF 0
ENDMDL
MODEL 8
REMARK VINA RESULT:    -3.990      1.603      3.609
REMARK INTER + INTRA:          -4.399
REMARK INTER:                  -4.914
REMARK INTRA:                   0.515
REMARK UNBOUND:                 0.524
REMARK SMILES C=C1[C@H]2CC[C@@H]3[C@@H]2C(C)(C)CCC[C@]13C
REMARK SMILES IDX 14 1 6 2 7 3 3 4 2 5 1 6 4 7 5 8 15 9 8 10 9 11 10 12 11 13
REMARK SMILES IDX 13 15 12 16
REMARK H PARENT
REMARK Flexibility Score: 80.00
ROOT
ATOM      1  C   UNL     1      29.916   8.085  29.686  1.00  0.00    -0.008 C 
ATOM      2  C   UNL     1      29.683   9.431  30.355  1.00  0.00     0.003 C 
ATOM      3  C   UNL     1      31.149   9.823  30.622  1.00  0.00     0.006 C 
ATOM      4  C   UNL     1      31.508   9.924  29.150  1.00  0.00     0.019 C 
ATOM      5  C   UNL     1      31.058   8.501  28.744  1.00  0.00    -0.068 C 
ATOM      6  C   UNL     1      31.620   7.749  27.794  1.00  0.00     0.009 C 
ATOM      7  C   UNL     1      30.479  10.902  28.601  1.00  0.00     0.008 C 
ATOM      8  C   UNL     1      29.220  10.560  29.403  1.00  0.00     0.005 C 
ATOM      9  C   UNL     1      28.695   7.585  28.884  1.00  0.00     0.016 C 
ENDROOT
BRANCH   3  10
ATOM     10  C   UNL     1      31.365  10.121  32.122  1.00  0.00    -0.032 C 
ATOM     11  C   UNL     1      32.853  10.437  32.437  1.00  0.00     0.011 C 
ATOM     12  C   UNL     1      30.532  11.343  32.571  1.00  0.00     0.011 C 
BRANCH  10  13
ATOM     13  C   UNL     1      30.898   8.803  32.895  1.00  0.00     0.007 CG0
ATOM     14  G   UNL     1      31.118   7.417  32.145  1.00  0.00     0.000 G0
ENDBRANCH  10  13
ENDBRANCH   3  10
BRANCH   1  15
ATOM     15  C   UNL     1      30.257   7.044  30.847  1.00  0.00     0.011 C 
BRANCH  15  16
ATOM     16  C   UNL     1      31.112   7.417  32.144  1.00  0.00     0.001 CG0
ATOM     17  G   UNL     1      30.903   8.805  32.893  1.00  0.00     0.000 G0
ENDBRANCH  15  16
ENDBRANCH   1  15
TORSDOF 0
ENDMDL
MODEL 9
REMARK VINA RESULT:    -3.850      3.079      4.337
REMARK INTER + INTRA:          -4.225
REMARK INTER:                  -4.750
REMARK INTRA:                   0.524
REMARK UNBOUND:                 0.524
REMARK SMILES C=C1[C@H]2CC[C@@H]3[C@@H]2C(C)(C)CCC[C@]13C
REMARK SMILES IDX 14 1 6 2 7 3 3 4 2 5 1 6 4 7 5 8 15 9 8 10 9 11 10 12 11 13
REMARK SMILES IDX 13 15 12 16
REMARK H PARENT
REMARK Flexibility Score: 80.00
ROOT
ATOM      1  C   UNL     1      30.197  11.732  27.481  1.00  0.00    -0.008 C 
ATOM      2  C   UNL     1      30.181  11.004  28.817  1.00  0.00     0.003 C 
ATOM      3  C   UNL     1      31.111   9.829  28.461  1.00  0.00     0.006 C 
ATOM      4  C   UNL     1      32.332  10.710  28.257  1.00  0.00     0.019 C 
ATOM      5  C   UNL     1      31.709  11.661  27.210  1.00  0.00    -0.068 C 
ATOM      6  C   UNL     1      32.366  12.250  26.206  1.00  0.00     0.009 C 
ATOM      7  C   UNL     1      32.436  11.479  29.567  1.00  0.00     0.008 C 
ATOM      8  C   UNL     1      30.971  11.704  29.948  1.00  0.00     0.005 C 
ATOM      9  C   UNL     1      29.722  13.197  27.580  1.00  0.00     0.016 C 
ENDROOT
BRANCH   3  10
ATOM     10  C   UNL     1      30.409   8.480  28.733  1.00  0.00    -0.032 C 
ATOM     11  C   UNL     1      31.277   7.277  28.275  1.00  0.00     0.011 C 
ATOM     12  C   UNL     1      30.127   8.295  30.241  1.00  0.00     0.011 C 
BRANCH  10  13
ATOM     13  C   UNL     1      29.043   8.531  27.905  1.00  0.00     0.007 CG0
ATOM     14  G   UNL     1      29.071   9.326  26.527  1.00  0.00     0.000 G0
ENDBRANCH  10  13
ENDBRANCH   3  10
BRANCH   1  15
ATOM     15  C   UNL     1      29.231  10.921  26.501  1.00  0.00     0.011 C 
BRANCH  15  16
ATOM     16  C   UNL     1      29.069   9.332  26.537  1.00  0.00     0.001 CG0
ATOM     17  G   UNL     1      29.044   8.541  27.918  1.00  0.00     0.000 G0
ENDBRANCH  15  16
ENDBRANCH   1  15
TORSDOF 0
ENDMDL
