MODEL 1
REMARK VINA RESULT:     0.000      0.000      0.000
REMARK INTER + INTRA:          -0.397
REMARK INTER:                   0.000
REMARK INTRA:                  -0.397
REMARK UNBOUND:                -0.397
REMARK SMILES CC1=CCC[C@H](C)C(=O)C[C@@H](C(C)C)C(=O)C1
REMARK SMILES IDX 8 1 9 2 6 3 7 4 5 5 4 6 3 7 2 8 1 9 10 11 11 12 15 13 16 14
REMARK SMILES IDX 17 15 12 17 13 18 14 19
REMARK H PARENT
REMARK Flexibility Score: 70.00
ROOT
ATOM      1  C   UNL     1     127.804 136.071 127.153  1.00  0.00     0.136 C 
ATOM      2  O   UNL     1     127.251 135.204 127.814  1.00  0.00    -0.299 OA
ENDROOT
BRANCH   1   3
ATOM      3  C   UNL     1     129.315 136.204 127.258  1.00  0.00     0.053 C 
ATOM      4  C   UNL     1     129.748 136.444 128.709  1.00  0.00     0.016 C 
BRANCH   3   5
ATOM      5  C   UNL     1     130.058 134.995 126.653  1.00  0.00     0.015 C 
BRANCH   5   6
ATOM      6  C   UNL     1     130.207 135.085 125.117  1.00  0.00     0.028 C 
BRANCH   6   7
ATOM      7  C   UNL     1     130.578 136.487 124.692  1.00  0.00    -0.028 C 
ATOM      8  C   UNL     1     129.937 137.214 123.744  1.00  0.00    -0.070 CG0
ATOM      9  C   UNL     1     130.525 138.547 123.358  1.00  0.00     0.039 C 
ATOM     10  G   UNL     1     128.658 136.752 123.062  1.00  0.00     0.000 G0
ENDBRANCH   6   7
ENDBRANCH   5   6
ENDBRANCH   3   5
ENDBRANCH   1   3
BRANCH   1  11
ATOM     11  C   UNL     1     126.948 136.960 126.271  1.00  0.00     0.087 C 
BRANCH  11  12
ATOM     12  C   UNL     1     126.683 136.358 124.864  1.00  0.00     0.066 C 
BRANCH  12  13
ATOM     13  C   UNL     1     127.357 137.166 123.758  1.00  0.00     0.140 C 
ATOM     14  O   UNL     1     126.839 138.212 123.397  1.00  0.00    -0.299 OA
BRANCH  13  15
ATOM     15  C   UNL     1     128.645 136.752 123.072  1.00  0.00     0.106 CG0
ATOM     16  G   UNL     1     129.930 137.218 123.740  1.00  0.00     0.000 G0
ENDBRANCH  13  15
ENDBRANCH  12  13
BRANCH  12  17
ATOM     17  C   UNL     1     125.173 136.125 124.547  1.00  0.00    -0.006 C 
ATOM     18  C   UNL     1     124.290 135.876 125.784  1.00  0.00     0.008 C 
ATOM     19  C   UNL     1     124.974 134.989 123.529  1.00  0.00     0.008 C 
ENDBRANCH  12  17
ENDBRANCH  11  12
ENDBRANCH   1  11
TORSDOF 1
ENDMDL
MODEL 2
REMARK VINA RESULT:     0.003      3.302      4.476
REMARK INTER + INTRA:          -0.392
REMARK INTER:                   0.000
REMARK INTRA:                  -0.392
REMARK UNBOUND:                -0.397
REMARK SMILES CC1=CCC[C@H](C)C(=O)C[C@@H](C(C)C)C(=O)C1
REMARK SMILES IDX 8 1 9 2 6 3 7 4 5 5 4 6 3 7 2 8 1 9 10 11 11 12 15 13 16 14
REMARK SMILES IDX 17 15 12 17 13 18 14 19
REMARK H PARENT
REMARK Flexibility Score: 70.00
ROOT
ATOM      1  C   UNL     1     130.841 133.971 129.285  1.00  0.00     0.136 C 
ATOM      2  O   UNL     1     131.413 132.957 128.909  1.00  0.00    -0.299 OA
ENDROOT
BRANCH   1   3
ATOM      3  C   UNL     1     131.684 135.117 129.822  1.00  0.00     0.053 C 
ATOM      4  C   UNL     1     132.451 134.693 131.081  1.00  0.00     0.016 C 
BRANCH   3   5
ATOM      5  C   UNL     1     132.643 135.694 128.760  1.00  0.00     0.015 C 
BRANCH   5   6
ATOM      6  C   UNL     1     131.949 136.685 127.798  1.00  0.00     0.028 C 
BRANCH   6   7
ATOM      7  C   UNL     1     131.098 137.673 128.561  1.00  0.00    -0.028 C 
ATOM      8  C   UNL     1     129.787 137.925 128.324  1.00  0.00    -0.070 CG0
ATOM      9  C   UNL     1     129.130 139.039 129.100  1.00  0.00     0.039 C 
ATOM     10  G   UNL     1     128.954 137.138 127.324  1.00  0.00     0.000 G0
ENDBRANCH   6   7
ENDBRANCH   5   6
ENDBRANCH   3   5
ENDBRANCH   1   3
BRANCH   1  11
ATOM     11  C   UNL     1     129.328 134.021 129.192  1.00  0.00     0.087 C 
BRANCH  11  12
ATOM     12  C   UNL     1     128.813 134.505 127.808  1.00  0.00     0.066 C 
BRANCH  12  13
ATOM     13  C   UNL     1     128.239 135.917 127.872  1.00  0.00     0.140 C 
ATOM     14  O   UNL     1     127.147 136.085 128.394  1.00  0.00    -0.299 OA
BRANCH  13  15
ATOM     15  C   UNL     1     128.945 137.144 127.324  1.00  0.00     0.106 CG0
ATOM     16  G   UNL     1     129.798 137.915 128.320  1.00  0.00     0.000 G0
ENDBRANCH  13  15
ENDBRANCH  12  13
BRANCH  12  17
ATOM     17  C   UNL     1     127.811 133.522 127.125  1.00  0.00    -0.006 C 
ATOM     18  C   UNL     1     128.146 132.032 127.315  1.00  0.00     0.008 C 
ATOM     19  C   UNL     1     127.642 133.832 125.628  1.00  0.00     0.008 C 
ENDBRANCH  12  17
ENDBRANCH  11  12
ENDBRANCH   1  11
TORSDOF 1
ENDMDL
MODEL 3
REMARK VINA RESULT:     0.012      6.426      8.885
REMARK INTER + INTRA:          -0.379
REMARK INTER:                   0.000
REMARK INTRA:                  -0.379
REMARK UNBOUND:                -0.397
REMARK SMILES CC1=CCC[C@H](C)C(=O)C[C@@H](C(C)C)C(=O)C1
REMARK SMILES IDX 8 1 9 2 6 3 7 4 5 5 4 6 3 7 2 8 1 9 10 11 11 12 15 13 16 14
REMARK SMILES IDX 17 15 12 17 13 18 14 19
REMARK H PARENT
REMARK Flexibility Score: 70.00
ROOT
ATOM      1  C   UNL     1     129.923 130.886 129.443  1.00  0.00     0.136 C 
ATOM      2  O   UNL     1     129.623 131.493 130.462  1.00  0.00    -0.299 OA
ENDROOT
BRANCH   1   3
ATOM      3  C   UNL     1     129.131 131.167 128.177  1.00  0.00     0.053 C 
ATOM      4  C   UNL     1     129.723 132.355 127.409  1.00  0.00     0.016 C 
BRANCH   3   5
ATOM      5  C   UNL     1     129.009 129.927 127.268  1.00  0.00     0.015 C 
BRANCH   5   6
ATOM      6  C   UNL     1     129.798 130.069 125.945  1.00  0.00     0.028 C 
BRANCH   6   7
ATOM      7  C   UNL     1     130.641 128.842 125.685  1.00  0.00    -0.028 C 
ATOM      8  C   UNL     1     131.980 128.755 125.881  1.00  0.00    -0.070 CG0
ATOM      9  C   UNL     1     132.677 127.492 125.444  1.00  0.00     0.039 C 
ATOM     10  G   UNL     1     132.802 129.862 126.523  1.00  0.00     0.000 G0
ENDBRANCH   6   7
ENDBRANCH   5   6
ENDBRANCH   3   5
ENDBRANCH   1   3
BRANCH   1  11
ATOM     11  C   UNL     1     131.065 129.890 129.509  1.00  0.00     0.087 C 
BRANCH  11  12
ATOM     12  C   UNL     1     132.436 130.500 129.104  1.00  0.00     0.066 C 
BRANCH  12  13
ATOM     13  C   UNL     1     133.117 129.695 128.000  1.00  0.00     0.140 C 
ATOM     14  O   UNL     1     133.959 128.867 128.313  1.00  0.00    -0.299 OA
BRANCH  13  15
ATOM     15  C   UNL     1     132.813 129.857 126.523  1.00  0.00     0.106 CG0
ATOM     16  G   UNL     1     131.981 128.750 125.894  1.00  0.00     0.000 G0
ENDBRANCH  13  15
ENDBRANCH  12  13
BRANCH  12  17
ATOM     17  C   UNL     1     133.404 130.738 130.304  1.00  0.00    -0.006 C 
ATOM     18  C   UNL     1     132.814 130.389 131.682  1.00  0.00     0.008 C 
ATOM     19  C   UNL     1     133.947 132.177 130.320  1.00  0.00     0.008 C 
ENDBRANCH  12  17
ENDBRANCH  11  12
ENDBRANCH   1  11
TORSDOF 1
ENDMDL
MODEL 4
REMARK VINA RESULT:     0.013      5.560      7.036
REMARK INTER + INTRA:          -0.377
REMARK INTER:                   0.000
REMARK INTRA:                  -0.377
REMARK UNBOUND:                -0.397
REMARK SMILES CC1=CCC[C@H](C)C(=O)C[C@@H](C(C)C)C(=O)C1
REMARK SMILES IDX 8 1 9 2 6 3 7 4 5 5 4 6 3 7 2 8 1 9 10 11 11 12 15 13 16 14
REMARK SMILES IDX 17 15 12 17 13 18 14 19
REMARK H PARENT
REMARK Flexibility Score: 70.00
ROOT
ATOM      1  C   UNL     1     128.853 135.850 130.210  1.00  0.00     0.136 C 
ATOM      2  O   UNL     1     128.706 135.371 129.093  1.00  0.00    -0.299 OA
ENDROOT
BRANCH   1   3
ATOM      3  C   UNL     1     130.173 136.530 130.534  1.00  0.00     0.053 C 
ATOM      4  C   UNL     1     131.349 135.562 130.358  1.00  0.00     0.016 C 
BRANCH   3   5
ATOM      5  C   UNL     1     130.391 137.819 129.716  1.00  0.00     0.015 C 
BRANCH   5   6
ATOM      6  C   UNL     1     129.629 139.035 130.291  1.00  0.00     0.028 C 
BRANCH   6   7
ATOM      7  C   UNL     1     129.649 139.020 131.802  1.00  0.00    -0.028 C 
ATOM      8  C   UNL     1     128.558 139.114 132.602  1.00  0.00    -0.070 CG0
ATOM      9  C   UNL     1     128.780 139.212 134.090  1.00  0.00     0.039 C 
ATOM     10  G   UNL     1     127.133 139.118 132.071  1.00  0.00     0.000 G0
ENDBRANCH   6   7
ENDBRANCH   5   6
ENDBRANCH   3   5
ENDBRANCH   1   3
BRANCH   1  11
ATOM     11  C   UNL     1     127.709 135.734 131.199  1.00  0.00     0.087 C 
BRANCH  11  12
ATOM     12  C   UNL     1     126.560 136.745 130.931  1.00  0.00     0.066 C 
BRANCH  12  13
ATOM     13  C   UNL     1     126.421 137.766 132.056  1.00  0.00     0.140 C 
ATOM     14  O   UNL     1     125.704 137.497 133.009  1.00  0.00    -0.299 OA
BRANCH  13  15
ATOM     15  C   UNL     1     127.126 139.110 132.072  1.00  0.00     0.106 CG0
ATOM     16  G   UNL     1     128.552 139.103 132.600  1.00  0.00     0.000 G0
ENDBRANCH  13  15
ENDBRANCH  12  13
BRANCH  12  17
ATOM     17  C   UNL     1     125.187 136.075 130.610  1.00  0.00    -0.006 C 
ATOM     18  C   UNL     1     125.223 134.537 130.552  1.00  0.00     0.008 C 
ATOM     19  C   UNL     1     124.573 136.630 129.313  1.00  0.00     0.008 C 
ENDBRANCH  12  17
ENDBRANCH  11  12
ENDBRANCH   1  11
TORSDOF 1
ENDMDL
MODEL 5
REMARK VINA RESULT:     0.016     12.089     14.194
REMARK INTER + INTRA:          -0.373
REMARK INTER:                   0.000
REMARK INTRA:                  -0.373
REMARK UNBOUND:                -0.397
REMARK SMILES CC1=CCC[C@H](C)C(=O)C[C@@H](C(C)C)C(=O)C1
REMARK SMILES IDX 8 1 9 2 6 3 7 4 5 5 4 6 3 7 2 8 1 9 10 11 11 12 15 13 16 14
REMARK SMILES IDX 17 15 12 17 13 18 14 19
REMARK H PARENT
REMARK Flexibility Score: 70.00
ROOT
ATOM      1  C   UNL     1     137.734 126.681 131.400  1.00  0.00     0.136 C 
ATOM      2  O   UNL     1     138.931 126.439 131.480  1.00  0.00    -0.299 OA
ENDROOT
BRANCH   1   3
ATOM      3  C   UNL     1     136.773 125.848 132.233  1.00  0.00     0.053 C 
ATOM      4  C   UNL     1     136.896 124.359 131.891  1.00  0.00     0.016 C 
BRANCH   3   5
ATOM      5  C   UNL     1     136.948 126.084 133.748  1.00  0.00     0.015 C 
BRANCH   5   6
ATOM      6  C   UNL     1     136.138 127.293 134.268  1.00  0.00     0.028 C 
BRANCH   6   7
ATOM      7  C   UNL     1     134.719 127.257 133.749  1.00  0.00    -0.028 C 
ATOM      8  C   UNL     1     134.101 128.266 133.086  1.00  0.00    -0.070 CG0
ATOM      9  C   UNL     1     132.639 128.102 132.756  1.00  0.00     0.039 C 
ATOM     10  G   UNL     1     134.811 129.541 132.659  1.00  0.00     0.000 G0
ENDBRANCH   6   7
ENDBRANCH   5   6
ENDBRANCH   3   5
ENDBRANCH   1   3
BRANCH   1  11
ATOM     11  C   UNL     1     137.285 127.795 130.474  1.00  0.00     0.087 C 
BRANCH  11  12
ATOM     12  C   UNL     1     137.044 129.144 131.206  1.00  0.00     0.066 C 
BRANCH  12  13
ATOM     13  C   UNL     1     135.559 129.473 131.328  1.00  0.00     0.140 C 
ATOM     14  O   UNL     1     134.920 129.690 130.309  1.00  0.00    -0.299 OA
BRANCH  13  15
ATOM     15  C   UNL     1     134.814 129.548 132.647  1.00  0.00     0.106 CG0
ATOM     16  G   UNL     1     134.108 128.273 133.082  1.00  0.00     0.000 G0
ENDBRANCH  13  15
ENDBRANCH  12  13
BRANCH  12  17
ATOM     17  C   UNL     1     137.837 130.345 130.601  1.00  0.00    -0.006 C 
ATOM     18  C   UNL     1     139.320 130.051 130.310  1.00  0.00     0.008 C 
ATOM     19  C   UNL     1     137.718 131.603 131.477  1.00  0.00     0.008 C 
ENDBRANCH  12  17
ENDBRANCH  11  12
ENDBRANCH   1  11
TORSDOF 1
ENDMDL
MODEL 6
REMARK VINA RESULT:     0.020     12.893     14.232
REMARK INTER + INTRA:          -0.367
REMARK INTER:                   0.000
REMARK INTRA:                  -0.367
REMARK UNBOUND:                -0.397
REMARK SMILES CC1=CCC[C@H](C)C(=O)C[C@@H](C(C)C)C(=O)C1
REMARK SMILES IDX 8 1 9 2 6 3 7 4 5 5 4 6 3 7 2 8 1 9 10 11 11 12 15 13 16 14
REMARK SMILES IDX 17 15 12 17 13 18 14 19
REMARK H PARENT
REMARK Flexibility Score: 70.00
ROOT
ATOM      1  C   UNL     1     126.477 121.077 126.581  1.00  0.00     0.136 C 
ATOM      2  O   UNL     1     126.570 120.037 125.942  1.00  0.00    -0.299 OA
ENDROOT
BRANCH   1   3
ATOM      3  C   UNL     1     127.468 122.192 126.289  1.00  0.00     0.053 C 
ATOM      4  C   UNL     1     128.904 121.656 126.249  1.00  0.00     0.016 C 
BRANCH   3   5
ATOM      5  C   UNL     1     127.129 122.961 124.995  1.00  0.00     0.015 C 
BRANCH   5   6
ATOM      6  C   UNL     1     126.515 124.354 125.265  1.00  0.00     0.028 C 
BRANCH   6   7
ATOM      7  C   UNL     1     126.929 124.874 126.622  1.00  0.00    -0.028 C 
ATOM      8  C   UNL     1     126.087 125.132 127.653  1.00  0.00    -0.070 CG0
ATOM      9  C   UNL     1     126.663 125.770 128.892  1.00  0.00     0.039 C 
ATOM     10  G   UNL     1     124.603 124.805 127.619  1.00  0.00     0.000 G0
ENDBRANCH   6   7
ENDBRANCH   5   6
ENDBRANCH   3   5
ENDBRANCH   1   3
BRANCH   1  11
ATOM     11  C   UNL     1     125.380 121.186 127.622  1.00  0.00     0.087 C 
BRANCH  11  12
ATOM     12  C   UNL     1     124.247 122.170 127.219  1.00  0.00     0.066 C 
BRANCH  12  13
ATOM     13  C   UNL     1     124.224 123.413 128.103  1.00  0.00     0.140 C 
ATOM     14  O   UNL     1     123.886 123.296 129.272  1.00  0.00    -0.299 OA
BRANCH  13  15
ATOM     15  C   UNL     1     124.601 124.802 127.622  1.00  0.00     0.106 CG0
ATOM     16  G   UNL     1     126.086 125.129 127.643  1.00  0.00     0.000 G0
ENDBRANCH  13  15
ENDBRANCH  12  13
BRANCH  12  17
ATOM     17  C   UNL     1     122.833 121.511 127.141  1.00  0.00    -0.006 C 
ATOM     18  C   UNL     1     122.820 120.094 126.541  1.00  0.00     0.008 C 
ATOM     19  C   UNL     1     121.831 122.404 126.391  1.00  0.00     0.008 C 
ENDBRANCH  12  17
ENDBRANCH  11  12
ENDBRANCH   1  11
TORSDOF 1
ENDMDL
MODEL 7
REMARK VINA RESULT:     0.024     11.702     13.723
REMARK INTER + INTRA:          -0.359
REMARK INTER:                   0.000
REMARK INTRA:                  -0.359
REMARK UNBOUND:                -0.397
REMARK SMILES CC1=CCC[C@H](C)C(=O)C[C@@H](C(C)C)C(=O)C1
REMARK SMILES IDX 8 1 9 2 6 3 7 4 5 5 4 6 3 7 2 8 1 9 10 11 11 12 15 13 16 14
REMARK SMILES IDX 17 15 12 17 13 18 14 19
REMARK H PARENT
REMARK Flexibility Score: 70.00
ROOT
ATOM      1  C   UNL     1     126.647 131.730 135.500  1.00  0.00     0.136 C 
ATOM      2  O   UNL     1     126.383 132.630 134.715  1.00  0.00    -0.299 OA
ENDROOT
BRANCH   1   3
ATOM      3  C   UNL     1     126.881 130.334 134.944  1.00  0.00     0.053 C 
ATOM      4  C   UNL     1     125.727 129.906 134.029  1.00  0.00     0.016 C 
BRANCH   3   5
ATOM      5  C   UNL     1     128.237 130.205 134.221  1.00  0.00     0.015 C 
BRANCH   5   6
ATOM      6  C   UNL     1     129.402 129.867 135.180  1.00  0.00     0.028 C 
BRANCH   6   7
ATOM      7  C   UNL     1     128.958 128.894 136.247  1.00  0.00    -0.028 C 
ATOM      8  C   UNL     1     129.136 129.058 137.581  1.00  0.00    -0.070 CG0
ATOM      9  C   UNL     1     128.744 127.922 138.491  1.00  0.00     0.039 C 
ATOM     10  G   UNL     1     129.703 130.329 138.195  1.00  0.00     0.000 G0
ENDBRANCH   6   7
ENDBRANCH   5   6
ENDBRANCH   3   5
ENDBRANCH   1   3
BRANCH   1  11
ATOM     11  C   UNL     1     126.724 132.062 136.978  1.00  0.00     0.087 C 
BRANCH  11  12
ATOM     12  C   UNL     1     128.160 132.412 137.456  1.00  0.00     0.066 C 
BRANCH  12  13
ATOM     13  C   UNL     1     128.675 131.421 138.496  1.00  0.00     0.140 C 
ATOM     14  O   UNL     1     128.253 131.498 139.640  1.00  0.00    -0.299 OA
BRANCH  13  15
ATOM     15  C   UNL     1     129.690 130.332 138.198  1.00  0.00     0.106 CG0
ATOM     16  G   UNL     1     129.131 129.059 137.582  1.00  0.00     0.000 G0
ENDBRANCH  13  15
ENDBRANCH  12  13
BRANCH  12  17
ATOM     17  C   UNL     1     128.323 133.883 137.953  1.00  0.00    -0.006 C 
ATOM     18  C   UNL     1     127.003 134.661 138.096  1.00  0.00     0.008 C 
ATOM     19  C   UNL     1     129.302 134.676 137.070  1.00  0.00     0.008 C 
ENDBRANCH  12  17
ENDBRANCH  11  12
ENDBRANCH   1  11
TORSDOF 1
ENDMDL
MODEL 8
REMARK VINA RESULT:     0.032      7.896     10.221
REMARK INTER + INTRA:          -0.347
REMARK INTER:                   0.000
REMARK INTRA:                  -0.347
REMARK UNBOUND:                -0.397
REMARK SMILES CC1=CCC[C@H](C)C(=O)C[C@@H](C(C)C)C(=O)C1
REMARK SMILES IDX 8 1 9 2 6 3 7 4 5 5 4 6 3 7 2 8 1 9 10 11 11 12 15 13 16 14
REMARK SMILES IDX 17 15 12 17 13 18 14 19
REMARK H PARENT
REMARK Flexibility Score: 70.00
ROOT
ATOM      1  C   UNL     1     125.256 132.109 132.008  1.00  0.00     0.136 C 
ATOM      2  O   UNL     1     125.818 131.242 131.352  1.00  0.00    -0.299 OA
ENDROOT
BRANCH   1   3
ATOM      3  C   UNL     1     124.494 131.689 133.255  1.00  0.00     0.053 C 
ATOM      4  C   UNL     1     123.505 130.560 132.942  1.00  0.00     0.016 C 
BRANCH   3   5
ATOM      5  C   UNL     1     125.432 131.296 134.415  1.00  0.00     0.015 C 
BRANCH   5   6
ATOM      6  C   UNL     1     125.687 132.457 135.404  1.00  0.00     0.028 C 
BRANCH   6   7
ATOM      7  C   UNL     1     124.437 133.283 135.601  1.00  0.00    -0.028 C 
ATOM      8  C   UNL     1     124.333 134.615 135.368  1.00  0.00    -0.070 CG0
ATOM      9  C   UNL     1     123.043 135.299 135.744  1.00  0.00     0.039 C 
ATOM     10  G   UNL     1     125.447 135.442 134.745  1.00  0.00     0.000 G0
ENDBRANCH   6   7
ENDBRANCH   5   6
ENDBRANCH   3   5
ENDBRANCH   1   3
BRANCH   1  11
ATOM     11  C   UNL     1     125.353 133.546 131.534  1.00  0.00     0.087 C 
BRANCH  11  12
ATOM     12  C   UNL     1     126.287 134.422 132.414  1.00  0.00     0.066 C 
BRANCH  12  13
ATOM     13  C   UNL     1     125.508 135.446 133.234  1.00  0.00     0.140 C 
ATOM     14  O   UNL     1     124.891 136.322 132.646  1.00  0.00    -0.299 OA
BRANCH  13  15
ATOM     15  C   UNL     1     125.447 135.448 134.750  1.00  0.00     0.106 CG0
ATOM     16  G   UNL     1     124.327 134.624 135.367  1.00  0.00     0.000 G0
ENDBRANCH  13  15
ENDBRANCH  12  13
BRANCH  12  17
ATOM     17  C   UNL     1     127.449 135.102 131.624  1.00  0.00    -0.006 C 
ATOM     18  C   UNL     1     127.875 134.358 130.345  1.00  0.00     0.008 C 
ATOM     19  C   UNL     1     128.677 135.346 132.517  1.00  0.00     0.008 C 
ENDBRANCH  12  17
ENDBRANCH  11  12
ENDBRANCH   1  11
TORSDOF 1
ENDMDL
MODEL 9
REMARK VINA RESULT:     0.034      7.548      9.754
REMARK INTER + INTRA:          -0.344
REMARK INTER:                   0.000
REMARK INTRA:                  -0.344
REMARK UNBOUND:                -0.397
REMARK SMILES CC1=CCC[C@H](C)C(=O)C[C@@H](C(C)C)C(=O)C1
REMARK SMILES IDX 8 1 9 2 6 3 7 4 5 5 4 6 3 7 2 8 1 9 10 11 11 12 15 13 16 14
REMARK SMILES IDX 17 15 12 17 13 18 14 19
REMARK H PARENT
REMARK Flexibility Score: 70.00
ROOT
ATOM      1  C   UNL     1     124.532 135.456 131.311  1.00  0.00     0.136 C 
ATOM      2  O   UNL     1     125.376 136.316 131.522  1.00  0.00    -0.299 OA
ENDROOT
BRANCH   1   3
ATOM      3  C   UNL     1     124.571 134.719 129.982  1.00  0.00     0.053 C 
ATOM      4  C   UNL     1     124.430 135.694 128.807  1.00  0.00     0.016 C 
BRANCH   3   5
ATOM      5  C   UNL     1     125.834 133.846 129.826  1.00  0.00     0.015 C 
BRANCH   5   6
ATOM      6  C   UNL     1     125.833 132.612 130.758  1.00  0.00     0.028 C 
BRANCH   6   7
ATOM      7  C   UNL     1     124.591 131.778 130.549  1.00  0.00    -0.028 C 
ATOM      8  C   UNL     1     123.804 131.283 131.535  1.00  0.00    -0.070 CG0
ATOM      9  C   UNL     1     122.676 130.362 131.144  1.00  0.00     0.039 C 
ATOM     10  G   UNL     1     124.001 131.617 133.006  1.00  0.00     0.000 G0
ENDBRANCH   6   7
ENDBRANCH   5   6
ENDBRANCH   3   5
ENDBRANCH   1   3
BRANCH   1  11
ATOM     11  C   UNL     1     123.501 135.179 132.388  1.00  0.00     0.087 C 
BRANCH  11  12
ATOM     12  C   UNL     1     124.025 134.248 133.516  1.00  0.00     0.066 C 
BRANCH  12  13
ATOM     13  C   UNL     1     123.339 132.885 133.500  1.00  0.00     0.140 C 
ATOM     14  O   UNL     1     122.187 132.803 133.898  1.00  0.00    -0.299 OA
BRANCH  13  15
ATOM     15  C   UNL     1     124.001 131.609 133.014  1.00  0.00     0.106 CG0
ATOM     16  G   UNL     1     123.805 131.282 131.542  1.00  0.00     0.000 G0
ENDBRANCH  13  15
ENDBRANCH  12  13
BRANCH  12  17
ATOM     17  C   UNL     1     123.973 134.885 134.940  1.00  0.00    -0.006 C 
ATOM     18  C   UNL     1     123.169 136.195 135.027  1.00  0.00     0.008 C 
ATOM     19  C   UNL     1     125.382 135.100 135.519  1.00  0.00     0.008 C 
ENDBRANCH  12  17
ENDBRANCH  11  12
ENDBRANCH   1  11
TORSDOF 1
ENDMDL
