MODEL 1
REMARK VINA RESULT:    -3.360      0.000      0.000
REMARK INTER + INTRA:          -3.360
REMARK INTER:                  -3.360
REMARK INTRA:                   0.000
REMARK UNBOUND:                 0.000
REMARK SMILES CC(C)=C1CC[C@H](C)CC1=O
REMARK SMILES IDX 8 1 7 2 6 3 5 4 4 5 2 6 1 7 3 8 10 9 11 10 9 11
REMARK H PARENT
REMARK Flexibility Score: inf
ROOT
ATOM      1  C   UNL     1      63.017   8.427  32.121  1.00  0.00     0.008 C 
ATOM      2  C   UNL     1      62.276   7.277  31.430  1.00  0.00    -0.006 C 
ATOM      3  C   UNL     1      62.662   5.929  32.059  1.00  0.00     0.008 C 
ATOM      4  C   UNL     1      62.008   4.758  31.314  1.00  0.00     0.039 C 
ATOM      5  C   UNL     1      60.501   4.925  31.170  1.00  0.00    -0.006 C 
ATOM      6  C   UNL     1      59.666   3.845  31.154  1.00  0.00    -0.070 C 
ATOM      7  C   UNL     1      60.203   2.437  31.260  1.00  0.00     0.039 C 
ATOM      8  C   UNL     1      58.165   4.002  31.069  1.00  0.00     0.039 C 
ATOM      9  C   UNL     1      60.016   6.318  30.933  1.00  0.00     0.159 C 
ATOM     10  O   UNL     1      58.991   6.544  30.235  1.00  0.00    -0.295 OA
ATOM     11  C   UNL     1      60.757   7.483  31.523  1.00  0.00     0.084 C 
ENDROOT
TORSDOF 0
ENDMDL
MODEL 2
REMARK VINA RESULT:    -3.319      1.134      4.141
REMARK INTER + INTRA:          -3.319
REMARK INTER:                  -3.319
REMARK INTRA:                   0.000
REMARK UNBOUND:                 0.000
REMARK SMILES CC(C)=C1CC[C@H](C)CC1=O
REMARK SMILES IDX 8 1 7 2 6 3 5 4 4 5 2 6 1 7 3 8 10 9 11 10 9 11
REMARK H PARENT
REMARK Flexibility Score: inf
ROOT
ATOM      1  C   UNL     1      57.875   2.501  30.129  1.00  0.00     0.008 C 
ATOM      2  C   UNL     1      58.854   3.372  30.924  1.00  0.00    -0.006 C 
ATOM      3  C   UNL     1      60.197   2.647  31.107  1.00  0.00     0.008 C 
ATOM      4  C   UNL     1      61.155   3.462  31.987  1.00  0.00     0.039 C 
ATOM      5  C   UNL     1      61.325   4.893  31.495  1.00  0.00    -0.006 C 
ATOM      6  C   UNL     1      62.501   5.566  31.664  1.00  0.00    -0.070 C 
ATOM      7  C   UNL     1      63.678   4.925  32.363  1.00  0.00     0.039 C 
ATOM      8  C   UNL     1      62.700   6.966  31.130  1.00  0.00     0.039 C 
ATOM      9  C   UNL     1      60.104   5.542  30.931  1.00  0.00     0.159 C 
ATOM     10  O   UNL     1      59.908   6.782  31.049  1.00  0.00    -0.295 OA
ATOM     11  C   UNL     1      59.076   4.716  30.214  1.00  0.00     0.084 C 
ENDROOT
TORSDOF 0
ENDMDL
MODEL 3
REMARK VINA RESULT:    -3.227      1.800      4.491
REMARK INTER + INTRA:          -3.227
REMARK INTER:                  -3.227
REMARK INTRA:                   0.000
REMARK UNBOUND:                 0.000
REMARK SMILES CC(C)=C1CC[C@H](C)CC1=O
REMARK SMILES IDX 8 1 7 2 6 3 5 4 4 5 2 6 1 7 3 8 10 9 11 10 9 11
REMARK H PARENT
REMARK Flexibility Score: inf
ROOT
ATOM      1  C   UNL     1      59.745   1.568  30.338  1.00  0.00     0.008 C 
ATOM      2  C   UNL     1      59.708   3.100  30.331  1.00  0.00    -0.006 C 
ATOM      3  C   UNL     1      58.332   3.610  30.790  1.00  0.00     0.008 C 
ATOM      4  C   UNL     1      58.243   5.139  30.691  1.00  0.00     0.039 C 
ATOM      5  C   UNL     1      59.393   5.839  31.403  1.00  0.00    -0.006 C 
ATOM      6  C   UNL     1      59.226   7.059  31.991  1.00  0.00    -0.070 C 
ATOM      7  C   UNL     1      57.896   7.776  31.946  1.00  0.00     0.039 C 
ATOM      8  C   UNL     1      60.344   7.737  32.750  1.00  0.00     0.039 C 
ATOM      9  C   UNL     1      60.724   5.167  31.315  1.00  0.00     0.159 C 
ATOM     10  O   UNL     1      61.794   5.833  31.296  1.00  0.00    -0.295 OA
ATOM     11  C   UNL     1      60.808   3.670  31.238  1.00  0.00     0.084 C 
ENDROOT
TORSDOF 0
ENDMDL
MODEL 4
REMARK VINA RESULT:    -3.178     15.425     15.752
REMARK INTER + INTRA:          -3.178
REMARK INTER:                  -3.178
REMARK INTRA:                   0.000
REMARK UNBOUND:                 0.000
REMARK SMILES CC(C)=C1CC[C@H](C)CC1=O
REMARK SMILES IDX 8 1 7 2 6 3 5 4 4 5 2 6 1 7 3 8 10 9 11 10 9 11
REMARK H PARENT
REMARK Flexibility Score: inf
ROOT
ATOM      1  C   UNL     1      62.331   6.251  46.389  1.00  0.00     0.008 C 
ATOM      2  C   UNL     1      61.237   5.189  46.234  1.00  0.00    -0.006 C 
ATOM      3  C   UNL     1      61.845   3.847  45.792  1.00  0.00     0.008 C 
ATOM      4  C   UNL     1      60.753   2.800  45.533  1.00  0.00     0.039 C 
ATOM      5  C   UNL     1      59.797   2.649  46.708  1.00  0.00    -0.006 C 
ATOM      6  C   UNL     1      59.209   1.451  46.995  1.00  0.00    -0.070 C 
ATOM      7  C   UNL     1      59.468   0.227  46.146  1.00  0.00     0.039 C 
ATOM      8  C   UNL     1      58.303   1.276  48.192  1.00  0.00     0.039 C 
ATOM      9  C   UNL     1      59.460   3.904  47.443  1.00  0.00     0.159 C 
ATOM     10  O   UNL     1      58.329   4.067  47.976  1.00  0.00    -0.295 OA
ATOM     11  C   UNL     1      60.472   5.008  47.553  1.00  0.00     0.084 C 
ENDROOT
TORSDOF 0
ENDMDL
MODEL 5
REMARK VINA RESULT:    -3.130      1.981      3.137
REMARK INTER + INTRA:          -3.130
REMARK INTER:                  -3.130
REMARK INTRA:                   0.000
REMARK UNBOUND:                 0.000
REMARK SMILES CC(C)=C1CC[C@H](C)CC1=O
REMARK SMILES IDX 8 1 7 2 6 3 5 4 4 5 2 6 1 7 3 8 10 9 11 10 9 11
REMARK H PARENT
REMARK Flexibility Score: inf
ROOT
ATOM      1  C   UNL     1      64.377   4.571  33.005  1.00  0.00     0.008 C 
ATOM      2  C   UNL     1      62.865   4.790  32.881  1.00  0.00    -0.006 C 
ATOM      3  C   UNL     1      62.468   6.159  33.457  1.00  0.00     0.008 C 
ATOM      4  C   UNL     1      60.946   6.353  33.435  1.00  0.00     0.039 C 
ATOM      5  C   UNL     1      60.344   6.101  32.059  1.00  0.00    -0.006 C 
ATOM      6  C   UNL     1      59.239   6.780  31.632  1.00  0.00    -0.070 C 
ATOM      7  C   UNL     1      58.555   7.798  32.516  1.00  0.00     0.039 C 
ATOM      8  C   UNL     1      58.668   6.580  30.247  1.00  0.00     0.039 C 
ATOM      9  C   UNL     1      60.962   4.996  31.266  1.00  0.00     0.159 C 
ATOM     10  O   UNL     1      60.277   4.299  30.470  1.00  0.00    -0.295 OA
ATOM     11  C   UNL     1      62.425   4.691  31.414  1.00  0.00     0.084 C 
ENDROOT
TORSDOF 0
ENDMDL
MODEL 6
REMARK VINA RESULT:    -3.101     20.142     22.210
REMARK INTER + INTRA:          -3.101
REMARK INTER:                  -3.101
REMARK INTRA:                   0.000
REMARK UNBOUND:                 0.000
REMARK SMILES CC(C)=C1CC[C@H](C)CC1=O
REMARK SMILES IDX 8 1 7 2 6 3 5 4 4 5 2 6 1 7 3 8 10 9 11 10 9 11
REMARK H PARENT
REMARK Flexibility Score: inf
ROOT
ATOM      1  C   UNL     1      78.082  10.619  47.876  1.00  0.00     0.008 C 
ATOM      2  C   UNL     1      76.605  10.967  48.098  1.00  0.00    -0.006 C 
ATOM      3  C   UNL     1      75.973  11.495  46.800  1.00  0.00     0.008 C 
ATOM      4  C   UNL     1      74.524  11.944  47.029  1.00  0.00     0.039 C 
ATOM      5  C   UNL     1      73.677  10.868  47.695  1.00  0.00    -0.006 C 
ATOM      6  C   UNL     1      72.342  10.752  47.433  1.00  0.00    -0.070 C 
ATOM      7  C   UNL     1      71.644  11.698  46.483  1.00  0.00     0.039 C 
ATOM      8  C   UNL     1      71.504   9.653  48.044  1.00  0.00     0.039 C 
ATOM      9  C   UNL     1      74.367  10.037  48.726  1.00  0.00     0.159 C 
ATOM     10  O   UNL     1      73.744   9.579  49.723  1.00  0.00    -0.295 OA
ATOM     11  C   UNL     1      75.832   9.737  48.594  1.00  0.00     0.084 C 
ENDROOT
TORSDOF 0
ENDMDL
MODEL 7
REMARK VINA RESULT:    -3.091      2.024      3.004
REMARK INTER + INTRA:          -3.091
REMARK INTER:                  -3.091
REMARK INTRA:                   0.000
REMARK UNBOUND:                 0.000
REMARK SMILES CC(C)=C1CC[C@H](C)CC1=O
REMARK SMILES IDX 8 1 7 2 6 3 5 4 4 5 2 6 1 7 3 8 10 9 11 10 9 11
REMARK H PARENT
REMARK Flexibility Score: inf
ROOT
ATOM      1  C   UNL     1      64.741   4.291  32.858  1.00  0.00     0.008 C 
ATOM      2  C   UNL     1      63.332   4.885  32.750  1.00  0.00    -0.006 C 
ATOM      3  C   UNL     1      63.098   5.471  31.348  1.00  0.00     0.008 C 
ATOM      4  C   UNL     1      61.730   6.160  31.253  1.00  0.00     0.039 C 
ATOM      5  C   UNL     1      60.589   5.259  31.708  1.00  0.00    -0.006 C 
ATOM      6  C   UNL     1      59.345   5.357  31.155  1.00  0.00    -0.070 C 
ATOM      7  C   UNL     1      59.042   6.377  30.081  1.00  0.00     0.039 C 
ATOM      8  C   UNL     1      58.220   4.430  31.557  1.00  0.00     0.039 C 
ATOM      9  C   UNL     1      60.886   4.357  32.860  1.00  0.00     0.159 C 
ATOM     10  O   UNL     1      59.992   4.039  33.690  1.00  0.00    -0.295 OA
ATOM     11  C   UNL     1      62.273   3.815  33.054  1.00  0.00     0.084 C 
ENDROOT
TORSDOF 0
ENDMDL
MODEL 8
REMARK VINA RESULT:    -3.075      1.579      2.451
REMARK INTER + INTRA:          -3.075
REMARK INTER:                  -3.075
REMARK INTRA:                   0.000
REMARK UNBOUND:                 0.000
REMARK SMILES CC(C)=C1CC[C@H](C)CC1=O
REMARK SMILES IDX 8 1 7 2 6 3 5 4 4 5 2 6 1 7 3 8 10 9 11 10 9 11
REMARK H PARENT
REMARK Flexibility Score: inf
ROOT
ATOM      1  C   UNL     1      62.749   8.102  31.342  1.00  0.00     0.008 C 
ATOM      2  C   UNL     1      61.760   6.980  31.677  1.00  0.00    -0.006 C 
ATOM      3  C   UNL     1      60.556   7.018  30.721  1.00  0.00     0.008 C 
ATOM      4  C   UNL     1      59.507   5.966  31.106  1.00  0.00     0.039 C 
ATOM      5  C   UNL     1      60.101   4.571  31.243  1.00  0.00    -0.006 C 
ATOM      6  C   UNL     1      59.371   3.456  30.944  1.00  0.00    -0.070 C 
ATOM      7  C   UNL     1      57.936   3.559  30.480  1.00  0.00     0.039 C 
ATOM      8  C   UNL     1      59.969   2.069  31.021  1.00  0.00     0.039 C 
ATOM      9  C   UNL     1      61.473   4.497  31.829  1.00  0.00     0.159 C 
ATOM     10  O   UNL     1      61.834   3.514  32.530  1.00  0.00    -0.295 OA
ATOM     11  C   UNL     1      62.451   5.612  31.595  1.00  0.00     0.084 C 
ENDROOT
TORSDOF 0
ENDMDL
MODEL 9
REMARK VINA RESULT:    -3.011     10.747     12.413
REMARK INTER + INTRA:          -3.011
REMARK INTER:                  -3.011
REMARK INTRA:                   0.000
REMARK UNBOUND:                 0.000
REMARK SMILES CC(C)=C1CC[C@H](C)CC1=O
REMARK SMILES IDX 8 1 7 2 6 3 5 4 4 5 2 6 1 7 3 8 10 9 11 10 9 11
REMARK H PARENT
REMARK Flexibility Score: inf
ROOT
ATOM      1  C   UNL     1      69.880   3.411  30.210  1.00  0.00     0.008 C 
ATOM      2  C   UNL     1      70.489   3.066  31.574  1.00  0.00    -0.006 C 
ATOM      3  C   UNL     1      71.253   1.734  31.504  1.00  0.00     0.008 C 
ATOM      4  C   UNL     1      71.782   1.322  32.884  1.00  0.00     0.039 C 
ATOM      5  C   UNL     1      72.591   2.425  33.552  1.00  0.00    -0.006 C 
ATOM      6  C   UNL     1      73.632   2.135  34.387  1.00  0.00    -0.070 C 
ATOM      7  C   UNL     1      74.014   0.705  34.697  1.00  0.00     0.039 C 
ATOM      8  C   UNL     1      74.478   3.221  35.012  1.00  0.00     0.039 C 
ATOM      9  C   UNL     1      72.105   3.820  33.332  1.00  0.00     0.159 C 
ATOM     10  O   UNL     1      72.243   4.709  34.215  1.00  0.00    -0.295 OA
ATOM     11  C   UNL     1      71.429   4.186  32.042  1.00  0.00     0.084 C 
ENDROOT
TORSDOF 0
ENDMDL
