MODEL 1
REMARK VINA RESULT:    -4.700      0.000      0.000
REMARK INTER + INTRA:          -8.814
REMARK INTER:                  -7.448
REMARK INTRA:                  -1.366
REMARK UNBOUND:                -1.366
REMARK SMILES CCCCCCCCCCCC(=O)[O-]
REMARK SMILES IDX 7 1 8 2 9 3 10 4 11 5 12 6 13 7 14 8 6 9 5 10 4 11 3 12 2 13
REMARK SMILES IDX 1 14
REMARK H PARENT
REMARK Flexibility Score: inf
ROOT
ATOM      1  C   UNL     1      90.086  73.614  71.603  1.00  0.00     0.000 C 
ENDROOT
BRANCH   1   2
ATOM      2  C   UNL     1      89.532  73.661  73.031  1.00  0.00     0.000 C 
BRANCH   2   3
ATOM      3  C   UNL     1      88.005  73.827  73.024  1.00  0.00     0.000 C 
BRANCH   3   4
ATOM      4  C   UNL     1      87.536  75.046  73.833  1.00  0.00     0.006 C 
BRANCH   4   5
ATOM      5  C   UNL     1      86.967  76.161  72.947  1.00  0.00     0.053 C 
BRANCH   5   6
ATOM      6  C   UNL     1      87.999  77.220  72.713  1.00  0.00     0.041 C 
ATOM      7  O   UNL     1      87.799  78.121  71.858  1.00  0.00    -0.550 OA
ATOM      8  O   UNL     1      89.202  77.182  73.406  1.00  0.00    -0.550 OA
ENDBRANCH   5   6
ENDBRANCH   4   5
ENDBRANCH   3   4
ENDBRANCH   2   3
ENDBRANCH   1   2
BRANCH   1   9
ATOM      9  C   UNL     1      89.016  73.127  70.613  1.00  0.00     0.000 C 
BRANCH   9  10
ATOM     10  C   UNL     1      89.081  73.863  69.265  1.00  0.00    -0.000 C 
BRANCH  10  11
ATOM     11  C   UNL     1      88.148  75.085  69.213  1.00  0.00    -0.000 C 
BRANCH  11  12
ATOM     12  C   UNL     1      88.932  76.411  69.118  1.00  0.00    -0.000 C 
BRANCH  12  13
ATOM     13  C   UNL     1      90.454  76.238  69.253  1.00  0.00    -0.003 C 
ATOM     14  C   UNL     1      91.053  77.065  70.388  1.00  0.00     0.004 C 
ENDBRANCH  12  13
ENDBRANCH  11  12
ENDBRANCH  10  11
ENDBRANCH   9  10
ENDBRANCH   1   9
TORSDOF 10
ENDMDL
MODEL 2
REMARK VINA RESULT:    -4.571      1.249      2.148
REMARK INTER + INTRA:          -8.610
REMARK INTER:                  -7.519
REMARK INTRA:                  -1.091
REMARK UNBOUND:                -1.366
REMARK SMILES CCCCCCCCCCCC(=O)[O-]
REMARK SMILES IDX 7 1 8 2 9 3 10 4 11 5 12 6 13 7 14 8 6 9 5 10 4 11 3 12 2 13
REMARK SMILES IDX 1 14
REMARK H PARENT
REMARK Flexibility Score: inf
ROOT
ATOM      1  C   UNL     1      88.594  73.993  73.954  1.00  0.00     0.000 C 
ENDROOT
BRANCH   1   2
ATOM      2  C   UNL     1      87.167  73.612  73.544  1.00  0.00     0.000 C 
BRANCH   2   3
ATOM      3  C   UNL     1      86.143  74.580  74.155  1.00  0.00     0.000 C 
BRANCH   3   4
ATOM      4  C   UNL     1      85.670  75.650  73.158  1.00  0.00     0.006 C 
BRANCH   4   5
ATOM      5  C   UNL     1      86.502  76.937  73.232  1.00  0.00     0.053 C 
BRANCH   5   6
ATOM      6  C   UNL     1      87.393  77.052  72.036  1.00  0.00     0.041 C 
ATOM      7  O   UNL     1      88.379  77.834  72.053  1.00  0.00    -0.550 OA
ATOM      8  O   UNL     1      87.106  76.330  70.884  1.00  0.00    -0.550 OA
ENDBRANCH   5   6
ENDBRANCH   4   5
ENDBRANCH   3   4
ENDBRANCH   2   3
ENDBRANCH   1   2
BRANCH   1   9
ATOM      9  C   UNL     1      89.546  73.939  72.750  1.00  0.00     0.000 C 
BRANCH   9  10
ATOM     10  C   UNL     1      88.855  73.432  71.474  1.00  0.00    -0.000 C 
BRANCH  10  11
ATOM     11  C   UNL     1      89.829  73.280  70.293  1.00  0.00    -0.000 C 
BRANCH  11  12
ATOM     12  C   UNL     1      90.889  74.400  70.266  1.00  0.00    -0.000 C 
BRANCH  12  13
ATOM     13  C   UNL     1      90.399  75.696  69.598  1.00  0.00    -0.003 C 
ATOM     14  C   UNL     1      91.079  76.948  70.149  1.00  0.00     0.004 C 
ENDBRANCH  12  13
ENDBRANCH  11  12
ENDBRANCH  10  11
ENDBRANCH   9  10
ENDBRANCH   1   9
TORSDOF 10
ENDMDL
MODEL 3
REMARK VINA RESULT:    -4.263      1.753      2.097
REMARK INTER + INTRA:          -8.121
REMARK INTER:                  -7.089
REMARK INTRA:                  -1.033
REMARK UNBOUND:                -1.366
REMARK SMILES CCCCCCCCCCCC(=O)[O-]
REMARK SMILES IDX 7 1 8 2 9 3 10 4 11 5 12 6 13 7 14 8 6 9 5 10 4 11 3 12 2 13
REMARK SMILES IDX 1 14
REMARK H PARENT
REMARK Flexibility Score: inf
ROOT
ATOM      1  C   UNL     1      90.179  73.602  72.982  1.00  0.00     0.000 C 
ENDROOT
BRANCH   1   2
ATOM      2  C   UNL     1      89.746  74.590  74.072  1.00  0.00     0.000 C 
BRANCH   2   3
ATOM      3  C   UNL     1      88.251  74.922  73.952  1.00  0.00     0.000 C 
BRANCH   3   4
ATOM      4  C   UNL     1      88.000  76.324  73.374  1.00  0.00     0.006 C 
BRANCH   4   5
ATOM      5  C   UNL     1      86.753  76.381  72.483  1.00  0.00     0.053 C 
BRANCH   5   6
ATOM      6  C   UNL     1      85.517  76.183  73.303  1.00  0.00     0.041 C 
ATOM      7  O   UNL     1      84.963  75.054  73.350  1.00  0.00    -0.550 OA
ATOM      8  O   UNL     1      84.950  77.258  73.976  1.00  0.00    -0.550 OA
ENDBRANCH   5   6
ENDBRANCH   4   5
ENDBRANCH   3   4
ENDBRANCH   2   3
ENDBRANCH   1   2
BRANCH   1   9
ATOM      9  C   UNL     1      89.109  73.489  71.885  1.00  0.00     0.000 C 
BRANCH   9  10
ATOM     10  C   UNL     1      89.717  73.296  70.486  1.00  0.00    -0.000 C 
BRANCH  10  11
ATOM     11  C   UNL     1      88.851  73.914  69.374  1.00  0.00    -0.000 C 
BRANCH  11  12
ATOM     12  C   UNL     1      89.175  75.405  69.146  1.00  0.00    -0.000 C 
BRANCH  12  13
ATOM     13  C   UNL     1      90.594  75.801  69.586  1.00  0.00    -0.003 C 
ATOM     14  C   UNL     1      90.615  76.994  70.540  1.00  0.00     0.004 C 
ENDBRANCH  12  13
ENDBRANCH  11  12
ENDBRANCH  10  11
ENDBRANCH   9  10
ENDBRANCH   1   9
TORSDOF 10
ENDMDL
MODEL 4
REMARK VINA RESULT:    -3.941     13.150     14.840
REMARK INTER + INTRA:          -7.611
REMARK INTER:                  -6.832
REMARK INTRA:                  -0.779
REMARK UNBOUND:                -1.366
REMARK SMILES CCCCCCCCCCCC(=O)[O-]
REMARK SMILES IDX 7 1 8 2 9 3 10 4 11 5 12 6 13 7 14 8 6 9 5 10 4 11 3 12 2 13
REMARK SMILES IDX 1 14
REMARK H PARENT
REMARK Flexibility Score: inf
ROOT
ATOM      1  C   UNL     1      96.131  85.287  80.091  1.00  0.00     0.000 C 
ENDROOT
BRANCH   1   2
ATOM      2  C   UNL     1      95.267  85.193  78.829  1.00  0.00     0.000 C 
BRANCH   2   3
ATOM      3  C   UNL     1      93.799  84.913  79.186  1.00  0.00     0.000 C 
BRANCH   3   4
ATOM      4  C   UNL     1      93.490  83.411  79.291  1.00  0.00     0.006 C 
BRANCH   4   5
ATOM      5  C   UNL     1      93.143  82.977  80.720  1.00  0.00     0.053 C 
BRANCH   5   6
ATOM      6  C   UNL     1      91.854  83.598  81.156  1.00  0.00     0.041 C 
ATOM      7  O   UNL     1      91.799  84.265  82.222  1.00  0.00    -0.550 OA
ATOM      8  O   UNL     1      90.700  83.399  80.408  1.00  0.00    -0.550 OA
ENDBRANCH   5   6
ENDBRANCH   4   5
ENDBRANCH   3   4
ENDBRANCH   2   3
ENDBRANCH   1   2
BRANCH   1   9
ATOM      9  C   UNL     1      97.254  84.239  80.069  1.00  0.00     0.000 C 
BRANCH   9  10
ATOM     10  C   UNL     1      96.860  82.937  80.786  1.00  0.00    -0.000 C 
BRANCH  10  11
ATOM     11  C   UNL     1      98.060  82.240  81.450  1.00  0.00    -0.000 C 
BRANCH  11  12
ATOM     12  C   UNL     1      99.343  83.093  81.372  1.00  0.00    -0.000 C 
BRANCH  12  13
ATOM     13  C   UNL     1     100.057  83.257  82.724  1.00  0.00    -0.003 C 
ATOM     14  C   UNL     1     101.380  84.012  82.615  1.00  0.00     0.004 C 
ENDBRANCH  12  13
ENDBRANCH  11  12
ENDBRANCH  10  11
ENDBRANCH   9  10
ENDBRANCH   1   9
TORSDOF 10
ENDMDL
MODEL 5
REMARK VINA RESULT:    -3.793     13.707     15.553
REMARK INTER + INTRA:          -7.376
REMARK INTER:                  -6.534
REMARK INTRA:                  -0.842
REMARK UNBOUND:                -1.366
REMARK SMILES CCCCCCCCCCCC(=O)[O-]
REMARK SMILES IDX 7 1 8 2 9 3 10 4 11 5 12 6 13 7 14 8 6 9 5 10 4 11 3 12 2 13
REMARK SMILES IDX 1 14
REMARK H PARENT
REMARK Flexibility Score: inf
ROOT
ATOM      1  C   UNL     1      96.280  85.279  80.140  1.00  0.00     0.000 C 
ENDROOT
BRANCH   1   2
ATOM      2  C   UNL     1      97.386  84.219  80.104  1.00  0.00     0.000 C 
BRANCH   2   3
ATOM      3  C   UNL     1      96.947  82.940  80.834  1.00  0.00     0.000 C 
BRANCH   3   4
ATOM      4  C   UNL     1      98.099  82.267  81.596  1.00  0.00     0.006 C 
BRANCH   4   5
ATOM      5  C   UNL     1      99.417  83.044  81.483  1.00  0.00     0.053 C 
BRANCH   5   6
ATOM      6  C   UNL     1      99.787  83.637  82.805  1.00  0.00     0.041 C 
ATOM      7  O   UNL     1     100.940  83.461  83.279  1.00  0.00    -0.550 OA
ATOM      8  O   UNL     1      98.843  84.346  83.537  1.00  0.00    -0.550 OA
ENDBRANCH   5   6
ENDBRANCH   4   5
ENDBRANCH   3   4
ENDBRANCH   2   3
ENDBRANCH   1   2
BRANCH   1   9
ATOM      9  C   UNL     1      95.380  85.178  78.898  1.00  0.00     0.000 C 
BRANCH   9  10
ATOM     10  C   UNL     1      93.916  84.877  79.254  1.00  0.00    -0.000 C 
BRANCH  10  11
ATOM     11  C   UNL     1      93.662  83.380  79.503  1.00  0.00    -0.000 C 
BRANCH  11  12
ATOM     12  C   UNL     1      92.821  83.135  80.773  1.00  0.00    -0.000 C 
BRANCH  12  13
ATOM     13  C   UNL     1      92.611  84.398  81.624  1.00  0.00    -0.003 C 
ATOM     14  C   UNL     1      91.871  84.122  82.932  1.00  0.00     0.004 C 
ENDBRANCH  12  13
ENDBRANCH  11  12
ENDBRANCH  10  11
ENDBRANCH   9  10
ENDBRANCH   1   9
TORSDOF 10
ENDMDL
MODEL 6
REMARK VINA RESULT:    -3.788     10.827     12.772
REMARK INTER + INTRA:          -7.368
REMARK INTER:                  -6.733
REMARK INTRA:                  -0.635
REMARK UNBOUND:                -1.366
REMARK SMILES CCCCCCCCCCCC(=O)[O-]
REMARK SMILES IDX 7 1 8 2 9 3 10 4 11 5 12 6 13 7 14 8 6 9 5 10 4 11 3 12 2 13
REMARK SMILES IDX 1 14
REMARK H PARENT
REMARK Flexibility Score: inf
ROOT
ATOM      1  C   UNL     1      89.288  83.031  80.750  1.00  0.00     0.000 C 
ENDROOT
BRANCH   1   2
ATOM      2  C   UNL     1      89.528  84.544  80.751  1.00  0.00     0.000 C 
BRANCH   2   3
ATOM      3  C   UNL     1      90.315  84.978  79.504  1.00  0.00     0.000 C 
BRANCH   3   4
ATOM      4  C   UNL     1      91.247  83.874  78.979  1.00  0.00     0.006 C 
BRANCH   4   5
ATOM      5  C   UNL     1      92.728  84.177  79.240  1.00  0.00     0.053 C 
BRANCH   5   6
ATOM      6  C   UNL     1      93.238  83.347  80.375  1.00  0.00     0.041 C 
ATOM      7  O   UNL     1      92.699  83.426  81.510  1.00  0.00    -0.550 OA
ATOM      8  O   UNL     1      94.340  82.521  80.192  1.00  0.00    -0.550 OA
ENDBRANCH   5   6
ENDBRANCH   4   5
ENDBRANCH   3   4
ENDBRANCH   2   3
ENDBRANCH   1   2
BRANCH   1   9
ATOM      9  C   UNL     1      87.814  82.707  80.463  1.00  0.00     0.000 C 
BRANCH   9  10
ATOM     10  C   UNL     1      87.642  81.425  79.632  1.00  0.00    -0.000 C 
BRANCH  10  11
ATOM     11  C   UNL     1      86.847  80.339  80.377  1.00  0.00    -0.000 C 
BRANCH  11  12
ATOM     12  C   UNL     1      86.307  80.840  81.733  1.00  0.00    -0.000 C 
BRANCH  12  13
ATOM     13  C   UNL     1      85.434  79.810  82.467  1.00  0.00    -0.003 C 
ATOM     14  C   UNL     1      85.261  80.121  83.952  1.00  0.00     0.004 C 
ENDBRANCH  12  13
ENDBRANCH  11  12
ENDBRANCH  10  11
ENDBRANCH   9  10
ENDBRANCH   1   9
TORSDOF 10
ENDMDL
MODEL 7
REMARK VINA RESULT:    -3.755     11.069     13.249
REMARK INTER + INTRA:          -7.317
REMARK INTER:                  -6.516
REMARK INTRA:                  -0.801
REMARK UNBOUND:                -1.366
REMARK SMILES CCCCCCCCCCCC(=O)[O-]
REMARK SMILES IDX 7 1 8 2 9 3 10 4 11 5 12 6 13 7 14 8 6 9 5 10 4 11 3 12 2 13
REMARK SMILES IDX 1 14
REMARK H PARENT
REMARK Flexibility Score: inf
ROOT
ATOM      1  C   UNL     1      91.317  84.267  78.665  1.00  0.00     0.000 C 
ENDROOT
BRANCH   1   2
ATOM      2  C   UNL     1      92.501  84.483  79.615  1.00  0.00     0.000 C 
BRANCH   2   3
ATOM      3  C   UNL     1      92.678  83.281  80.555  1.00  0.00     0.000 C 
BRANCH   3   4
ATOM      4  C   UNL     1      94.062  82.624  80.422  1.00  0.00     0.006 C 
BRANCH   4   5
ATOM      5  C   UNL     1      95.158  83.627  80.043  1.00  0.00     0.053 C 
BRANCH   5   6
ATOM      6  C   UNL     1      96.398  83.370  80.840  1.00  0.00     0.041 C 
ATOM      7  O   UNL     1      97.157  82.411  80.541  1.00  0.00    -0.550 OA
ATOM      8  O   UNL     1      96.692  84.161  81.943  1.00  0.00    -0.550 OA
ENDBRANCH   5   6
ENDBRANCH   4   5
ENDBRANCH   3   4
ENDBRANCH   2   3
ENDBRANCH   1   2
BRANCH   1   9
ATOM      9  C   UNL     1      90.301  85.413  78.782  1.00  0.00     0.000 C 
BRANCH   9  10
ATOM     10  C   UNL     1      88.914  84.928  79.234  1.00  0.00    -0.000 C 
BRANCH  10  11
ATOM     11  C   UNL     1      88.898  84.464  80.701  1.00  0.00    -0.000 C 
BRANCH  11  12
ATOM     12  C   UNL     1      88.646  82.947  80.828  1.00  0.00    -0.000 C 
BRANCH  12  13
ATOM     13  C   UNL     1      88.218  82.281  79.510  1.00  0.00    -0.003 C 
ATOM     14  C   UNL     1      87.318  81.065  79.719  1.00  0.00     0.004 C 
ENDBRANCH  12  13
ENDBRANCH  11  12
ENDBRANCH  10  11
ENDBRANCH   9  10
ENDBRANCH   1   9
TORSDOF 10
ENDMDL
MODEL 8
REMARK VINA RESULT:    -3.732     11.036     13.109
REMARK INTER + INTRA:          -7.279
REMARK INTER:                  -6.415
REMARK INTRA:                  -0.864
REMARK UNBOUND:                -1.366
REMARK SMILES CCCCCCCCCCCC(=O)[O-]
REMARK SMILES IDX 7 1 8 2 9 3 10 4 11 5 12 6 13 7 14 8 6 9 5 10 4 11 3 12 2 13
REMARK SMILES IDX 1 14
REMARK H PARENT
REMARK Flexibility Score: inf
ROOT
ATOM      1  C   UNL     1      91.562  83.595  81.241  1.00  0.00     0.000 C 
ENDROOT
BRANCH   1   2
ATOM      2  C   UNL     1      91.985  84.141  79.872  1.00  0.00     0.000 C 
BRANCH   2   3
ATOM      3  C   UNL     1      93.183  83.358  79.314  1.00  0.00     0.000 C 
BRANCH   3   4
ATOM      4  C   UNL     1      93.963  82.610  80.407  1.00  0.00     0.006 C 
BRANCH   4   5
ATOM      5  C   UNL     1      95.461  82.939  80.394  1.00  0.00     0.053 C 
BRANCH   5   6
ATOM      6  C   UNL     1      95.671  84.419  80.445  1.00  0.00     0.041 C 
ATOM      7  O   UNL     1      95.330  85.073  81.466  1.00  0.00    -0.550 OA
ATOM      8  O   UNL     1      96.199  85.085  79.346  1.00  0.00    -0.550 OA
ENDBRANCH   5   6
ENDBRANCH   4   5
ENDBRANCH   3   4
ENDBRANCH   2   3
ENDBRANCH   1   2
BRANCH   1   9
ATOM      9  C   UNL     1      90.065  83.248  81.256  1.00  0.00     0.000 C 
BRANCH   9  10
ATOM     10  C   UNL     1      89.225  84.223  80.416  1.00  0.00    -0.000 C 
BRANCH  10  11
ATOM     11  C   UNL     1      88.000  83.548  79.774  1.00  0.00    -0.000 C 
BRANCH  11  12
ATOM     12  C   UNL     1      88.324  82.134  79.251  1.00  0.00    -0.000 C 
BRANCH  12  13
ATOM     13  C   UNL     1      87.332  81.059  79.727  1.00  0.00    -0.003 C 
ATOM     14  C   UNL     1      86.877  81.262  81.171  1.00  0.00     0.004 C 
ENDBRANCH  12  13
ENDBRANCH  11  12
ENDBRANCH  10  11
ENDBRANCH   9  10
ENDBRANCH   1   9
TORSDOF 10
ENDMDL
MODEL 9
REMARK VINA RESULT:    -3.717     11.083     13.157
REMARK INTER + INTRA:          -7.257
REMARK INTER:                  -6.383
REMARK INTRA:                  -0.874
REMARK UNBOUND:                -1.366
REMARK SMILES CCCCCCCCCCCC(=O)[O-]
REMARK SMILES IDX 7 1 8 2 9 3 10 4 11 5 12 6 13 7 14 8 6 9 5 10 4 11 3 12 2 13
REMARK SMILES IDX 1 14
REMARK H PARENT
REMARK Flexibility Score: inf
ROOT
ATOM      1  C   UNL     1      90.618  83.722  82.018  1.00  0.00     0.000 C 
ENDROOT
BRANCH   1   2
ATOM      2  C   UNL     1      92.032  83.884  81.450  1.00  0.00     0.000 C 
BRANCH   2   3
ATOM      3  C   UNL     1      92.030  83.755  79.920  1.00  0.00     0.000 C 
BRANCH   3   4
ATOM      4  C   UNL     1      93.407  83.373  79.355  1.00  0.00     0.006 C 
BRANCH   4   5
ATOM      5  C   UNL     1      94.313  82.713  80.402  1.00  0.00     0.053 C 
BRANCH   5   6
ATOM      6  C   UNL     1      95.677  83.328  80.374  1.00  0.00     0.041 C 
ATOM      7  O   UNL     1      95.822  84.534  80.044  1.00  0.00    -0.550 OA
ATOM      8  O   UNL     1      96.794  82.555  80.666  1.00  0.00    -0.550 OA
ENDBRANCH   5   6
ENDBRANCH   4   5
ENDBRANCH   3   4
ENDBRANCH   2   3
ENDBRANCH   1   2
BRANCH   1   9
ATOM      9  C   UNL     1      89.677  84.807  81.472  1.00  0.00     0.000 C 
BRANCH   9  10
ATOM     10  C   UNL     1      88.322  84.239  81.018  1.00  0.00    -0.000 C 
BRANCH  10  11
ATOM     11  C   UNL     1      88.328  83.802  79.543  1.00  0.00    -0.000 C 
BRANCH  11  12
ATOM     12  C   UNL     1      88.268  82.268  79.391  1.00  0.00    -0.000 C 
BRANCH  12  13
ATOM     13  C   UNL     1      87.709  81.548  80.630  1.00  0.00    -0.003 C 
ATOM     14  C   UNL     1      86.882  80.312  80.282  1.00  0.00     0.004 C 
ENDBRANCH  12  13
ENDBRANCH  11  12
ENDBRANCH  10  11
ENDBRANCH   9  10
ENDBRANCH   1   9
TORSDOF 10
ENDMDL
