MODEL 1
REMARK VINA RESULT:    -3.742      0.000      0.000
REMARK INTER + INTRA:          -5.164
REMARK INTER:                  -5.055
REMARK INTRA:                  -0.109
REMARK UNBOUND:                -0.109
REMARK SMILES [NH3+]CCCC[C@H]([NH3+])C(=O)[O-]
REMARK SMILES IDX 4 1 3 2 2 3 1 4 5 8 6 9 7 10 8 14 9 15 10 16
REMARK H PARENT 1 5 1 6 1 7 7 11 7 12 7 13
REMARK Flexibility Score: inf
ROOT
ATOM      1  C   UNL     1      68.253  -6.227  34.870  1.00  0.00     0.012 C 
ENDROOT
BRANCH   1   2
ATOM      2  C   UNL     1      68.165  -6.977  36.207  1.00  0.00     0.061 C 
BRANCH   2   3
ATOM      3  C   UNL     1      68.624  -6.117  37.398  1.00  0.00     0.258 C 
BRANCH   3   4
ATOM      4  N   UNL     1      69.955  -6.498  37.873  1.00  0.00    -0.358 N 
ATOM      5  H   UNL     1      70.113  -6.145  38.845  1.00  0.00     0.344 HD
ATOM      6  H   UNL     1      70.691  -6.124  37.232  1.00  0.00     0.344 HD
ATOM      7  H   UNL     1      70.027  -7.542  37.880  1.00  0.00     0.344 HD
ENDBRANCH   3   4
ENDBRANCH   2   3
ENDBRANCH   1   2
BRANCH   1   8
ATOM      8  C   UNL     1      68.269  -4.705  35.097  1.00  0.00     0.072 C 
BRANCH   8   9
ATOM      9  C   UNL     1      68.389  -3.870  33.800  1.00  0.00     0.227 C 
BRANCH   9  10
ATOM     10  N   UNL     1      69.654  -4.123  33.096  1.00  0.00    -0.350 N 
ATOM     11  H   UNL     1      70.387  -4.404  33.787  1.00  0.00     0.345 HD
ATOM     12  H   UNL     1      69.553  -4.885  32.388  1.00  0.00     0.345 HD
ATOM     13  H   UNL     1      69.976  -3.250  32.618  1.00  0.00     0.345 HD
ENDBRANCH   9  10
BRANCH   9  14
ATOM     14  C   UNL     1      68.185  -2.400  34.066  1.00  0.00     0.099 C 
ATOM     15  O   UNL     1      68.246  -1.940  35.237  1.00  0.00    -0.544 OA
ATOM     16  O   UNL     1      67.875  -1.548  33.014  1.00  0.00    -0.544 OA
ENDBRANCH   9  14
ENDBRANCH   8   9
ENDBRANCH   1   8
TORSDOF 7
ENDMDL
MODEL 2
REMARK VINA RESULT:    -2.684     12.699     14.006
REMARK INTER + INTRA:          -3.734
REMARK INTER:                  -4.105
REMARK INTRA:                   0.371
REMARK UNBOUND:                -0.109
REMARK SMILES [NH3+]CCCC[C@H]([NH3+])C(=O)[O-]
REMARK SMILES IDX 4 1 3 2 2 3 1 4 5 8 6 9 7 10 8 14 9 15 10 16
REMARK H PARENT 1 5 1 6 1 7 7 11 7 12 7 13
REMARK Flexibility Score: inf
ROOT
ATOM      1  C   UNL     1      77.007  -1.324  25.120  1.00  0.00     0.012 C 
ENDROOT
BRANCH   1   2
ATOM      2  C   UNL     1      76.799  -1.574  26.621  1.00  0.00     0.061 C 
BRANCH   2   3
ATOM      3  C   UNL     1      76.466  -0.286  27.394  1.00  0.00     0.258 C 
BRANCH   3   4
ATOM      4  N   UNL     1      75.037  -0.178  27.696  1.00  0.00    -0.358 N 
ATOM      5  H   UNL     1      74.484  -0.071  26.815  1.00  0.00     0.344 HD
ATOM      6  H   UNL     1      74.860   0.632  28.332  1.00  0.00     0.344 HD
ATOM      7  H   UNL     1      74.727  -1.051  28.182  1.00  0.00     0.344 HD
ENDBRANCH   3   4
ENDBRANCH   2   3
ENDBRANCH   1   2
BRANCH   1   8
ATOM      8  C   UNL     1      78.106  -2.244  24.561  1.00  0.00     0.072 C 
BRANCH   8   9
ATOM      9  C   UNL     1      79.518  -1.968  25.131  1.00  0.00     0.227 C 
BRANCH   9  10
ATOM     10  N   UNL     1      79.880  -2.917  26.193  1.00  0.00    -0.350 N 
ATOM     11  H   UNL     1      80.286  -2.393  27.003  1.00  0.00     0.345 HD
ATOM     12  H   UNL     1      79.048  -3.454  26.526  1.00  0.00     0.345 HD
ATOM     13  H   UNL     1      80.604  -3.585  25.842  1.00  0.00     0.345 HD
ENDBRANCH   9  10
BRANCH   9  14
ATOM     14  C   UNL     1      79.661  -0.539  25.589  1.00  0.00     0.099 C 
ATOM     15  O   UNL     1      79.482   0.418  24.789  1.00  0.00    -0.544 OA
ATOM     16  O   UNL     1      80.046  -0.271  26.896  1.00  0.00    -0.544 OA
ENDBRANCH   9  14
ENDBRANCH   8   9
ENDBRANCH   1   8
TORSDOF 7
ENDMDL
MODEL 3
REMARK VINA RESULT:    -2.659     12.639     13.941
REMARK INTER + INTRA:          -3.700
REMARK INTER:                  -3.958
REMARK INTRA:                   0.258
REMARK UNBOUND:                -0.109
REMARK SMILES [NH3+]CCCC[C@H]([NH3+])C(=O)[O-]
REMARK SMILES IDX 4 1 3 2 2 3 1 4 5 8 6 9 7 10 8 14 9 15 10 16
REMARK H PARENT 1 5 1 6 1 7 7 11 7 12 7 13
REMARK Flexibility Score: inf
ROOT
ATOM      1  C   UNL     1      78.409  -2.027  27.004  1.00  0.00     0.012 C 
ENDROOT
BRANCH   1   2
ATOM      2  C   UNL     1      76.935  -1.675  26.760  1.00  0.00     0.061 C 
BRANCH   2   3
ATOM      3  C   UNL     1      76.549  -0.306  27.347  1.00  0.00     0.258 C 
BRANCH   3   4
ATOM      4  N   UNL     1      75.122  -0.225  27.666  1.00  0.00    -0.358 N 
ATOM      5  H   UNL     1      74.575   0.071  26.825  1.00  0.00     0.344 HD
ATOM      6  H   UNL     1      74.962   0.446  28.451  1.00  0.00     0.344 HD
ATOM      7  H   UNL     1      74.788  -1.169  27.968  1.00  0.00     0.344 HD
ENDBRANCH   3   4
ENDBRANCH   2   3
ENDBRANCH   1   2
BRANCH   1   8
ATOM      8  C   UNL     1      79.142  -2.261  25.671  1.00  0.00     0.072 C 
BRANCH   8   9
ATOM      9  C   UNL     1      79.201  -1.019  24.751  1.00  0.00     0.227 C 
BRANCH   9  10
ATOM     10  N   UNL     1      79.470   0.214  25.504  1.00  0.00    -0.350 N 
ATOM     11  H   UNL     1      80.406   0.593  25.228  1.00  0.00     0.345 HD
ATOM     12  H   UNL     1      78.746   0.943  25.315  1.00  0.00     0.345 HD
ATOM     13  H   UNL     1      79.492   0.008  26.529  1.00  0.00     0.345 HD
ENDBRANCH   9  10
BRANCH   9  14
ATOM     14  C   UNL     1      77.958  -0.895  23.906  1.00  0.00     0.099 C 
ATOM     15  O   UNL     1      77.474   0.235  23.631  1.00  0.00    -0.544 OA
ATOM     16  O   UNL     1      77.308  -2.040  23.467  1.00  0.00    -0.544 OA
ENDBRANCH   9  14
ENDBRANCH   8   9
ENDBRANCH   1   8
TORSDOF 7
ENDMDL
MODEL 4
REMARK VINA RESULT:    -2.656     13.157     14.049
REMARK INTER + INTRA:          -3.696
REMARK INTER:                  -3.481
REMARK INTRA:                  -0.215
REMARK UNBOUND:                -0.109
REMARK SMILES [NH3+]CCCC[C@H]([NH3+])C(=O)[O-]
REMARK SMILES IDX 4 1 3 2 2 3 1 4 5 8 6 9 7 10 8 14 9 15 10 16
REMARK H PARENT 1 5 1 6 1 7 7 11 7 12 7 13
REMARK Flexibility Score: inf
ROOT
ATOM      1  C   UNL     1      79.543  -2.358  24.808  1.00  0.00     0.012 C 
ENDROOT
BRANCH   1   2
ATOM      2  C   UNL     1      79.845  -3.824  25.152  1.00  0.00     0.061 C 
BRANCH   2   3
ATOM      3  C   UNL     1      79.779  -4.102  26.664  1.00  0.00     0.258 C 
BRANCH   3   4
ATOM      4  N   UNL     1      79.551  -2.882  27.440  1.00  0.00    -0.358 N 
ATOM      5  H   UNL     1      79.806  -3.033  28.443  1.00  0.00     0.344 HD
ATOM      6  H   UNL     1      78.553  -2.583  27.365  1.00  0.00     0.344 HD
ATOM      7  H   UNL     1      80.152  -2.118  27.054  1.00  0.00     0.344 HD
ENDBRANCH   3   4
ENDBRANCH   2   3
ENDBRANCH   1   2
BRANCH   1   8
ATOM      8  C   UNL     1      78.192  -2.235  24.082  1.00  0.00     0.072 C 
BRANCH   8   9
ATOM      9  C   UNL     1      77.248  -1.162  24.674  1.00  0.00     0.227 C 
BRANCH   9  10
ATOM     10  N   UNL     1      77.314   0.104  23.931  1.00  0.00    -0.350 N 
ATOM     11  H   UNL     1      76.593   0.100  23.173  1.00  0.00     0.345 HD
ATOM     12  H   UNL     1      77.139   0.924  24.555  1.00  0.00     0.345 HD
ATOM     13  H   UNL     1      78.255   0.206  23.485  1.00  0.00     0.345 HD
ENDBRANCH   9  10
BRANCH   9  14
ATOM     14  C   UNL     1      77.496  -0.956  26.147  1.00  0.00     0.099 C 
ATOM     15  O   UNL     1      76.865  -1.623  27.009  1.00  0.00    -0.544 OA
ATOM     16  O   UNL     1      78.395   0.017  26.563  1.00  0.00    -0.544 OA
ENDBRANCH   9  14
ENDBRANCH   8   9
ENDBRANCH   1   8
TORSDOF 7
ENDMDL
MODEL 5
REMARK VINA RESULT:    -2.611     13.415     14.771
REMARK INTER + INTRA:          -3.636
REMARK INTER:                  -3.244
REMARK INTRA:                  -0.392
REMARK UNBOUND:                -0.109
REMARK SMILES [NH3+]CCCC[C@H]([NH3+])C(=O)[O-]
REMARK SMILES IDX 4 1 3 2 2 3 1 4 5 8 6 9 7 10 8 14 9 15 10 16
REMARK H PARENT 1 5 1 6 1 7 7 11 7 12 7 13
REMARK Flexibility Score: inf
ROOT
ATOM      1  C   UNL     1      76.602  -1.830  24.971  1.00  0.00     0.012 C 
ENDROOT
BRANCH   1   2
ATOM      2  C   UNL     1      77.480  -2.103  23.741  1.00  0.00     0.061 C 
BRANCH   2   3
ATOM      3  C   UNL     1      77.435  -0.957  22.716  1.00  0.00     0.258 C 
BRANCH   3   4
ATOM      4  N   UNL     1      77.305   0.352  23.358  1.00  0.00    -0.358 N 
ATOM      5  H   UNL     1      76.298   0.630  23.422  1.00  0.00     0.344 HD
ATOM      6  H   UNL     1      77.842   1.074  22.826  1.00  0.00     0.344 HD
ATOM      7  H   UNL     1      77.699   0.297  24.325  1.00  0.00     0.344 HD
ENDBRANCH   3   4
ENDBRANCH   2   3
ENDBRANCH   1   2
BRANCH   1   8
ATOM      8  C   UNL     1      77.447  -1.834  26.257  1.00  0.00     0.072 C 
BRANCH   8   9
ATOM      9  C   UNL     1      78.967  -1.661  26.021  1.00  0.00     0.227 C 
BRANCH   9  10
ATOM     10  N   UNL     1      79.767  -2.430  26.985  1.00  0.00    -0.350 N 
ATOM     11  H   UNL     1      79.452  -3.428  26.980  1.00  0.00     0.345 HD
ATOM     12  H   UNL     1      80.784  -2.399  26.749  1.00  0.00     0.345 HD
ATOM     13  H   UNL     1      79.625  -2.049  27.949  1.00  0.00     0.345 HD
ENDBRANCH   9  10
BRANCH   9  14
ATOM     14  C   UNL     1      79.364  -0.207  26.003  1.00  0.00     0.099 C 
ATOM     15  O   UNL     1      79.995   0.279  25.028  1.00  0.00    -0.544 OA
ATOM     16  O   UNL     1      79.076   0.597  27.098  1.00  0.00    -0.544 OA
ENDBRANCH   9  14
ENDBRANCH   8   9
ENDBRANCH   1   8
TORSDOF 7
ENDMDL
MODEL 6
REMARK VINA RESULT:    -2.604     13.288     14.561
REMARK INTER + INTRA:          -3.626
REMARK INTER:                  -4.031
REMARK INTRA:                   0.406
REMARK UNBOUND:                -0.109
REMARK SMILES [NH3+]CCCC[C@H]([NH3+])C(=O)[O-]
REMARK SMILES IDX 4 1 3 2 2 3 1 4 5 8 6 9 7 10 8 14 9 15 10 16
REMARK H PARENT 1 5 1 6 1 7 7 11 7 12 7 13
REMARK Flexibility Score: inf
ROOT
ATOM      1  C   UNL     1      79.863  -1.454  25.870  1.00  0.00     0.012 C 
ENDROOT
BRANCH   1   2
ATOM      2  C   UNL     1      79.908   0.007  25.399  1.00  0.00     0.061 C 
BRANCH   2   3
ATOM      3  C   UNL     1      80.042   1.000  26.567  1.00  0.00     0.258 C 
BRANCH   3   4
ATOM      4  N   UNL     1      81.439   1.331  26.852  1.00  0.00    -0.358 N 
ATOM      5  H   UNL     1      81.764   0.837  27.715  1.00  0.00     0.344 HD
ATOM      6  H   UNL     1      81.554   2.363  26.966  1.00  0.00     0.344 HD
ATOM      7  H   UNL     1      82.032   1.023  26.047  1.00  0.00     0.344 HD
ENDBRANCH   3   4
ENDBRANCH   2   3
ENDBRANCH   1   2
BRANCH   1   8
ATOM      8  C   UNL     1      79.026  -2.312  24.905  1.00  0.00     0.072 C 
BRANCH   8   9
ATOM      9  C   UNL     1      77.523  -1.945  24.867  1.00  0.00     0.227 C 
BRANCH   9  10
ATOM     10  N   UNL     1      77.184  -1.130  23.692  1.00  0.00    -0.350 N 
ATOM     11  H   UNL     1      77.072  -1.751  22.858  1.00  0.00     0.345 HD
ATOM     12  H   UNL     1      76.294  -0.602  23.837  1.00  0.00     0.345 HD
ATOM     13  H   UNL     1      77.957  -0.453  23.493  1.00  0.00     0.345 HD
ENDBRANCH   9  10
BRANCH   9  14
ATOM     14  C   UNL     1      77.080  -1.286  26.149  1.00  0.00     0.099 C 
ATOM     15  O   UNL     1      76.596  -0.123  26.143  1.00  0.00    -0.544 OA
ATOM     16  O   UNL     1      77.255  -1.946  27.357  1.00  0.00    -0.544 OA
ENDBRANCH   9  14
ENDBRANCH   8   9
ENDBRANCH   1   8
TORSDOF 7
ENDMDL
MODEL 7
REMARK VINA RESULT:    -2.562     13.442     14.209
REMARK INTER + INTRA:          -3.569
REMARK INTER:                  -3.973
REMARK INTRA:                   0.403
REMARK UNBOUND:                -0.109
REMARK SMILES [NH3+]CCCC[C@H]([NH3+])C(=O)[O-]
REMARK SMILES IDX 4 1 3 2 2 3 1 4 5 8 6 9 7 10 8 14 9 15 10 16
REMARK H PARENT 1 5 1 6 1 7 7 11 7 12 7 13
REMARK Flexibility Score: inf
ROOT
ATOM      1  C   UNL     1      79.915  -1.244  25.167  1.00  0.00     0.012 C 
ENDROOT
BRANCH   1   2
ATOM      2  C   UNL     1      79.833  -2.777  25.201  1.00  0.00     0.061 C 
BRANCH   2   3
ATOM      3  C   UNL     1      79.683  -3.330  26.630  1.00  0.00     0.258 C 
BRANCH   3   4
ATOM      4  N   UNL     1      79.999  -4.757  26.705  1.00  0.00    -0.358 N 
ATOM      5  H   UNL     1      81.033  -4.900  26.780  1.00  0.00     0.344 HD
ATOM      6  H   UNL     1      79.629  -5.257  25.866  1.00  0.00     0.344 HD
ATOM      7  H   UNL     1      79.543  -5.161  27.555  1.00  0.00     0.344 HD
ENDBRANCH   3   4
ENDBRANCH   2   3
ENDBRANCH   1   2
BRANCH   1   8
ATOM      8  C   UNL     1      79.090  -0.628  26.311  1.00  0.00     0.072 C 
BRANCH   8   9
ATOM      9  C   UNL     1      77.571  -0.548  26.028  1.00  0.00     0.227 C 
BRANCH   9  10
ATOM     10  N   UNL     1      76.791  -1.368  26.966  1.00  0.00    -0.350 N 
ATOM     11  H   UNL     1      76.428  -2.215  26.469  1.00  0.00     0.345 HD
ATOM     12  H   UNL     1      77.371  -1.679  27.776  1.00  0.00     0.345 HD
ATOM     13  H   UNL     1      75.971  -0.822  27.318  1.00  0.00     0.345 HD
ENDBRANCH   9  10
BRANCH   9  14
ATOM     14  C   UNL     1      77.255  -0.891  24.594  1.00  0.00     0.099 C 
ATOM     15  O   UNL     1      76.814  -2.029  24.283  1.00  0.00    -0.544 OA
ATOM     16  O   UNL     1      77.500   0.041  23.594  1.00  0.00    -0.544 OA
ENDBRANCH   9  14
ENDBRANCH   8   9
ENDBRANCH   1   8
TORSDOF 7
ENDMDL
MODEL 8
REMARK VINA RESULT:    -2.448     13.365     14.753
REMARK INTER + INTRA:          -3.415
REMARK INTER:                  -3.690
REMARK INTRA:                   0.275
REMARK UNBOUND:                -0.109
REMARK SMILES [NH3+]CCCC[C@H]([NH3+])C(=O)[O-]
REMARK SMILES IDX 4 1 3 2 2 3 1 4 5 8 6 9 7 10 8 14 9 15 10 16
REMARK H PARENT 1 5 1 6 1 7 7 11 7 12 7 13
REMARK Flexibility Score: inf
ROOT
ATOM      1  C   UNL     1      78.264   0.013  24.734  1.00  0.00     0.012 C 
ENDROOT
BRANCH   1   2
ATOM      2  C   UNL     1      79.716   0.027  25.233  1.00  0.00     0.061 C 
BRANCH   2   3
ATOM      3  C   UNL     1      79.883   0.818  26.542  1.00  0.00     0.258 C 
BRANCH   3   4
ATOM      4  N   UNL     1      81.262   1.269  26.741  1.00  0.00    -0.358 N 
ATOM      5  H   UNL     1      81.793   0.580  27.323  1.00  0.00     0.344 HD
ATOM      6  H   UNL     1      81.275   2.208  27.199  1.00  0.00     0.344 HD
ATOM      7  H   UNL     1      81.730   1.351  25.810  1.00  0.00     0.344 HD
ENDBRANCH   3   4
ENDBRANCH   2   3
ENDBRANCH   1   2
BRANCH   1   8
ATOM      8  C   UNL     1      77.751  -1.431  24.588  1.00  0.00     0.072 C 
BRANCH   8   9
ATOM      9  C   UNL     1      77.653  -2.209  25.922  1.00  0.00     0.227 C 
BRANCH   9  10
ATOM     10  N   UNL     1      77.089  -1.387  27.001  1.00  0.00    -0.350 N 
ATOM     11  H   UNL     1      77.680  -0.533  27.133  1.00  0.00     0.345 HD
ATOM     12  H   UNL     1      76.112  -1.087  26.784  1.00  0.00     0.345 HD
ATOM     13  H   UNL     1      77.092  -1.926  27.898  1.00  0.00     0.345 HD
ENDBRANCH   9  10
BRANCH   9  14
ATOM     14  C   UNL     1      78.981  -2.807  26.314  1.00  0.00     0.099 C 
ATOM     15  O   UNL     1      79.305  -2.923  27.525  1.00  0.00    -0.544 OA
ATOM     16  O   UNL     1      79.880  -3.190  25.328  1.00  0.00    -0.544 OA
ENDBRANCH   9  14
ENDBRANCH   8   9
ENDBRANCH   1   8
TORSDOF 7
ENDMDL
MODEL 9
REMARK VINA RESULT:    -2.328     13.917     14.974
REMARK INTER + INTRA:          -3.254
REMARK INTER:                  -3.968
REMARK INTRA:                   0.714
REMARK UNBOUND:                -0.109
REMARK SMILES [NH3+]CCCC[C@H]([NH3+])C(=O)[O-]
REMARK SMILES IDX 4 1 3 2 2 3 1 4 5 8 6 9 7 10 8 14 9 15 10 16
REMARK H PARENT 1 5 1 6 1 7 7 11 7 12 7 13
REMARK Flexibility Score: inf
ROOT
ATOM      1  C   UNL     1      76.939  -1.709  25.612  1.00  0.00     0.012 C 
ENDROOT
BRANCH   1   2
ATOM      2  C   UNL     1      77.264  -1.906  24.124  1.00  0.00     0.061 C 
BRANCH   2   3
ATOM      3  C   UNL     1      77.280  -0.582  23.342  1.00  0.00     0.258 C 
BRANCH   3   4
ATOM      4  N   UNL     1      77.234  -0.796  21.894  1.00  0.00    -0.358 N 
ATOM      5  H   UNL     1      77.832  -0.093  21.401  1.00  0.00     0.344 HD
ATOM      6  H   UNL     1      76.250  -0.734  21.548  1.00  0.00     0.344 HD
ATOM      7  H   UNL     1      77.597  -1.753  21.681  1.00  0.00     0.344 HD
ENDBRANCH   3   4
ENDBRANCH   2   3
ENDBRANCH   1   2
BRANCH   1   8
ATOM      8  C   UNL     1      77.626  -0.444  26.158  1.00  0.00     0.072 C 
BRANCH   8   9
ATOM      9  C   UNL     1      79.159  -0.571  26.316  1.00  0.00     0.227 C 
BRANCH   9  10
ATOM     10  N   UNL     1      79.884   0.367  25.447  1.00  0.00    -0.350 N 
ATOM     11  H   UNL     1      80.608  -0.155  24.900  1.00  0.00     0.345 HD
ATOM     12  H   UNL     1      79.240   0.844  24.778  1.00  0.00     0.345 HD
ATOM     13  H   UNL     1      80.372   1.087  26.028  1.00  0.00     0.345 HD
ENDBRANCH   9  10
BRANCH   9  14
ATOM     14  C   UNL     1      79.623  -1.991  26.112  1.00  0.00     0.099 C 
ATOM     15  O   UNL     1      80.217  -2.331  25.054  1.00  0.00    -0.544 OA
ATOM     16  O   UNL     1      79.348  -2.950  27.077  1.00  0.00    -0.544 OA
ENDBRANCH   9  14
ENDBRANCH   8   9
ENDBRANCH   1   8
TORSDOF 7
ENDMDL
