MODEL 1
REMARK VINA RESULT:    -6.819      0.000      0.000
REMARK INTER + INTRA:          -7.417
REMARK INTER:                  -7.417
REMARK INTRA:                   0.000
REMARK UNBOUND:                 0.000
REMARK SMILES Cc1cc(O)c2c(c1)C(=O)c1cc(O)cc(O)c1C2=O
REMARK SMILES IDX 1 1 2 2 8 3 7 4 6 5 4 6 3 7 19 8 20 9 18 10 11 11 9 12 10 13
REMARK SMILES IDX 12 14 13 15 15 16 16 17 5 18 17 20 14 22
REMARK H PARENT 5 19 17 21 14 23
REMARK Flexibility Score: inf
ROOT
ATOM      1  C   UNL     1       4.975 -13.048   7.215  1.00  0.00     0.044 C 
ATOM      2  C   UNL     1       5.181 -14.534   7.224  1.00  0.00    -0.047 A 
ATOM      3  C   UNL     1       5.041 -15.272   6.045  1.00  0.00     0.016 A 
ATOM      4  C   UNL     1       5.189 -16.670   6.052  1.00  0.00     0.038 A 
ATOM      5  C   UNL     1       5.457 -17.343   7.266  1.00  0.00     0.076 A 
ATOM      6  C   UNL     1       5.643 -16.584   8.451  1.00  0.00     0.127 A 
ATOM      7  C   UNL     1       5.471 -15.197   8.422  1.00  0.00     0.050 A 
ATOM      8  C   UNL     1       5.460 -18.829   7.259  1.00  0.00     0.201 C 
ATOM      9  O   UNL     1       5.121 -19.462   8.294  1.00  0.00    -0.288 OA
ATOM     10  C   UNL     1       5.678 -19.560   5.984  1.00  0.00     0.076 A 
ATOM     11  C   UNL     1       5.408 -18.884   4.773  1.00  0.00     0.041 A 
ATOM     12  C   UNL     1       5.070 -17.441   4.792  1.00  0.00     0.194 C 
ATOM     13  O   UNL     1       4.704 -16.864   3.731  1.00  0.00    -0.289 OA
ATOM     14  C   UNL     1       5.468 -19.581   3.555  1.00  0.00     0.059 A 
ATOM     15  C   UNL     1       5.807 -20.933   3.527  1.00  0.00     0.120 A 
ATOM     16  C   UNL     1       6.113 -21.597   4.718  1.00  0.00     0.093 A 
ATOM     17  C   UNL     1       6.080 -20.920   5.942  1.00  0.00     0.131 A 
ENDROOT
BRANCH   6  18
ATOM     18  O   UNL     1       6.031 -17.160   9.663  1.00  0.00    -0.507 OA
ATOM     19  H   UNL     1       6.940 -17.571   9.820  1.00  0.00     0.293 HD
ENDBRANCH   6  18
BRANCH  17  20
ATOM     20  O   UNL     1       6.486 -21.624   7.079  1.00  0.00    -0.507 OA
ATOM     21  H   UNL     1       6.174 -21.402   8.014  1.00  0.00     0.293 HD
ENDBRANCH  17  20
BRANCH  15  22
ATOM     22  O   UNL     1       5.849 -21.608   2.309  1.00  0.00    -0.508 OA
ATOM     23  H   UNL     1       5.140 -22.285   2.053  1.00  0.00     0.293 HD
ENDBRANCH  15  22
TORSDOF 3
ENDMDL
MODEL 2
REMARK VINA RESULT:    -6.597      1.200      3.429
REMARK INTER + INTRA:          -7.175
REMARK INTER:                  -7.175
REMARK INTRA:                   0.000
REMARK UNBOUND:                 0.000
REMARK SMILES Cc1cc(O)c2c(c1)C(=O)c1cc(O)cc(O)c1C2=O
REMARK SMILES IDX 1 1 2 2 8 3 7 4 6 5 4 6 3 7 19 8 20 9 18 10 11 11 9 12 10 13
REMARK SMILES IDX 12 14 13 15 15 16 16 17 5 18 17 20 14 22
REMARK H PARENT 5 19 17 21 14 23
REMARK Flexibility Score: inf
ROOT
ATOM      1  C   UNL     1       4.766 -12.499   8.119  1.00  0.00     0.044 C 
ATOM      2  C   UNL     1       4.897 -13.749   7.299  1.00  0.00    -0.047 A 
ATOM      3  C   UNL     1       5.072 -14.987   7.925  1.00  0.00     0.016 A 
ATOM      4  C   UNL     1       5.239 -16.157   7.166  1.00  0.00     0.038 A 
ATOM      5  C   UNL     1       5.256 -16.084   5.755  1.00  0.00     0.076 A 
ATOM      6  C   UNL     1       5.032 -14.832   5.125  1.00  0.00     0.127 A 
ATOM      7  C   UNL     1       4.888 -13.679   5.902  1.00  0.00     0.050 A 
ATOM      8  C   UNL     1       5.581 -17.317   4.991  1.00  0.00     0.201 C 
ATOM      9  O   UNL     1       6.159 -17.229   3.875  1.00  0.00    -0.288 OA
ATOM     10  C   UNL     1       5.399 -18.647   5.626  1.00  0.00     0.076 A 
ATOM     11  C   UNL     1       5.383 -18.717   7.037  1.00  0.00     0.041 A 
ATOM     12  C   UNL     1       5.393 -17.469   7.838  1.00  0.00     0.194 C 
ATOM     13  O   UNL     1       5.509 -17.527   9.093  1.00  0.00    -0.289 OA
ATOM     14  C   UNL     1       5.351 -19.968   7.675  1.00  0.00     0.059 A 
ATOM     15  C   UNL     1       5.320 -21.145   6.928  1.00  0.00     0.120 A 
ATOM     16  C   UNL     1       5.295 -21.081   5.532  1.00  0.00     0.093 A 
ATOM     17  C   UNL     1       5.305 -19.847   4.873  1.00  0.00     0.131 A 
ENDROOT
BRANCH   6  18
ATOM     18  O   UNL     1       4.911 -14.695   3.740  1.00  0.00    -0.507 OA
ATOM     19  H   UNL     1       4.038 -14.805   3.242  1.00  0.00     0.293 HD
ENDBRANCH   6  18
BRANCH  17  20
ATOM     20  O   UNL     1       5.187 -19.859   3.481  1.00  0.00    -0.507 OA
ATOM     21  H   UNL     1       4.394 -19.476   2.985  1.00  0.00     0.293 HD
ENDBRANCH  17  20
BRANCH  15  22
ATOM     22  O   UNL     1       5.301 -22.375   7.582  1.00  0.00    -0.508 OA
ATOM     23  H   UNL     1       4.558 -23.046   7.427  1.00  0.00     0.293 HD
ENDBRANCH  15  22
TORSDOF 3
ENDMDL
MODEL 3
REMARK VINA RESULT:    -6.561      3.007      4.072
REMARK INTER + INTRA:          -7.137
REMARK INTER:                  -7.137
REMARK INTRA:                   0.000
REMARK UNBOUND:                 0.000
REMARK SMILES Cc1cc(O)c2c(c1)C(=O)c1cc(O)cc(O)c1C2=O
REMARK SMILES IDX 1 1 2 2 8 3 7 4 6 5 4 6 3 7 19 8 20 9 18 10 11 11 9 12 10 13
REMARK SMILES IDX 12 14 13 15 15 16 16 17 5 18 17 20 14 22
REMARK H PARENT 5 19 17 21 14 23
REMARK Flexibility Score: inf
ROOT
ATOM      1  C   UNL     1       1.136 -11.712   8.962  1.00  0.00     0.044 C 
ATOM      2  C   UNL     1       2.027 -12.884   8.671  1.00  0.00    -0.047 A 
ATOM      3  C   UNL     1       1.485 -14.166   8.538  1.00  0.00     0.016 A 
ATOM      4  C   UNL     1       2.317 -15.276   8.309  1.00  0.00     0.038 A 
ATOM      5  C   UNL     1       3.717 -15.103   8.238  1.00  0.00     0.076 A 
ATOM      6  C   UNL     1       4.258 -13.794   8.328  1.00  0.00     0.127 A 
ATOM      7  C   UNL     1       3.412 -12.708   8.575  1.00  0.00     0.050 A 
ATOM      8  C   UNL     1       4.571 -16.316   8.142  1.00  0.00     0.201 C 
ATOM      9  O   UNL     1       5.731 -16.306   8.634  1.00  0.00    -0.288 OA
ATOM     10  C   UNL     1       3.991 -17.588   7.641  1.00  0.00     0.076 A 
ATOM     11  C   UNL     1       2.590 -17.757   7.714  1.00  0.00     0.041 A 
ATOM     12  C   UNL     1       1.730 -16.626   8.138  1.00  0.00     0.194 C 
ATOM     13  O   UNL     1       0.496 -16.809   8.328  1.00  0.00    -0.289 OA
ATOM     14  C   UNL     1       2.017 -18.996   7.380  1.00  0.00     0.059 A 
ATOM     15  C   UNL     1       2.818 -20.058   6.961  1.00  0.00     0.120 A 
ATOM     16  C   UNL     1       4.199 -19.884   6.848  1.00  0.00     0.093 A 
ATOM     17  C   UNL     1       4.792 -18.654   7.156  1.00  0.00     0.131 A 
ENDROOT
BRANCH   6  18
ATOM     18  O   UNL     1       5.616 -13.523   8.145  1.00  0.00    -0.507 OA
ATOM     19  H   UNL     1       6.337 -14.230   8.185  1.00  0.00     0.293 HD
ENDBRANCH   6  18
BRANCH  17  20
ATOM     20  O   UNL     1       6.166 -18.527   6.932  1.00  0.00    -0.507 OA
ATOM     21  H   UNL     1       6.836 -18.343   7.666  1.00  0.00     0.293 HD
ENDBRANCH  17  20
BRANCH  15  22
ATOM     22  O   UNL     1       2.229 -21.281   6.646  1.00  0.00    -0.508 OA
ATOM     23  H   UNL     1       1.233 -21.363   6.482  1.00  0.00     0.293 HD
ENDBRANCH  15  22
TORSDOF 3
ENDMDL
MODEL 4
REMARK VINA RESULT:    -6.551      3.859      7.499
REMARK INTER + INTRA:          -7.125
REMARK INTER:                  -7.125
REMARK INTRA:                   0.000
REMARK UNBOUND:                 0.000
REMARK SMILES Cc1cc(O)c2c(c1)C(=O)c1cc(O)cc(O)c1C2=O
REMARK SMILES IDX 1 1 2 2 8 3 7 4 6 5 4 6 3 7 19 8 20 9 18 10 11 11 9 12 10 13
REMARK SMILES IDX 12 14 13 15 15 16 16 17 5 18 17 20 14 22
REMARK H PARENT 5 19 17 21 14 23
REMARK Flexibility Score: inf
ROOT
ATOM      1  C   UNL     1       4.587 -19.426   7.890  1.00  0.00     0.044 C 
ATOM      2  C   UNL     1       4.581 -17.936   8.076  1.00  0.00    -0.047 A 
ATOM      3  C   UNL     1       3.390 -17.215   7.949  1.00  0.00     0.016 A 
ATOM      4  C   UNL     1       3.382 -15.816   8.079  1.00  0.00     0.038 A 
ATOM      5  C   UNL     1       4.592 -15.124   8.315  1.00  0.00     0.076 A 
ATOM      6  C   UNL     1       5.789 -15.865   8.489  1.00  0.00     0.127 A 
ATOM      7  C   UNL     1       5.775 -17.255   8.336  1.00  0.00     0.050 A 
ATOM      8  C   UNL     1       4.565 -13.638   8.299  1.00  0.00     0.201 C 
ATOM      9  O   UNL     1       5.586 -12.997   7.933  1.00  0.00    -0.288 OA
ATOM     10  C   UNL     1       3.286 -12.920   8.531  1.00  0.00     0.076 A 
ATOM     11  C   UNL     1       2.079 -13.616   8.293  1.00  0.00     0.041 A 
ATOM     12  C   UNL     1       2.110 -15.063   7.973  1.00  0.00     0.194 C 
ATOM     13  O   UNL     1       1.050 -15.657   7.635  1.00  0.00    -0.289 OA
ATOM     14  C   UNL     1       0.853 -12.933   8.367  1.00  0.00     0.059 A 
ATOM     15  C   UNL     1       0.814 -11.577   8.688  1.00  0.00     0.120 A 
ATOM     16  C   UNL     1       2.002 -10.894   8.964  1.00  0.00     0.093 A 
ATOM     17  C   UNL     1       3.233 -11.556   8.916  1.00  0.00     0.131 A 
ENDROOT
BRANCH   6  18
ATOM     18  O   UNL     1       7.001 -15.269   8.847  1.00  0.00    -0.507 OA
ATOM     19  H   UNL     1       7.637 -15.661   9.527  1.00  0.00     0.293 HD
ENDBRANCH   6  18
BRANCH  17  20
ATOM     20  O   UNL     1       4.369 -10.832   9.292  1.00  0.00    -0.507 OA
ATOM     21  H   UNL     1       5.001 -11.126  10.024  1.00  0.00     0.293 HD
ENDBRANCH  17  20
BRANCH  15  22
ATOM     22  O   UNL     1      -0.412 -10.917   8.744  1.00  0.00    -0.508 OA
ATOM     23  H   UNL     1      -0.471  -9.923   8.932  1.00  0.00     0.293 HD
ENDBRANCH  15  22
TORSDOF 3
ENDMDL
MODEL 5
REMARK VINA RESULT:    -6.523      2.509      3.418
REMARK INTER + INTRA:          -7.095
REMARK INTER:                  -7.095
REMARK INTRA:                   0.000
REMARK UNBOUND:                 0.000
REMARK SMILES Cc1cc(O)c2c(c1)C(=O)c1cc(O)cc(O)c1C2=O
REMARK SMILES IDX 1 1 2 2 8 3 7 4 6 5 4 6 3 7 19 8 20 9 18 10 11 11 9 12 10 13
REMARK SMILES IDX 12 14 13 15 15 16 16 17 5 18 17 20 14 22
REMARK H PARENT 5 19 17 21 14 23
REMARK Flexibility Score: inf
ROOT
ATOM      1  C   UNL     1       5.386 -12.136   7.642  1.00  0.00     0.044 C 
ATOM      2  C   UNL     1       4.690 -13.456   7.802  1.00  0.00    -0.047 A 
ATOM      3  C   UNL     1       5.286 -14.629   7.328  1.00  0.00     0.016 A 
ATOM      4  C   UNL     1       4.623 -15.863   7.434  1.00  0.00     0.038 A 
ATOM      5  C   UNL     1       3.329 -15.921   8.001  1.00  0.00     0.076 A 
ATOM      6  C   UNL     1       2.749 -14.735   8.521  1.00  0.00     0.127 A 
ATOM      7  C   UNL     1       3.420 -13.516   8.386  1.00  0.00     0.050 A 
ATOM      8  C   UNL     1       2.602 -17.217   7.962  1.00  0.00     0.201 C 
ATOM      9  O   UNL     1       1.344 -17.228   7.897  1.00  0.00    -0.288 OA
ATOM     10  C   UNL     1       3.362 -18.484   7.806  1.00  0.00     0.076 A 
ATOM     11  C   UNL     1       4.654 -18.422   7.239  1.00  0.00     0.041 A 
ATOM     12  C   UNL     1       5.275 -17.105   6.958  1.00  0.00     0.194 C 
ATOM     13  O   UNL     1       6.371 -17.045   6.335  1.00  0.00    -0.289 OA
ATOM     14  C   UNL     1       5.348 -19.609   6.948  1.00  0.00     0.059 A 
ATOM     15  C   UNL     1       4.778 -20.850   7.230  1.00  0.00     0.120 A 
ATOM     16  C   UNL     1       3.517 -20.917   7.828  1.00  0.00     0.093 A 
ATOM     17  C   UNL     1       2.815 -19.749   8.145  1.00  0.00     0.131 A 
ENDROOT
BRANCH   6  18
ATOM     18  O   UNL     1       1.531 -14.727   9.206  1.00  0.00    -0.507 OA
ATOM     19  H   UNL     1       0.666 -14.393   8.804  1.00  0.00     0.293 HD
ENDBRANCH   6  18
BRANCH  17  20
ATOM     20  O   UNL     1       1.601 -19.891   8.824  1.00  0.00    -0.507 OA
ATOM     21  H   UNL     1       1.194 -20.786   9.057  1.00  0.00     0.293 HD
ENDBRANCH  17  20
BRANCH  15  22
ATOM     22  O   UNL     1       5.479 -22.015   6.922  1.00  0.00    -0.508 OA
ATOM     23  H   UNL     1       6.255 -22.010   6.271  1.00  0.00     0.293 HD
ENDBRANCH  15  22
TORSDOF 3
ENDMDL
MODEL 6
REMARK VINA RESULT:    -6.518      1.975      5.866
REMARK INTER + INTRA:          -7.090
REMARK INTER:                  -7.090
REMARK INTRA:                   0.000
REMARK UNBOUND:                 0.000
REMARK SMILES Cc1cc(O)c2c(c1)C(=O)c1cc(O)cc(O)c1C2=O
REMARK SMILES IDX 1 1 2 2 8 3 7 4 6 5 4 6 3 7 19 8 20 9 18 10 11 11 9 12 10 13
REMARK SMILES IDX 12 14 13 15 15 16 16 17 5 18 17 20 14 22
REMARK H PARENT 5 19 17 21 14 23
REMARK Flexibility Score: inf
ROOT
ATOM      1  C   UNL     1       5.522 -20.759   4.065  1.00  0.00     0.044 C 
ATOM      2  C   UNL     1       5.451 -19.518   4.906  1.00  0.00    -0.047 A 
ATOM      3  C   UNL     1       5.392 -18.259   4.301  1.00  0.00     0.016 A 
ATOM      4  C   UNL     1       5.369 -17.090   5.079  1.00  0.00     0.038 A 
ATOM      5  C   UNL     1       5.432 -17.181   6.488  1.00  0.00     0.076 A 
ATOM      6  C   UNL     1       5.445 -18.462   7.098  1.00  0.00     0.127 A 
ATOM      7  C   UNL     1       5.487 -19.611   6.302  1.00  0.00     0.050 A 
ATOM      8  C   UNL     1       5.554 -15.922   7.269  1.00  0.00     0.201 C 
ATOM      9  O   UNL     1       6.164 -15.925   8.371  1.00  0.00    -0.288 OA
ATOM     10  C   UNL     1       5.126 -14.635   6.664  1.00  0.00     0.076 A 
ATOM     11  C   UNL     1       5.066 -14.547   5.254  1.00  0.00     0.041 A 
ATOM     12  C   UNL     1       5.276 -15.761   4.429  1.00  0.00     0.194 C 
ATOM     13  O   UNL     1       5.350 -15.665   3.173  1.00  0.00    -0.289 OA
ATOM     14  C   UNL     1       4.801 -13.311   4.641  1.00  0.00     0.059 A 
ATOM     15  C   UNL     1       4.581 -12.170   5.412  1.00  0.00     0.120 A 
ATOM     16  C   UNL     1       4.600 -12.259   6.806  1.00  0.00     0.093 A 
ATOM     17  C   UNL     1       4.842 -13.482   7.441  1.00  0.00     0.131 A 
ENDROOT
BRANCH   6  18
ATOM     18  O   UNL     1       5.382 -18.641   8.482  1.00  0.00    -0.507 OA
ATOM     19  H   UNL     1       4.799 -19.334   8.930  1.00  0.00     0.293 HD
ENDBRANCH   6  18
BRANCH  17  20
ATOM     20  O   UNL     1       4.756 -13.513   8.835  1.00  0.00    -0.507 OA
ATOM     21  H   UNL     1       5.542 -13.343   9.447  1.00  0.00     0.293 HD
ENDBRANCH  17  20
BRANCH  15  22
ATOM     22  O   UNL     1       4.332 -10.952   4.782  1.00  0.00    -0.508 OA
ATOM     23  H   UNL     1       4.231 -10.886   3.777  1.00  0.00     0.293 HD
ENDBRANCH  15  22
TORSDOF 3
ENDMDL
MODEL 7
REMARK VINA RESULT:    -6.454      3.557      7.113
REMARK INTER + INTRA:          -7.020
REMARK INTER:                  -7.020
REMARK INTRA:                   0.000
REMARK UNBOUND:                 0.000
REMARK SMILES Cc1cc(O)c2c(c1)C(=O)c1cc(O)cc(O)c1C2=O
REMARK SMILES IDX 1 1 2 2 8 3 7 4 6 5 4 6 3 7 19 8 20 9 18 10 11 11 9 12 10 13
REMARK SMILES IDX 12 14 13 15 15 16 16 17 5 18 17 20 14 22
REMARK H PARENT 5 19 17 21 14 23
REMARK Flexibility Score: inf
ROOT
ATOM      1  C   UNL     1       5.086 -20.197   7.602  1.00  0.00     0.044 C 
ATOM      2  C   UNL     1       4.322 -18.912   7.738  1.00  0.00    -0.047 A 
ATOM      3  C   UNL     1       5.003 -17.701   7.897  1.00  0.00     0.016 A 
ATOM      4  C   UNL     1       4.297 -16.499   8.069  1.00  0.00     0.038 A 
ATOM      5  C   UNL     1       2.884 -16.512   8.108  1.00  0.00     0.076 A 
ATOM      6  C   UNL     1       2.198 -17.736   7.901  1.00  0.00     0.127 A 
ATOM      7  C   UNL     1       2.923 -18.922   7.751  1.00  0.00     0.050 A 
ATOM      8  C   UNL     1       2.179 -15.245   8.438  1.00  0.00     0.201 C 
ATOM      9  O   UNL     1       1.069 -15.283   9.034  1.00  0.00    -0.288 OA
ATOM     10  C   UNL     1       2.867 -13.944   8.238  1.00  0.00     0.076 A 
ATOM     11  C   UNL     1       4.280 -13.936   8.199  1.00  0.00     0.041 A 
ATOM     12  C   UNL     1       5.027 -15.216   8.205  1.00  0.00     0.194 C 
ATOM     13  O   UNL     1       6.285 -15.212   8.300  1.00  0.00    -0.289 OA
ATOM     14  C   UNL     1       4.970 -12.713   8.151  1.00  0.00     0.059 A 
ATOM     15  C   UNL     1       4.273 -11.505   8.125  1.00  0.00     0.120 A 
ATOM     16  C   UNL     1       2.876 -11.509   8.122  1.00  0.00     0.093 A 
ATOM     17  C   UNL     1       2.165 -12.714   8.150  1.00  0.00     0.131 A 
ENDROOT
BRANCH   6  18
ATOM     18  O   UNL     1       0.807 -17.815   7.802  1.00  0.00    -0.507 OA
ATOM     19  H   UNL     1       0.234 -17.089   7.395  1.00  0.00     0.293 HD
ENDBRANCH   6  18
BRANCH  17  20
ATOM     20  O   UNL     1       0.773 -12.643   8.053  1.00  0.00    -0.507 OA
ATOM     21  H   UNL     1       0.251 -11.782   8.133  1.00  0.00     0.293 HD
ENDBRANCH  17  20
BRANCH  15  22
ATOM     22  O   UNL     1       4.979 -10.304   8.089  1.00  0.00    -0.508 OA
ATOM     23  H   UNL     1       5.968 -10.277   7.874  1.00  0.00     0.293 HD
ENDBRANCH  15  22
TORSDOF 3
ENDMDL
MODEL 8
REMARK VINA RESULT:    -6.330      2.527      2.894
REMARK INTER + INTRA:          -6.885
REMARK INTER:                  -6.885
REMARK INTRA:                   0.000
REMARK UNBOUND:                 0.000
REMARK SMILES Cc1cc(O)c2c(c1)C(=O)c1cc(O)cc(O)c1C2=O
REMARK SMILES IDX 1 1 2 2 8 3 7 4 6 5 4 6 3 7 19 8 20 9 18 10 11 11 9 12 10 13
REMARK SMILES IDX 12 14 13 15 15 16 16 17 5 18 17 20 14 22
REMARK H PARENT 5 19 17 21 14 23
REMARK Flexibility Score: inf
ROOT
ATOM      1  C   UNL     1       4.805 -11.431   7.098  1.00  0.00     0.044 C 
ATOM      2  C   UNL     1       4.954 -12.906   7.327  1.00  0.00    -0.047 A 
ATOM      3  C   UNL     1       3.968 -13.792   6.879  1.00  0.00     0.016 A 
ATOM      4  C   UNL     1       4.077 -15.170   7.128  1.00  0.00     0.038 A 
ATOM      5  C   UNL     1       5.178 -15.669   7.860  1.00  0.00     0.076 A 
ATOM      6  C   UNL     1       6.197 -14.772   8.273  1.00  0.00     0.127 A 
ATOM      7  C   UNL     1       6.057 -13.402   8.030  1.00  0.00     0.050 A 
ATOM      8  C   UNL     1       5.182 -17.109   8.229  1.00  0.00     0.201 C 
ATOM      9  O   UNL     1       5.755 -17.483   9.287  1.00  0.00    -0.288 OA
ATOM     10  C   UNL     1       4.356 -18.071   7.456  1.00  0.00     0.076 A 
ATOM     11  C   UNL     1       3.256 -17.568   6.725  1.00  0.00     0.041 A 
ATOM     12  C   UNL     1       3.044 -16.105   6.622  1.00  0.00     0.194 C 
ATOM     13  O   UNL     1       1.995 -15.656   6.081  1.00  0.00    -0.289 OA
ATOM     14  C   UNL     1       2.370 -18.459   6.094  1.00  0.00     0.059 A 
ATOM     15  C   UNL     1       2.576 -19.836   6.170  1.00  0.00     0.120 A 
ATOM     16  C   UNL     1       3.685 -20.337   6.857  1.00  0.00     0.093 A 
ATOM     17  C   UNL     1       4.592 -19.470   7.476  1.00  0.00     0.131 A 
ENDROOT
BRANCH   6  18
ATOM     18  O   UNL     1       7.375 -15.199   8.891  1.00  0.00    -0.507 OA
ATOM     19  H   UNL     1       7.580 -16.168   9.092  1.00  0.00     0.293 HD
ENDBRANCH   6  18
BRANCH  17  20
ATOM     20  O   UNL     1       5.724 -20.037   8.066  1.00  0.00    -0.507 OA
ATOM     21  H   UNL     1       6.329 -19.540   8.706  1.00  0.00     0.293 HD
ENDBRANCH  17  20
BRANCH  15  22
ATOM     22  O   UNL     1       1.678 -20.701   5.547  1.00  0.00    -0.508 OA
ATOM     23  H   UNL     1       1.742 -21.705   5.663  1.00  0.00     0.293 HD
ENDBRANCH  15  22
TORSDOF 3
ENDMDL
MODEL 9
REMARK VINA RESULT:    -6.317      2.358      6.759
REMARK INTER + INTRA:          -6.871
REMARK INTER:                  -6.871
REMARK INTRA:                   0.000
REMARK UNBOUND:                 0.000
REMARK SMILES Cc1cc(O)c2c(c1)C(=O)c1cc(O)cc(O)c1C2=O
REMARK SMILES IDX 1 1 2 2 8 3 7 4 6 5 4 6 3 7 19 8 20 9 18 10 11 11 9 12 10 13
REMARK SMILES IDX 12 14 13 15 15 16 16 17 5 18 17 20 14 22
REMARK H PARENT 5 19 17 21 14 23
REMARK Flexibility Score: inf
ROOT
ATOM      1  C   UNL     1       4.908 -20.283   8.089  1.00  0.00     0.044 C 
ATOM      2  C   UNL     1       5.022 -18.973   7.365  1.00  0.00    -0.047 A 
ATOM      3  C   UNL     1       4.707 -17.778   8.019  1.00  0.00     0.016 A 
ATOM      4  C   UNL     1       4.769 -16.551   7.337  1.00  0.00     0.038 A 
ATOM      5  C   UNL     1       5.128 -16.522   5.970  1.00  0.00     0.076 A 
ATOM      6  C   UNL     1       5.491 -17.733   5.325  1.00  0.00     0.127 A 
ATOM      7  C   UNL     1       5.403 -18.944   6.020  1.00  0.00     0.050 A 
ATOM      8  C   UNL     1       5.040 -15.226   5.248  1.00  0.00     0.201 C 
ATOM      9  O   UNL     1       4.780 -15.212   4.015  1.00  0.00    -0.288 OA
ATOM     10  C   UNL     1       5.070 -13.953   6.011  1.00  0.00     0.076 A 
ATOM     11  C   UNL     1       4.710 -13.985   7.378  1.00  0.00     0.041 A 
ATOM     12  C   UNL     1       4.464 -15.285   8.046  1.00  0.00     0.194 C 
ATOM     13  O   UNL     1       4.019 -15.314   9.226  1.00  0.00    -0.289 OA
ATOM     14  C   UNL     1       4.591 -12.785   8.098  1.00  0.00     0.059 A 
ATOM     15  C   UNL     1       4.841 -11.559   7.481  1.00  0.00     0.120 A 
ATOM     16  C   UNL     1       5.237 -11.524   6.141  1.00  0.00     0.093 A 
ATOM     17  C   UNL     1       5.381 -12.706   5.408  1.00  0.00     0.131 A 
ENDROOT
BRANCH   6  18
ATOM     18  O   UNL     1       5.975 -17.776   4.015  1.00  0.00    -0.507 OA
ATOM     19  H   UNL     1       6.713 -18.396   3.713  1.00  0.00     0.293 HD
ENDBRANCH   6  18
BRANCH  17  20
ATOM     20  O   UNL     1       5.867 -12.600   4.102  1.00  0.00    -0.507 OA
ATOM     21  H   UNL     1       6.150 -13.394   3.545  1.00  0.00     0.293 HD
ENDBRANCH  17  20
BRANCH  15  22
ATOM     22  O   UNL     1       4.706 -10.381   8.212  1.00  0.00    -0.508 OA
ATOM     23  H   UNL     1       5.445  -9.689   8.244  1.00  0.00     0.293 HD
ENDBRANCH  15  22
TORSDOF 3
ENDMDL
