MODEL 1
REMARK VINA RESULT:    -6.750      0.000      0.000
REMARK INTER + INTRA:         -11.060
REMARK INTER:                 -10.301
REMARK INTRA:                  -0.759
REMARK UNBOUND:                -0.759
REMARK SMILES O=C([O-])CCCCCCCCC(=O)[O-]
REMARK SMILES IDX 7 1 6 2 5 3 4 4 2 5 1 6 3 7 8 8 9 9 10 10 11 11 12 12 13 13
REMARK SMILES IDX 14 14
REMARK H PARENT
REMARK Flexibility Score: inf
ROOT
ATOM      1  C   UNL     1      26.462  -4.386  18.717  1.00  0.00     0.000 C 
ENDROOT
BRANCH   1   2
ATOM      2  C   UNL     1      27.259  -5.597  19.228  1.00  0.00     0.000 C 
BRANCH   2   3
ATOM      3  C   UNL     1      26.509  -6.907  18.946  1.00  0.00     0.006 C 
BRANCH   3   4
ATOM      4  C   UNL     1      26.004  -7.576  20.231  1.00  0.00     0.053 C 
BRANCH   4   5
ATOM      5  C   UNL     1      24.548  -7.306  20.462  1.00  0.00     0.041 C 
ATOM      6  O   UNL     1      23.881  -6.663  19.611  1.00  0.00    -0.550 OA
ATOM      7  O   UNL     1      23.939  -7.738  21.633  1.00  0.00    -0.550 OA
ENDBRANCH   4   5
ENDBRANCH   3   4
ENDBRANCH   2   3
ENDBRANCH   1   2
BRANCH   1   8
ATOM      8  C   UNL     1      25.868  -3.544  19.857  1.00  0.00     0.000 C 
BRANCH   8   9
ATOM      9  C   UNL     1      26.199  -2.050  19.722  1.00  0.00     0.000 C 
BRANCH   9  10
ATOM     10  C   UNL     1      27.555  -1.728  20.367  1.00  0.00     0.006 C 
BRANCH  10  11
ATOM     11  C   UNL     1      28.656  -1.502  19.322  1.00  0.00     0.053 C 
BRANCH  11  12
ATOM     12  C   UNL     1      29.617  -2.650  19.266  1.00  0.00     0.041 C 
ATOM     13  O   UNL     1      29.816  -3.358  20.288  1.00  0.00    -0.550 OA
ATOM     14  O   UNL     1      30.265  -2.958  18.077  1.00  0.00    -0.550 OA
ENDBRANCH  11  12
ENDBRANCH  10  11
ENDBRANCH   9  10
ENDBRANCH   8   9
ENDBRANCH   1   8
TORSDOF 9
ENDMDL
MODEL 2
REMARK VINA RESULT:    -6.602      0.992      6.189
REMARK INTER + INTRA:         -10.835
REMARK INTER:                 -10.282
REMARK INTRA:                  -0.553
REMARK UNBOUND:                -0.759
REMARK SMILES O=C([O-])CCCCCCCCC(=O)[O-]
REMARK SMILES IDX 7 1 6 2 5 3 4 4 2 5 1 6 3 7 8 8 9 9 10 10 11 11 12 12 13 13
REMARK SMILES IDX 14 14
REMARK H PARENT
REMARK Flexibility Score: inf
ROOT
ATOM      1  C   UNL     1      25.617  -2.812  19.818  1.00  0.00     0.000 C 
ENDROOT
BRANCH   1   2
ATOM      2  C   UNL     1      26.993  -2.492  20.422  1.00  0.00     0.000 C 
BRANCH   2   3
ATOM      3  C   UNL     1      27.933  -1.898  19.362  1.00  0.00     0.006 C 
BRANCH   3   4
ATOM      4  C   UNL     1      29.411  -2.039  19.751  1.00  0.00     0.053 C 
BRANCH   4   5
ATOM      5  C   UNL     1      30.078  -3.153  19.003  1.00  0.00     0.041 C 
ATOM      6  O   UNL     1      31.331  -3.268  19.024  1.00  0.00    -0.550 OA
ATOM      7  O   UNL     1      29.316  -4.043  18.258  1.00  0.00    -0.550 OA
ENDBRANCH   4   5
ENDBRANCH   3   4
ENDBRANCH   2   3
ENDBRANCH   1   2
BRANCH   1   8
ATOM      8  C   UNL     1      25.583  -4.174  19.107  1.00  0.00     0.000 C 
BRANCH   8   9
ATOM      9  C   UNL     1      26.422  -5.239  19.829  1.00  0.00     0.000 C 
BRANCH   9  10
ATOM     10  C   UNL     1      26.058  -6.648  19.339  1.00  0.00     0.006 C 
BRANCH  10  11
ATOM     11  C   UNL     1      25.788  -7.615  20.499  1.00  0.00     0.053 C 
BRANCH  11  12
ATOM     12  C   UNL     1      24.338  -7.642  20.877  1.00  0.00     0.041 C 
ATOM     13  O   UNL     1      23.477  -7.124  20.118  1.00  0.00    -0.550 OA
ATOM     14  O   UNL     1      23.936  -8.269  22.049  1.00  0.00    -0.550 OA
ENDBRANCH  11  12
ENDBRANCH  10  11
ENDBRANCH   9  10
ENDBRANCH   8   9
ENDBRANCH   1   8
TORSDOF 9
ENDMDL
MODEL 3
REMARK VINA RESULT:    -6.601      0.957      5.880
REMARK INTER + INTRA:         -10.834
REMARK INTER:                 -10.180
REMARK INTRA:                  -0.654
REMARK UNBOUND:                -0.759
REMARK SMILES O=C([O-])CCCCCCCCC(=O)[O-]
REMARK SMILES IDX 7 1 6 2 5 3 4 4 2 5 1 6 3 7 8 8 9 9 10 10 11 11 12 12 13 13
REMARK SMILES IDX 14 14
REMARK H PARENT
REMARK Flexibility Score: inf
ROOT
ATOM      1  C   UNL     1      26.516  -2.430  20.494  1.00  0.00     0.000 C 
ENDROOT
BRANCH   1   2
ATOM      2  C   UNL     1      27.050  -1.197  19.748  1.00  0.00     0.000 C 
BRANCH   2   3
ATOM      3  C   UNL     1      28.528  -1.378  19.373  1.00  0.00     0.006 C 
BRANCH   3   4
ATOM      4  C   UNL     1      29.138  -2.637  20.005  1.00  0.00     0.053 C 
BRANCH   4   5
ATOM      5  C   UNL     1      30.021  -3.369  19.042  1.00  0.00     0.041 C 
ATOM      6  O   UNL     1      29.528  -4.207  18.242  1.00  0.00    -0.550 OA
ATOM      7  O   UNL     1      31.392  -3.149  19.052  1.00  0.00    -0.550 OA
ENDBRANCH   4   5
ENDBRANCH   3   4
ENDBRANCH   2   3
ENDBRANCH   1   2
BRANCH   1   8
ATOM      8  C   UNL     1      25.435  -3.180  19.700  1.00  0.00     0.000 C 
BRANCH   8   9
ATOM      9  C   UNL     1      25.988  -4.410  18.964  1.00  0.00     0.000 C 
BRANCH   9  10
ATOM     10  C   UNL     1      26.581  -5.421  19.956  1.00  0.00     0.006 C 
BRANCH  10  11
ATOM     11  C   UNL     1      25.967  -6.819  19.799  1.00  0.00     0.053 C 
BRANCH  11  12
ATOM     12  C   UNL     1      24.529  -6.846  20.217  1.00  0.00     0.041 C 
ATOM     13  O   UNL     1      23.628  -6.492  19.412  1.00  0.00    -0.550 OA
ATOM     14  O   UNL     1      24.181  -7.296  21.484  1.00  0.00    -0.550 OA
ENDBRANCH  11  12
ENDBRANCH  10  11
ENDBRANCH   9  10
ENDBRANCH   8   9
ENDBRANCH   1   8
TORSDOF 9
ENDMDL
MODEL 4
REMARK VINA RESULT:    -6.520      1.296      2.149
REMARK INTER + INTRA:         -10.709
REMARK INTER:                 -10.016
REMARK INTRA:                  -0.694
REMARK UNBOUND:                -0.759
REMARK SMILES O=C([O-])CCCCCCCCC(=O)[O-]
REMARK SMILES IDX 7 1 6 2 5 3 4 4 2 5 1 6 3 7 8 8 9 9 10 10 11 11 12 12 13 13
REMARK SMILES IDX 14 14
REMARK H PARENT
REMARK Flexibility Score: inf
ROOT
ATOM      1  C   UNL     1      25.321  -2.401  19.709  1.00  0.00     0.000 C 
ENDROOT
BRANCH   1   2
ATOM      2  C   UNL     1      25.062  -3.913  19.624  1.00  0.00     0.000 C 
BRANCH   2   3
ATOM      3  C   UNL     1      26.232  -4.632  18.936  1.00  0.00     0.006 C 
BRANCH   3   4
ATOM      4  C   UNL     1      26.866  -5.702  19.835  1.00  0.00     0.053 C 
BRANCH   4   5
ATOM      5  C   UNL     1      26.224  -7.042  19.640  1.00  0.00     0.041 C 
ATOM      6  O   UNL     1      26.881  -8.095  19.849  1.00  0.00    -0.550 OA
ATOM      7  O   UNL     1      24.911  -7.125  19.196  1.00  0.00    -0.550 OA
ENDBRANCH   4   5
ENDBRANCH   3   4
ENDBRANCH   2   3
ENDBRANCH   1   2
BRANCH   1   8
ATOM      8  C   UNL     1      26.648  -2.064  20.408  1.00  0.00     0.000 C 
BRANCH   8   9
ATOM      9  C   UNL     1      27.369  -0.870  19.765  1.00  0.00     0.000 C 
BRANCH   9  10
ATOM     10  C   UNL     1      28.818  -1.233  19.407  1.00  0.00     0.006 C 
BRANCH  10  11
ATOM     11  C   UNL     1      29.239  -2.587  19.994  1.00  0.00     0.053 C 
BRANCH  11  12
ATOM     12  C   UNL     1      30.102  -3.362  19.045  1.00  0.00     0.041 C 
ATOM     13  O   UNL     1      29.576  -4.113  18.182  1.00  0.00    -0.550 OA
ATOM     14  O   UNL     1      31.483  -3.227  19.092  1.00  0.00    -0.550 OA
ENDBRANCH  11  12
ENDBRANCH  10  11
ENDBRANCH   9  10
ENDBRANCH   8   9
ENDBRANCH   1   8
TORSDOF 9
ENDMDL
MODEL 5
REMARK VINA RESULT:    -6.453      2.553      3.179
REMARK INTER + INTRA:         -10.607
REMARK INTER:                  -9.819
REMARK INTRA:                  -0.788
REMARK UNBOUND:                -0.759
REMARK SMILES O=C([O-])CCCCCCCCC(=O)[O-]
REMARK SMILES IDX 7 1 6 2 5 3 4 4 2 5 1 6 3 7 8 8 9 9 10 10 11 11 12 12 13 13
REMARK SMILES IDX 14 14
REMARK H PARENT
REMARK Flexibility Score: inf
ROOT
ATOM      1  C   UNL     1      28.817  -4.468  18.496  1.00  0.00     0.000 C 
ENDROOT
BRANCH   1   2
ATOM      2  C   UNL     1      27.339  -4.871  18.390  1.00  0.00     0.000 C 
BRANCH   2   3
ATOM      3  C   UNL     1      26.826  -5.432  19.725  1.00  0.00     0.006 C 
BRANCH   3   4
ATOM      4  C   UNL     1      25.293  -5.495  19.778  1.00  0.00     0.053 C 
BRANCH   4   5
ATOM      5  C   UNL     1      24.804  -6.887  20.039  1.00  0.00     0.041 C 
ATOM      6  O   UNL     1      25.620  -7.843  20.106  1.00  0.00    -0.550 OA
ATOM      7  O   UNL     1      23.443  -7.131  20.174  1.00  0.00    -0.550 OA
ENDBRANCH   4   5
ENDBRANCH   3   4
ENDBRANCH   2   3
ENDBRANCH   1   2
BRANCH   1   8
ATOM      8  C   UNL     1      29.080  -3.468  19.634  1.00  0.00     0.000 C 
BRANCH   8   9
ATOM      9  C   UNL     1      28.407  -2.108  19.394  1.00  0.00     0.000 C 
BRANCH   9  10
ATOM     10  C   UNL     1      27.384  -1.800  20.498  1.00  0.00     0.006 C 
BRANCH  10  11
ATOM     11  C   UNL     1      25.958  -1.664  19.947  1.00  0.00     0.053 C 
BRANCH  11  12
ATOM     12  C   UNL     1      25.554  -0.230  19.794  1.00  0.00     0.041 C 
ATOM     13  O   UNL     1      24.338   0.075  19.670  1.00  0.00    -0.550 OA
ATOM     14  O   UNL     1      26.516   0.772  19.824  1.00  0.00    -0.550 OA
ENDBRANCH  11  12
ENDBRANCH  10  11
ENDBRANCH   9  10
ENDBRANCH   8   9
ENDBRANCH   1   8
TORSDOF 9
ENDMDL
MODEL 6
REMARK VINA RESULT:    -6.419      2.602      5.870
REMARK INTER + INTRA:         -10.555
REMARK INTER:                  -9.785
REMARK INTRA:                  -0.770
REMARK UNBOUND:                -0.759
REMARK SMILES O=C([O-])CCCCCCCCC(=O)[O-]
REMARK SMILES IDX 7 1 6 2 5 3 4 4 2 5 1 6 3 7 8 8 9 9 10 10 11 11 12 12 13 13
REMARK SMILES IDX 14 14
REMARK H PARENT
REMARK Flexibility Score: inf
ROOT
ATOM      1  C   UNL     1      28.924  -3.429  19.735  1.00  0.00     0.000 C 
ENDROOT
BRANCH   1   2
ATOM      2  C   UNL     1      28.234  -2.079  19.484  1.00  0.00     0.000 C 
BRANCH   2   3
ATOM      3  C   UNL     1      27.133  -1.823  20.524  1.00  0.00     0.006 C 
BRANCH   3   4
ATOM      4  C   UNL     1      25.761  -1.598  19.874  1.00  0.00     0.053 C 
BRANCH   4   5
ATOM      5  C   UNL     1      25.421  -0.142  19.789  1.00  0.00     0.041 C 
ATOM      6  O   UNL     1      24.217   0.226  19.746  1.00  0.00    -0.550 OA
ATOM      7  O   UNL     1      26.433   0.806  19.725  1.00  0.00    -0.550 OA
ENDBRANCH   4   5
ENDBRANCH   3   4
ENDBRANCH   2   3
ENDBRANCH   1   2
BRANCH   1   8
ATOM      8  C   UNL     1      28.770  -4.401  18.554  1.00  0.00     0.000 C 
BRANCH   8   9
ATOM      9  C   UNL     1      27.327  -4.896  18.380  1.00  0.00     0.000 C 
BRANCH   9  10
ATOM     10  C   UNL     1      26.803  -5.525  19.679  1.00  0.00     0.006 C 
BRANCH  10  11
ATOM     11  C   UNL     1      25.270  -5.511  19.754  1.00  0.00     0.053 C 
BRANCH  11  12
ATOM     12  C   UNL     1      24.719  -6.843  20.163  1.00  0.00     0.041 C 
ATOM     13  O   UNL     1      23.474  -7.031  20.192  1.00  0.00    -0.550 OA
ATOM     14  O   UNL     1      25.581  -7.886  20.478  1.00  0.00    -0.550 OA
ENDBRANCH  11  12
ENDBRANCH  10  11
ENDBRANCH   9  10
ENDBRANCH   8   9
ENDBRANCH   1   8
TORSDOF 9
ENDMDL
MODEL 7
REMARK VINA RESULT:    -6.408      3.586      5.619
REMARK INTER + INTRA:         -10.539
REMARK INTER:                 -10.020
REMARK INTRA:                  -0.519
REMARK UNBOUND:                -0.759
REMARK SMILES O=C([O-])CCCCCCCCC(=O)[O-]
REMARK SMILES IDX 7 1 6 2 5 3 4 4 2 5 1 6 3 7 8 8 9 9 10 10 11 11 12 12 13 13
REMARK SMILES IDX 14 14
REMARK H PARENT
REMARK Flexibility Score: inf
ROOT
ATOM      1  C   UNL     1      25.501  -3.103  19.625  1.00  0.00     0.000 C 
ENDROOT
BRANCH   1   2
ATOM      2  C   UNL     1      26.386  -4.221  19.053  1.00  0.00     0.000 C 
BRANCH   2   3
ATOM      3  C   UNL     1      27.768  -4.225  19.723  1.00  0.00     0.006 C 
BRANCH   3   4
ATOM      4  C   UNL     1      28.907  -4.074  18.707  1.00  0.00     0.053 C 
BRANCH   4   5
ATOM      5  C   UNL     1      30.013  -3.212  19.237  1.00  0.00     0.041 C 
ATOM      6  O   UNL     1      31.205  -3.434  18.900  1.00  0.00    -0.550 OA
ATOM      7  O   UNL     1      29.727  -2.186  20.128  1.00  0.00    -0.550 OA
ENDBRANCH   4   5
ENDBRANCH   3   4
ENDBRANCH   2   3
ENDBRANCH   1   2
BRANCH   1   8
ATOM      8  C   UNL     1      26.310  -2.027  20.367  1.00  0.00     0.000 C 
BRANCH   8   9
ATOM      9  C   UNL     1      26.604  -0.800  19.491  1.00  0.00     0.000 C 
BRANCH   9  10
ATOM     10  C   UNL     1      25.794   0.417  19.962  1.00  0.00     0.006 C 
BRANCH  10  11
ATOM     11  C   UNL     1      24.331   0.355  19.502  1.00  0.00     0.053 C 
BRANCH  11  12
ATOM     12  C   UNL     1      23.925   1.594  18.765  1.00  0.00     0.041 C 
ATOM     13  O   UNL     1      22.706   1.864  18.605  1.00  0.00    -0.550 OA
ATOM     14  O   UNL     1      24.893   2.468  18.287  1.00  0.00    -0.550 OA
ENDBRANCH  11  12
ENDBRANCH  10  11
ENDBRANCH   9  10
ENDBRANCH   8   9
ENDBRANCH   1   8
TORSDOF 9
ENDMDL
MODEL 8
REMARK VINA RESULT:    -6.393      2.596      3.174
REMARK INTER + INTRA:         -10.516
REMARK INTER:                  -9.742
REMARK INTRA:                  -0.774
REMARK UNBOUND:                -0.759
REMARK SMILES O=C([O-])CCCCCCCCC(=O)[O-]
REMARK SMILES IDX 7 1 6 2 5 3 4 4 2 5 1 6 3 7 8 8 9 9 10 10 11 11 12 12 13 13
REMARK SMILES IDX 14 14
REMARK H PARENT
REMARK Flexibility Score: inf
ROOT
ATOM      1  C   UNL     1      28.742  -4.508  18.498  1.00  0.00     0.000 C 
ENDROOT
BRANCH   1   2
ATOM      2  C   UNL     1      27.302  -5.026  18.361  1.00  0.00     0.000 C 
BRANCH   2   3
ATOM      3  C   UNL     1      26.719  -5.398  19.732  1.00  0.00     0.006 C 
BRANCH   3   4
ATOM      4  C   UNL     1      25.186  -5.469  19.712  1.00  0.00     0.053 C 
BRANCH   4   5
ATOM      5  C   UNL     1      24.691  -6.853  20.001  1.00  0.00     0.041 C 
ATOM      6  O   UNL     1      23.465  -7.059  20.198  1.00  0.00    -0.550 OA
ATOM      7  O   UNL     1      25.590  -7.909  20.085  1.00  0.00    -0.550 OA
ENDBRANCH   4   5
ENDBRANCH   3   4
ENDBRANCH   2   3
ENDBRANCH   1   2
BRANCH   1   8
ATOM      8  C   UNL     1      28.913  -3.537  19.678  1.00  0.00     0.000 C 
BRANCH   8   9
ATOM      9  C   UNL     1      28.325  -2.148  19.390  1.00  0.00     0.000 C 
BRANCH   9  10
ATOM     10  C   UNL     1      27.370  -1.713  20.512  1.00  0.00     0.006 C 
BRANCH  10  11
ATOM     11  C   UNL     1      25.925  -1.558  20.018  1.00  0.00     0.053 C 
BRANCH  11  12
ATOM     12  C   UNL     1      25.577  -0.125  19.752  1.00  0.00     0.041 C 
ATOM     13  O   UNL     1      26.421   0.782  19.974  1.00  0.00    -0.550 OA
ATOM     14  O   UNL     1      24.335   0.203  19.226  1.00  0.00    -0.550 OA
ENDBRANCH  11  12
ENDBRANCH  10  11
ENDBRANCH   9  10
ENDBRANCH   8   9
ENDBRANCH   1   8
TORSDOF 9
ENDMDL
MODEL 9
REMARK VINA RESULT:    -6.366      2.610      6.024
REMARK INTER + INTRA:         -10.475
REMARK INTER:                  -9.759
REMARK INTRA:                  -0.715
REMARK UNBOUND:                -0.759
REMARK SMILES O=C([O-])CCCCCCCCC(=O)[O-]
REMARK SMILES IDX 7 1 6 2 5 3 4 4 2 5 1 6 3 7 8 8 9 9 10 10 11 11 12 12 13 13
REMARK SMILES IDX 14 14
REMARK H PARENT
REMARK Flexibility Score: inf
ROOT
ATOM      1  C   UNL     1      28.981  -3.494  19.704  1.00  0.00     0.000 C 
ENDROOT
BRANCH   1   2
ATOM      2  C   UNL     1      28.612  -2.037  19.386  1.00  0.00     0.000 C 
BRANCH   2   3
ATOM      3  C   UNL     1      27.660  -1.467  20.447  1.00  0.00     0.006 C 
BRANCH   3   4
ATOM      4  C   UNL     1      26.244  -1.246  19.898  1.00  0.00     0.053 C 
BRANCH   4   5
ATOM      5  C   UNL     1      25.918   0.211  19.774  1.00  0.00     0.041 C 
ATOM      6  O   UNL     1      26.842   1.063  19.706  1.00  0.00    -0.550 OA
ATOM      7  O   UNL     1      24.594   0.628  19.765  1.00  0.00    -0.550 OA
ENDBRANCH   4   5
ENDBRANCH   3   4
ENDBRANCH   2   3
ENDBRANCH   1   2
BRANCH   1   8
ATOM      8  C   UNL     1      28.594  -4.464  18.575  1.00  0.00     0.000 C 
BRANCH   8   9
ATOM      9  C   UNL     1      27.073  -4.585  18.396  1.00  0.00     0.000 C 
BRANCH   9  10
ATOM     10  C   UNL     1      26.403  -5.053  19.696  1.00  0.00     0.006 C 
BRANCH  10  11
ATOM     11  C   UNL     1      24.959  -5.519  19.471  1.00  0.00     0.053 C 
BRANCH  11  12
ATOM     12  C   UNL     1      24.741  -6.918  19.958  1.00  0.00     0.041 C 
ATOM     13  O   UNL     1      25.681  -7.755  19.918  1.00  0.00    -0.550 OA
ATOM     14  O   UNL     1      23.512  -7.288  20.489  1.00  0.00    -0.550 OA
ENDBRANCH  11  12
ENDBRANCH  10  11
ENDBRANCH   9  10
ENDBRANCH   8   9
ENDBRANCH   1   8
TORSDOF 9
ENDMDL
