MODEL 1
REMARK VINA RESULT:    -5.326      0.000      0.000
REMARK INTER + INTRA:          -5.482
REMARK INTER:                  -5.482
REMARK INTRA:                   0.000
REMARK UNBOUND:                 0.000
REMARK SMILES O=c1ccc2ccc(O)cc2o1
REMARK SMILES IDX 6 1 7 2 8 3 10 4 11 5 5 6 4 7 3 8 2 9 1 10 12 11 9 12
REMARK H PARENT 9 13
REMARK Flexibility Score: inf
ROOT
ATOM      1  C   UNL     1      45.272   6.539  15.149  1.00  0.00     0.016 A 
ATOM      2  C   UNL     1      46.197   5.675  14.553  1.00  0.00     0.047 A 
ATOM      3  C   UNL     1      47.329   5.251  15.266  1.00  0.00     0.119 A 
ATOM      4  C   UNL     1      47.536   5.696  16.578  1.00  0.00     0.094 A 
ATOM      5  C   UNL     1      46.616   6.560  17.181  1.00  0.00     0.142 A 
ATOM      6  C   UNL     1      45.476   6.985  16.462  1.00  0.00     0.018 A 
ATOM      7  C   UNL     1      44.574   7.849  17.090  1.00  0.00     0.019 A 
ATOM      8  C   UNL     1      44.824   8.264  18.399  1.00  0.00     0.094 A 
ATOM      9  C   UNL     1      45.973   7.803  19.049  1.00  0.00     0.336 A 
ATOM     10  O   UNL     1      46.215   8.166  20.230  1.00  0.00    -0.246 OA
ATOM     11  O   UNL     1      46.815   6.980  18.428  1.00  0.00    -0.423 OA
ENDROOT
BRANCH   3  12
ATOM     12  O   UNL     1      48.254   4.391  14.679  1.00  0.00    -0.508 OA
ATOM     13  H   UNL     1      49.121   4.736  14.285  1.00  0.00     0.293 HD
ENDBRANCH   3  12
TORSDOF 1
ENDMDL
MODEL 2
REMARK VINA RESULT:    -5.258      3.120      4.649
REMARK INTER + INTRA:          -5.412
REMARK INTER:                  -5.412
REMARK INTRA:                   0.000
REMARK UNBOUND:                 0.000
REMARK SMILES O=c1ccc2ccc(O)cc2o1
REMARK SMILES IDX 6 1 7 2 8 3 10 4 11 5 5 6 4 7 3 8 2 9 1 10 12 11 9 12
REMARK H PARENT 9 13
REMARK Flexibility Score: inf
ROOT
ATOM      1  C   UNL     1      46.669   7.037  18.971  1.00  0.00     0.016 A 
ATOM      2  C   UNL     1      45.750   7.418  17.988  1.00  0.00     0.047 A 
ATOM      3  C   UNL     1      44.698   8.292  18.302  1.00  0.00     0.119 A 
ATOM      4  C   UNL     1      44.566   8.784  19.606  1.00  0.00     0.094 A 
ATOM      5  C   UNL     1      45.479   8.409  20.596  1.00  0.00     0.142 A 
ATOM      6  C   UNL     1      46.539   7.529  20.278  1.00  0.00     0.018 A 
ATOM      7  C   UNL     1      47.436   7.172  21.288  1.00  0.00     0.019 A 
ATOM      8  C   UNL     1      47.261   7.689  22.572  1.00  0.00     0.094 A 
ATOM      9  C   UNL     1      46.190   8.555  22.815  1.00  0.00     0.336 A 
ATOM     10  O   UNL     1      46.017   9.032  23.967  1.00  0.00    -0.246 OA
ATOM     11  O   UNL     1      45.351   8.880  21.835  1.00  0.00    -0.423 OA
ENDROOT
BRANCH   3  12
ATOM     12  O   UNL     1      43.780   8.674  17.327  1.00  0.00    -0.508 OA
ATOM     13  H   UNL     1      43.640   9.648  17.085  1.00  0.00     0.293 HD
ENDBRANCH   3  12
TORSDOF 1
ENDMDL
MODEL 3
REMARK VINA RESULT:    -5.168      0.811      4.222
REMARK INTER + INTRA:          -5.319
REMARK INTER:                  -5.319
REMARK INTRA:                   0.000
REMARK UNBOUND:                 0.000
REMARK SMILES O=c1ccc2ccc(O)cc2o1
REMARK SMILES IDX 6 1 7 2 8 3 10 4 11 5 5 6 4 7 3 8 2 9 1 10 12 11 9 12
REMARK H PARENT 9 13
REMARK Flexibility Score: inf
ROOT
ATOM      1  C   UNL     1      44.475   7.858  16.979  1.00  0.00     0.016 A 
ATOM      2  C   UNL     1      44.704   8.297  18.288  1.00  0.00     0.047 A 
ATOM      3  C   UNL     1      45.851   7.882  18.982  1.00  0.00     0.119 A 
ATOM      4  C   UNL     1      46.769   7.023  18.365  1.00  0.00     0.094 A 
ATOM      5  C   UNL     1      46.547   6.579  17.057  1.00  0.00     0.142 A 
ATOM      6  C   UNL     1      45.392   6.998  16.359  1.00  0.00     0.018 A 
ATOM      7  C   UNL     1      45.197   6.538  15.053  1.00  0.00     0.019 A 
ATOM      8  C   UNL     1      46.141   5.684  14.482  1.00  0.00     0.094 A 
ATOM      9  C   UNL     1      47.261   5.310  15.232  1.00  0.00     0.336 A 
ATOM     10  O   UNL     1      48.123   4.540  14.733  1.00  0.00    -0.246 OA
ATOM     11  O   UNL     1      47.422   5.763  16.473  1.00  0.00    -0.423 OA
ENDROOT
BRANCH   3  12
ATOM     12  O   UNL     1      46.086   8.315  20.285  1.00  0.00    -0.508 OA
ATOM     13  H   UNL     1      46.714   9.085  20.481  1.00  0.00     0.293 HD
ENDBRANCH   3  12
TORSDOF 1
ENDMDL
MODEL 4
REMARK VINA RESULT:    -5.153      1.533      2.462
REMARK INTER + INTRA:          -5.303
REMARK INTER:                  -5.303
REMARK INTRA:                   0.000
REMARK UNBOUND:                 0.000
REMARK SMILES O=c1ccc2ccc(O)cc2o1
REMARK SMILES IDX 6 1 7 2 8 3 10 4 11 5 5 6 4 7 3 8 2 9 1 10 12 11 9 12
REMARK H PARENT 9 13
REMARK Flexibility Score: inf
ROOT
ATOM      1  C   UNL     1      44.462   8.272  17.581  1.00  0.00     0.016 A 
ATOM      2  C   UNL     1      44.879   7.583  16.437  1.00  0.00     0.047 A 
ATOM      3  C   UNL     1      46.004   6.745  16.487  1.00  0.00     0.119 A 
ATOM      4  C   UNL     1      46.715   6.600  17.685  1.00  0.00     0.094 A 
ATOM      5  C   UNL     1      46.305   7.286  18.833  1.00  0.00     0.142 A 
ATOM      6  C   UNL     1      45.172   8.128  18.782  1.00  0.00     0.018 A 
ATOM      7  C   UNL     1      44.787   8.801  19.945  1.00  0.00     0.019 A 
ATOM      8  C   UNL     1      45.528   8.623  21.114  1.00  0.00     0.094 A 
ATOM      9  C   UNL     1      46.638   7.773  21.092  1.00  0.00     0.336 A 
ATOM     10  O   UNL     1      47.319   7.600  22.137  1.00  0.00    -0.246 OA
ATOM     11  O   UNL     1      46.983   7.144  19.970  1.00  0.00    -0.423 OA
ENDROOT
BRANCH   3  12
ATOM     12  O   UNL     1      46.424   6.056  15.352  1.00  0.00    -0.508 OA
ATOM     13  H   UNL     1      47.408   5.944  15.135  1.00  0.00     0.293 HD
ENDBRANCH   3  12
TORSDOF 1
ENDMDL
MODEL 5
REMARK VINA RESULT:    -5.102      1.561      4.753
REMARK INTER + INTRA:          -5.252
REMARK INTER:                  -5.252
REMARK INTRA:                   0.000
REMARK UNBOUND:                 0.000
REMARK SMILES O=c1ccc2ccc(O)cc2o1
REMARK SMILES IDX 6 1 7 2 8 3 10 4 11 5 5 6 4 7 3 8 2 9 1 10 12 11 9 12
REMARK H PARENT 9 13
REMARK Flexibility Score: inf
ROOT
ATOM      1  C   UNL     1      44.587   8.824  19.692  1.00  0.00     0.016 A 
ATOM      2  C   UNL     1      44.995   8.774  21.029  1.00  0.00     0.047 A 
ATOM      3  C   UNL     1      46.081   7.969  21.407  1.00  0.00     0.119 A 
ATOM      4  C   UNL     1      46.758   7.211  20.444  1.00  0.00     0.094 A 
ATOM      5  C   UNL     1      46.356   7.254  19.105  1.00  0.00     0.142 A 
ATOM      6  C   UNL     1      45.264   8.066  18.725  1.00  0.00     0.018 A 
ATOM      7  C   UNL     1      44.885   8.090  17.379  1.00  0.00     0.019 A 
ATOM      8  C   UNL     1      45.591   7.316  16.457  1.00  0.00     0.094 A 
ATOM      9  C   UNL     1      46.663   6.537  16.905  1.00  0.00     0.336 A 
ATOM     10  O   UNL     1      47.312   5.833  16.087  1.00  0.00    -0.246 OA
ATOM     11  O   UNL     1      47.003   6.533  18.192  1.00  0.00    -0.423 OA
ENDROOT
BRANCH   3  12
ATOM     12  O   UNL     1      46.492   7.914  22.737  1.00  0.00    -0.508 OA
ATOM     13  H   UNL     1      45.908   7.503  23.455  1.00  0.00     0.293 HD
ENDBRANCH   3  12
TORSDOF 1
ENDMDL
MODEL 6
REMARK VINA RESULT:    -5.054      5.058      7.388
REMARK INTER + INTRA:          -5.201
REMARK INTER:                  -5.201
REMARK INTRA:                   0.000
REMARK UNBOUND:                 0.000
REMARK SMILES O=c1ccc2ccc(O)cc2o1
REMARK SMILES IDX 6 1 7 2 8 3 10 4 11 5 5 6 4 7 3 8 2 9 1 10 12 11 9 12
REMARK H PARENT 9 13
REMARK Flexibility Score: inf
ROOT
ATOM      1  C   UNL     1      46.636   8.503  23.471  1.00  0.00     0.016 A 
ATOM      2  C   UNL     1      46.773   8.238  22.105  1.00  0.00     0.047 A 
ATOM      3  C   UNL     1      45.654   8.278  21.260  1.00  0.00     0.119 A 
ATOM      4  C   UNL     1      44.392   8.582  21.786  1.00  0.00     0.094 A 
ATOM      5  C   UNL     1      44.245   8.847  23.152  1.00  0.00     0.142 A 
ATOM      6  C   UNL     1      45.374   8.807  24.001  1.00  0.00     0.018 A 
ATOM      7  C   UNL     1      45.196   9.077  25.361  1.00  0.00     0.019 A 
ATOM      8  C   UNL     1      43.918   9.375  25.837  1.00  0.00     0.094 A 
ATOM      9  C   UNL     1      42.847   9.397  24.939  1.00  0.00     0.336 A 
ATOM     10  O   UNL     1      41.687   9.664  25.350  1.00  0.00    -0.246 OA
ATOM     11  O   UNL     1      43.044   9.137  23.648  1.00  0.00    -0.423 OA
ENDROOT
BRANCH   3  12
ATOM     12  O   UNL     1      45.784   8.016  19.898  1.00  0.00    -0.508 OA
ATOM     13  H   UNL     1      46.349   8.605  19.297  1.00  0.00     0.293 HD
ENDBRANCH   3  12
TORSDOF 1
ENDMDL
MODEL 7
REMARK VINA RESULT:    -5.020      3.063      5.853
REMARK INTER + INTRA:          -5.166
REMARK INTER:                  -5.166
REMARK INTRA:                   0.000
REMARK UNBOUND:                 0.000
REMARK SMILES O=c1ccc2ccc(O)cc2o1
REMARK SMILES IDX 6 1 7 2 8 3 10 4 11 5 5 6 4 7 3 8 2 9 1 10 12 11 9 12
REMARK H PARENT 9 13
REMARK Flexibility Score: inf
ROOT
ATOM      1  C   UNL     1      47.437   7.091  21.346  1.00  0.00     0.016 A 
ATOM      2  C   UNL     1      47.269   7.601  22.637  1.00  0.00     0.047 A 
ATOM      3  C   UNL     1      46.235   8.509  22.910  1.00  0.00     0.119 A 
ATOM      4  C   UNL     1      45.369   8.910  21.885  1.00  0.00     0.094 A 
ATOM      5  C   UNL     1      45.531   8.407  20.590  1.00  0.00     0.142 A 
ATOM      6  C   UNL     1      46.572   7.491  20.318  1.00  0.00     0.018 A 
ATOM      7  C   UNL     1      46.709   7.005  19.014  1.00  0.00     0.019 A 
ATOM      8  C   UNL     1      45.821   7.435  18.028  1.00  0.00     0.094 A 
ATOM      9  C   UNL     1      44.813   8.343  18.370  1.00  0.00     0.336 A 
ATOM     10  O   UNL     1      44.002   8.742  17.493  1.00  0.00    -0.246 OA
ATOM     11  O   UNL     1      44.705   8.790  19.619  1.00  0.00    -0.423 OA
ENDROOT
BRANCH   3  12
ATOM     12  O   UNL     1      46.061   9.020  24.194  1.00  0.00    -0.508 OA
ATOM     13  H   UNL     1      46.472   8.569  25.003  1.00  0.00     0.293 HD
ENDBRANCH   3  12
TORSDOF 1
ENDMDL
MODEL 8
REMARK VINA RESULT:    -4.983      2.103      3.175
REMARK INTER + INTRA:          -5.129
REMARK INTER:                  -5.129
REMARK INTRA:                   0.000
REMARK UNBOUND:                 0.000
REMARK SMILES O=c1ccc2ccc(O)cc2o1
REMARK SMILES IDX 6 1 7 2 8 3 10 4 11 5 5 6 4 7 3 8 2 9 1 10 12 11 9 12
REMARK H PARENT 9 13
REMARK Flexibility Score: inf
ROOT
ATOM      1  C   UNL     1      46.776   6.655  17.699  1.00  0.00     0.016 A 
ATOM      2  C   UNL     1      46.195   6.666  16.427  1.00  0.00     0.047 A 
ATOM      3  C   UNL     1      45.004   7.373  16.200  1.00  0.00     0.119 A 
ATOM      4  C   UNL     1      44.393   8.068  17.251  1.00  0.00     0.094 A 
ATOM      5  C   UNL     1      44.968   8.062  18.526  1.00  0.00     0.142 A 
ATOM      6  C   UNL     1      46.167   7.351  18.753  1.00  0.00     0.018 A 
ATOM      7  C   UNL     1      46.718   7.362  20.038  1.00  0.00     0.019 A 
ATOM      8  C   UNL     1      46.072   8.071  21.051  1.00  0.00     0.094 A 
ATOM      9  C   UNL     1      44.887   8.753  20.754  1.00  0.00     0.336 A 
ATOM     10  O   UNL     1      44.290   9.397  21.656  1.00  0.00    -0.246 OA
ATOM     11  O   UNL     1      44.385   8.725  19.522  1.00  0.00    -0.423 OA
ENDROOT
BRANCH   3  12
ATOM     12  O   UNL     1      44.419   7.388  14.936  1.00  0.00    -0.508 OA
ATOM     13  H   UNL     1      44.971   7.536  14.099  1.00  0.00     0.293 HD
ENDBRANCH   3  12
TORSDOF 1
ENDMDL
MODEL 9
REMARK VINA RESULT:    -4.879      2.142      5.129
REMARK INTER + INTRA:          -5.022
REMARK INTER:                  -5.022
REMARK INTRA:                   0.000
REMARK UNBOUND:                 0.000
REMARK SMILES O=c1ccc2ccc(O)cc2o1
REMARK SMILES IDX 6 1 7 2 8 3 10 4 11 5 5 6 4 7 3 8 2 9 1 10 12 11 9 12
REMARK H PARENT 9 13
REMARK Flexibility Score: inf
ROOT
ATOM      1  C   UNL     1      46.745   7.357  19.957  1.00  0.00     0.016 A 
ATOM      2  C   UNL     1      46.141   8.104  20.973  1.00  0.00     0.047 A 
ATOM      3  C   UNL     1      44.973   8.838  20.712  1.00  0.00     0.119 A 
ATOM      4  C   UNL     1      44.412   8.825  19.430  1.00  0.00     0.094 A 
ATOM      5  C   UNL     1      45.011   8.081  18.407  1.00  0.00     0.142 A 
ATOM      6  C   UNL     1      46.185   7.342  18.672  1.00  0.00     0.018 A 
ATOM      7  C   UNL     1      46.761   6.608  17.631  1.00  0.00     0.019 A 
ATOM      8  C   UNL     1      46.163   6.627  16.370  1.00  0.00     0.094 A 
ATOM      9  C   UNL     1      45.001   7.381  16.181  1.00  0.00     0.336 A 
ATOM     10  O   UNL     1      44.448   7.410  15.050  1.00  0.00    -0.246 OA
ATOM     11  O   UNL     1      44.473   8.070  17.190  1.00  0.00    -0.423 OA
ENDROOT
BRANCH   3  12
ATOM     12  O   UNL     1      44.366   9.585  21.719  1.00  0.00    -0.508 OA
ATOM     13  H   UNL     1      43.358   9.661  21.787  1.00  0.00     0.293 HD
ENDBRANCH   3  12
TORSDOF 1
ENDMDL
