MODEL 1
REMARK VINA RESULT:    -4.534      0.000      0.000
REMARK INTER + INTRA:          -4.534
REMARK INTER:                  -4.534
REMARK INTRA:                   0.000
REMARK UNBOUND:                 0.000
REMARK SMILES O=c1ccc2ccccc2o1
REMARK SMILES IDX 7 1 8 2 9 3 10 4 5 5 6 6 4 7 3 8 2 9 1 10 11 11
REMARK H PARENT
REMARK Flexibility Score: inf
ROOT
ATOM      1  C   UNL     1       0.408 -15.280  -6.902  1.00  0.00     0.001 A 
ATOM      2  C   UNL     1      -0.647 -14.365  -6.821  1.00  0.00     0.004 A 
ATOM      3  C   UNL     1      -1.868 -14.643  -7.446  1.00  0.00     0.048 A 
ATOM      4  C   UNL     1      -2.036 -15.838  -8.155  1.00  0.00     0.138 A 
ATOM      5  C   UNL     1      -0.970 -16.761  -8.236  1.00  0.00     0.018 A 
ATOM      6  C   UNL     1       0.251 -16.477  -7.607  1.00  0.00     0.012 A 
ATOM      7  C   UNL     1      -1.168 -17.947  -8.951  1.00  0.00     0.019 A 
ATOM      8  C   UNL     1      -2.401 -18.181  -9.558  1.00  0.00     0.094 A 
ATOM      9  C   UNL     1      -3.411 -17.221  -9.435  1.00  0.00     0.336 A 
ATOM     10  O   UNL     1      -4.531 -17.416  -9.977  1.00  0.00    -0.246 OA
ATOM     11  O   UNL     1      -3.198 -16.101  -8.749  1.00  0.00    -0.423 OA
ENDROOT
TORSDOF 0
ENDMDL
MODEL 2
REMARK VINA RESULT:    -4.377      1.614      3.539
REMARK INTER + INTRA:          -4.377
REMARK INTER:                  -4.377
REMARK INTRA:                   0.000
REMARK UNBOUND:                 0.000
REMARK SMILES O=c1ccc2ccccc2o1
REMARK SMILES IDX 7 1 8 2 9 3 10 4 5 5 6 6 4 7 3 8 2 9 1 10 11 11
REMARK H PARENT
REMARK Flexibility Score: inf
ROOT
ATOM      1  C   UNL     1       1.191 -19.409  -7.817  1.00  0.00     0.001 A 
ATOM      2  C   UNL     1       0.002 -19.760  -8.466  1.00  0.00     0.004 A 
ATOM      3  C   UNL     1      -1.003 -18.806  -8.657  1.00  0.00     0.048 A 
ATOM      4  C   UNL     1      -0.822 -17.497  -8.198  1.00  0.00     0.138 A 
ATOM      5  C   UNL     1       0.378 -17.142  -7.542  1.00  0.00     0.018 A 
ATOM      6  C   UNL     1       1.382 -18.103  -7.355  1.00  0.00     0.012 A 
ATOM      7  C   UNL     1       0.530 -15.826  -7.094  1.00  0.00     0.019 A 
ATOM      8  C   UNL     1      -0.499 -14.909  -7.306  1.00  0.00     0.094 A 
ATOM      9  C   UNL     1      -1.660 -15.331  -7.963  1.00  0.00     0.336 A 
ATOM     10  O   UNL     1      -2.600 -14.517  -8.162  1.00  0.00    -0.246 OA
ATOM     11  O   UNL     1      -1.780 -16.589  -8.379  1.00  0.00    -0.423 OA
ENDROOT
TORSDOF 0
ENDMDL
MODEL 3
REMARK VINA RESULT:    -4.367      2.148      3.668
REMARK INTER + INTRA:          -4.367
REMARK INTER:                  -4.367
REMARK INTRA:                   0.000
REMARK UNBOUND:                 0.000
REMARK SMILES O=c1ccc2ccccc2o1
REMARK SMILES IDX 7 1 8 2 9 3 10 4 5 5 6 6 4 7 3 8 2 9 1 10 11 11
REMARK H PARENT
REMARK Flexibility Score: inf
ROOT
ATOM      1  C   UNL     1       2.289 -17.856  -6.313  1.00  0.00     0.001 A 
ATOM      2  C   UNL     1       1.620 -18.500  -7.358  1.00  0.00     0.004 A 
ATOM      3  C   UNL     1       0.497 -17.906  -7.947  1.00  0.00     0.048 A 
ATOM      4  C   UNL     1       0.042 -16.665  -7.489  1.00  0.00     0.138 A 
ATOM      5  C   UNL     1       0.718 -16.015  -6.433  1.00  0.00     0.018 A 
ATOM      6  C   UNL     1       1.842 -16.615  -5.848  1.00  0.00     0.012 A 
ATOM      7  C   UNL     1       0.238 -14.775  -5.997  1.00  0.00     0.019 A 
ATOM      8  C   UNL     1      -0.884 -14.222  -6.612  1.00  0.00     0.094 A 
ATOM      9  C   UNL     1      -1.503 -14.923  -7.653  1.00  0.00     0.336 A 
ATOM     10  O   UNL     1      -2.518 -14.439  -8.220  1.00  0.00    -0.246 OA
ATOM     11  O   UNL     1      -1.027 -16.101  -8.049  1.00  0.00    -0.423 OA
ENDROOT
TORSDOF 0
ENDMDL
MODEL 4
REMARK VINA RESULT:    -4.148      2.524      3.439
REMARK INTER + INTRA:          -4.148
REMARK INTER:                  -4.148
REMARK INTRA:                   0.000
REMARK UNBOUND:                 0.000
REMARK SMILES O=c1ccc2ccccc2o1
REMARK SMILES IDX 7 1 8 2 9 3 10 4 5 5 6 6 4 7 3 8 2 9 1 10 11 11
REMARK H PARENT
REMARK Flexibility Score: inf
ROOT
ATOM      1  C   UNL     1      -2.012 -14.716  -7.651  1.00  0.00     0.001 A 
ATOM      2  C   UNL     1      -0.806 -14.325  -7.060  1.00  0.00     0.004 A 
ATOM      3  C   UNL     1       0.264 -15.224  -6.984  1.00  0.00     0.048 A 
ATOM      4  C   UNL     1       0.129 -16.518  -7.499  1.00  0.00     0.138 A 
ATOM      5  C   UNL     1      -1.089 -16.913  -8.096  1.00  0.00     0.018 A 
ATOM      6  C   UNL     1      -2.157 -16.007  -8.169  1.00  0.00     0.012 A 
ATOM      7  C   UNL     1      -1.193 -18.212  -8.601  1.00  0.00     0.019 A 
ATOM      8  C   UNL     1      -0.101 -19.074  -8.503  1.00  0.00     0.094 A 
ATOM      9  C   UNL     1       1.074 -18.613  -7.899  1.00  0.00     0.336 A 
ATOM     10  O   UNL     1       2.070 -19.378  -7.801  1.00  0.00    -0.246 OA
ATOM     11  O   UNL     1       1.148 -17.372  -7.426  1.00  0.00    -0.423 OA
ENDROOT
TORSDOF 0
ENDMDL
MODEL 5
REMARK VINA RESULT:    -4.122      3.099      4.491
REMARK INTER + INTRA:          -4.122
REMARK INTER:                  -4.122
REMARK INTRA:                   0.000
REMARK UNBOUND:                 0.000
REMARK SMILES O=c1ccc2ccccc2o1
REMARK SMILES IDX 7 1 8 2 9 3 10 4 5 5 6 6 4 7 3 8 2 9 1 10 11 11
REMARK H PARENT
REMARK Flexibility Score: inf
ROOT
ATOM      1  C   UNL     1       0.884 -18.272  -8.127  1.00  0.00     0.001 A 
ATOM      2  C   UNL     1       1.659 -18.234  -6.963  1.00  0.00     0.004 A 
ATOM      3  C   UNL     1       1.557 -17.149  -6.086  1.00  0.00     0.048 A 
ATOM      4  C   UNL     1       0.679 -16.097  -6.372  1.00  0.00     0.138 A 
ATOM      5  C   UNL     1      -0.103 -16.136  -7.548  1.00  0.00     0.018 A 
ATOM      6  C   UNL     1       0.004 -17.227  -8.422  1.00  0.00     0.012 A 
ATOM      7  C   UNL     1      -0.971 -15.071  -7.807  1.00  0.00     0.019 A 
ATOM      8  C   UNL     1      -1.039 -14.010  -6.904  1.00  0.00     0.094 A 
ATOM      9  C   UNL     1      -0.235 -14.039  -5.760  1.00  0.00     0.336 A 
ATOM     10  O   UNL     1      -0.283 -13.089  -4.934  1.00  0.00    -0.246 OA
ATOM     11  O   UNL     1       0.583 -15.065  -5.537  1.00  0.00    -0.423 OA
ENDROOT
TORSDOF 0
ENDMDL
MODEL 6
REMARK VINA RESULT:    -4.049      1.384      2.213
REMARK INTER + INTRA:          -4.049
REMARK INTER:                  -4.049
REMARK INTRA:                   0.000
REMARK UNBOUND:                 0.000
REMARK SMILES O=c1ccc2ccccc2o1
REMARK SMILES IDX 7 1 8 2 9 3 10 4 5 5 6 6 4 7 3 8 2 9 1 10 11 11
REMARK H PARENT
REMARK Flexibility Score: inf
ROOT
ATOM      1  C   UNL     1      -0.996 -14.233  -7.070  1.00  0.00     0.001 A 
ATOM      2  C   UNL     1       0.186 -14.954  -7.270  1.00  0.00     0.004 A 
ATOM      3  C   UNL     1       0.150 -16.204  -7.897  1.00  0.00     0.048 A 
ATOM      4  C   UNL     1      -1.070 -16.738  -8.325  1.00  0.00     0.138 A 
ATOM      5  C   UNL     1      -2.264 -16.011  -8.122  1.00  0.00     0.018 A 
ATOM      6  C   UNL     1      -2.221 -14.758  -7.494  1.00  0.00     0.012 A 
ATOM      7  C   UNL     1      -3.468 -16.571  -8.561  1.00  0.00     0.019 A 
ATOM      8  C   UNL     1      -3.456 -17.820  -9.180  1.00  0.00     0.094 A 
ATOM      9  C   UNL     1      -2.235 -18.483  -9.347  1.00  0.00     0.336 A 
ATOM     10  O   UNL     1      -2.205 -19.612  -9.903  1.00  0.00    -0.246 OA
ATOM     11  O   UNL     1      -1.103 -17.929  -8.921  1.00  0.00    -0.423 OA
ENDROOT
TORSDOF 0
ENDMDL
MODEL 7
REMARK VINA RESULT:    -4.043      1.662      3.854
REMARK INTER + INTRA:          -4.043
REMARK INTER:                  -4.043
REMARK INTRA:                   0.000
REMARK UNBOUND:                 0.000
REMARK SMILES O=c1ccc2ccccc2o1
REMARK SMILES IDX 7 1 8 2 9 3 10 4 5 5 6 6 4 7 3 8 2 9 1 10 11 11
REMARK H PARENT
REMARK Flexibility Score: inf
ROOT
ATOM      1  C   UNL     1      -2.156 -18.142  -9.455  1.00  0.00     0.001 A 
ATOM      2  C   UNL     1      -3.327 -17.422  -9.197  1.00  0.00     0.004 A 
ATOM      3  C   UNL     1      -3.288 -16.281  -8.387  1.00  0.00     0.048 A 
ATOM      4  C   UNL     1      -2.075 -15.858  -7.833  1.00  0.00     0.138 A 
ATOM      5  C   UNL     1      -0.892 -16.585  -8.094  1.00  0.00     0.018 A 
ATOM      6  C   UNL     1      -0.939 -17.727  -8.906  1.00  0.00     0.012 A 
ATOM      7  C   UNL     1       0.305 -16.137  -7.525  1.00  0.00     0.019 A 
ATOM      8  C   UNL     1       0.296 -14.996  -6.725  1.00  0.00     0.094 A 
ATOM      9  C   UNL     1      -0.913 -14.326  -6.510  1.00  0.00     0.336 A 
ATOM     10  O   UNL     1      -0.940 -13.294  -5.789  1.00  0.00    -0.246 OA
ATOM     11  O   UNL     1      -2.038 -14.772  -7.062  1.00  0.00    -0.423 OA
ENDROOT
TORSDOF 0
ENDMDL
MODEL 8
REMARK VINA RESULT:    -3.987      2.949      3.620
REMARK INTER + INTRA:          -3.987
REMARK INTER:                  -3.987
REMARK INTRA:                   0.000
REMARK UNBOUND:                 0.000
REMARK SMILES O=c1ccc2ccccc2o1
REMARK SMILES IDX 7 1 8 2 9 3 10 4 5 5 6 6 4 7 3 8 2 9 1 10 11 11
REMARK H PARENT
REMARK Flexibility Score: inf
ROOT
ATOM      1  C   UNL     1      -0.808 -13.580  -5.493  1.00  0.00     0.001 A 
ATOM      2  C   UNL     1      -0.239 -14.371  -4.489  1.00  0.00     0.004 A 
ATOM      3  C   UNL     1       0.298 -15.625  -4.802  1.00  0.00     0.048 A 
ATOM      4  C   UNL     1       0.266 -16.092  -6.120  1.00  0.00     0.138 A 
ATOM      5  C   UNL     1      -0.309 -15.293  -7.134  1.00  0.00     0.018 A 
ATOM      6  C   UNL     1      -0.844 -14.037  -6.814  1.00  0.00     0.012 A 
ATOM      7  C   UNL     1      -0.326 -15.786  -8.442  1.00  0.00     0.019 A 
ATOM      8  C   UNL     1       0.220 -17.041  -8.707  1.00  0.00     0.094 A 
ATOM      9  C   UNL     1       0.773 -17.777  -7.653  1.00  0.00     0.336 A 
ATOM     10  O   UNL     1       1.270 -18.913  -7.873  1.00  0.00    -0.246 OA
ATOM     11  O   UNL     1       0.777 -17.285  -6.417  1.00  0.00    -0.423 OA
ENDROOT
TORSDOF 0
ENDMDL
MODEL 9
REMARK VINA RESULT:    -3.945     13.252     14.114
REMARK INTER + INTRA:          -3.945
REMARK INTER:                  -3.945
REMARK INTRA:                   0.000
REMARK UNBOUND:                 0.000
REMARK SMILES O=c1ccc2ccccc2o1
REMARK SMILES IDX 7 1 8 2 9 3 10 4 5 5 6 6 4 7 3 8 2 9 1 10 11 11
REMARK H PARENT
REMARK Flexibility Score: inf
ROOT
ATOM      1  C   UNL     1      11.234 -17.173  -5.789  1.00  0.00     0.001 A 
ATOM      2  C   UNL     1      12.496 -16.610  -6.008  1.00  0.00     0.004 A 
ATOM      3  C   UNL     1      13.149 -16.801  -7.231  1.00  0.00     0.048 A 
ATOM      4  C   UNL     1      12.541 -17.557  -8.238  1.00  0.00     0.138 A 
ATOM      5  C   UNL     1      11.267 -18.127  -8.017  1.00  0.00     0.018 A 
ATOM      6  C   UNL     1      10.618 -17.931  -6.790  1.00  0.00     0.012 A 
ATOM      7  C   UNL     1      10.685 -18.878  -9.043  1.00  0.00     0.019 A 
ATOM      8  C   UNL     1      11.373 -19.042 -10.244  1.00  0.00     0.094 A 
ATOM      9  C   UNL     1      12.631 -18.449 -10.393  1.00  0.00     0.336 A 
ATOM     10  O   UNL     1      13.267 -18.588 -11.471  1.00  0.00    -0.246 OA
ATOM     11  O   UNL     1      13.163 -17.739  -9.402  1.00  0.00    -0.423 OA
ENDROOT
TORSDOF 0
ENDMDL
