MODEL 1
REMARK VINA RESULT:    -4.037      0.000      0.000
REMARK INTER + INTRA:          -6.669
REMARK INTER:                  -5.807
REMARK INTRA:                  -0.862
REMARK UNBOUND:                -0.862
REMARK SMILES O=C(CO)[C@H](O)[C@@H](O)[C@H](O)CO
REMARK SMILES IDX 7 1 9 2 11 3 12 4 10 6 5 8 2 9 1 10 3 11 4 12 6 14 8 16
REMARK H PARENT 12 5 10 7 4 13 6 15 8 17
REMARK Flexibility Score: inf
ROOT
ATOM      1  C   UNL     1      -0.847  -8.020   5.783  1.00  0.00     0.181 C 
ENDROOT
BRANCH   1   2
ATOM      2  C   UNL     1       0.446  -8.542   6.483  1.00  0.00     0.171 C 
BRANCH   2   3
ATOM      3  C   UNL     1       0.293  -8.723   8.009  1.00  0.00     0.190 C 
BRANCH   3   4
ATOM      4  O   UNL     1       0.038  -7.494   8.629  1.00  0.00    -0.394 OA
ATOM      5  H   UNL     1      -0.948  -7.421   8.705  1.00  0.00     0.210 HD
ENDBRANCH   3   4
ENDBRANCH   2   3
BRANCH   2   6
ATOM      6  O   UNL     1       0.836  -9.767   5.912  1.00  0.00    -0.388 OA
ATOM      7  H   UNL     1       1.790  -9.682   5.645  1.00  0.00     0.211 HD
ENDBRANCH   2   6
ENDBRANCH   1   2
BRANCH   1   8
ATOM      8  C   UNL     1      -2.173  -8.603   6.343  1.00  0.00     0.214 C 
BRANCH   8   9
ATOM      9  C   UNL     1      -3.154  -8.984   5.252  1.00  0.00     0.189 C 
ATOM     10  O   UNL     1      -3.003 -10.044   4.661  1.00  0.00    -0.294 OA
BRANCH   9  11
ATOM     11  C   UNL     1      -4.316  -8.091   4.888  1.00  0.00     0.234 C 
BRANCH  11  12
ATOM     12  O   UNL     1      -3.917  -6.748   4.800  1.00  0.00    -0.388 OA
ATOM     13  H   UNL     1      -4.039  -6.356   5.704  1.00  0.00     0.211 HD
ENDBRANCH  11  12
ENDBRANCH   9  11
ENDBRANCH   8   9
BRANCH   8  14
ATOM     14  O   UNL     1      -2.764  -7.716   7.258  1.00  0.00    -0.382 OA
ATOM     15  H   UNL     1      -2.154  -7.655   8.039  1.00  0.00     0.211 HD
ENDBRANCH   8  14
ENDBRANCH   1   8
BRANCH   1  16
ATOM     16  O   UNL     1      -0.903  -6.617   5.889  1.00  0.00    -0.387 OA
ATOM     17  H   UNL     1      -0.852  -6.246   4.971  1.00  0.00     0.211 HD
ENDBRANCH   1  16
TORSDOF 10
ENDMDL
MODEL 2
REMARK VINA RESULT:    -3.919      1.385      2.322
REMARK INTER + INTRA:          -6.500
REMARK INTER:                  -5.052
REMARK INTRA:                  -1.448
REMARK UNBOUND:                -0.862
REMARK SMILES O=C(CO)[C@H](O)[C@@H](O)[C@H](O)CO
REMARK SMILES IDX 7 1 9 2 11 3 12 4 10 6 5 8 2 9 1 10 3 11 4 12 6 14 8 16
REMARK H PARENT 12 5 10 7 4 13 6 15 8 17
REMARK Flexibility Score: inf
ROOT
ATOM      1  C   UNL     1      -1.645  -8.334   5.959  1.00  0.00     0.181 C 
ENDROOT
BRANCH   1   2
ATOM      2  C   UNL     1      -0.960  -8.930   7.228  1.00  0.00     0.171 C 
BRANCH   2   3
ATOM      3  C   UNL     1       0.583  -8.872   7.183  1.00  0.00     0.190 C 
BRANCH   3   4
ATOM      4  O   UNL     1       1.025  -8.480   5.914  1.00  0.00    -0.394 OA
ATOM      5  H   UNL     1       0.236  -8.096   5.452  1.00  0.00     0.210 HD
ENDBRANCH   3   4
ENDBRANCH   2   3
BRANCH   2   6
ATOM      6  O   UNL     1      -1.412  -8.255   8.376  1.00  0.00    -0.388 OA
ATOM      7  H   UNL     1      -2.315  -8.608   8.594  1.00  0.00     0.211 HD
ENDBRANCH   2   6
ENDBRANCH   1   2
BRANCH   1   8
ATOM      8  C   UNL     1      -3.142  -8.709   5.789  1.00  0.00     0.214 C 
BRANCH   8   9
ATOM      9  C   UNL     1      -4.054  -7.498   5.772  1.00  0.00     0.189 C 
ATOM     10  O   UNL     1      -4.162  -6.851   4.740  1.00  0.00    -0.294 OA
BRANCH   9  11
ATOM     11  C   UNL     1      -4.836  -7.081   6.995  1.00  0.00     0.234 C 
BRANCH  11  12
ATOM     12  O   UNL     1      -3.992  -6.908   8.103  1.00  0.00    -0.388 OA
ATOM     13  H   UNL     1      -4.579  -6.694   8.875  1.00  0.00     0.211 HD
ENDBRANCH  11  12
ENDBRANCH   9  11
ENDBRANCH   8   9
BRANCH   8  14
ATOM     14  O   UNL     1      -3.546  -9.624   6.777  1.00  0.00    -0.382 OA
ATOM     15  H   UNL     1      -2.826 -10.303   6.856  1.00  0.00     0.211 HD
ENDBRANCH   8  14
ENDBRANCH   1   8
BRANCH   1  16
ATOM     16  O   UNL     1      -1.544  -6.931   5.988  1.00  0.00    -0.387 OA
ATOM     17  H   UNL     1      -1.083  -6.682   6.831  1.00  0.00     0.211 HD
ENDBRANCH   1  16
TORSDOF 10
ENDMDL
MODEL 3
REMARK VINA RESULT:    -3.900      1.748      2.734
REMARK INTER + INTRA:          -6.472
REMARK INTER:                  -5.168
REMARK INTRA:                  -1.304
REMARK UNBOUND:                -0.862
REMARK SMILES O=C(CO)[C@H](O)[C@@H](O)[C@H](O)CO
REMARK SMILES IDX 7 1 9 2 11 3 12 4 10 6 5 8 2 9 1 10 3 11 4 12 6 14 8 16
REMARK H PARENT 12 5 10 7 4 13 6 15 8 17
REMARK Flexibility Score: inf
ROOT
ATOM      1  C   UNL     1       0.307  -9.651   7.734  1.00  0.00     0.181 C 
ENDROOT
BRANCH   1   2
ATOM      2  C   UNL     1       0.467  -8.805   9.035  1.00  0.00     0.171 C 
BRANCH   2   3
ATOM      3  C   UNL     1       1.883  -8.874   9.648  1.00  0.00     0.190 C 
BRANCH   3   4
ATOM      4  O   UNL     1       2.619  -9.917   9.074  1.00  0.00    -0.394 OA
ATOM      5  H   UNL     1       1.980 -10.662   8.932  1.00  0.00     0.210 HD
ENDBRANCH   3   4
ENDBRANCH   2   3
BRANCH   2   6
ATOM      6  O   UNL     1       0.146  -7.461   8.772  1.00  0.00    -0.388 OA
ATOM      7  H   UNL     1       0.963  -6.920   8.939  1.00  0.00     0.211 HD
ENDBRANCH   2   6
ENDBRANCH   1   2
BRANCH   1   8
ATOM      8  C   UNL     1      -1.153  -9.800   7.228  1.00  0.00     0.214 C 
BRANCH   8   9
ATOM      9  C   UNL     1      -1.397  -9.080   5.916  1.00  0.00     0.189 C 
ATOM     10  O   UNL     1      -1.226  -9.684   4.867  1.00  0.00    -0.294 OA
BRANCH   9  11
ATOM     11  C   UNL     1      -1.855  -7.642   5.879  1.00  0.00     0.234 C 
BRANCH  11  12
ATOM     12  O   UNL     1      -0.765  -6.760   5.946  1.00  0.00    -0.388 OA
ATOM     13  H   UNL     1      -0.442  -6.778   6.885  1.00  0.00     0.211 HD
ENDBRANCH  11  12
ENDBRANCH   9  11
ENDBRANCH   8   9
BRANCH   8  14
ATOM     14  O   UNL     1      -2.069  -9.379   8.207  1.00  0.00    -0.382 OA
ATOM     15  H   UNL     1      -2.918  -9.865   8.040  1.00  0.00     0.211 HD
ENDBRANCH   8  14
ENDBRANCH   1   8
BRANCH   1  16
ATOM     16  O   UNL     1       1.074  -9.075   6.704  1.00  0.00    -0.387 OA
ATOM     17  H   UNL     1       0.565  -9.182   5.859  1.00  0.00     0.211 HD
ENDBRANCH   1  16
TORSDOF 10
ENDMDL
MODEL 4
REMARK VINA RESULT:    -3.876      8.205      9.406
REMARK INTER + INTRA:          -6.437
REMARK INTER:                  -5.480
REMARK INTRA:                  -0.957
REMARK UNBOUND:                -0.862
REMARK SMILES O=C(CO)[C@H](O)[C@@H](O)[C@H](O)CO
REMARK SMILES IDX 7 1 9 2 11 3 12 4 10 6 5 8 2 9 1 10 3 11 4 12 6 14 8 16
REMARK H PARENT 12 5 10 7 4 13 6 15 8 17
REMARK Flexibility Score: inf
ROOT
ATOM      1  C   UNL     1      -6.169 -10.177  -1.353  1.00  0.00     0.181 C 
ENDROOT
BRANCH   1   2
ATOM      2  C   UNL     1      -7.619  -9.631  -1.171  1.00  0.00     0.171 C 
BRANCH   2   3
ATOM      3  C   UNL     1      -8.094  -9.616   0.299  1.00  0.00     0.190 C 
BRANCH   3   4
ATOM      4  O   UNL     1      -7.267  -8.799   1.077  1.00  0.00    -0.394 OA
ATOM      5  H   UNL     1      -6.361  -8.860   0.677  1.00  0.00     0.210 HD
ENDBRANCH   3   4
ENDBRANCH   2   3
BRANCH   2   6
ATOM      6  O   UNL     1      -7.707  -8.329  -1.695  1.00  0.00    -0.388 OA
ATOM      7  H   UNL     1      -7.196  -7.728  -1.090  1.00  0.00     0.211 HD
ENDBRANCH   2   6
ENDBRANCH   1   2
BRANCH   1   8
ATOM      8  C   UNL     1      -5.118  -9.112  -1.765  1.00  0.00     0.214 C 
BRANCH   8   9
ATOM      9  C   UNL     1      -3.775  -9.718  -2.124  1.00  0.00     0.189 C 
ATOM     10  O   UNL     1      -2.894  -9.751  -1.277  1.00  0.00    -0.294 OA
BRANCH   9  11
ATOM     11  C   UNL     1      -3.508 -10.289  -3.495  1.00  0.00     0.234 C 
BRANCH  11  12
ATOM     12  O   UNL     1      -2.132 -10.339  -3.767  1.00  0.00    -0.388 OA
ATOM     13  H   UNL     1      -1.950 -11.239  -4.144  1.00  0.00     0.211 HD
ENDBRANCH  11  12
ENDBRANCH   9  11
ENDBRANCH   8   9
BRANCH   8  14
ATOM     14  O   UNL     1      -4.974  -8.136  -0.765  1.00  0.00    -0.382 OA
ATOM     15  H   UNL     1      -4.736  -8.611   0.073  1.00  0.00     0.211 HD
ENDBRANCH   8  14
ENDBRANCH   1   8
BRANCH   1  16
ATOM     16  O   UNL     1      -5.741 -10.777  -0.154  1.00  0.00    -0.387 OA
ATOM     17  H   UNL     1      -6.255 -11.618  -0.041  1.00  0.00     0.211 HD
ENDBRANCH   1  16
TORSDOF 10
ENDMDL
MODEL 5
REMARK VINA RESULT:    -3.871      6.851      8.677
REMARK INTER + INTRA:          -6.431
REMARK INTER:                  -5.569
REMARK INTRA:                  -0.862
REMARK UNBOUND:                -0.862
REMARK SMILES O=C(CO)[C@H](O)[C@@H](O)[C@H](O)CO
REMARK SMILES IDX 7 1 9 2 11 3 12 4 10 6 5 8 2 9 1 10 3 11 4 12 6 14 8 16
REMARK H PARENT 12 5 10 7 4 13 6 15 8 17
REMARK Flexibility Score: inf
ROOT
ATOM      1  C   UNL     1      -3.866  -8.995  -1.663  1.00  0.00     0.181 C 
ENDROOT
BRANCH   1   2
ATOM      2  C   UNL     1      -4.288  -9.986  -2.792  1.00  0.00     0.171 C 
BRANCH   2   3
ATOM      3  C   UNL     1      -3.116 -10.431  -3.694  1.00  0.00     0.190 C 
BRANCH   3   4
ATOM      4  O   UNL     1      -1.915 -10.439  -2.976  1.00  0.00    -0.394 OA
ATOM      5  H   UNL     1      -1.386 -11.200  -3.328  1.00  0.00     0.210 HD
ENDBRANCH   3   4
ENDBRANCH   2   3
BRANCH   2   6
ATOM      6  O   UNL     1      -4.890 -11.125  -2.226  1.00  0.00    -0.388 OA
ATOM      7  H   UNL     1      -4.168 -11.669  -1.812  1.00  0.00     0.211 HD
ENDBRANCH   2   6
ENDBRANCH   1   2
BRANCH   1   8
ATOM      8  C   UNL     1      -5.044  -8.267  -0.960  1.00  0.00     0.214 C 
BRANCH   8   9
ATOM      9  C   UNL     1      -5.472  -8.947   0.326  1.00  0.00     0.189 C 
ATOM     10  O   UNL     1      -4.752  -8.862   1.310  1.00  0.00    -0.294 OA
BRANCH   9  11
ATOM     11  C   UNL     1      -6.768  -9.715   0.419  1.00  0.00     0.234 C 
BRANCH  11  12
ATOM     12  O   UNL     1      -7.875  -8.864   0.273  1.00  0.00    -0.388 OA
ATOM     13  H   UNL     1      -7.887  -8.275   1.073  1.00  0.00     0.211 HD
ENDBRANCH  11  12
ENDBRANCH   9  11
ENDBRANCH   8   9
BRANCH   8  14
ATOM     14  O   UNL     1      -6.135  -8.119  -1.833  1.00  0.00    -0.382 OA
ATOM     15  H   UNL     1      -5.763  -7.983  -2.744  1.00  0.00     0.211 HD
ENDBRANCH   8  14
ENDBRANCH   1   8
BRANCH   1  16
ATOM     16  O   UNL     1      -3.129  -9.687  -0.683  1.00  0.00    -0.387 OA
ATOM     17  H   UNL     1      -3.652 -10.491  -0.430  1.00  0.00     0.211 HD
ENDBRANCH   1  16
TORSDOF 10
ENDMDL
MODEL 6
REMARK VINA RESULT:    -3.835      4.706      7.493
REMARK INTER + INTRA:          -6.379
REMARK INTER:                  -5.591
REMARK INTRA:                  -0.788
REMARK UNBOUND:                -0.862
REMARK SMILES O=C(CO)[C@H](O)[C@@H](O)[C@H](O)CO
REMARK SMILES IDX 7 1 9 2 11 3 12 4 10 6 5 8 2 9 1 10 3 11 4 12 6 14 8 16
REMARK H PARENT 12 5 10 7 4 13 6 15 8 17
REMARK Flexibility Score: inf
ROOT
ATOM      1  C   UNL     1      -4.740  -9.046   0.367  1.00  0.00     0.181 C 
ENDROOT
BRANCH   1   2
ATOM      2  C   UNL     1      -5.623  -9.221  -0.907  1.00  0.00     0.171 C 
BRANCH   2   3
ATOM      3  C   UNL     1      -5.227  -8.283  -2.068  1.00  0.00     0.190 C 
BRANCH   3   4
ATOM      4  O   UNL     1      -4.966  -6.992  -1.594  1.00  0.00    -0.394 OA
ATOM      5  H   UNL     1      -4.010  -6.981  -1.330  1.00  0.00     0.210 HD
ENDBRANCH   3   4
ENDBRANCH   2   3
BRANCH   2   6
ATOM      6  O   UNL     1      -5.561 -10.554  -1.351  1.00  0.00    -0.388 OA
ATOM      7  H   UNL     1      -6.061 -11.110  -0.696  1.00  0.00     0.211 HD
ENDBRANCH   2   6
ENDBRANCH   1   2
BRANCH   1   8
ATOM      8  C   UNL     1      -5.309  -9.707   1.652  1.00  0.00     0.214 C 
BRANCH   8   9
ATOM      9  C   UNL     1      -4.506  -9.369   2.892  1.00  0.00     0.189 C 
ATOM     10  O   UNL     1      -4.696  -8.298   3.449  1.00  0.00    -0.294 OA
BRANCH   9  11
ATOM     11  C   UNL     1      -3.487 -10.330   3.458  1.00  0.00     0.234 C 
BRANCH  11  12
ATOM     12  O   UNL     1      -2.676 -10.865   2.445  1.00  0.00    -0.388 OA
ATOM     13  H   UNL     1      -1.922 -10.232   2.321  1.00  0.00     0.211 HD
ENDBRANCH  11  12
ENDBRANCH   9  11
ENDBRANCH   8   9
BRANCH   8  14
ATOM     14  O   UNL     1      -5.421 -11.099   1.492  1.00  0.00    -0.382 OA
ATOM     15  H   UNL     1      -6.151 -11.402   2.093  1.00  0.00     0.211 HD
ENDBRANCH   8  14
ENDBRANCH   1   8
BRANCH   1  16
ATOM     16  O   UNL     1      -3.461  -9.582   0.127  1.00  0.00    -0.387 OA
ATOM     17  H   UNL     1      -2.975  -8.944  -0.458  1.00  0.00     0.211 HD
ENDBRANCH   1  16
TORSDOF 10
ENDMDL
MODEL 7
REMARK VINA RESULT:    -3.818      1.230      2.047
REMARK INTER + INTRA:          -6.354
REMARK INTER:                  -4.936
REMARK INTRA:                  -1.418
REMARK UNBOUND:                -0.862
REMARK SMILES O=C(CO)[C@H](O)[C@@H](O)[C@H](O)CO
REMARK SMILES IDX 7 1 9 2 11 3 12 4 10 6 5 8 2 9 1 10 3 11 4 12 6 14 8 16
REMARK H PARENT 12 5 10 7 4 13 6 15 8 17
REMARK Flexibility Score: inf
ROOT
ATOM      1  C   UNL     1      -1.915  -9.092   6.424  1.00  0.00     0.181 C 
ENDROOT
BRANCH   1   2
ATOM      2  C   UNL     1      -0.795  -8.044   6.709  1.00  0.00     0.171 C 
BRANCH   2   3
ATOM      3  C   UNL     1       0.633  -8.623   6.612  1.00  0.00     0.190 C 
BRANCH   3   4
ATOM      4  O   UNL     1       0.867  -9.149   5.336  1.00  0.00    -0.394 OA
ATOM      5  H   UNL     1       0.812 -10.135   5.427  1.00  0.00     0.210 HD
ENDBRANCH   3   4
ENDBRANCH   2   3
BRANCH   2   6
ATOM      6  O   UNL     1      -0.915  -6.964   5.817  1.00  0.00    -0.388 OA
ATOM      7  H   UNL     1      -1.373  -6.226   6.301  1.00  0.00     0.211 HD
ENDBRANCH   2   6
ENDBRANCH   1   2
BRANCH   1   8
ATOM      8  C   UNL     1      -3.322  -8.704   6.954  1.00  0.00     0.214 C 
BRANCH   8   9
ATOM      9  C   UNL     1      -4.386  -8.734   5.874  1.00  0.00     0.189 C 
ATOM     10  O   UNL     1      -4.862  -9.810   5.540  1.00  0.00    -0.294 OA
BRANCH   9  11
ATOM     11  C   UNL     1      -4.875  -7.468   5.213  1.00  0.00     0.234 C 
BRANCH  11  12
ATOM     12  O   UNL     1      -3.802  -6.660   4.807  1.00  0.00    -0.388 OA
ATOM     13  H   UNL     1      -3.656  -5.998   5.532  1.00  0.00     0.211 HD
ENDBRANCH  11  12
ENDBRANCH   9  11
ENDBRANCH   8   9
BRANCH   8  14
ATOM     14  O   UNL     1      -3.291  -7.451   7.589  1.00  0.00    -0.382 OA
ATOM     15  H   UNL     1      -2.813  -6.829   6.981  1.00  0.00     0.211 HD
ENDBRANCH   8  14
ENDBRANCH   1   8
BRANCH   1  16
ATOM     16  O   UNL     1      -2.012  -9.308   5.036  1.00  0.00    -0.387 OA
ATOM     17  H   UNL     1      -1.913  -8.428   4.590  1.00  0.00     0.211 HD
ENDBRANCH   1  16
TORSDOF 10
ENDMDL
MODEL 8
REMARK VINA RESULT:    -3.750      1.190      4.330
REMARK INTER + INTRA:          -6.256
REMARK INTER:                  -4.836
REMARK INTRA:                  -1.420
REMARK UNBOUND:                -0.862
REMARK SMILES O=C(CO)[C@H](O)[C@@H](O)[C@H](O)CO
REMARK SMILES IDX 7 1 9 2 11 3 12 4 10 6 5 8 2 9 1 10 3 11 4 12 6 14 8 16
REMARK H PARENT 12 5 10 7 4 13 6 15 8 17
REMARK Flexibility Score: inf
ROOT
ATOM      1  C   UNL     1      -1.858  -8.694   5.658  1.00  0.00     0.181 C 
ENDROOT
BRANCH   1   2
ATOM      2  C   UNL     1      -2.931  -7.562   5.713  1.00  0.00     0.171 C 
BRANCH   2   3
ATOM      3  C   UNL     1      -4.223  -7.896   4.938  1.00  0.00     0.190 C 
BRANCH   3   4
ATOM      4  O   UNL     1      -4.011  -8.967   4.062  1.00  0.00    -0.394 OA
ATOM      5  H   UNL     1      -3.841  -8.567   3.171  1.00  0.00     0.210 HD
ENDBRANCH   3   4
ENDBRANCH   2   3
BRANCH   2   6
ATOM      6  O   UNL     1      -3.258  -7.280   7.052  1.00  0.00    -0.388 OA
ATOM      7  H   UNL     1      -3.899  -7.976   7.356  1.00  0.00     0.211 HD
ENDBRANCH   2   6
ENDBRANCH   1   2
BRANCH   1   8
ATOM      8  C   UNL     1      -0.424  -8.254   6.059  1.00  0.00     0.214 C 
BRANCH   8   9
ATOM      9  C   UNL     1       0.105  -9.003   7.267  1.00  0.00     0.189 C 
ATOM     10  O   UNL     1       0.571 -10.123   7.113  1.00  0.00    -0.294 OA
BRANCH   9  11
ATOM     11  C   UNL     1       0.078  -8.392   8.647  1.00  0.00     0.234 C 
BRANCH  11  12
ATOM     12  O   UNL     1      -1.224  -8.018   9.012  1.00  0.00    -0.388 OA
ATOM     13  H   UNL     1      -1.707  -8.855   9.239  1.00  0.00     0.211 HD
ENDBRANCH  11  12
ENDBRANCH   9  11
ENDBRANCH   8   9
BRANCH   8  14
ATOM     14  O   UNL     1      -0.365  -6.865   6.267  1.00  0.00    -0.382 OA
ATOM     15  H   UNL     1      -1.190  -6.477   5.874  1.00  0.00     0.211 HD
ENDBRANCH   8  14
ENDBRANCH   1   8
BRANCH   1  16
ATOM     16  O   UNL     1      -2.248  -9.749   6.505  1.00  0.00    -0.387 OA
ATOM     17  H   UNL     1      -1.947  -9.521   7.423  1.00  0.00     0.211 HD
ENDBRANCH   1  16
TORSDOF 10
ENDMDL
MODEL 9
REMARK VINA RESULT:    -3.733      7.959      9.111
REMARK INTER + INTRA:          -6.231
REMARK INTER:                  -5.472
REMARK INTRA:                  -0.759
REMARK UNBOUND:                -0.862
REMARK SMILES O=C(CO)[C@H](O)[C@@H](O)[C@H](O)CO
REMARK SMILES IDX 7 1 9 2 11 3 12 4 10 6 5 8 2 9 1 10 3 11 4 12 6 14 8 16
REMARK H PARENT 12 5 10 7 4 13 6 15 8 17
REMARK Flexibility Score: inf
ROOT
ATOM      1  C   UNL     1      -4.213  -9.260  -2.160  1.00  0.00     0.181 C 
ENDROOT
BRANCH   1   2
ATOM      2  C   UNL     1      -2.967 -10.129  -1.802  1.00  0.00     0.171 C 
BRANCH   2   3
ATOM      3  C   UNL     1      -1.856 -10.089  -2.875  1.00  0.00     0.190 C 
BRANCH   3   4
ATOM      4  O   UNL     1      -2.378 -10.397  -4.137  1.00  0.00    -0.394 OA
ATOM      5  H   UNL     1      -1.712 -10.985  -4.576  1.00  0.00     0.210 HD
ENDBRANCH   3   4
ENDBRANCH   2   3
BRANCH   2   6
ATOM      6  O   UNL     1      -2.431  -9.710  -0.571  1.00  0.00    -0.388 OA
ATOM      7  H   UNL     1      -3.194  -9.516   0.037  1.00  0.00     0.211 HD
ENDBRANCH   2   6
ENDBRANCH   1   2
BRANCH   1   8
ATOM      8  C   UNL     1      -5.539 -10.054  -2.312  1.00  0.00     0.214 C 
BRANCH   8   9
ATOM      9  C   UNL     1      -6.766  -9.164  -2.257  1.00  0.00     0.189 C 
ATOM     10  O   UNL     1      -6.960  -8.364  -3.161  1.00  0.00    -0.294 OA
BRANCH   9  11
ATOM     11  C   UNL     1      -7.754  -9.253  -1.119  1.00  0.00     0.234 C 
BRANCH  11  12
ATOM     12  O   UNL     1      -7.148  -8.938   0.107  1.00  0.00    -0.388 OA
ATOM     13  H   UNL     1      -7.653  -9.428   0.807  1.00  0.00     0.211 HD
ENDBRANCH  11  12
ENDBRANCH   9  11
ENDBRANCH   8   9
BRANCH   8  14
ATOM     14  O   UNL     1      -5.622 -11.080  -1.356  1.00  0.00    -0.382 OA
ATOM     15  H   UNL     1      -5.992 -10.676  -0.528  1.00  0.00     0.211 HD
ENDBRANCH   8  14
ENDBRANCH   1   8
BRANCH   1  16
ATOM     16  O   UNL     1      -4.399  -8.278  -1.169  1.00  0.00    -0.387 OA
ATOM     17  H   UNL     1      -4.659  -8.744  -0.332  1.00  0.00     0.211 HD
ENDBRANCH   1  16
TORSDOF 10
ENDMDL
