MODEL 1
REMARK VINA RESULT:    -3.184      0.000      0.000
REMARK INTER + INTRA:          -3.184
REMARK INTER:                  -3.184
REMARK INTRA:                   0.000
REMARK UNBOUND:                 0.000
REMARK SMILES CC(C)=C1CC[C@H](C)CC1=O
REMARK SMILES IDX 8 1 7 2 6 3 5 4 4 5 2 6 1 7 3 8 10 9 11 10 9 11
REMARK H PARENT
REMARK Flexibility Score: inf
ROOT
ATOM      1  C   UNL     1      78.045   4.929  62.684  1.00  0.00     0.008 C 
ATOM      2  C   UNL     1      78.363   3.879  63.754  1.00  0.00    -0.006 C 
ATOM      3  C   UNL     1      79.849   3.935  64.143  1.00  0.00     0.008 C 
ATOM      4  C   UNL     1      80.208   2.824  65.139  1.00  0.00     0.039 C 
ATOM      5  C   UNL     1      79.287   2.807  66.351  1.00  0.00    -0.006 C 
ATOM      6  C   UNL     1      79.736   2.410  67.578  1.00  0.00    -0.070 C 
ATOM      7  C   UNL     1      81.163   1.955  67.781  1.00  0.00     0.039 C 
ATOM      8  C   UNL     1      78.846   2.443  68.800  1.00  0.00     0.039 C 
ATOM      9  C   UNL     1      77.853   3.132  66.090  1.00  0.00     0.159 C 
ATOM     10  O   UNL     1      76.928   2.609  66.767  1.00  0.00    -0.295 OA
ATOM     11  C   UNL     1      77.487   4.096  64.997  1.00  0.00     0.084 C 
ENDROOT
TORSDOF 0
ENDMDL
MODEL 2
REMARK VINA RESULT:    -3.144     19.313     20.596
REMARK INTER + INTRA:          -3.144
REMARK INTER:                  -3.144
REMARK INTRA:                   0.000
REMARK UNBOUND:                 0.000
REMARK SMILES CC(C)=C1CC[C@H](C)CC1=O
REMARK SMILES IDX 8 1 7 2 6 3 5 4 4 5 2 6 1 7 3 8 10 9 11 10 9 11
REMARK H PARENT
REMARK Flexibility Score: inf
ROOT
ATOM      1  C   UNL     1      68.857  -8.541  54.830  1.00  0.00     0.008 C 
ATOM      2  C   UNL     1      70.012  -8.647  53.830  1.00  0.00    -0.006 C 
ATOM      3  C   UNL     1      70.307 -10.119  53.498  1.00  0.00     0.008 C 
ATOM      4  C   UNL     1      71.527 -10.250  52.577  1.00  0.00     0.039 C 
ATOM      5  C   UNL     1      71.414  -9.382  51.332  1.00  0.00    -0.006 C 
ATOM      6  C   UNL     1      71.973  -9.765  50.146  1.00  0.00    -0.070 C 
ATOM      7  C   UNL     1      72.741 -11.062  50.025  1.00  0.00     0.039 C 
ATOM      8  C   UNL     1      71.819  -8.939  48.890  1.00  0.00     0.039 C 
ATOM      9  C   UNL     1      70.768  -8.049  51.518  1.00  0.00     0.159 C 
ATOM     10  O   UNL     1      71.115  -7.050  50.833  1.00  0.00    -0.295 OA
ATOM     11  C   UNL     1      69.684  -7.876  52.544  1.00  0.00     0.084 C 
ENDROOT
TORSDOF 0
ENDMDL
MODEL 3
REMARK VINA RESULT:    -3.110      7.683      9.722
REMARK INTER + INTRA:          -3.110
REMARK INTER:                  -3.110
REMARK INTRA:                   0.000
REMARK UNBOUND:                 0.000
REMARK SMILES CC(C)=C1CC[C@H](C)CC1=O
REMARK SMILES IDX 8 1 7 2 6 3 5 4 4 5 2 6 1 7 3 8 10 9 11 10 9 11
REMARK H PARENT
REMARK Flexibility Score: inf
ROOT
ATOM      1  C   UNL     1      82.632   2.216  59.405  1.00  0.00     0.008 C 
ATOM      2  C   UNL     1      83.024   3.594  58.861  1.00  0.00    -0.006 C 
ATOM      3  C   UNL     1      82.502   3.777  57.426  1.00  0.00     0.008 C 
ATOM      4  C   UNL     1      82.972   5.109  56.827  1.00  0.00     0.039 C 
ATOM      5  C   UNL     1      82.649   6.298  57.723  1.00  0.00    -0.006 C 
ATOM      6  C   UNL     1      82.374   7.528  57.198  1.00  0.00    -0.070 C 
ATOM      7  C   UNL     1      82.393   7.765  55.705  1.00  0.00     0.039 C 
ATOM      8  C   UNL     1      81.997   8.701  58.074  1.00  0.00     0.039 C 
ATOM      9  C   UNL     1      82.771   6.063  59.192  1.00  0.00     0.159 C 
ATOM     10  O   UNL     1      83.125   6.984  59.976  1.00  0.00    -0.295 OA
ATOM     11  C   UNL     1      82.474   4.706  59.764  1.00  0.00     0.084 C 
ENDROOT
TORSDOF 0
ENDMDL
MODEL 4
REMARK VINA RESULT:    -3.028      2.980      5.680
REMARK INTER + INTRA:          -3.028
REMARK INTER:                  -3.028
REMARK INTRA:                   0.000
REMARK UNBOUND:                 0.000
REMARK SMILES CC(C)=C1CC[C@H](C)CC1=O
REMARK SMILES IDX 8 1 7 2 6 3 5 4 4 5 2 6 1 7 3 8 10 9 11 10 9 11
REMARK H PARENT
REMARK Flexibility Score: inf
ROOT
ATOM      1  C   UNL     1      82.324  -3.269  67.930  1.00  0.00     0.008 C 
ATOM      2  C   UNL     1      81.547  -1.951  68.005  1.00  0.00    -0.006 C 
ATOM      3  C   UNL     1      82.245  -0.964  68.954  1.00  0.00     0.008 C 
ATOM      4  C   UNL     1      81.427   0.324  69.121  1.00  0.00     0.039 C 
ATOM      5  C   UNL     1      81.058   0.957  67.787  1.00  0.00    -0.006 C 
ATOM      6  C   UNL     1      80.931   2.311  67.655  1.00  0.00    -0.070 C 
ATOM      7  C   UNL     1      81.137   3.235  68.832  1.00  0.00     0.039 C 
ATOM      8  C   UNL     1      80.621   2.955  66.323  1.00  0.00     0.039 C 
ATOM      9  C   UNL     1      80.731   0.011  66.679  1.00  0.00     0.159 C 
ATOM     10  O   UNL     1      79.885   0.306  65.793  1.00  0.00    -0.295 OA
ATOM     11  C   UNL     1      81.409  -1.328  66.609  1.00  0.00     0.084 C 
ENDROOT
TORSDOF 0
ENDMDL
MODEL 5
REMARK VINA RESULT:    -3.013     19.475     20.686
REMARK INTER + INTRA:          -3.013
REMARK INTER:                  -3.013
REMARK INTRA:                   0.000
REMARK UNBOUND:                 0.000
REMARK SMILES CC(C)=C1CC[C@H](C)CC1=O
REMARK SMILES IDX 8 1 7 2 6 3 5 4 4 5 2 6 1 7 3 8 10 9 11 10 9 11
REMARK H PARENT
REMARK Flexibility Score: inf
ROOT
ATOM      1  C   UNL     1      73.246 -10.779  48.877  1.00  0.00     0.008 C 
ATOM      2  C   UNL     1      72.725  -9.919  50.032  1.00  0.00    -0.006 C 
ATOM      3  C   UNL     1      71.880  -8.751  49.499  1.00  0.00     0.008 C 
ATOM      4  C   UNL     1      71.434  -7.820  50.635  1.00  0.00     0.039 C 
ATOM      5  C   UNL     1      70.747  -8.569  51.768  1.00  0.00    -0.006 C 
ATOM      6  C   UNL     1      69.758  -7.986  52.508  1.00  0.00    -0.070 C 
ATOM      7  C   UNL     1      69.316  -6.565  52.243  1.00  0.00     0.039 C 
ATOM      8  C   UNL     1      69.030  -8.739  53.597  1.00  0.00     0.039 C 
ATOM      9  C   UNL     1      71.298  -9.919  52.090  1.00  0.00     0.159 C 
ATOM     10  O   UNL     1      71.282 -10.370  53.267  1.00  0.00    -0.295 OA
ATOM     11  C   UNL     1      71.892 -10.768  51.003  1.00  0.00     0.084 C 
ENDROOT
TORSDOF 0
ENDMDL
MODEL 6
REMARK VINA RESULT:    -3.012      7.569      8.804
REMARK INTER + INTRA:          -3.012
REMARK INTER:                  -3.012
REMARK INTRA:                   0.000
REMARK UNBOUND:                 0.000
REMARK SMILES CC(C)=C1CC[C@H](C)CC1=O
REMARK SMILES IDX 8 1 7 2 6 3 5 4 4 5 2 6 1 7 3 8 10 9 11 10 9 11
REMARK H PARENT
REMARK Flexibility Score: inf
ROOT
ATOM      1  C   UNL     1      82.583   8.552  59.065  1.00  0.00     0.008 C 
ATOM      2  C   UNL     1      82.208   7.112  58.704  1.00  0.00    -0.006 C 
ATOM      3  C   UNL     1      82.966   6.654  57.447  1.00  0.00     0.008 C 
ATOM      4  C   UNL     1      82.527   5.250  57.011  1.00  0.00     0.039 C 
ATOM      5  C   UNL     1      82.605   4.235  58.143  1.00  0.00    -0.006 C 
ATOM      6  C   UNL     1      82.891   2.922  57.901  1.00  0.00    -0.070 C 
ATOM      7  C   UNL     1      83.125   2.417  56.495  1.00  0.00     0.039 C 
ATOM      8  C   UNL     1      83.027   1.917  59.022  1.00  0.00     0.039 C 
ATOM      9  C   UNL     1      82.237   4.738  59.500  1.00  0.00     0.159 C 
ATOM     10  O   UNL     1      81.688   3.986  60.351  1.00  0.00    -0.295 OA
ATOM     11  C   UNL     1      82.513   6.166  59.874  1.00  0.00     0.084 C 
ENDROOT
TORSDOF 0
ENDMDL
MODEL 7
REMARK VINA RESULT:    -3.012      1.649      4.574
REMARK INTER + INTRA:          -3.012
REMARK INTER:                  -3.012
REMARK INTRA:                   0.000
REMARK UNBOUND:                 0.000
REMARK SMILES CC(C)=C1CC[C@H](C)CC1=O
REMARK SMILES IDX 8 1 7 2 6 3 5 4 4 5 2 6 1 7 3 8 10 9 11 10 9 11
REMARK H PARENT
REMARK Flexibility Score: inf
ROOT
ATOM      1  C   UNL     1      80.825   1.761  67.739  1.00  0.00     0.008 C 
ATOM      2  C   UNL     1      79.834   2.115  66.626  1.00  0.00    -0.006 C 
ATOM      3  C   UNL     1      78.546   2.710  67.218  1.00  0.00     0.008 C 
ATOM      4  C   UNL     1      77.502   2.977  66.125  1.00  0.00     0.039 C 
ATOM      5  C   UNL     1      78.057   3.808  64.977  1.00  0.00    -0.006 C 
ATOM      6  C   UNL     1      77.262   4.671  64.277  1.00  0.00    -0.070 C 
ATOM      7  C   UNL     1      75.794   4.824  64.602  1.00  0.00     0.039 C 
ATOM      8  C   UNL     1      77.815   5.543  63.173  1.00  0.00     0.039 C 
ATOM      9  C   UNL     1      79.474   3.535  64.595  1.00  0.00     0.159 C 
ATOM     10  O   UNL     1      79.865   3.650  63.403  1.00  0.00    -0.295 OA
ATOM     11  C   UNL     1      80.465   3.107  65.639  1.00  0.00     0.084 C 
ENDROOT
TORSDOF 0
ENDMDL
MODEL 8
REMARK VINA RESULT:    -2.981      1.687      2.593
REMARK INTER + INTRA:          -2.981
REMARK INTER:                  -2.981
REMARK INTRA:                   0.000
REMARK UNBOUND:                 0.000
REMARK SMILES CC(C)=C1CC[C@H](C)CC1=O
REMARK SMILES IDX 8 1 7 2 6 3 5 4 4 5 2 6 1 7 3 8 10 9 11 10 9 11
REMARK H PARENT
REMARK Flexibility Score: inf
ROOT
ATOM      1  C   UNL     1      79.471   3.939  63.031  1.00  0.00     0.008 C 
ATOM      2  C   UNL     1      79.302   3.851  64.551  1.00  0.00    -0.006 C 
ATOM      3  C   UNL     1      77.985   3.144  64.909  1.00  0.00     0.008 C 
ATOM      4  C   UNL     1      77.750   3.137  66.426  1.00  0.00     0.039 C 
ATOM      5  C   UNL     1      78.940   2.584  67.198  1.00  0.00    -0.006 C 
ATOM      6  C   UNL     1      78.771   1.906  68.372  1.00  0.00    -0.070 C 
ATOM      7  C   UNL     1      77.396   1.691  68.962  1.00  0.00     0.039 C 
ATOM      8  C   UNL     1      79.939   1.304  69.119  1.00  0.00     0.039 C 
ATOM      9  C   UNL     1      80.289   2.929  66.660  1.00  0.00     0.159 C 
ATOM     10  O   UNL     1      81.279   3.085  67.424  1.00  0.00    -0.295 OA
ATOM     11  C   UNL     1      80.486   3.105  65.182  1.00  0.00     0.084 C 
ENDROOT
TORSDOF 0
ENDMDL
MODEL 9
REMARK VINA RESULT:    -2.945      7.846      9.503
REMARK INTER + INTRA:          -2.945
REMARK INTER:                  -2.945
REMARK INTRA:                   0.000
REMARK UNBOUND:                 0.000
REMARK SMILES CC(C)=C1CC[C@H](C)CC1=O
REMARK SMILES IDX 8 1 7 2 6 3 5 4 4 5 2 6 1 7 3 8 10 9 11 10 9 11
REMARK H PARENT
REMARK Flexibility Score: inf
ROOT
ATOM      1  C   UNL     1      80.263   3.769  54.766  1.00  0.00     0.008 C 
ATOM      2  C   UNL     1      81.302   4.458  55.656  1.00  0.00    -0.006 C 
ATOM      3  C   UNL     1      80.990   5.958  55.789  1.00  0.00     0.008 C 
ATOM      4  C   UNL     1      82.077   6.684  56.593  1.00  0.00     0.039 C 
ATOM      5  C   UNL     1      82.351   6.022  57.936  1.00  0.00    -0.006 C 
ATOM      6  C   UNL     1      82.737   6.754  59.023  1.00  0.00    -0.070 C 
ATOM      7  C   UNL     1      82.925   8.251  58.933  1.00  0.00     0.039 C 
ATOM      8  C   UNL     1      82.957   6.115  60.375  1.00  0.00     0.039 C 
ATOM      9  C   UNL     1      82.288   4.530  57.956  1.00  0.00     0.159 C 
ATOM     10  O   UNL     1      83.022   3.853  58.725  1.00  0.00    -0.295 OA
ATOM     11  C   UNL     1      81.340   3.805  57.044  1.00  0.00     0.084 C 
ENDROOT
TORSDOF 0
ENDMDL
