MODEL 1
REMARK VINA RESULT:    -5.788      0.000      0.000
REMARK INTER + INTRA:          -8.773
REMARK INTER:                  -7.819
REMARK INTRA:                  -0.955
REMARK UNBOUND:                -0.955
REMARK SMILES O=c1c(-c2ccc(O)cc2)coc2c([C@H]3O[C@@H](CO)[C@@H](O)[C@H](O)[C@H]3O)c(O)ccc12
REMARK SMILES IDX 3 1 11 2 12 3 13 4 30 5 2 6 1 7 29 8 28 9 26 10 14 11 4 12
REMARK SMILES IDX 5 13 6 14 7 15 10 16 9 17 8 18 15 20 24 21 16 22 22 23 17 24
REMARK SMILES IDX 20 25 25 26 23 28 18 30 19 31 21 33 27 35
REMARK H PARENT 8 19 25 27 23 29 19 32 21 34 27 36
REMARK Flexibility Score: inf
ROOT
ATOM      1  C   UNL     1      13.904 -17.095  20.261  1.00  0.00     0.065 A 
ATOM      2  C   UNL     1      14.208 -15.771  19.913  1.00  0.00     0.208 A 
ATOM      3  O   UNL     1      15.363 -15.221  20.263  1.00  0.00    -0.463 OA
ATOM      4  C   UNL     1      16.298 -15.869  20.956  1.00  0.00     0.147 A 
ATOM      5  C   UNL     1      16.075 -17.210  21.348  1.00  0.00     0.066 A 
ATOM      6  C   UNL     1      14.856 -17.820  21.000  1.00  0.00     0.200 A 
ATOM      7  O   UNL     1      14.610 -19.004  21.363  1.00  0.00    -0.288 OA
ATOM      8  C   UNL     1      17.066 -17.896  22.066  1.00  0.00     0.020 A 
ATOM      9  C   UNL     1      18.270 -17.268  22.375  1.00  0.00     0.047 A 
ATOM     10  C   UNL     1      18.505 -15.943  21.987  1.00  0.00     0.125 A 
ATOM     11  C   UNL     1      17.507 -15.217  21.293  1.00  0.00     0.069 A 
ENDROOT
BRANCH   1  12
ATOM     12  C   UNL     1      12.606 -17.689  19.852  1.00  0.00    -0.011 A 
ATOM     13  C   UNL     1      11.675 -18.095  20.824  1.00  0.00     0.013 A 
ATOM     14  C   UNL     1      10.448 -18.647  20.442  1.00  0.00     0.047 A 
ATOM     15  C   UNL     1      10.136 -18.795  19.084  1.00  0.00     0.115 A 
ATOM     16  C   UNL     1      12.281 -17.835  18.492  1.00  0.00     0.013 A 
ATOM     17  C   UNL     1      11.054 -18.386  18.113  1.00  0.00     0.047 A 
BRANCH  15  18
ATOM     18  O   UNL     1       8.917 -19.343  18.692  1.00  0.00    -0.508 OA
ATOM     19  H   UNL     1       8.622 -19.339  17.722  1.00  0.00     0.293 HD
ENDBRANCH  15  18
ENDBRANCH   1  12
BRANCH  11  20
ATOM     20  C   UNL     1      17.741 -13.780  20.840  1.00  0.00     0.188 C 
ATOM     21  C   UNL     1      18.450 -13.750  19.462  1.00  0.00     0.179 C 
ATOM     22  O   UNL     1      18.491 -13.070  21.813  1.00  0.00    -0.362 OA
ATOM     23  C   UNL     1      18.750 -12.298  19.029  1.00  0.00     0.177 C 
ATOM     24  C   UNL     1      18.548 -11.690  21.493  1.00  0.00     0.176 C 
ATOM     25  C   UNL     1      19.351 -11.467  20.185  1.00  0.00     0.177 C 
BRANCH  21  26
ATOM     26  O   UNL     1      19.663 -14.462  19.521  1.00  0.00    -0.387 OA
ATOM     27  H   UNL     1      19.625 -15.041  20.327  1.00  0.00     0.211 HD
ENDBRANCH  21  26
BRANCH  23  28
ATOM     28  O   UNL     1      17.610 -11.676  18.487  1.00  0.00    -0.387 OA
ATOM     29  H   UNL     1      16.899 -11.660  19.176  1.00  0.00     0.211 HD
ENDBRANCH  23  28
BRANCH  24  30
ATOM     30  C   UNL     1      19.168 -10.942  22.680  1.00  0.00     0.191 C 
BRANCH  30  31
ATOM     31  O   UNL     1      19.812  -9.778  22.239  1.00  0.00    -0.394 OA
ATOM     32  H   UNL     1      19.137  -9.270  21.719  1.00  0.00     0.210 HD
ENDBRANCH  30  31
ENDBRANCH  24  30
BRANCH  25  33
ATOM     33  O   UNL     1      20.692 -11.853  20.369  1.00  0.00    -0.388 OA
ATOM     34  H   UNL     1      21.081 -12.005  19.468  1.00  0.00     0.211 HD
ENDBRANCH  25  33
ENDBRANCH  11  20
BRANCH  10  35
ATOM     35  O   UNL     1      19.736 -15.357  22.283  1.00  0.00    -0.507 OA
ATOM     36  H   UNL     1      19.805 -14.511  22.837  1.00  0.00     0.293 HD
ENDBRANCH  10  35
TORSDOF 9
ENDMDL
MODEL 2
REMARK VINA RESULT:    -5.374      9.668     11.313
REMARK INTER + INTRA:          -8.213
REMARK INTER:                  -7.267
REMARK INTRA:                  -0.947
REMARK UNBOUND:                -0.955
REMARK SMILES O=c1c(-c2ccc(O)cc2)coc2c([C@H]3O[C@@H](CO)[C@@H](O)[C@H](O)[C@H]3O)c(O)ccc12
REMARK SMILES IDX 3 1 11 2 12 3 13 4 30 5 2 6 1 7 29 8 28 9 26 10 14 11 4 12
REMARK SMILES IDX 5 13 6 14 7 15 10 16 9 17 8 18 15 20 24 21 16 22 22 23 17 24
REMARK SMILES IDX 20 25 25 26 23 28 18 30 19 31 21 33 27 35
REMARK H PARENT 8 19 25 27 23 29 19 32 21 34 27 36
REMARK Flexibility Score: inf
ROOT
ATOM      1  C   UNL     1      14.488 -14.718  11.426  1.00  0.00     0.065 A 
ATOM      2  C   UNL     1      15.761 -14.132  11.455  1.00  0.00     0.208 A 
ATOM      3  O   UNL     1      16.785 -14.693  10.825  1.00  0.00    -0.463 OA
ATOM      4  C   UNL     1      16.684 -15.828  10.136  1.00  0.00     0.147 A 
ATOM      5  C   UNL     1      15.435 -16.487  10.054  1.00  0.00     0.066 A 
ATOM      6  C   UNL     1      14.330 -15.923  10.717  1.00  0.00     0.200 A 
ATOM      7  O   UNL     1      13.209 -16.503  10.692  1.00  0.00    -0.288 OA
ATOM      8  C   UNL     1      15.327 -17.676   9.317  1.00  0.00     0.020 A 
ATOM      9  C   UNL     1      16.436 -18.194   8.654  1.00  0.00     0.047 A 
ATOM     10  C   UNL     1      17.676 -17.548   8.723  1.00  0.00     0.125 A 
ATOM     11  C   UNL     1      17.822 -16.366   9.490  1.00  0.00     0.069 A 
ENDROOT
BRANCH   1  12
ATOM     12  C   UNL     1      13.357 -14.068  12.134  1.00  0.00    -0.011 A 
ATOM     13  C   UNL     1      12.821 -12.860  11.653  1.00  0.00     0.013 A 
ATOM     14  C   UNL     1      11.749 -12.249  12.313  1.00  0.00     0.047 A 
ATOM     15  C   UNL     1      11.198 -12.841  13.457  1.00  0.00     0.115 A 
ATOM     16  C   UNL     1      12.793 -14.658  13.279  1.00  0.00     0.013 A 
ATOM     17  C   UNL     1      11.721 -14.046  13.935  1.00  0.00     0.047 A 
BRANCH  15  18
ATOM     18  O   UNL     1      10.131 -12.241  14.122  1.00  0.00    -0.508 OA
ATOM     19  H   UNL     1      10.120 -11.247  14.317  1.00  0.00     0.293 HD
ENDBRANCH  15  18
ENDBRANCH   1  12
BRANCH  11  20
ATOM     20  C   UNL     1      19.154 -15.628   9.568  1.00  0.00     0.188 C 
ATOM     21  C   UNL     1      19.380 -14.773   8.295  1.00  0.00     0.179 C 
ATOM     22  O   UNL     1      20.218 -16.548   9.758  1.00  0.00    -0.362 OA
ATOM     23  C   UNL     1      20.759 -14.077   8.339  1.00  0.00     0.177 C 
ATOM     24  C   UNL     1      21.430 -15.862  10.025  1.00  0.00     0.176 C 
ATOM     25  C   UNL     1      21.877 -15.045   8.784  1.00  0.00     0.177 C 
BRANCH  21  26
ATOM     26  O   UNL     1      19.321 -15.582   7.146  1.00  0.00    -0.387 OA
ATOM     27  H   UNL     1      20.128 -16.160   7.151  1.00  0.00     0.211 HD
ENDBRANCH  21  26
BRANCH  23  28
ATOM     28  O   UNL     1      20.727 -12.922   9.144  1.00  0.00    -0.387 OA
ATOM     29  H   UNL     1      19.791 -12.601   9.202  1.00  0.00     0.211 HD
ENDBRANCH  23  28
BRANCH  24  30
ATOM     30  C   UNL     1      22.488 -16.892  10.443  1.00  0.00     0.191 C 
BRANCH  30  31
ATOM     31  O   UNL     1      22.447 -18.004   9.592  1.00  0.00    -0.394 OA
ATOM     32  H   UNL     1      22.875 -17.717   8.744  1.00  0.00     0.210 HD
ENDBRANCH  30  31
ENDBRANCH  24  30
BRANCH  25  33
ATOM     33  O   UNL     1      22.175 -15.911   7.716  1.00  0.00    -0.388 OA
ATOM     34  H   UNL     1      22.939 -15.515   7.220  1.00  0.00     0.211 HD
ENDBRANCH  25  33
ENDBRANCH  11  20
BRANCH  10  35
ATOM     35  O   UNL     1      18.759 -18.077   8.019  1.00  0.00    -0.507 OA
ATOM     36  H   UNL     1      18.632 -18.738   7.262  1.00  0.00     0.293 HD
ENDBRANCH  10  35
TORSDOF 9
ENDMDL
MODEL 3
REMARK VINA RESULT:    -5.308      3.036      6.260
REMARK INTER + INTRA:          -8.125
REMARK INTER:                  -7.196
REMARK INTRA:                  -0.929
REMARK UNBOUND:                -0.955
REMARK SMILES O=c1c(-c2ccc(O)cc2)coc2c([C@H]3O[C@@H](CO)[C@@H](O)[C@H](O)[C@H]3O)c(O)ccc12
REMARK SMILES IDX 3 1 11 2 12 3 13 4 30 5 2 6 1 7 29 8 28 9 26 10 14 11 4 12
REMARK SMILES IDX 5 13 6 14 7 15 10 16 9 17 8 18 15 20 24 21 16 22 22 23 17 24
REMARK SMILES IDX 20 25 25 26 23 28 18 30 19 31 21 33 27 35
REMARK H PARENT 8 19 25 27 23 29 19 32 21 34 27 36
REMARK Flexibility Score: inf
ROOT
ATOM      1  C   UNL     1      17.697 -13.664  19.801  1.00  0.00     0.065 A 
ATOM      2  C   UNL     1      19.096 -13.576  19.775  1.00  0.00     0.208 A 
ATOM      3  O   UNL     1      19.705 -12.397  19.765  1.00  0.00    -0.463 OA
ATOM      4  C   UNL     1      19.050 -11.238  19.779  1.00  0.00     0.147 A 
ATOM      5  C   UNL     1      17.636 -11.234  19.806  1.00  0.00     0.066 A 
ATOM      6  C   UNL     1      16.958 -12.466  19.809  1.00  0.00     0.200 A 
ATOM      7  O   UNL     1      15.696 -12.499  19.800  1.00  0.00    -0.288 OA
ATOM      8  C   UNL     1      16.948 -10.012  19.834  1.00  0.00     0.020 A 
ATOM      9  C   UNL     1      17.651  -8.810  19.853  1.00  0.00     0.047 A 
ATOM     10  C   UNL     1      19.051  -8.801  19.832  1.00  0.00     0.125 A 
ATOM     11  C   UNL     1      19.770 -10.019  19.767  1.00  0.00     0.069 A 
ENDROOT
BRANCH   1  12
ATOM     12  C   UNL     1      17.039 -14.994  19.818  1.00  0.00    -0.011 A 
ATOM     13  C   UNL     1      16.484 -15.525  18.640  1.00  0.00     0.013 A 
ATOM     14  C   UNL     1      15.871 -16.782  18.650  1.00  0.00     0.047 A 
ATOM     15  C   UNL     1      15.809 -17.525  19.836  1.00  0.00     0.115 A 
ATOM     16  C   UNL     1      16.978 -15.750  21.002  1.00  0.00     0.013 A 
ATOM     17  C   UNL     1      16.366 -17.006  21.009  1.00  0.00     0.047 A 
BRANCH  15  18
ATOM     18  O   UNL     1      15.201 -18.778  19.858  1.00  0.00    -0.508 OA
ATOM     19  H   UNL     1      14.574 -19.075  19.120  1.00  0.00     0.293 HD
ENDBRANCH  15  18
ENDBRANCH   1  12
BRANCH  11  20
ATOM     20  C   UNL     1      21.295 -10.043  19.763  1.00  0.00     0.188 C 
ATOM     21  C   UNL     1      21.847  -9.913  21.205  1.00  0.00     0.179 C 
ATOM     22  O   UNL     1      21.803  -9.014  18.929  1.00  0.00    -0.362 OA
ATOM     23  C   UNL     1      23.391  -9.869  21.200  1.00  0.00     0.177 C 
ATOM     24  C   UNL     1      23.205  -9.149  18.766  1.00  0.00     0.176 C 
ATOM     25  C   UNL     1      23.934  -8.914  20.114  1.00  0.00     0.177 C 
BRANCH  21  26
ATOM     26  O   UNL     1      21.364  -8.737  21.809  1.00  0.00    -0.387 OA
ATOM     27  H   UNL     1      21.887  -8.599  22.642  1.00  0.00     0.211 HD
ENDBRANCH  21  26
BRANCH  23  28
ATOM     28  O   UNL     1      23.943 -11.158  21.075  1.00  0.00    -0.387 OA
ATOM     29  H   UNL     1      23.327 -11.716  20.536  1.00  0.00     0.211 HD
ENDBRANCH  23  28
BRANCH  24  30
ATOM     30  C   UNL     1      23.665  -8.160  17.687  1.00  0.00     0.191 C 
BRANCH  30  31
ATOM     31  O   UNL     1      22.557  -7.577  17.058  1.00  0.00    -0.394 OA
ATOM     32  H   UNL     1      22.331  -8.168  16.293  1.00  0.00     0.210 HD
ENDBRANCH  30  31
ENDBRANCH  24  30
BRANCH  25  33
ATOM     33  O   UNL     1      23.744  -7.588  20.543  1.00  0.00    -0.388 OA
ATOM     34  H   UNL     1      23.521  -7.620  21.511  1.00  0.00     0.211 HD
ENDBRANCH  25  33
ENDBRANCH  11  20
BRANCH  10  35
ATOM     35  O   UNL     1      19.724  -7.580  19.886  1.00  0.00    -0.507 OA
ATOM     36  H   UNL     1      20.010  -7.090  19.047  1.00  0.00     0.293 HD
ENDBRANCH  10  35
TORSDOF 9
ENDMDL
MODEL 4
REMARK VINA RESULT:    -5.144      2.293      4.192
REMARK INTER + INTRA:          -7.902
REMARK INTER:                  -7.029
REMARK INTRA:                  -0.874
REMARK UNBOUND:                -0.955
REMARK SMILES O=c1c(-c2ccc(O)cc2)coc2c([C@H]3O[C@@H](CO)[C@@H](O)[C@H](O)[C@H]3O)c(O)ccc12
REMARK SMILES IDX 3 1 11 2 12 3 13 4 30 5 2 6 1 7 29 8 28 9 26 10 14 11 4 12
REMARK SMILES IDX 5 13 6 14 7 15 10 16 9 17 8 18 15 20 24 21 16 22 22 23 17 24
REMARK SMILES IDX 20 25 25 26 23 28 18 30 19 31 21 33 27 35
REMARK H PARENT 8 19 25 27 23 29 19 32 21 34 27 36
REMARK Flexibility Score: inf
ROOT
ATOM      1  C   UNL     1      15.133 -15.811  20.283  1.00  0.00     0.065 A 
ATOM      2  C   UNL     1      16.376 -16.364  20.625  1.00  0.00     0.208 A 
ATOM      3  O   UNL     1      17.489 -15.648  20.533  1.00  0.00    -0.463 OA
ATOM      4  C   UNL     1      17.510 -14.383  20.120  1.00  0.00     0.147 A 
ATOM      5  C   UNL     1      16.301 -13.746  19.755  1.00  0.00     0.066 A 
ATOM      6  C   UNL     1      15.102 -14.479  19.833  1.00  0.00     0.200 A 
ATOM      7  O   UNL     1      14.010 -13.951  19.483  1.00  0.00    -0.288 OA
ATOM      8  C   UNL     1      16.323 -12.408  19.332  1.00  0.00     0.020 A 
ATOM      9  C   UNL     1      17.524 -11.705  19.289  1.00  0.00     0.047 A 
ATOM     10  C   UNL     1      18.727 -12.323  19.653  1.00  0.00     0.125 A 
ATOM     11  C   UNL     1      18.738 -13.683  20.048  1.00  0.00     0.069 A 
ENDROOT
BRANCH   1  12
ATOM     12  C   UNL     1      13.901 -16.631  20.400  1.00  0.00    -0.011 A 
ATOM     13  C   UNL     1      13.331 -17.220  19.257  1.00  0.00     0.013 A 
ATOM     14  C   UNL     1      12.175 -17.999  19.365  1.00  0.00     0.047 A 
ATOM     15  C   UNL     1      11.578 -18.204  20.616  1.00  0.00     0.115 A 
ATOM     16  C   UNL     1      13.299 -16.846  21.652  1.00  0.00     0.013 A 
ATOM     17  C   UNL     1      12.144 -17.627  21.757  1.00  0.00     0.047 A 
BRANCH  15  18
ATOM     18  O   UNL     1      10.427 -18.978  20.736  1.00  0.00    -0.508 OA
ATOM     19  H   UNL     1       9.604 -18.794  20.173  1.00  0.00     0.293 HD
ENDBRANCH  15  18
ENDBRANCH   1  12
BRANCH  11  20
ATOM     20  C   UNL     1      20.028 -14.378  20.469  1.00  0.00     0.188 C 
ATOM     21  C   UNL     1      20.262 -14.219  21.993  1.00  0.00     0.179 C 
ATOM     22  O   UNL     1      21.127 -13.869  19.731  1.00  0.00    -0.362 OA
ATOM     23  C   UNL     1      21.602 -14.863  22.413  1.00  0.00     0.177 C 
ATOM     24  C   UNL     1      22.294 -14.638  19.974  1.00  0.00     0.176 C 
ATOM     25  C   UNL     1      22.748 -14.485  21.449  1.00  0.00     0.177 C 
BRANCH  21  26
ATOM     26  O   UNL     1      20.287 -12.857  22.344  1.00  0.00    -0.387 OA
ATOM     27  H   UNL     1      20.860 -12.772  23.151  1.00  0.00     0.211 HD
ENDBRANCH  21  26
BRANCH  23  28
ATOM     28  O   UNL     1      21.482 -16.259  22.549  1.00  0.00    -0.387 OA
ATOM     29  H   UNL     1      20.545 -16.476  22.782  1.00  0.00     0.211 HD
ENDBRANCH  23  28
BRANCH  24  30
ATOM     30  C   UNL     1      23.383 -14.192  18.990  1.00  0.00     0.191 C 
BRANCH  30  31
ATOM     31  O   UNL     1      23.472 -15.094  17.922  1.00  0.00    -0.394 OA
ATOM     32  H   UNL     1      23.470 -14.545  17.096  1.00  0.00     0.210 HD
ENDBRANCH  30  31
ENDBRANCH  24  30
BRANCH  25  33
ATOM     33  O   UNL     1      23.130 -13.155  21.702  1.00  0.00    -0.388 OA
ATOM     34  H   UNL     1      22.421 -12.746  22.264  1.00  0.00     0.211 HD
ENDBRANCH  25  33
ENDBRANCH  11  20
BRANCH  10  35
ATOM     35  O   UNL     1      19.907 -11.579  19.629  1.00  0.00    -0.507 OA
ATOM     36  H   UNL     1      20.809 -12.012  19.465  1.00  0.00     0.293 HD
ENDBRANCH  10  35
TORSDOF 9
ENDMDL
MODEL 5
REMARK VINA RESULT:    -4.936      2.064      8.480
REMARK INTER + INTRA:          -7.621
REMARK INTER:                  -6.798
REMARK INTRA:                  -0.823
REMARK UNBOUND:                -0.955
REMARK SMILES O=c1c(-c2ccc(O)cc2)coc2c([C@H]3O[C@@H](CO)[C@@H](O)[C@H](O)[C@H]3O)c(O)ccc12
REMARK SMILES IDX 3 1 11 2 12 3 13 4 30 5 2 6 1 7 29 8 28 9 26 10 14 11 4 12
REMARK SMILES IDX 5 13 6 14 7 15 10 16 9 17 8 18 15 20 24 21 16 22 22 23 17 24
REMARK SMILES IDX 20 25 25 26 23 28 18 30 19 31 21 33 27 35
REMARK H PARENT 8 19 25 27 23 29 19 32 21 34 27 36
REMARK Flexibility Score: inf
ROOT
ATOM      1  C   UNL     1      16.801 -13.088  20.081  1.00  0.00     0.065 A 
ATOM      2  C   UNL     1      15.419 -13.072  19.841  1.00  0.00     0.208 A 
ATOM      3  O   UNL     1      14.686 -14.166  20.001  1.00  0.00    -0.463 OA
ATOM      4  C   UNL     1      15.194 -15.333  20.392  1.00  0.00     0.147 A 
ATOM      5  C   UNL     1      16.579 -15.439  20.657  1.00  0.00     0.066 A 
ATOM      6  C   UNL     1      17.388 -14.300  20.489  1.00  0.00     0.200 A 
ATOM      7  O   UNL     1      18.633 -14.369  20.685  1.00  0.00    -0.288 OA
ATOM      8  C   UNL     1      17.111 -16.666  21.082  1.00  0.00     0.020 A 
ATOM      9  C   UNL     1      16.278 -17.768  21.260  1.00  0.00     0.047 A 
ATOM     10  C   UNL     1      14.904 -17.674  21.006  1.00  0.00     0.125 A 
ATOM     11  C   UNL     1      14.348 -16.457  20.542  1.00  0.00     0.069 A 
ENDROOT
BRANCH   1  12
ATOM     12  C   UNL     1      17.599 -11.850  19.900  1.00  0.00    -0.011 A 
ATOM     13  C   UNL     1      17.943 -11.411  18.609  1.00  0.00     0.013 A 
ATOM     14  C   UNL     1      18.688 -10.240  18.435  1.00  0.00     0.047 A 
ATOM     15  C   UNL     1      19.092  -9.491  19.548  1.00  0.00     0.115 A 
ATOM     16  C   UNL     1      18.003 -11.088  21.011  1.00  0.00     0.013 A 
ATOM     17  C   UNL     1      18.746  -9.917  20.834  1.00  0.00     0.047 A 
BRANCH  15  18
ATOM     18  O   UNL     1      19.833  -8.323  19.387  1.00  0.00    -0.508 OA
ATOM     19  H   UNL     1      20.578  -8.258  18.703  1.00  0.00     0.293 HD
ENDBRANCH  15  18
ENDBRANCH   1  12
BRANCH  11  20
ATOM     20  C   UNL     1      12.853 -16.318  20.276  1.00  0.00     0.188 C 
ATOM     21  C   UNL     1      12.079 -16.112  21.603  1.00  0.00     0.179 C 
ATOM     22  O   UNL     1      12.367 -17.451  19.574  1.00  0.00    -0.362 OA
ATOM     23  C   UNL     1      10.557 -16.038  21.346  1.00  0.00     0.177 C 
ATOM     24  C   UNL     1      11.029 -17.245  19.155  1.00  0.00     0.176 C 
ATOM     25  C   UNL     1      10.084 -17.147  20.381  1.00  0.00     0.177 C 
BRANCH  21  26
ATOM     26  O   UNL     1      12.335 -17.176  22.487  1.00  0.00    -0.387 OA
ATOM     27  H   UNL     1      11.860 -17.973  22.133  1.00  0.00     0.211 HD
ENDBRANCH  21  26
BRANCH  23  28
ATOM     28  O   UNL     1      10.173 -14.761  20.892  1.00  0.00    -0.387 OA
ATOM     29  H   UNL     1      10.555 -14.080  21.502  1.00  0.00     0.211 HD
ENDBRANCH  23  28
BRANCH  24  30
ATOM     30  C   UNL     1      10.632 -18.392  18.216  1.00  0.00     0.191 C 
BRANCH  30  31
ATOM     31  O   UNL     1      11.434 -18.379  17.067  1.00  0.00    -0.394 OA
ATOM     32  H   UNL     1      12.315 -18.742  17.342  1.00  0.00     0.210 HD
ENDBRANCH  30  31
ENDBRANCH  24  30
BRANCH  25  33
ATOM     33  O   UNL     1      10.063 -18.370  21.075  1.00  0.00    -0.388 OA
ATOM     34  H   UNL     1       9.517 -19.004  20.539  1.00  0.00     0.211 HD
ENDBRANCH  25  33
ENDBRANCH  11  20
BRANCH  10  35
ATOM     35  O   UNL     1      14.094 -18.788  21.227  1.00  0.00    -0.507 OA
ATOM     36  H   UNL     1      13.820 -19.408  20.474  1.00  0.00     0.293 HD
ENDBRANCH  10  35
TORSDOF 9
ENDMDL
MODEL 6
REMARK VINA RESULT:    -4.905     11.150     14.815
REMARK INTER + INTRA:          -7.580
REMARK INTER:                  -6.666
REMARK INTRA:                  -0.914
REMARK UNBOUND:                -0.955
REMARK SMILES O=c1c(-c2ccc(O)cc2)coc2c([C@H]3O[C@@H](CO)[C@@H](O)[C@H](O)[C@H]3O)c(O)ccc12
REMARK SMILES IDX 3 1 11 2 12 3 13 4 30 5 2 6 1 7 29 8 28 9 26 10 14 11 4 12
REMARK SMILES IDX 5 13 6 14 7 15 10 16 9 17 8 18 15 20 24 21 16 22 22 23 17 24
REMARK SMILES IDX 20 25 25 26 23 28 18 30 19 31 21 33 27 35
REMARK H PARENT 8 19 25 27 23 29 19 32 21 34 27 36
REMARK Flexibility Score: inf
ROOT
ATOM      1  C   UNL     1      15.086  -6.252  12.633  1.00  0.00     0.065 A 
ATOM      2  C   UNL     1      14.849  -5.984  11.278  1.00  0.00     0.208 A 
ATOM      3  O   UNL     1      14.651  -6.969  10.412  1.00  0.00    -0.463 OA
ATOM      4  C   UNL     1      14.664  -8.256  10.756  1.00  0.00     0.147 A 
ATOM      5  C   UNL     1      14.896  -8.617  12.104  1.00  0.00     0.066 A 
ATOM      6  C   UNL     1      15.118  -7.597  13.047  1.00  0.00     0.200 A 
ATOM      7  O   UNL     1      15.361  -7.886  14.252  1.00  0.00    -0.288 OA
ATOM      8  C   UNL     1      14.896  -9.972  12.467  1.00  0.00     0.020 A 
ATOM      9  C   UNL     1      14.651 -10.955  11.512  1.00  0.00     0.047 A 
ATOM     10  C   UNL     1      14.414 -10.610  10.175  1.00  0.00     0.125 A 
ATOM     11  C   UNL     1      14.445  -9.252   9.775  1.00  0.00     0.069 A 
ENDROOT
BRANCH   1  12
ATOM     12  C   UNL     1      15.299  -5.132  13.584  1.00  0.00    -0.011 A 
ATOM     13  C   UNL     1      16.567  -4.538  13.708  1.00  0.00     0.013 A 
ATOM     14  C   UNL     1      16.768  -3.477  14.596  1.00  0.00     0.047 A 
ATOM     15  C   UNL     1      15.703  -2.994  15.367  1.00  0.00     0.115 A 
ATOM     16  C   UNL     1      14.234  -4.636  14.357  1.00  0.00     0.013 A 
ATOM     17  C   UNL     1      14.438  -3.575  15.244  1.00  0.00     0.047 A 
BRANCH  15  18
ATOM     18  O   UNL     1      15.892  -1.937  16.255  1.00  0.00    -0.508 OA
ATOM     19  H   UNL     1      15.251  -1.153  16.289  1.00  0.00     0.293 HD
ENDBRANCH  15  18
ENDBRANCH   1  12
BRANCH  11  20
ATOM     20  C   UNL     1      14.171  -8.843   8.332  1.00  0.00     0.188 C 
ATOM     21  C   UNL     1      12.661  -8.570   8.118  1.00  0.00     0.179 C 
ATOM     22  O   UNL     1      14.639  -9.840   7.438  1.00  0.00    -0.362 OA
ATOM     23  C   UNL     1      12.369  -8.221   6.642  1.00  0.00     0.177 C 
ATOM     24  C   UNL     1      14.565  -9.385   6.097  1.00  0.00     0.176 C 
ATOM     25  C   UNL     1      13.087  -9.184   5.672  1.00  0.00     0.177 C 
BRANCH  21  26
ATOM     26  O   UNL     1      11.905  -9.703   8.471  1.00  0.00    -0.387 OA
ATOM     27  H   UNL     1      12.472 -10.261   9.065  1.00  0.00     0.211 HD
ENDBRANCH  21  26
BRANCH  23  28
ATOM     28  O   UNL     1      12.680  -6.877   6.359  1.00  0.00    -0.387 OA
ATOM     29  H   UNL     1      13.277  -6.849   5.569  1.00  0.00     0.211 HD
ENDBRANCH  23  28
BRANCH  24  30
ATOM     30  C   UNL     1      15.286 -10.400   5.200  1.00  0.00     0.191 C 
BRANCH  30  31
ATOM     31  O   UNL     1      16.674 -10.254   5.319  1.00  0.00    -0.394 OA
ATOM     32  H   UNL     1      17.052 -10.486   4.431  1.00  0.00     0.210 HD
ENDBRANCH  30  31
ENDBRANCH  24  30
BRANCH  25  33
ATOM     33  O   UNL     1      12.410 -10.417   5.675  1.00  0.00    -0.388 OA
ATOM     34  H   UNL     1      11.664 -10.342   6.326  1.00  0.00     0.211 HD
ENDBRANCH  25  33
ENDBRANCH  11  20
BRANCH  10  35
ATOM     35  O   UNL     1      14.139 -11.618   9.251  1.00  0.00    -0.507 OA
ATOM     36  H   UNL     1      14.341 -11.508   8.265  1.00  0.00     0.293 HD
ENDBRANCH  10  35
TORSDOF 9
ENDMDL
MODEL 7
REMARK VINA RESULT:    -4.884     11.088     14.691
REMARK INTER + INTRA:          -7.552
REMARK INTER:                  -6.802
REMARK INTRA:                  -0.750
REMARK UNBOUND:                -0.955
REMARK SMILES O=c1c(-c2ccc(O)cc2)coc2c([C@H]3O[C@@H](CO)[C@@H](O)[C@H](O)[C@H]3O)c(O)ccc12
REMARK SMILES IDX 3 1 11 2 12 3 13 4 30 5 2 6 1 7 29 8 28 9 26 10 14 11 4 12
REMARK SMILES IDX 5 13 6 14 7 15 10 16 9 17 8 18 15 20 24 21 16 22 22 23 17 24
REMARK SMILES IDX 20 25 25 26 23 28 18 30 19 31 21 33 27 35
REMARK H PARENT 8 19 25 27 23 29 19 32 21 34 27 36
REMARK Flexibility Score: inf
ROOT
ATOM      1  C   UNL     1      14.536  -5.007  14.246  1.00  0.00     0.065 A 
ATOM      2  C   UNL     1      14.519  -4.384  12.990  1.00  0.00     0.208 A 
ATOM      3  O   UNL     1      14.664  -5.090  11.876  1.00  0.00    -0.463 OA
ATOM      4  C   UNL     1      14.832  -6.411  11.867  1.00  0.00     0.147 A 
ATOM      5  C   UNL     1      14.861  -7.120  13.091  1.00  0.00     0.066 A 
ATOM      6  C   UNL     1      14.719  -6.401  14.292  1.00  0.00     0.200 A 
ATOM      7  O   UNL     1      14.773  -6.999  15.402  1.00  0.00    -0.288 OA
ATOM      8  C   UNL     1      15.025  -8.514  13.079  1.00  0.00     0.020 A 
ATOM      9  C   UNL     1      15.141  -9.197  11.872  1.00  0.00     0.047 A 
ATOM     10  C   UNL     1      15.108  -8.507  10.654  1.00  0.00     0.125 A 
ATOM     11  C   UNL     1      14.979  -7.096  10.638  1.00  0.00     0.069 A 
ENDROOT
BRANCH   1  12
ATOM     12  C   UNL     1      14.367  -4.195  15.478  1.00  0.00    -0.011 A 
ATOM     13  C   UNL     1      15.312  -3.210  15.813  1.00  0.00     0.013 A 
ATOM     14  C   UNL     1      15.151  -2.438  16.968  1.00  0.00     0.047 A 
ATOM     15  C   UNL     1      14.040  -2.638  17.798  1.00  0.00     0.115 A 
ATOM     16  C   UNL     1      13.252  -4.385  16.313  1.00  0.00     0.013 A 
ATOM     17  C   UNL     1      13.092  -3.611  17.466  1.00  0.00     0.047 A 
BRANCH  15  18
ATOM     18  O   UNL     1      13.869  -1.875  18.951  1.00  0.00    -0.508 OA
ATOM     19  H   UNL     1      13.445  -2.264  19.785  1.00  0.00     0.293 HD
ENDBRANCH  15  18
ENDBRANCH   1  12
BRANCH  11  20
ATOM     20  C   UNL     1      14.920  -6.318   9.328  1.00  0.00     0.188 C 
ATOM     21  C   UNL     1      13.497  -6.383   8.718  1.00  0.00     0.179 C 
ATOM     22  O   UNL     1      15.888  -6.812   8.416  1.00  0.00    -0.362 OA
ATOM     23  C   UNL     1      13.449  -5.653   7.357  1.00  0.00     0.177 C 
ATOM     24  C   UNL     1      15.973  -5.975   7.274  1.00  0.00     0.176 C 
ATOM     25  C   UNL     1      14.652  -6.027   6.463  1.00  0.00     0.177 C 
BRANCH  21  26
ATOM     26  O   UNL     1      13.109  -7.721   8.525  1.00  0.00    -0.387 OA
ATOM     27  H   UNL     1      13.634  -8.275   9.161  1.00  0.00     0.211 HD
ENDBRANCH  21  26
BRANCH  23  28
ATOM     28  O   UNL     1      13.345  -4.259   7.524  1.00  0.00    -0.387 OA
ATOM     29  H   UNL     1      12.407  -3.989   7.353  1.00  0.00     0.211 HD
ENDBRANCH  23  28
BRANCH  24  30
ATOM     30  C   UNL     1      17.177  -6.420   6.435  1.00  0.00     0.191 C 
BRANCH  30  31
ATOM     31  O   UNL     1      18.243  -6.785   7.269  1.00  0.00    -0.394 OA
ATOM     32  H   UNL     1      17.857  -7.378   7.965  1.00  0.00     0.210 HD
ENDBRANCH  30  31
ENDBRANCH  24  30
BRANCH  25  33
ATOM     33  O   UNL     1      14.448  -7.321   5.951  1.00  0.00    -0.388 OA
ATOM     34  H   UNL     1      14.784  -7.964   6.629  1.00  0.00     0.211 HD
ENDBRANCH  25  33
ENDBRANCH  11  20
BRANCH  10  35
ATOM     35  O   UNL     1      15.192  -9.227   9.462  1.00  0.00    -0.507 OA
ATOM     36  H   UNL     1      14.736 -10.124   9.346  1.00  0.00     0.293 HD
ENDBRANCH  10  35
TORSDOF 9
ENDMDL
MODEL 8
REMARK VINA RESULT:    -4.840      2.312      3.063
REMARK INTER + INTRA:          -7.493
REMARK INTER:                  -6.313
REMARK INTRA:                  -1.180
REMARK UNBOUND:                -0.955
REMARK SMILES O=c1c(-c2ccc(O)cc2)coc2c([C@H]3O[C@@H](CO)[C@@H](O)[C@H](O)[C@H]3O)c(O)ccc12
REMARK SMILES IDX 3 1 11 2 12 3 13 4 30 5 2 6 1 7 29 8 28 9 26 10 14 11 4 12
REMARK SMILES IDX 5 13 6 14 7 15 10 16 9 17 8 18 15 20 24 21 16 22 22 23 17 24
REMARK SMILES IDX 20 25 25 26 23 28 18 30 19 31 21 33 27 35
REMARK H PARENT 8 19 25 27 23 29 19 32 21 34 27 36
REMARK Flexibility Score: inf
ROOT
ATOM      1  C   UNL     1      13.529 -15.830  19.561  1.00  0.00     0.065 A 
ATOM      2  C   UNL     1      13.220 -14.497  19.865  1.00  0.00     0.208 A 
ATOM      3  O   UNL     1      14.170 -13.574  19.933  1.00  0.00    -0.463 OA
ATOM      4  C   UNL     1      15.459 -13.838  19.722  1.00  0.00     0.147 A 
ATOM      5  C   UNL     1      15.860 -15.158  19.410  1.00  0.00     0.066 A 
ATOM      6  C   UNL     1      14.878 -16.163  19.338  1.00  0.00     0.200 A 
ATOM      7  O   UNL     1      15.206 -17.357  19.094  1.00  0.00    -0.288 OA
ATOM      8  C   UNL     1      17.216 -15.432  19.176  1.00  0.00     0.020 A 
ATOM      9  C   UNL     1      18.159 -14.409  19.233  1.00  0.00     0.047 A 
ATOM     10  C   UNL     1      17.773 -13.097  19.536  1.00  0.00     0.125 A 
ATOM     11  C   UNL     1      16.416 -12.800  19.812  1.00  0.00     0.069 A 
ENDROOT
BRANCH   1  12
ATOM     12  C   UNL     1      12.447 -16.843  19.486  1.00  0.00    -0.011 A 
ATOM     13  C   UNL     1      11.964 -17.453  20.657  1.00  0.00     0.013 A 
ATOM     14  C   UNL     1      10.938 -18.401  20.591  1.00  0.00     0.047 A 
ATOM     15  C   UNL     1      10.379 -18.747  19.354  1.00  0.00     0.115 A 
ATOM     16  C   UNL     1      11.876 -17.192  18.249  1.00  0.00     0.013 A 
ATOM     17  C   UNL     1      10.850 -18.139  18.186  1.00  0.00     0.047 A 
BRANCH  15  18
ATOM     18  O   UNL     1       9.358 -19.690  19.275  1.00  0.00    -0.508 OA
ATOM     19  H   UNL     1       8.970 -19.978  18.384  1.00  0.00     0.293 HD
ENDBRANCH  15  18
ENDBRANCH   1  12
BRANCH  11  20
ATOM     20  C   UNL     1      15.962 -11.378  20.125  1.00  0.00     0.188 C 
ATOM     21  C   UNL     1      15.713 -10.584  18.818  1.00  0.00     0.179 C 
ATOM     22  O   UNL     1      16.918 -10.723  20.944  1.00  0.00    -0.362 OA
ATOM     23  C   UNL     1      15.317  -9.123  19.130  1.00  0.00     0.177 C 
ATOM     24  C   UNL     1      16.417  -9.477  21.398  1.00  0.00     0.176 C 
ATOM     25  C   UNL     1      16.231  -8.500  20.208  1.00  0.00     0.177 C 
BRANCH  21  26
ATOM     26  O   UNL     1      16.873 -10.577  18.022  1.00  0.00    -0.387 OA
ATOM     27  H   UNL     1      17.115  -9.627  17.865  1.00  0.00     0.211 HD
ENDBRANCH  21  26
BRANCH  23  28
ATOM     28  O   UNL     1      13.959  -9.022  19.484  1.00  0.00    -0.387 OA
ATOM     29  H   UNL     1      13.891  -8.542  20.348  1.00  0.00     0.211 HD
ENDBRANCH  23  28
BRANCH  24  30
ATOM     30  C   UNL     1      17.385  -8.920  22.450  1.00  0.00     0.191 C 
BRANCH  30  31
ATOM     31  O   UNL     1      18.708  -9.231  22.107  1.00  0.00    -0.394 OA
ATOM     32  H   UNL     1      19.069  -9.765  22.861  1.00  0.00     0.210 HD
ENDBRANCH  30  31
ENDBRANCH  24  30
BRANCH  25  33
ATOM     33  O   UNL     1      17.477  -8.201  19.626  1.00  0.00    -0.388 OA
ATOM     34  H   UNL     1      17.302  -7.882  18.703  1.00  0.00     0.211 HD
ENDBRANCH  25  33
ENDBRANCH  11  20
BRANCH  10  35
ATOM     35  O   UNL     1      18.739 -12.091  19.551  1.00  0.00    -0.507 OA
ATOM     36  H   UNL     1      19.009 -11.596  18.709  1.00  0.00     0.293 HD
ENDBRANCH  10  35
TORSDOF 9
ENDMDL
MODEL 9
REMARK VINA RESULT:    -4.786      3.891      8.298
REMARK INTER + INTRA:          -7.420
REMARK INTER:                  -6.241
REMARK INTRA:                  -1.179
REMARK UNBOUND:                -0.955
REMARK SMILES O=c1c(-c2ccc(O)cc2)coc2c([C@H]3O[C@@H](CO)[C@@H](O)[C@H](O)[C@H]3O)c(O)ccc12
REMARK SMILES IDX 3 1 11 2 12 3 13 4 30 5 2 6 1 7 29 8 28 9 26 10 14 11 4 12
REMARK SMILES IDX 5 13 6 14 7 15 10 16 9 17 8 18 15 20 24 21 16 22 22 23 17 24
REMARK SMILES IDX 20 25 25 26 23 28 18 30 19 31 21 33 27 35
REMARK H PARENT 8 19 25 27 23 29 19 32 21 34 27 36
REMARK Flexibility Score: inf
ROOT
ATOM      1  C   UNL     1      15.714  -9.577  18.970  1.00  0.00     0.065 A 
ATOM      2  C   UNL     1      14.767 -10.536  19.359  1.00  0.00     0.208 A 
ATOM      3  O   UNL     1      15.127 -11.789  19.607  1.00  0.00    -0.463 OA
ATOM      4  C   UNL     1      16.383 -12.219  19.509  1.00  0.00     0.147 A 
ATOM      5  C   UNL     1      17.403 -11.318  19.123  1.00  0.00     0.066 A 
ATOM      6  C   UNL     1      17.055  -9.984  18.844  1.00  0.00     0.200 A 
ATOM      7  O   UNL     1      17.935  -9.162  18.465  1.00  0.00    -0.288 OA
ATOM      8  C   UNL     1      18.728 -11.770  19.032  1.00  0.00     0.020 A 
ATOM      9  C   UNL     1      19.042 -13.092  19.338  1.00  0.00     0.047 A 
ATOM     10  C   UNL     1      18.042 -13.992  19.726  1.00  0.00     0.125 A 
ATOM     11  C   UNL     1      16.691 -13.571  19.791  1.00  0.00     0.069 A 
ENDROOT
BRANCH   1  12
ATOM     12  C   UNL     1      15.287  -8.181  18.703  1.00  0.00    -0.011 A 
ATOM     13  C   UNL     1      14.987  -7.770  17.392  1.00  0.00     0.013 A 
ATOM     14  C   UNL     1      14.576  -6.457  17.139  1.00  0.00     0.047 A 
ATOM     15  C   UNL     1      14.456  -5.542  18.192  1.00  0.00     0.115 A 
ATOM     16  C   UNL     1      15.157  -7.257  19.755  1.00  0.00     0.013 A 
ATOM     17  C   UNL     1      14.745  -5.946  19.499  1.00  0.00     0.047 A 
BRANCH  15  18
ATOM     18  O   UNL     1      14.047  -4.232  17.952  1.00  0.00    -0.508 OA
ATOM     19  H   UNL     1      14.591  -3.440  18.274  1.00  0.00     0.293 HD
ENDBRANCH  15  18
ENDBRANCH   1  12
BRANCH  11  20
ATOM     20  C   UNL     1      15.583 -14.522  20.230  1.00  0.00     0.188 C 
ATOM     21  C   UNL     1      15.469 -14.552  21.775  1.00  0.00     0.179 C 
ATOM     22  O   UNL     1      15.813 -15.822  19.711  1.00  0.00    -0.362 OA
ATOM     23  C   UNL     1      14.393 -15.565  22.227  1.00  0.00     0.177 C 
ATOM     24  C   UNL     1      14.695 -16.662  19.950  1.00  0.00     0.176 C 
ATOM     25  C   UNL     1      14.514 -16.906  21.471  1.00  0.00     0.177 C 
BRANCH  21  26
ATOM     26  O   UNL     1      16.701 -14.918  22.348  1.00  0.00    -0.387 OA
ATOM     27  H   UNL     1      17.397 -14.799  21.650  1.00  0.00     0.211 HD
ENDBRANCH  21  26
BRANCH  23  28
ATOM     28  O   UNL     1      13.098 -15.024  22.114  1.00  0.00    -0.387 OA
ATOM     29  H   UNL     1      12.767 -14.804  23.021  1.00  0.00     0.211 HD
ENDBRANCH  23  28
BRANCH  24  30
ATOM     30  C   UNL     1      14.900 -17.972  19.180  1.00  0.00     0.191 C 
BRANCH  30  31
ATOM     31  O   UNL     1      16.248 -18.353  19.217  1.00  0.00    -0.394 OA
ATOM     32  H   UNL     1      16.753 -17.619  18.782  1.00  0.00     0.210 HD
ENDBRANCH  30  31
ENDBRANCH  24  30
BRANCH  25  33
ATOM     33  O   UNL     1      15.617 -17.615  21.982  1.00  0.00    -0.388 OA
ATOM     34  H   UNL     1      15.273 -18.234  22.678  1.00  0.00     0.211 HD
ENDBRANCH  25  33
ENDBRANCH  11  20
BRANCH  10  35
ATOM     35  O   UNL     1      18.396 -15.300  20.058  1.00  0.00    -0.507 OA
ATOM     36  H   UNL     1      18.938 -15.514  20.887  1.00  0.00     0.293 HD
ENDBRANCH  10  35
TORSDOF 9
ENDMDL
