MODEL 1
REMARK VINA RESULT:    -4.082      0.000      0.000
REMARK INTER + INTRA:          -5.009
REMARK INTER:                  -4.918
REMARK INTRA:                  -0.091
REMARK UNBOUND:                -0.091
REMARK SMILES CC[C@H](C)[C@H]([NH3+])C(=O)[O-]
REMARK SMILES IDX 3 1 4 2 5 3 6 4 7 8 8 9 9 10 2 11 1 12
REMARK H PARENT 6 5 6 6 6 7
REMARK Flexibility Score: inf
ROOT
ATOM      1  C   UNL     1      63.275   2.767  -2.887  1.00  0.00     0.050 C 
ATOM      2  C   UNL     1      62.852   3.030  -4.347  1.00  0.00     0.014 C 
ENDROOT
BRANCH   1   3
ATOM      3  C   UNL     1      64.816   2.575  -2.726  1.00  0.00     0.230 C 
BRANCH   3   4
ATOM      4  N   UNL     1      65.204   2.379  -1.321  1.00  0.00    -0.350 N 
ATOM      5  H   UNL     1      65.942   1.642  -1.251  1.00  0.00     0.345 HD
ATOM      6  H   UNL     1      64.388   2.105  -0.728  1.00  0.00     0.345 HD
ATOM      7  H   UNL     1      65.602   3.270  -0.943  1.00  0.00     0.345 HD
ENDBRANCH   3   4
BRANCH   3   8
ATOM      8  C   UNL     1      65.609   3.698  -3.351  1.00  0.00     0.099 C 
ATOM      9  O   UNL     1      65.508   4.878  -2.921  1.00  0.00    -0.544 OA
ATOM     10  O   UNL     1      66.436   3.439  -4.437  1.00  0.00    -0.544 OA
ENDBRANCH   3   8
ENDBRANCH   1   3
BRANCH   1  11
ATOM     11  C   UNL     1      62.511   1.558  -2.292  1.00  0.00     0.006 C 
ATOM     12  C   UNL     1      60.990   1.689  -2.414  1.00  0.00     0.004 C 
ENDBRANCH   1  11
TORSDOF 4
ENDMDL
MODEL 2
REMARK VINA RESULT:    -4.000      6.455      7.765
REMARK INTER + INTRA:          -4.909
REMARK INTER:                  -4.819
REMARK INTRA:                  -0.091
REMARK UNBOUND:                -0.091
REMARK SMILES CC[C@H](C)[C@H]([NH3+])C(=O)[O-]
REMARK SMILES IDX 3 1 4 2 5 3 6 4 7 8 8 9 9 10 2 11 1 12
REMARK H PARENT 6 5 6 6 6 7
REMARK Flexibility Score: inf
ROOT
ATOM      1  C   UNL     1      59.250   0.654  -0.408  1.00  0.00     0.050 C 
ATOM      2  C   UNL     1      60.320   0.929   0.668  1.00  0.00     0.014 C 
ENDROOT
BRANCH   1   3
ATOM      3  C   UNL     1      58.718  -0.814  -0.377  1.00  0.00     0.230 C 
BRANCH   3   4
ATOM      4  N   UNL     1      58.869  -1.483  -1.677  1.00  0.00    -0.350 N 
ATOM      5  H   UNL     1      59.564  -0.971  -2.268  1.00  0.00     0.345 HD
ATOM      6  H   UNL     1      57.961  -1.543  -2.190  1.00  0.00     0.345 HD
ATOM      7  H   UNL     1      59.228  -2.455  -1.528  1.00  0.00     0.345 HD
ENDBRANCH   3   4
BRANCH   3   8
ATOM      8  C   UNL     1      57.293  -0.905   0.114  1.00  0.00     0.099 C 
ATOM      9  O   UNL     1      56.993  -0.571   1.291  1.00  0.00    -0.544 OA
ATOM     10  O   UNL     1      56.302  -1.394  -0.728  1.00  0.00    -0.544 OA
ENDBRANCH   3   8
ENDBRANCH   1   3
BRANCH   1  11
ATOM     11  C   UNL     1      59.773   1.014  -1.821  1.00  0.00     0.006 C 
ATOM     12  C   UNL     1      61.213   1.531  -1.815  1.00  0.00     0.004 C 
ENDBRANCH   1  11
TORSDOF 4
ENDMDL
MODEL 3
REMARK VINA RESULT:    -3.814      2.141      2.564
REMARK INTER + INTRA:          -4.685
REMARK INTER:                  -4.607
REMARK INTRA:                  -0.078
REMARK UNBOUND:                -0.091
REMARK SMILES CC[C@H](C)[C@H]([NH3+])C(=O)[O-]
REMARK SMILES IDX 3 1 4 2 5 3 6 4 7 8 8 9 9 10 2 11 1 12
REMARK H PARENT 6 5 6 6 6 7
REMARK Flexibility Score: inf
ROOT
ATOM      1  C   UNL     1      64.385   3.684  -2.995  1.00  0.00     0.050 C 
ATOM      2  C   UNL     1      63.190   3.074  -3.754  1.00  0.00     0.014 C 
ENDROOT
BRANCH   1   3
ATOM      3  C   UNL     1      65.328   4.520  -3.918  1.00  0.00     0.230 C 
BRANCH   3   4
ATOM      4  N   UNL     1      66.595   3.825  -4.187  1.00  0.00    -0.350 N 
ATOM      5  H   UNL     1      66.843   3.906  -5.200  1.00  0.00     0.345 HD
ATOM      6  H   UNL     1      66.546   2.815  -3.925  1.00  0.00     0.345 HD
ATOM      7  H   UNL     1      67.362   4.272  -3.632  1.00  0.00     0.345 HD
ENDBRANCH   3   4
BRANCH   3   8
ATOM      8  C   UNL     1      65.580   5.910  -3.383  1.00  0.00     0.099 C 
ATOM      9  O   UNL     1      64.623   6.645  -3.020  1.00  0.00    -0.544 OA
ATOM     10  O   UNL     1      66.877   6.402  -3.320  1.00  0.00    -0.544 OA
ENDBRANCH   3   8
ENDBRANCH   1   3
BRANCH   1  11
ATOM     11  C   UNL     1      65.187   2.592  -2.243  1.00  0.00     0.006 C 
ATOM     12  C   UNL     1      64.351   1.354  -1.912  1.00  0.00     0.004 C 
ENDBRANCH   1  11
TORSDOF 4
ENDMDL
MODEL 4
REMARK VINA RESULT:    -3.772      6.576      7.589
REMARK INTER + INTRA:          -4.636
REMARK INTER:                  -4.660
REMARK INTRA:                   0.024
REMARK UNBOUND:                -0.091
REMARK SMILES CC[C@H](C)[C@H]([NH3+])C(=O)[O-]
REMARK SMILES IDX 3 1 4 2 5 3 6 4 7 8 8 9 9 10 2 11 1 12
REMARK H PARENT 6 5 6 6 6 7
REMARK Flexibility Score: inf
ROOT
ATOM      1  C   UNL     1      59.130   0.702  -0.112  1.00  0.00     0.050 C 
ATOM      2  C   UNL     1      60.036   0.774   1.135  1.00  0.00     0.014 C 
ENDROOT
BRANCH   1   3
ATOM      3  C   UNL     1      58.103  -0.472  -0.050  1.00  0.00     0.230 C 
BRANCH   3   4
ATOM      4  N   UNL     1      57.366  -0.494   1.222  1.00  0.00    -0.350 N 
ATOM      5  H   UNL     1      56.742   0.342   1.292  1.00  0.00     0.345 HD
ATOM      6  H   UNL     1      58.011  -0.511   2.043  1.00  0.00     0.345 HD
ATOM      7  H   UNL     1      56.763  -1.349   1.260  1.00  0.00     0.345 HD
ENDBRANCH   3   4
BRANCH   3   8
ATOM      8  C   UNL     1      58.737  -1.813  -0.329  1.00  0.00     0.099 C 
ATOM      9  O   UNL     1      58.579  -2.384  -1.441  1.00  0.00    -0.544 OA
ATOM     10  O   UNL     1      59.477  -2.447   0.661  1.00  0.00    -0.544 OA
ENDBRANCH   3   8
ENDBRANCH   1   3
BRANCH   1  11
ATOM     11  C   UNL     1      59.972   0.622  -1.410  1.00  0.00     0.006 C 
ATOM     12  C   UNL     1      59.699   1.779  -2.375  1.00  0.00     0.004 C 
ENDBRANCH   1  11
TORSDOF 4
ENDMDL
MODEL 5
REMARK VINA RESULT:    -3.647      7.117      8.547
REMARK INTER + INTRA:          -4.485
REMARK INTER:                  -4.361
REMARK INTRA:                  -0.124
REMARK UNBOUND:                -0.091
REMARK SMILES CC[C@H](C)[C@H]([NH3+])C(=O)[O-]
REMARK SMILES IDX 3 1 4 2 5 3 6 4 7 8 8 9 9 10 2 11 1 12
REMARK H PARENT 6 5 6 6 6 7
REMARK Flexibility Score: inf
ROOT
ATOM      1  C   UNL     1      58.224  -0.229   1.476  1.00  0.00     0.050 C 
ATOM      2  C   UNL     1      57.759   0.082   2.913  1.00  0.00     0.014 C 
ENDROOT
BRANCH   1   3
ATOM      3  C   UNL     1      58.208  -1.756   1.148  1.00  0.00     0.230 C 
BRANCH   3   4
ATOM      4  N   UNL     1      59.530  -2.373   1.330  1.00  0.00    -0.350 N 
ATOM      5  H   UNL     1      59.546  -2.937   2.211  1.00  0.00     0.345 HD
ATOM      6  H   UNL     1      60.290  -1.658   1.366  1.00  0.00     0.345 HD
ATOM      7  H   UNL     1      59.724  -3.020   0.530  1.00  0.00     0.345 HD
ENDBRANCH   3   4
BRANCH   3   8
ATOM      8  C   UNL     1      57.662  -2.047  -0.229  1.00  0.00     0.099 C 
ATOM      9  O   UNL     1      56.427  -1.963  -0.465  1.00  0.00    -0.544 OA
ATOM     10  O   UNL     1      58.523  -2.447  -1.243  1.00  0.00    -0.544 OA
ENDBRANCH   3   8
ENDBRANCH   1   3
BRANCH   1  11
ATOM     11  C   UNL     1      59.625   0.373   1.200  1.00  0.00     0.006 C 
ATOM     12  C   UNL     1      59.781   0.899  -0.229  1.00  0.00     0.004 C 
ENDBRANCH   1  11
TORSDOF 4
ENDMDL
MODEL 6
REMARK VINA RESULT:    -3.635      6.986      8.099
REMARK INTER + INTRA:          -4.470
REMARK INTER:                  -4.404
REMARK INTRA:                  -0.066
REMARK UNBOUND:                -0.091
REMARK SMILES CC[C@H](C)[C@H]([NH3+])C(=O)[O-]
REMARK SMILES IDX 3 1 4 2 5 3 6 4 7 8 8 9 9 10 2 11 1 12
REMARK H PARENT 6 5 6 6 6 7
REMARK Flexibility Score: inf
ROOT
ATOM      1  C   UNL     1      58.799  -0.370   1.239  1.00  0.00     0.050 C 
ATOM      2  C   UNL     1      59.909   0.701   1.253  1.00  0.00     0.014 C 
ENDROOT
BRANCH   1   3
ATOM      3  C   UNL     1      58.034  -0.436  -0.120  1.00  0.00     0.230 C 
BRANCH   3   4
ATOM      4  N   UNL     1      56.651  -0.908   0.047  1.00  0.00    -0.350 N 
ATOM      5  H   UNL     1      56.333  -0.748   1.031  1.00  0.00     0.345 HD
ATOM      6  H   UNL     1      56.557  -1.922  -0.184  1.00  0.00     0.345 HD
ATOM      7  H   UNL     1      56.020  -0.365  -0.587  1.00  0.00     0.345 HD
ENDBRANCH   3   4
BRANCH   3   8
ATOM      8  C   UNL     1      58.762  -1.258  -1.157  1.00  0.00     0.099 C 
ATOM      9  O   UNL     1      58.595  -2.505  -1.226  1.00  0.00    -0.544 OA
ATOM     10  O   UNL     1      59.655  -0.642  -2.025  1.00  0.00    -0.544 OA
ENDBRANCH   3   8
ENDBRANCH   1   3
BRANCH   1  11
ATOM     11  C   UNL     1      57.809  -0.163   2.412  1.00  0.00     0.006 C 
ATOM     12  C   UNL     1      57.751  -1.358   3.368  1.00  0.00     0.004 C 
ENDBRANCH   1  11
TORSDOF 4
ENDMDL
MODEL 7
REMARK VINA RESULT:    -3.610      1.920      2.755
REMARK INTER + INTRA:          -4.441
REMARK INTER:                  -4.345
REMARK INTRA:                  -0.096
REMARK UNBOUND:                -0.091
REMARK SMILES CC[C@H](C)[C@H]([NH3+])C(=O)[O-]
REMARK SMILES IDX 3 1 4 2 5 3 6 4 7 8 8 9 9 10 2 11 1 12
REMARK H PARENT 6 5 6 6 6 7
REMARK Flexibility Score: inf
ROOT
ATOM      1  C   UNL     1      62.981   2.374  -3.222  1.00  0.00     0.050 C 
ATOM      2  C   UNL     1      61.784   1.781  -2.452  1.00  0.00     0.014 C 
ENDROOT
BRANCH   1   3
ATOM      3  C   UNL     1      64.132   2.854  -2.280  1.00  0.00     0.230 C 
BRANCH   3   4
ATOM      4  N   UNL     1      64.637   4.182  -2.659  1.00  0.00    -0.350 N 
ATOM      5  H   UNL     1      65.192   4.117  -3.543  1.00  0.00     0.345 HD
ATOM      6  H   UNL     1      65.232   4.599  -1.908  1.00  0.00     0.345 HD
ATOM      7  H   UNL     1      63.829   4.824  -2.834  1.00  0.00     0.345 HD
ENDBRANCH   3   4
BRANCH   3   8
ATOM      8  C   UNL     1      65.260   1.854  -2.188  1.00  0.00     0.099 C 
ATOM      9  O   UNL     1      66.194   1.855  -3.034  1.00  0.00    -0.544 OA
ATOM     10  O   UNL     1      65.256   0.898  -1.180  1.00  0.00    -0.544 OA
ENDBRANCH   3   8
ENDBRANCH   1   3
BRANCH   1  11
ATOM     11  C   UNL     1      62.531   3.522  -4.160  1.00  0.00     0.006 C 
ATOM     12  C   UNL     1      62.628   3.159  -5.643  1.00  0.00     0.004 C 
ENDBRANCH   1  11
TORSDOF 4
ENDMDL
MODEL 8
REMARK VINA RESULT:    -3.602      1.727      2.403
REMARK INTER + INTRA:          -4.430
REMARK INTER:                  -4.350
REMARK INTRA:                  -0.081
REMARK UNBOUND:                -0.091
REMARK SMILES CC[C@H](C)[C@H]([NH3+])C(=O)[O-]
REMARK SMILES IDX 3 1 4 2 5 3 6 4 7 8 8 9 9 10 2 11 1 12
REMARK H PARENT 6 5 6 6 6 7
REMARK Flexibility Score: inf
ROOT
ATOM      1  C   UNL     1      64.302   2.959  -3.223  1.00  0.00     0.050 C 
ATOM      2  C   UNL     1      64.846   2.327  -1.926  1.00  0.00     0.014 C 
ENDROOT
BRANCH   1   3
ATOM      3  C   UNL     1      64.579   4.494  -3.314  1.00  0.00     0.230 C 
BRANCH   3   4
ATOM      4  N   UNL     1      63.604   5.180  -4.174  1.00  0.00    -0.350 N 
ATOM      5  H   UNL     1      62.755   5.438  -3.621  1.00  0.00     0.345 HD
ATOM      6  H   UNL     1      63.319   4.589  -4.987  1.00  0.00     0.345 HD
ATOM      7  H   UNL     1      64.028   6.064  -4.543  1.00  0.00     0.345 HD
ENDBRANCH   3   4
BRANCH   3   8
ATOM      8  C   UNL     1      65.992   4.803  -3.749  1.00  0.00     0.099 C 
ATOM      9  O   UNL     1      66.624   4.012  -4.499  1.00  0.00    -0.544 OA
ATOM     10  O   UNL     1      66.620   5.954  -3.290  1.00  0.00    -0.544 OA
ENDBRANCH   3   8
ENDBRANCH   1   3
BRANCH   1  11
ATOM     11  C   UNL     1      62.790   2.668  -3.396  1.00  0.00     0.006 C 
ATOM     12  C   UNL     1      62.243   1.692  -2.352  1.00  0.00     0.004 C 
ENDBRANCH   1  11
TORSDOF 4
ENDMDL
MODEL 9
REMARK VINA RESULT:    -3.440      4.146      4.920
REMARK INTER + INTRA:          -4.235
REMARK INTER:                  -4.143
REMARK INTRA:                  -0.091
REMARK UNBOUND:                -0.091
REMARK SMILES CC[C@H](C)[C@H]([NH3+])C(=O)[O-]
REMARK SMILES IDX 3 1 4 2 5 3 6 4 7 8 8 9 9 10 2 11 1 12
REMARK H PARENT 6 5 6 6 6 7
REMARK Flexibility Score: inf
ROOT
ATOM      1  C   UNL     1      61.596   2.093  -3.375  1.00  0.00     0.050 C 
ATOM      2  C   UNL     1      62.279   3.249  -4.134  1.00  0.00     0.014 C 
ENDROOT
BRANCH   1   3
ATOM      3  C   UNL     1      60.085   2.364  -3.087  1.00  0.00     0.230 C 
BRANCH   3   4
ATOM      4  N   UNL     1      59.464   1.271  -2.324  1.00  0.00    -0.350 N 
ATOM      5  H   UNL     1      59.370   1.542  -1.318  1.00  0.00     0.345 HD
ATOM      6  H   UNL     1      60.018   0.388  -2.391  1.00  0.00     0.345 HD
ATOM      7  H   UNL     1      58.505   1.087  -2.699  1.00  0.00     0.345 HD
ENDBRANCH   3   4
BRANCH   3   8
ATOM      8  C   UNL     1      59.299   2.659  -4.342  1.00  0.00     0.099 C 
ATOM      9  O   UNL     1      58.610   3.710  -4.440  1.00  0.00    -0.544 OA
ATOM     10  O   UNL     1      59.304   1.749  -5.391  1.00  0.00    -0.544 OA
ENDBRANCH   3   8
ENDBRANCH   1   3
BRANCH   1  11
ATOM     11  C   UNL     1      62.350   1.763  -2.062  1.00  0.00     0.006 C 
ATOM     12  C   UNL     1      63.871   1.756  -2.229  1.00  0.00     0.004 C 
ENDBRANCH   1  11
TORSDOF 4
ENDMDL
