MODEL 1
REMARK VINA RESULT:    -4.421      0.000      0.000
REMARK INTER + INTRA:          -6.551
REMARK INTER:                  -6.101
REMARK INTRA:                  -0.451
REMARK UNBOUND:                -0.451
REMARK SMILES OC[C@@H](O)[C@H](O)[C@@H](O)CO
REMARK SMILES IDX 5 1 3 2 2 3 1 4 4 6 7 8 9 9 10 10 8 12 6 14
REMARK H PARENT 1 5 4 7 10 11 8 13 6 15
REMARK Flexibility Score: inf
ROOT
ATOM      1  C   UNL     1      20.808  19.441  21.887  1.00  0.00     0.176 C 
ENDROOT
BRANCH   1   2
ATOM      2  C   UNL     1      21.891  20.325  22.571  1.00  0.00     0.171 C 
BRANCH   2   3
ATOM      3  C   UNL     1      22.443  21.454  21.685  1.00  0.00     0.190 C 
BRANCH   3   4
ATOM      4  O   UNL     1      23.843  21.442  21.686  1.00  0.00    -0.394 OA
ATOM      5  H   UNL     1      24.126  22.234  22.212  1.00  0.00     0.210 HD
ENDBRANCH   3   4
ENDBRANCH   2   3
BRANCH   2   6
ATOM      6  O   UNL     1      21.406  20.873  23.768  1.00  0.00    -0.388 OA
ATOM      7  H   UNL     1      20.744  21.571  23.522  1.00  0.00     0.211 HD
ENDBRANCH   2   6
ENDBRANCH   1   2
BRANCH   1   8
ATOM      8  C   UNL     1      20.302  18.224  22.720  1.00  0.00     0.171 C 
BRANCH   8   9
ATOM      9  C   UNL     1      19.206  17.396  22.012  1.00  0.00     0.190 C 
BRANCH   9  10
ATOM     10  O   UNL     1      19.369  17.417  20.620  1.00  0.00    -0.394 OA
ATOM     11  H   UNL     1      20.305  17.701  20.446  1.00  0.00     0.210 HD
ENDBRANCH   9  10
ENDBRANCH   8   9
BRANCH   8  12
ATOM     12  O   UNL     1      19.812  18.672  23.960  1.00  0.00    -0.388 OA
ATOM     13  H   UNL     1      19.127  19.369  23.777  1.00  0.00     0.211 HD
ENDBRANCH   8  12
ENDBRANCH   1   8
BRANCH   1  14
ATOM     14  O   UNL     1      19.715  20.258  21.549  1.00  0.00    -0.388 OA
ATOM     15  H   UNL     1      19.724  21.037  22.165  1.00  0.00     0.211 HD
ENDBRANCH   1  14
TORSDOF 9
ENDMDL
MODEL 2
REMARK VINA RESULT:    -4.340      3.000      4.923
REMARK INTER + INTRA:          -6.439
REMARK INTER:                  -5.787
REMARK INTRA:                  -0.653
REMARK UNBOUND:                -0.451
REMARK SMILES OC[C@@H](O)[C@H](O)[C@@H](O)CO
REMARK SMILES IDX 5 1 3 2 2 3 1 4 4 6 7 8 9 9 10 10 8 12 6 14
REMARK H PARENT 1 5 4 7 10 11 8 13 6 15
REMARK Flexibility Score: inf
ROOT
ATOM      1  C   UNL     1      21.455  23.048  22.900  1.00  0.00     0.176 C 
ENDROOT
BRANCH   1   2
ATOM      2  C   UNL     1      21.741  21.571  22.503  1.00  0.00     0.171 C 
BRANCH   2   3
ATOM      3  C   UNL     1      22.998  21.376  21.639  1.00  0.00     0.190 C 
BRANCH   3   4
ATOM      4  O   UNL     1      24.084  22.073  22.184  1.00  0.00    -0.394 OA
ATOM      5  H   UNL     1      23.701  22.709  22.842  1.00  0.00     0.210 HD
ENDBRANCH   3   4
ENDBRANCH   2   3
BRANCH   2   6
ATOM      6  O   UNL     1      21.833  20.756  23.642  1.00  0.00    -0.388 OA
ATOM      7  H   UNL     1      22.789  20.736  23.910  1.00  0.00     0.211 HD
ENDBRANCH   2   6
ENDBRANCH   1   2
BRANCH   1   8
ATOM      8  C   UNL     1      21.876  23.453  24.346  1.00  0.00     0.171 C 
BRANCH   8   9
ATOM      9  C   UNL     1      20.858  24.374  25.057  1.00  0.00     0.190 C 
BRANCH   9  10
ATOM     10  O   UNL     1      20.122  25.130  24.133  1.00  0.00    -0.394 OA
ATOM     11  H   UNL     1      20.520  24.958  23.240  1.00  0.00     0.210 HD
ENDBRANCH   9  10
ENDBRANCH   8   9
BRANCH   8  12
ATOM     12  O   UNL     1      23.129  24.092  24.311  1.00  0.00    -0.388 OA
ATOM     13  H   UNL     1      22.971  25.051  24.101  1.00  0.00     0.211 HD
ENDBRANCH   8  12
ENDBRANCH   1   8
BRANCH   1  14
ATOM     14  O   UNL     1      22.099  23.890  21.976  1.00  0.00    -0.388 OA
ATOM     15  H   UNL     1      23.077  23.767  22.092  1.00  0.00     0.211 HD
ENDBRANCH   1  14
TORSDOF 9
ENDMDL
MODEL 3
REMARK VINA RESULT:    -4.128      2.437      4.948
REMARK INTER + INTRA:          -6.147
REMARK INTER:                  -5.680
REMARK INTRA:                  -0.467
REMARK UNBOUND:                -0.451
REMARK SMILES OC[C@@H](O)[C@H](O)[C@@H](O)CO
REMARK SMILES IDX 5 1 3 2 2 3 1 4 4 6 7 8 9 9 10 10 8 12 6 14
REMARK H PARENT 1 5 4 7 10 11 8 13 6 15
REMARK Flexibility Score: inf
ROOT
ATOM      1  C   UNL     1      21.876  22.883  22.620  1.00  0.00     0.176 C 
ENDROOT
BRANCH   1   2
ATOM      2  C   UNL     1      22.504  21.468  22.461  1.00  0.00     0.171 C 
BRANCH   2   3
ATOM      3  C   UNL     1      21.555  20.413  21.868  1.00  0.00     0.190 C 
BRANCH   3   4
ATOM      4  O   UNL     1      20.846  19.761  22.883  1.00  0.00    -0.394 OA
ATOM      5  H   UNL     1      19.999  20.266  22.997  1.00  0.00     0.210 HD
ENDBRANCH   3   4
ENDBRANCH   2   3
BRANCH   2   6
ATOM      6  O   UNL     1      23.673  21.524  21.685  1.00  0.00    -0.388 OA
ATOM      7  H   UNL     1      23.464  22.068  20.882  1.00  0.00     0.211 HD
ENDBRANCH   2   6
ENDBRANCH   1   2
BRANCH   1   8
ATOM      8  C   UNL     1      21.155  23.154  23.975  1.00  0.00     0.171 C 
BRANCH   8   9
ATOM      9  C   UNL     1      21.760  24.328  24.779  1.00  0.00     0.190 C 
BRANCH   9  10
ATOM     10  O   UNL     1      23.095  24.075  25.125  1.00  0.00    -0.394 OA
ATOM     11  H   UNL     1      23.449  23.435  24.453  1.00  0.00     0.210 HD
ENDBRANCH   9  10
ENDBRANCH   8   9
BRANCH   8  12
ATOM     12  O   UNL     1      21.183  21.992  24.766  1.00  0.00    -0.388 OA
ATOM     13  H   UNL     1      21.788  22.166  25.534  1.00  0.00     0.211 HD
ENDBRANCH   8  12
ENDBRANCH   1   8
BRANCH   1  14
ATOM     14  O   UNL     1      22.887  23.842  22.431  1.00  0.00    -0.388 OA
ATOM     15  H   UNL     1      23.597  23.421  21.880  1.00  0.00     0.211 HD
ENDBRANCH   1  14
TORSDOF 9
ENDMDL
MODEL 4
REMARK VINA RESULT:    -4.118      7.871     10.297
REMARK INTER + INTRA:          -6.134
REMARK INTER:                  -5.243
REMARK INTRA:                  -0.891
REMARK UNBOUND:                -0.451
REMARK SMILES OC[C@@H](O)[C@H](O)[C@@H](O)CO
REMARK SMILES IDX 5 1 3 2 2 3 1 4 4 6 7 8 9 9 10 10 8 12 6 14
REMARK H PARENT 1 5 4 7 10 11 8 13 6 15
REMARK Flexibility Score: inf
ROOT
ATOM      1  C   UNL     1      25.556  27.626  24.838  1.00  0.00     0.176 C 
ENDROOT
BRANCH   1   2
ATOM      2  C   UNL     1      26.439  26.896  23.785  1.00  0.00     0.171 C 
BRANCH   2   3
ATOM      3  C   UNL     1      26.096  25.410  23.586  1.00  0.00     0.190 C 
BRANCH   3   4
ATOM      4  O   UNL     1      25.038  25.265  22.681  1.00  0.00    -0.394 OA
ATOM      5  H   UNL     1      24.731  26.184  22.466  1.00  0.00     0.210 HD
ENDBRANCH   3   4
ENDBRANCH   2   3
BRANCH   2   6
ATOM      6  O   UNL     1      26.383  27.551  22.545  1.00  0.00    -0.388 OA
ATOM      7  H   UNL     1      25.726  27.062  21.986  1.00  0.00     0.211 HD
ENDBRANCH   2   6
ENDBRANCH   1   2
BRANCH   1   8
ATOM      8  C   UNL     1      25.697  29.178  24.880  1.00  0.00     0.171 C 
BRANCH   8   9
ATOM      9  C   UNL     1      24.542  29.928  24.177  1.00  0.00     0.190 C 
BRANCH   9  10
ATOM     10  O   UNL     1      24.594  29.755  22.787  1.00  0.00    -0.394 OA
ATOM     11  H   UNL     1      23.656  29.665  22.474  1.00  0.00     0.210 HD
ENDBRANCH   9  10
ENDBRANCH   8   9
BRANCH   8  12
ATOM     12  O   UNL     1      26.917  29.557  24.293  1.00  0.00    -0.388 OA
ATOM     13  H   UNL     1      27.438  28.728  24.121  1.00  0.00     0.211 HD
ENDBRANCH   8  12
ENDBRANCH   1   8
BRANCH   1  14
ATOM     14  O   UNL     1      24.212  27.288  24.603  1.00  0.00    -0.388 OA
ATOM     15  H   UNL     1      23.716  28.132  24.441  1.00  0.00     0.211 HD
ENDBRANCH   1  14
TORSDOF 9
ENDMDL
MODEL 5
REMARK VINA RESULT:    -3.958      9.751     11.039
REMARK INTER + INTRA:          -5.913
REMARK INTER:                  -4.942
REMARK INTRA:                  -0.971
REMARK UNBOUND:                -0.451
REMARK SMILES OC[C@@H](O)[C@H](O)[C@@H](O)CO
REMARK SMILES IDX 5 1 3 2 2 3 1 4 4 6 7 8 9 9 10 10 8 12 6 14
REMARK H PARENT 1 5 4 7 10 11 8 13 6 15
REMARK Flexibility Score: inf
ROOT
ATOM      1  C   UNL     1      26.601  28.425  24.750  1.00  0.00     0.176 C 
ENDROOT
BRANCH   1   2
ATOM      2  C   UNL     1      25.061  28.610  24.877  1.00  0.00     0.171 C 
BRANCH   2   3
ATOM      3  C   UNL     1      24.508  29.853  24.160  1.00  0.00     0.190 C 
BRANCH   3   4
ATOM      4  O   UNL     1      24.640  29.721  22.773  1.00  0.00    -0.394 OA
ATOM      5  H   UNL     1      25.596  29.894  22.569  1.00  0.00     0.210 HD
ENDBRANCH   3   4
ENDBRANCH   2   3
BRANCH   2   6
ATOM      6  O   UNL     1      24.381  27.471  24.418  1.00  0.00    -0.388 OA
ATOM      7  H   UNL     1      24.869  27.145  23.617  1.00  0.00     0.211 HD
ENDBRANCH   2   6
ENDBRANCH   1   2
BRANCH   1   8
ATOM      8  C   UNL     1      27.069  27.283  23.797  1.00  0.00     0.171 C 
BRANCH   8   9
ATOM      9  C   UNL     1      28.606  27.165  23.673  1.00  0.00     0.190 C 
BRANCH   9  10
ATOM     10  O   UNL     1      29.134  28.193  22.880  1.00  0.00    -0.394 OA
ATOM     11  H   UNL     1      29.823  28.652  23.429  1.00  0.00     0.210 HD
ENDBRANCH   9  10
ENDBRANCH   8   9
BRANCH   8  12
ATOM     12  O   UNL     1      26.518  27.480  22.519  1.00  0.00    -0.388 OA
ATOM     13  H   UNL     1      27.232  27.856  21.939  1.00  0.00     0.211 HD
ENDBRANCH   8  12
ENDBRANCH   1   8
BRANCH   1  14
ATOM     14  O   UNL     1      27.162  29.643  24.325  1.00  0.00    -0.388 OA
ATOM     15  H   UNL     1      27.270  29.594  23.339  1.00  0.00     0.211 HD
ENDBRANCH   1  14
TORSDOF 9
ENDMDL
MODEL 6
REMARK VINA RESULT:    -3.945      8.516     10.240
REMARK INTER + INTRA:          -5.895
REMARK INTER:                  -5.184
REMARK INTRA:                  -0.710
REMARK UNBOUND:                -0.451
REMARK SMILES OC[C@@H](O)[C@H](O)[C@@H](O)CO
REMARK SMILES IDX 5 1 3 2 2 3 1 4 4 6 7 8 9 9 10 10 8 12 6 14
REMARK H PARENT 1 5 4 7 10 11 8 13 6 15
REMARK Flexibility Score: inf
ROOT
ATOM      1  C   UNL     1      27.467  26.524  23.308  1.00  0.00     0.176 C 
ENDROOT
BRANCH   1   2
ATOM      2  C   UNL     1      25.949  26.435  23.642  1.00  0.00     0.171 C 
BRANCH   2   3
ATOM      3  C   UNL     1      25.311  27.769  24.063  1.00  0.00     0.190 C 
BRANCH   3   4
ATOM      4  O   UNL     1      25.199  28.631  22.966  1.00  0.00    -0.394 OA
ATOM      5  H   UNL     1      26.126  28.883  22.717  1.00  0.00     0.210 HD
ENDBRANCH   3   4
ENDBRANCH   2   3
BRANCH   2   6
ATOM      6  O   UNL     1      25.231  25.901  22.560  1.00  0.00    -0.388 OA
ATOM      7  H   UNL     1      25.147  24.925  22.720  1.00  0.00     0.211 HD
ENDBRANCH   2   6
ENDBRANCH   1   2
BRANCH   1   8
ATOM      8  C   UNL     1      27.923  25.768  22.023  1.00  0.00     0.171 C 
BRANCH   8   9
ATOM      9  C   UNL     1      29.457  25.620  21.898  1.00  0.00     0.190 C 
BRANCH   9  10
ATOM     10  O   UNL     1      30.067  26.850  21.614  1.00  0.00    -0.394 OA
ATOM     11  H   UNL     1      30.942  26.645  21.191  1.00  0.00     0.210 HD
ENDBRANCH   9  10
ENDBRANCH   8   9
BRANCH   8  12
ATOM     12  O   UNL     1      27.430  26.432  20.885  1.00  0.00    -0.388 OA
ATOM     13  H   UNL     1      28.168  26.988  20.519  1.00  0.00     0.211 HD
ENDBRANCH   8  12
ENDBRANCH   1   8
BRANCH   1  14
ATOM     14  O   UNL     1      27.819  27.881  23.198  1.00  0.00    -0.388 OA
ATOM     15  H   UNL     1      28.777  27.962  23.444  1.00  0.00     0.211 HD
ENDBRANCH   1  14
TORSDOF 9
ENDMDL
MODEL 7
REMARK VINA RESULT:    -3.917      1.988      3.235
REMARK INTER + INTRA:          -5.855
REMARK INTER:                  -5.425
REMARK INTRA:                  -0.430
REMARK UNBOUND:                -0.451
REMARK SMILES OC[C@@H](O)[C@H](O)[C@@H](O)CO
REMARK SMILES IDX 5 1 3 2 2 3 1 4 4 6 7 8 9 9 10 10 8 12 6 14
REMARK H PARENT 1 5 4 7 10 11 8 13 6 15
REMARK Flexibility Score: inf
ROOT
ATOM      1  C   UNL     1      19.568  18.118  23.164  1.00  0.00     0.176 C 
ENDROOT
BRANCH   1   2
ATOM      2  C   UNL     1      19.882  18.743  21.774  1.00  0.00     0.171 C 
BRANCH   2   3
ATOM      3  C   UNL     1      21.127  19.644  21.748  1.00  0.00     0.190 C 
BRANCH   3   4
ATOM      4  O   UNL     1      20.797  20.953  22.120  1.00  0.00    -0.394 OA
ATOM      5  H   UNL     1      19.887  21.120  21.762  1.00  0.00     0.210 HD
ENDBRANCH   3   4
ENDBRANCH   2   3
BRANCH   2   6
ATOM      6  O   UNL     1      20.015  17.745  20.796  1.00  0.00    -0.388 OA
ATOM      7  H   UNL     1      19.110  17.578  20.425  1.00  0.00     0.211 HD
ENDBRANCH   2   6
ENDBRANCH   1   2
BRANCH   1   8
ATOM      8  C   UNL     1      20.126  16.681  23.402  1.00  0.00     0.171 C 
BRANCH   8   9
ATOM      9  C   UNL     1      19.997  16.196  24.864  1.00  0.00     0.190 C 
BRANCH   9  10
ATOM     10  O   UNL     1      20.865  15.126  25.125  1.00  0.00    -0.394 OA
ATOM     11  H   UNL     1      21.718  15.330  24.659  1.00  0.00     0.210 HD
ENDBRANCH   9  10
ENDBRANCH   8   9
BRANCH   8  12
ATOM     12  O   UNL     1      21.477  16.630  23.017  1.00  0.00    -0.388 OA
ATOM     13  H   UNL     1      21.506  16.632  22.024  1.00  0.00     0.211 HD
ENDBRANCH   8  12
ENDBRANCH   1   8
BRANCH   1  14
ATOM     14  O   UNL     1      20.062  18.978  24.161  1.00  0.00    -0.388 OA
ATOM     15  H   UNL     1      19.452  19.760  24.209  1.00  0.00     0.211 HD
ENDBRANCH   1  14
TORSDOF 9
ENDMDL
MODEL 8
REMARK VINA RESULT:    -3.881      8.433      9.758
REMARK INTER + INTRA:          -5.806
REMARK INTER:                  -4.861
REMARK INTRA:                  -0.945
REMARK UNBOUND:                -0.451
REMARK SMILES OC[C@@H](O)[C@H](O)[C@@H](O)CO
REMARK SMILES IDX 5 1 3 2 2 3 1 4 4 6 7 8 9 9 10 10 8 12 6 14
REMARK H PARENT 1 5 4 7 10 11 8 13 6 15
REMARK Flexibility Score: inf
ROOT
ATOM      1  C   UNL     1      27.782  25.927  23.179  1.00  0.00     0.176 C 
ENDROOT
BRANCH   1   2
ATOM      2  C   UNL     1      28.952  26.446  22.294  1.00  0.00     0.171 C 
BRANCH   2   3
ATOM      3  C   UNL     1      28.862  26.034  20.815  1.00  0.00     0.190 C 
BRANCH   3   4
ATOM      4  O   UNL     1      27.637  26.431  20.266  1.00  0.00    -0.394 OA
ATOM      5  H   UNL     1      26.937  25.929  20.759  1.00  0.00     0.210 HD
ENDBRANCH   3   4
ENDBRANCH   2   3
BRANCH   2   6
ATOM      6  O   UNL     1      29.061  27.843  22.377  1.00  0.00    -0.388 OA
ATOM      7  H   UNL     1      28.301  28.162  22.930  1.00  0.00     0.211 HD
ENDBRANCH   2   6
ENDBRANCH   1   2
BRANCH   1   8
ATOM      8  C   UNL     1      26.776  27.011  23.674  1.00  0.00     0.171 C 
BRANCH   8   9
ATOM      9  C   UNL     1      25.664  26.457  24.594  1.00  0.00     0.190 C 
BRANCH   9  10
ATOM     10  O   UNL     1      24.702  25.747  23.861  1.00  0.00    -0.394 OA
ATOM     11  H   UNL     1      25.076  24.842  23.699  1.00  0.00     0.210 HD
ENDBRANCH   9  10
ENDBRANCH   8   9
BRANCH   8  12
ATOM     12  O   UNL     1      26.184  27.645  22.567  1.00  0.00    -0.388 OA
ATOM     13  H   UNL     1      26.227  27.013  21.801  1.00  0.00     0.211 HD
ENDBRANCH   8  12
ENDBRANCH   1   8
BRANCH   1  14
ATOM     14  O   UNL     1      27.084  24.940  22.461  1.00  0.00    -0.388 OA
ATOM     15  H   UNL     1      26.760  24.268  23.117  1.00  0.00     0.211 HD
ENDBRANCH   1  14
TORSDOF 9
ENDMDL
MODEL 9
REMARK VINA RESULT:    -3.843      9.056     10.373
REMARK INTER + INTRA:          -5.753
REMARK INTER:                  -5.248
REMARK INTRA:                  -0.505
REMARK UNBOUND:                -0.451
REMARK SMILES OC[C@@H](O)[C@H](O)[C@@H](O)CO
REMARK SMILES IDX 5 1 3 2 2 3 1 4 4 6 7 8 9 9 10 10 8 12 6 14
REMARK H PARENT 1 5 4 7 10 11 8 13 6 15
REMARK Flexibility Score: inf
ROOT
ATOM      1  C   UNL     1      27.263  26.182  22.637  1.00  0.00     0.176 C 
ENDROOT
BRANCH   1   2
ATOM      2  C   UNL     1      28.260  26.475  21.478  1.00  0.00     0.171 C 
BRANCH   2   3
ATOM      3  C   UNL     1      29.562  25.659  21.537  1.00  0.00     0.190 C 
BRANCH   3   4
ATOM      4  O   UNL     1      30.336  26.043  22.639  1.00  0.00    -0.394 OA
ATOM      5  H   UNL     1      31.091  26.574  22.275  1.00  0.00     0.210 HD
ENDBRANCH   3   4
ENDBRANCH   2   3
BRANCH   2   6
ATOM      6  O   UNL     1      27.648  26.278  20.231  1.00  0.00    -0.388 OA
ATOM      7  H   UNL     1      27.377  27.171  19.895  1.00  0.00     0.211 HD
ENDBRANCH   2   6
ENDBRANCH   1   2
BRANCH   1   8
ATOM      8  C   UNL     1      27.267  27.210  23.810  1.00  0.00     0.171 C 
BRANCH   8   9
ATOM      9  C   UNL     1      25.895  27.876  24.060  1.00  0.00     0.190 C 
BRANCH   9  10
ATOM     10  O   UNL     1      25.523  28.697  22.985  1.00  0.00    -0.394 OA
ATOM     11  H   UNL     1      25.685  29.634  23.271  1.00  0.00     0.210 HD
ENDBRANCH   9  10
ENDBRANCH   8   9
BRANCH   8  12
ATOM     12  O   UNL     1      28.225  28.208  23.558  1.00  0.00    -0.388 OA
ATOM     13  H   UNL     1      27.781  28.924  23.031  1.00  0.00     0.211 HD
ENDBRANCH   8  12
ENDBRANCH   1   8
BRANCH   1  14
ATOM     14  O   UNL     1      25.967  26.098  22.098  1.00  0.00    -0.388 OA
ATOM     15  H   UNL     1      26.028  25.574  21.257  1.00  0.00     0.211 HD
ENDBRANCH   1  14
TORSDOF 9
ENDMDL
