MODEL 1
REMARK VINA RESULT:    -3.959      0.000      0.000
REMARK INTER + INTRA:          -6.758
REMARK INTER:                  -6.273
REMARK INTRA:                  -0.485
REMARK UNBOUND:                -0.485
REMARK SMILES CCCCCCCCCCCC(=O)[O-]
REMARK SMILES IDX 7 1 8 2 9 3 10 4 11 5 12 6 13 7 14 8 6 9 5 10 4 11 3 12 2 13
REMARK SMILES IDX 1 14
REMARK H PARENT
REMARK Flexibility Score: inf
ROOT
ATOM      1  C   UNL     1     -45.271 -26.751   1.166  1.00  0.00     0.000 C 
ENDROOT
BRANCH   1   2
ATOM      2  C   UNL     1     -46.220 -26.396   2.321  1.00  0.00     0.000 C 
BRANCH   2   3
ATOM      3  C   UNL     1     -46.865 -27.638   2.959  1.00  0.00     0.000 C 
BRANCH   3   4
ATOM      4  C   UNL     1     -46.353 -27.904   4.383  1.00  0.00     0.006 C 
BRANCH   4   5
ATOM      5  C   UNL     1     -46.073 -26.590   5.119  1.00  0.00     0.053 C 
BRANCH   5   6
ATOM      6  C   UNL     1     -45.729 -26.854   6.549  1.00  0.00     0.041 C 
ATOM      7  O   UNL     1     -45.106 -27.901   6.870  1.00  0.00    -0.550 OA
ATOM      8  O   UNL     1     -46.051 -25.920   7.526  1.00  0.00    -0.550 OA
ENDBRANCH   5   6
ENDBRANCH   4   5
ENDBRANCH   3   4
ENDBRANCH   2   3
ENDBRANCH   1   2
BRANCH   1   9
ATOM      9  C   UNL     1     -45.924 -27.751   0.205  1.00  0.00     0.000 C 
BRANCH   9  10
ATOM     10  C   UNL     1     -44.909 -28.269  -0.824  1.00  0.00    -0.000 C 
BRANCH  10  11
ATOM     11  C   UNL     1     -43.559 -28.644  -0.191  1.00  0.00    -0.000 C 
BRANCH  11  12
ATOM     12  C   UNL     1     -42.432 -27.675  -0.586  1.00  0.00    -0.000 C 
BRANCH  12  13
ATOM     13  C   UNL     1     -41.043 -28.190  -0.177  1.00  0.00    -0.003 C 
ATOM     14  C   UNL     1     -41.045 -29.672   0.196  1.00  0.00     0.004 C 
ENDBRANCH  12  13
ENDBRANCH  11  12
ENDBRANCH  10  11
ENDBRANCH   9  10
ENDBRANCH   1   9
TORSDOF 10
ENDMDL
MODEL 2
REMARK VINA RESULT:    -3.916      3.482      6.187
REMARK INTER + INTRA:          -6.690
REMARK INTER:                  -5.685
REMARK INTRA:                  -1.004
REMARK UNBOUND:                -0.485
REMARK SMILES CCCCCCCCCCCC(=O)[O-]
REMARK SMILES IDX 7 1 8 2 9 3 10 4 11 5 12 6 13 7 14 8 6 9 5 10 4 11 3 12 2 13
REMARK SMILES IDX 1 14
REMARK H PARENT
REMARK Flexibility Score: inf
ROOT
ATOM      1  C   UNL     1     -46.312 -26.676   3.161  1.00  0.00     0.000 C 
ENDROOT
BRANCH   1   2
ATOM      2  C   UNL     1     -45.934 -26.198   1.751  1.00  0.00     0.000 C 
BRANCH   2   3
ATOM      3  C   UNL     1     -46.692 -26.954   0.647  1.00  0.00     0.000 C 
BRANCH   3   4
ATOM      4  C   UNL     1     -45.753 -27.563  -0.406  1.00  0.00     0.006 C 
BRANCH   4   5
ATOM      5  C   UNL     1     -44.430 -28.002   0.229  1.00  0.00     0.053 C 
BRANCH   5   6
ATOM      6  C   UNL     1     -43.272 -27.478  -0.557  1.00  0.00     0.041 C 
ATOM      7  O   UNL     1     -42.113 -27.930  -0.358  1.00  0.00    -0.550 OA
ATOM      8  O   UNL     1     -43.477 -26.525  -1.547  1.00  0.00    -0.550 OA
ENDBRANCH   5   6
ENDBRANCH   4   5
ENDBRANCH   3   4
ENDBRANCH   2   3
ENDBRANCH   1   2
BRANCH   1   9
ATOM      9  C   UNL     1     -46.994 -28.048   3.111  1.00  0.00     0.000 C 
BRANCH   9  10
ATOM     10  C   UNL     1     -46.024 -29.160   3.539  1.00  0.00    -0.000 C 
BRANCH  10  11
ATOM     11  C   UNL     1     -46.256 -29.626   4.986  1.00  0.00    -0.000 C 
BRANCH  11  12
ATOM     12  C   UNL     1     -45.229 -29.036   5.968  1.00  0.00    -0.000 C 
BRANCH  12  13
ATOM     13  C   UNL     1     -45.871 -28.081   6.987  1.00  0.00    -0.003 C 
ATOM     14  C   UNL     1     -45.498 -26.619   6.746  1.00  0.00     0.004 C 
ENDBRANCH  12  13
ENDBRANCH  11  12
ENDBRANCH  10  11
ENDBRANCH   9  10
ENDBRANCH   1   9
TORSDOF 10
ENDMDL
MODEL 3
REMARK VINA RESULT:    -3.823      3.392      6.366
REMARK INTER + INTRA:          -6.542
REMARK INTER:                  -5.890
REMARK INTRA:                  -0.652
REMARK UNBOUND:                -0.485
REMARK SMILES CCCCCCCCCCCC(=O)[O-]
REMARK SMILES IDX 7 1 8 2 9 3 10 4 11 5 12 6 13 7 14 8 6 9 5 10 4 11 3 12 2 13
REMARK SMILES IDX 1 14
REMARK H PARENT
REMARK Flexibility Score: inf
ROOT
ATOM      1  C   UNL     1     -45.433 -26.625   1.469  1.00  0.00     0.000 C 
ENDROOT
BRANCH   1   2
ATOM      2  C   UNL     1     -46.098 -27.381   0.309  1.00  0.00     0.000 C 
BRANCH   2   3
ATOM      3  C   UNL     1     -45.093 -27.803  -0.776  1.00  0.00     0.000 C 
BRANCH   3   4
ATOM      4  C   UNL     1     -43.636 -27.726  -0.295  1.00  0.00     0.006 C 
BRANCH   4   5
ATOM      5  C   UNL     1     -42.998 -29.119  -0.258  1.00  0.00     0.053 C 
BRANCH   5   6
ATOM      6  C   UNL     1     -41.525 -29.014  -0.029  1.00  0.00     0.041 C 
ATOM      7  O   UNL     1     -40.905 -29.944   0.553  1.00  0.00    -0.550 OA
ATOM      8  O   UNL     1     -40.824 -27.911  -0.502  1.00  0.00    -0.550 OA
ENDBRANCH   5   6
ENDBRANCH   4   5
ENDBRANCH   3   4
ENDBRANCH   2   3
ENDBRANCH   1   2
BRANCH   1   9
ATOM      9  C   UNL     1     -46.289 -26.705   2.739  1.00  0.00     0.000 C 
BRANCH   9  10
ATOM     10  C   UNL     1     -46.471 -28.162   3.189  1.00  0.00    -0.000 C 
BRANCH  10  11
ATOM     11  C   UNL     1     -46.764 -28.287   4.694  1.00  0.00    -0.000 C 
BRANCH  11  12
ATOM     12  C   UNL     1     -45.577 -28.872   5.479  1.00  0.00    -0.000 C 
BRANCH  12  13
ATOM     13  C   UNL     1     -45.261 -28.070   6.751  1.00  0.00    -0.003 C 
ATOM     14  C   UNL     1     -45.757 -26.626   6.682  1.00  0.00     0.004 C 
ENDBRANCH  12  13
ENDBRANCH  11  12
ENDBRANCH  10  11
ENDBRANCH   9  10
ENDBRANCH   1   9
TORSDOF 10
ENDMDL
MODEL 4
REMARK VINA RESULT:    -3.817      4.147      6.868
REMARK INTER + INTRA:          -6.533
REMARK INTER:                  -5.917
REMARK INTRA:                  -0.616
REMARK UNBOUND:                -0.485
REMARK SMILES CCCCCCCCCCCC(=O)[O-]
REMARK SMILES IDX 7 1 8 2 9 3 10 4 11 5 12 6 13 7 14 8 6 9 5 10 4 11 3 12 2 13
REMARK SMILES IDX 1 14
REMARK H PARENT
REMARK Flexibility Score: inf
ROOT
ATOM      1  C   UNL     1     -45.587 -26.016   1.885  1.00  0.00     0.000 C 
ENDROOT
BRANCH   1   2
ATOM      2  C   UNL     1     -45.412 -27.083   0.794  1.00  0.00     0.000 C 
BRANCH   2   3
ATOM      3  C   UNL     1     -43.984 -27.119   0.226  1.00  0.00     0.000 C 
BRANCH   3   4
ATOM      4  C   UNL     1     -43.774 -28.265  -0.777  1.00  0.00     0.006 C 
BRANCH   4   5
ATOM      5  C   UNL     1     -45.116 -28.786  -1.300  1.00  0.00     0.053 C 
BRANCH   5   6
ATOM      6  C   UNL     1     -45.356 -28.307  -2.695  1.00  0.00     0.041 C 
ATOM      7  O   UNL     1     -45.898 -29.065  -3.543  1.00  0.00    -0.550 OA
ATOM      8  O   UNL     1     -45.029 -27.004  -3.049  1.00  0.00    -0.550 OA
ENDBRANCH   5   6
ENDBRANCH   4   5
ENDBRANCH   3   4
ENDBRANCH   2   3
ENDBRANCH   1   2
BRANCH   1   9
ATOM      9  C   UNL     1     -46.590 -26.477   2.949  1.00  0.00     0.000 C 
BRANCH   9  10
ATOM     10  C   UNL     1     -46.383 -27.960   3.293  1.00  0.00    -0.000 C 
BRANCH  10  11
ATOM     11  C   UNL     1     -46.712 -28.281   4.761  1.00  0.00    -0.000 C 
BRANCH  11  12
ATOM     12  C   UNL     1     -45.584 -29.056   5.462  1.00  0.00    -0.000 C 
BRANCH  12  13
ATOM     13  C   UNL     1     -45.082 -28.346   6.729  1.00  0.00    -0.003 C 
ATOM     14  C   UNL     1     -45.503 -26.878   6.794  1.00  0.00     0.004 C 
ENDBRANCH  12  13
ENDBRANCH  11  12
ENDBRANCH  10  11
ENDBRANCH   9  10
ENDBRANCH   1   9
TORSDOF 10
ENDMDL
MODEL 5
REMARK VINA RESULT:    -3.778      3.439      6.347
REMARK INTER + INTRA:          -6.472
REMARK INTER:                  -5.698
REMARK INTRA:                  -0.774
REMARK UNBOUND:                -0.485
REMARK SMILES CCCCCCCCCCCC(=O)[O-]
REMARK SMILES IDX 7 1 8 2 9 3 10 4 11 5 12 6 13 7 14 8 6 9 5 10 4 11 3 12 2 13
REMARK SMILES IDX 1 14
REMARK H PARENT
REMARK Flexibility Score: inf
ROOT
ATOM      1  C   UNL     1     -46.209 -26.929   2.337  1.00  0.00     0.000 C 
ENDROOT
BRANCH   1   2
ATOM      2  C   UNL     1     -46.083 -28.458   2.422  1.00  0.00     0.000 C 
BRANCH   2   3
ATOM      3  C   UNL     1     -46.028 -29.125   1.038  1.00  0.00     0.000 C 
BRANCH   3   4
ATOM      4  C   UNL     1     -44.624 -29.639   0.684  1.00  0.00     0.006 C 
BRANCH   4   5
ATOM      5  C   UNL     1     -44.268 -29.302  -0.767  1.00  0.00     0.053 C 
BRANCH   5   6
ATOM      6  C   UNL     1     -44.498 -27.851  -1.040  1.00  0.00     0.041 C 
ATOM      7  O   UNL     1     -43.854 -26.975  -0.404  1.00  0.00    -0.550 OA
ATOM      8  O   UNL     1     -45.390 -27.462  -2.032  1.00  0.00    -0.550 OA
ENDBRANCH   5   6
ENDBRANCH   4   5
ENDBRANCH   3   4
ENDBRANCH   2   3
ENDBRANCH   1   2
BRANCH   1   9
ATOM      9  C   UNL     1     -46.964 -26.372   3.550  1.00  0.00     0.000 C 
BRANCH   9  10
ATOM     10  C   UNL     1     -46.823 -27.304   4.762  1.00  0.00    -0.000 C 
BRANCH  10  11
ATOM     11  C   UNL     1     -46.058 -26.654   5.927  1.00  0.00    -0.000 C 
BRANCH  11  12
ATOM     12  C   UNL     1     -45.257 -27.676   6.751  1.00  0.00    -0.000 C 
BRANCH  12  13
ATOM     13  C   UNL     1     -45.254 -29.074   6.113  1.00  0.00    -0.003 C 
ATOM     14  C   UNL     1     -44.572 -30.125   6.988  1.00  0.00     0.004 C 
ENDBRANCH  12  13
ENDBRANCH  11  12
ENDBRANCH  10  11
ENDBRANCH   9  10
ENDBRANCH   1   9
TORSDOF 10
ENDMDL
MODEL 6
REMARK VINA RESULT:    -3.714      6.691      8.968
REMARK INTER + INTRA:          -6.370
REMARK INTER:                  -5.796
REMARK INTRA:                  -0.573
REMARK UNBOUND:                -0.485
REMARK SMILES CCCCCCCCCCCC(=O)[O-]
REMARK SMILES IDX 7 1 8 2 9 3 10 4 11 5 12 6 13 7 14 8 6 9 5 10 4 11 3 12 2 13
REMARK SMILES IDX 1 14
REMARK H PARENT
REMARK Flexibility Score: inf
ROOT
ATOM      1  C   UNL     1     -45.599 -29.483  -3.027  1.00  0.00     0.000 C 
ENDROOT
BRANCH   1   2
ATOM      2  C   UNL     1     -45.644 -29.174  -4.531  1.00  0.00     0.000 C 
BRANCH   2   3
ATOM      3  C   UNL     1     -45.648 -27.665  -4.825  1.00  0.00     0.000 C 
BRANCH   3   4
ATOM      4  C   UNL     1     -44.992 -27.323  -6.172  1.00  0.00     0.006 C 
BRANCH   4   5
ATOM      5  C   UNL     1     -44.444 -28.583  -6.850  1.00  0.00     0.053 C 
BRANCH   5   6
ATOM      6  C   UNL     1     -43.366 -28.228  -7.822  1.00  0.00     0.041 C 
ATOM      7  O   UNL     1     -43.659 -27.747  -8.949  1.00  0.00    -0.550 OA
ATOM      8  O   UNL     1     -42.031 -28.382  -7.467  1.00  0.00    -0.550 OA
ENDBRANCH   5   6
ENDBRANCH   4   5
ENDBRANCH   3   4
ENDBRANCH   2   3
ENDBRANCH   1   2
BRANCH   1   9
ATOM      9  C   UNL     1     -45.517 -28.192  -2.203  1.00  0.00     0.000 C 
BRANCH   9  10
ATOM     10  C   UNL     1     -45.169 -28.495  -0.739  1.00  0.00    -0.000 C 
BRANCH  10  11
ATOM     11  C   UNL     1     -43.707 -28.936  -0.554  1.00  0.00    -0.000 C 
BRANCH  11  12
ATOM     12  C   UNL     1     -42.747 -27.745  -0.390  1.00  0.00    -0.000 C 
BRANCH  12  13
ATOM     13  C   UNL     1     -41.288 -28.188  -0.203  1.00  0.00    -0.003 C 
ATOM     14  C   UNL     1     -41.148 -29.692   0.029  1.00  0.00     0.004 C 
ENDBRANCH  12  13
ENDBRANCH  11  12
ENDBRANCH  10  11
ENDBRANCH   9  10
ENDBRANCH   1   9
TORSDOF 10
ENDMDL
MODEL 7
REMARK VINA RESULT:    -3.690      1.114      1.475
REMARK INTER + INTRA:          -6.332
REMARK INTER:                  -5.607
REMARK INTRA:                  -0.725
REMARK UNBOUND:                -0.485
REMARK SMILES CCCCCCCCCCCC(=O)[O-]
REMARK SMILES IDX 7 1 8 2 9 3 10 4 11 5 12 6 13 7 14 8 6 9 5 10 4 11 3 12 2 13
REMARK SMILES IDX 1 14
REMARK H PARENT
REMARK Flexibility Score: inf
ROOT
ATOM      1  C   UNL     1     -45.666 -26.359   1.897  1.00  0.00     0.000 C 
ENDROOT
BRANCH   1   2
ATOM      2  C   UNL     1     -46.297 -26.761   3.239  1.00  0.00     0.000 C 
BRANCH   2   3
ATOM      3  C   UNL     1     -46.237 -28.277   3.490  1.00  0.00     0.000 C 
BRANCH   3   4
ATOM      4  C   UNL     1     -46.649 -28.656   4.921  1.00  0.00     0.006 C 
BRANCH   4   5
ATOM      5  C   UNL     1     -45.488 -28.445   5.898  1.00  0.00     0.053 C 
BRANCH   5   6
ATOM      6  C   UNL     1     -45.842 -27.408   6.915  1.00  0.00     0.041 C 
ATOM      7  O   UNL     1     -46.646 -27.680   7.846  1.00  0.00    -0.550 OA
ATOM      8  O   UNL     1     -45.246 -26.154   6.866  1.00  0.00    -0.550 OA
ENDBRANCH   5   6
ENDBRANCH   4   5
ENDBRANCH   3   4
ENDBRANCH   2   3
ENDBRANCH   1   2
BRANCH   1   9
ATOM      9  C   UNL     1     -46.619 -26.651   0.732  1.00  0.00     0.000 C 
BRANCH   9  10
ATOM     10  C   UNL     1     -45.946 -27.545  -0.320  1.00  0.00    -0.000 C 
BRANCH  10  11
ATOM     11  C   UNL     1     -44.431 -27.688  -0.096  1.00  0.00    -0.000 C 
BRANCH  11  12
ATOM     12  C   UNL     1     -43.984 -29.157  -0.005  1.00  0.00    -0.000 C 
BRANCH  12  13
ATOM     13  C   UNL     1     -42.462 -29.319  -0.149  1.00  0.00    -0.003 C 
ATOM     14  C   UNL     1     -41.730 -27.982  -0.244  1.00  0.00     0.004 C 
ENDBRANCH  12  13
ENDBRANCH  11  12
ENDBRANCH  10  11
ENDBRANCH   9  10
ENDBRANCH   1   9
TORSDOF 10
ENDMDL
MODEL 8
REMARK VINA RESULT:    -3.463      4.783      7.434
REMARK INTER + INTRA:          -5.973
REMARK INTER:                  -5.301
REMARK INTRA:                  -0.671
REMARK UNBOUND:                -0.485
REMARK SMILES CCCCCCCCCCCC(=O)[O-]
REMARK SMILES IDX 7 1 8 2 9 3 10 4 11 5 12 6 13 7 14 8 6 9 5 10 4 11 3 12 2 13
REMARK SMILES IDX 1 14
REMARK H PARENT
REMARK Flexibility Score: inf
ROOT
ATOM      1  C   UNL     1     -44.210 -27.186   0.113  1.00  0.00     0.000 C 
ENDROOT
BRANCH   1   2
ATOM      2  C   UNL     1     -44.602 -28.661   0.284  1.00  0.00     0.000 C 
BRANCH   2   3
ATOM      3  C   UNL     1     -45.114 -29.293  -1.021  1.00  0.00     0.000 C 
BRANCH   3   4
ATOM      4  C   UNL     1     -45.583 -28.245  -2.041  1.00  0.00     0.006 C 
BRANCH   4   5
ATOM      5  C   UNL     1     -45.884 -28.896  -3.395  1.00  0.00     0.053 C 
BRANCH   5   6
ATOM      6  C   UNL     1     -45.765 -27.892  -4.497  1.00  0.00     0.041 C 
ATOM      7  O   UNL     1     -45.089 -26.842  -4.329  1.00  0.00    -0.550 OA
ATOM      8  O   UNL     1     -46.361 -28.137  -5.728  1.00  0.00    -0.550 OA
ENDBRANCH   5   6
ENDBRANCH   4   5
ENDBRANCH   3   4
ENDBRANCH   2   3
ENDBRANCH   1   2
BRANCH   1   9
ATOM      9  C   UNL     1     -44.860 -26.316   1.196  1.00  0.00     0.000 C 
BRANCH   9  10
ATOM     10  C   UNL     1     -46.375 -26.557   1.260  1.00  0.00    -0.000 C 
BRANCH  10  11
ATOM     11  C   UNL     1     -46.947 -26.374   2.676  1.00  0.00    -0.000 C 
BRANCH  11  12
ATOM     12  C   UNL     1     -46.401 -27.411   3.671  1.00  0.00    -0.000 C 
BRANCH  12  13
ATOM     13  C   UNL     1     -46.190 -26.824   5.076  1.00  0.00    -0.003 C 
ATOM     14  C   UNL     1     -45.656 -27.851   6.074  1.00  0.00     0.004 C 
ENDBRANCH  12  13
ENDBRANCH  11  12
ENDBRANCH  10  11
ENDBRANCH   9  10
ENDBRANCH   1   9
TORSDOF 10
ENDMDL
MODEL 9
REMARK VINA RESULT:    -3.366      7.390      9.861
REMARK INTER + INTRA:          -5.818
REMARK INTER:                  -5.232
REMARK INTRA:                  -0.587
REMARK UNBOUND:                -0.485
REMARK SMILES CCCCCCCCCCCC(=O)[O-]
REMARK SMILES IDX 7 1 8 2 9 3 10 4 11 5 12 6 13 7 14 8 6 9 5 10 4 11 3 12 2 13
REMARK SMILES IDX 1 14
REMARK H PARENT
REMARK Flexibility Score: inf
ROOT
ATOM      1  C   UNL     1     -45.243 -27.456  -4.894  1.00  0.00     0.000 C 
ENDROOT
BRANCH   1   2
ATOM      2  C   UNL     1     -45.592 -27.479  -6.390  1.00  0.00     0.000 C 
BRANCH   2   3
ATOM      3  C   UNL     1     -45.626 -28.903  -6.968  1.00  0.00     0.000 C 
BRANCH   3   4
ATOM      4  C   UNL     1     -44.284 -29.636  -6.817  1.00  0.00     0.006 C 
BRANCH   4   5
ATOM      5  C   UNL     1     -43.665 -29.931  -8.187  1.00  0.00     0.053 C 
BRANCH   5   6
ATOM      6  C   UNL     1     -42.374 -29.196  -8.348  1.00  0.00     0.041 C 
ATOM      7  O   UNL     1     -42.007 -28.359  -7.481  1.00  0.00    -0.550 OA
ATOM      8  O   UNL     1     -41.548 -29.469  -9.432  1.00  0.00    -0.550 OA
ENDBRANCH   5   6
ENDBRANCH   4   5
ENDBRANCH   3   4
ENDBRANCH   2   3
ENDBRANCH   1   2
BRANCH   1   9
ATOM      9  C   UNL     1     -46.316 -28.176  -4.069  1.00  0.00     0.000 C 
BRANCH   9  10
ATOM     10  C   UNL     1     -45.686 -28.940  -2.894  1.00  0.00    -0.000 C 
BRANCH  10  11
ATOM     11  C   UNL     1     -45.453 -28.050  -1.663  1.00  0.00    -0.000 C 
BRANCH  11  12
ATOM     12  C   UNL     1     -44.324 -28.575  -0.759  1.00  0.00    -0.000 C 
BRANCH  12  13
ATOM     13  C   UNL     1     -43.256 -27.508  -0.472  1.00  0.00    -0.003 C 
ATOM     14  C   UNL     1     -41.858 -28.100  -0.295  1.00  0.00     0.004 C 
ENDBRANCH  12  13
ENDBRANCH  11  12
ENDBRANCH  10  11
ENDBRANCH   9  10
ENDBRANCH   1   9
TORSDOF 10
ENDMDL
