MODEL 1
REMARK VINA RESULT:    -3.219      0.000      0.000
REMARK INTER + INTRA:          -3.219
REMARK INTER:                  -3.219
REMARK INTRA:                   0.000
REMARK UNBOUND:                 0.000
REMARK SMILES c1cc[nH]c1
REMARK SMILES IDX 1 1 5 2 4 3 3 4 2 5
REMARK H PARENT 4 6
REMARK Flexibility Score: inf
ROOT
ATOM      1  C   UNL     1     136.654 137.621 161.897  1.00  0.00     0.019 A 
ATOM      2  C   UNL     1     135.291 137.404 161.918  1.00  0.00     0.082 A 
ATOM      3  N   UNL     1     135.033 136.093 161.779  1.00  0.00    -0.368 N 
ATOM      4  C   UNL     1     136.217 135.465 161.667  1.00  0.00     0.082 A 
ATOM      5  C   UNL     1     137.244 136.383 161.738  1.00  0.00     0.019 A 
ATOM      6  H   UNL     1     134.089 135.645 161.759  1.00  0.00     0.165 HD
ENDROOT
TORSDOF 0
ENDMDL
MODEL 2
REMARK VINA RESULT:    -3.193      1.348      1.747
REMARK INTER + INTRA:          -3.193
REMARK INTER:                  -3.193
REMARK INTRA:                   0.000
REMARK UNBOUND:                 0.000
REMARK SMILES c1cc[nH]c1
REMARK SMILES IDX 1 1 5 2 4 3 3 4 2 5
REMARK H PARENT 4 6
REMARK Flexibility Score: inf
ROOT
ATOM      1  C   UNL     1     134.954 137.004 162.016  1.00  0.00     0.019 A 
ATOM      2  C   UNL     1     135.704 138.159 162.112  1.00  0.00     0.082 A 
ATOM      3  N   UNL     1     137.004 137.881 161.913  1.00  0.00    -0.368 N 
ATOM      4  C   UNL     1     137.096 136.557 161.690  1.00  0.00     0.082 A 
ATOM      5  C   UNL     1     135.843 135.982 161.745  1.00  0.00     0.019 A 
ATOM      6  H   UNL     1     137.794 138.563 161.930  1.00  0.00     0.165 HD
ENDROOT
TORSDOF 0
ENDMDL
MODEL 3
REMARK VINA RESULT:    -3.187      1.364      2.388
REMARK INTER + INTRA:          -3.187
REMARK INTER:                  -3.187
REMARK INTRA:                   0.000
REMARK UNBOUND:                 0.000
REMARK SMILES c1cc[nH]c1
REMARK SMILES IDX 1 1 5 2 4 3 3 4 2 5
REMARK H PARENT 4 6
REMARK Flexibility Score: inf
ROOT
ATOM      1  C   UNL     1     135.790 136.094 161.721  1.00  0.00     0.019 A 
ATOM      2  C   UNL     1     137.039 136.680 161.711  1.00  0.00     0.082 A 
ATOM      3  N   UNL     1     136.934 137.991 161.992  1.00  0.00    -0.368 N 
ATOM      4  C   UNL     1     135.628 138.252 162.182  1.00  0.00     0.082 A 
ATOM      5  C   UNL     1     134.890 137.097 162.023  1.00  0.00     0.019 A 
ATOM      6  H   UNL     1     137.718 138.678 162.050  1.00  0.00     0.165 HD
ENDROOT
TORSDOF 0
ENDMDL
MODEL 4
REMARK VINA RESULT:    -2.468      2.473      3.463
REMARK INTER + INTRA:          -2.468
REMARK INTER:                  -2.468
REMARK INTRA:                   0.000
REMARK UNBOUND:                 0.000
REMARK SMILES c1cc[nH]c1
REMARK SMILES IDX 1 1 5 2 4 3 3 4 2 5
REMARK H PARENT 4 6
REMARK Flexibility Score: inf
ROOT
ATOM      1  C   UNL     1     135.028 138.071 162.825  1.00  0.00     0.019 A 
ATOM      2  C   UNL     1     136.261 138.165 162.213  1.00  0.00     0.082 A 
ATOM      3  N   UNL     1     136.859 139.319 162.559  1.00  0.00    -0.368 N 
ATOM      4  C   UNL     1     136.020 139.966 163.388  1.00  0.00     0.082 A 
ATOM      5  C   UNL     1     134.875 139.220 163.576  1.00  0.00     0.019 A 
ATOM      6  H   UNL     1     137.797 139.651 162.243  1.00  0.00     0.165 HD
ENDROOT
TORSDOF 0
ENDMDL
MODEL 5
REMARK VINA RESULT:    -2.421      2.866      3.368
REMARK INTER + INTRA:          -2.421
REMARK INTER:                  -2.421
REMARK INTRA:                   0.000
REMARK UNBOUND:                 0.000
REMARK SMILES c1cc[nH]c1
REMARK SMILES IDX 1 1 5 2 4 3 3 4 2 5
REMARK H PARENT 4 6
REMARK Flexibility Score: inf
ROOT
ATOM      1  C   UNL     1     135.587 140.488 163.764  1.00  0.00     0.019 A 
ATOM      2  C   UNL     1     134.876 140.296 162.597  1.00  0.00     0.082 A 
ATOM      3  N   UNL     1     134.925 139.002 162.236  1.00  0.00    -0.368 N 
ATOM      4  C   UNL     1     135.662 138.361 163.161  1.00  0.00     0.082 A 
ATOM      5  C   UNL     1     136.087 139.252 164.124  1.00  0.00     0.019 A 
ATOM      6  H   UNL     1     134.477 138.575 161.395  1.00  0.00     0.165 HD
ENDROOT
TORSDOF 0
ENDMDL
MODEL 6
REMARK VINA RESULT:    -2.318     24.372     25.038
REMARK INTER + INTRA:          -2.318
REMARK INTER:                  -2.318
REMARK INTRA:                   0.000
REMARK UNBOUND:                 0.000
REMARK SMILES c1cc[nH]c1
REMARK SMILES IDX 1 1 5 2 4 3 3 4 2 5
REMARK H PARENT 4 6
REMARK Flexibility Score: inf
ROOT
ATOM      1  C   UNL     1     154.012 154.798 161.473  1.00  0.00     0.019 A 
ATOM      2  C   UNL     1     153.341 153.608 161.272  1.00  0.00     0.082 A 
ATOM      3  N   UNL     1     153.999 152.603 161.875  1.00  0.00    -0.368 N 
ATOM      4  C   UNL     1     155.087 153.136 162.460  1.00  0.00     0.082 A 
ATOM      5  C   UNL     1     155.125 154.496 162.232  1.00  0.00     0.019 A 
ATOM      6  H   UNL     1     153.720 151.596 161.885  1.00  0.00     0.165 HD
ENDROOT
TORSDOF 0
ENDMDL
MODEL 7
REMARK VINA RESULT:    -2.244     13.579     14.319
REMARK INTER + INTRA:          -2.244
REMARK INTER:                  -2.244
REMARK INTRA:                   0.000
REMARK UNBOUND:                 0.000
REMARK SMILES c1cc[nH]c1
REMARK SMILES IDX 1 1 5 2 4 3 3 4 2 5
REMARK H PARENT 4 6
REMARK Flexibility Score: inf
ROOT
ATOM      1  C   UNL     1     150.406 135.398 161.292  1.00  0.00     0.019 A 
ATOM      2  C   UNL     1     149.310 134.879 161.951  1.00  0.00     0.082 A 
ATOM      3  N   UNL     1     149.531 134.876 163.277  1.00  0.00    -0.368 N 
ATOM      4  C   UNL     1     150.759 135.388 163.476  1.00  0.00     0.082 A 
ATOM      5  C   UNL     1     151.329 135.724 162.265  1.00  0.00     0.019 A 
ATOM      6  H   UNL     1     148.873 134.537 164.015  1.00  0.00     0.165 HD
ENDROOT
TORSDOF 0
ENDMDL
MODEL 8
REMARK VINA RESULT:    -2.026     13.850     14.489
REMARK INTER + INTRA:          -2.026
REMARK INTER:                  -2.026
REMARK INTRA:                   0.000
REMARK UNBOUND:                 0.000
REMARK SMILES c1cc[nH]c1
REMARK SMILES IDX 1 1 5 2 4 3 3 4 2 5
REMARK H PARENT 4 6
REMARK Flexibility Score: inf
ROOT
ATOM      1  C   UNL     1     151.221 134.896 163.085  1.00  0.00     0.019 A 
ATOM      2  C   UNL     1     149.845 134.884 163.196  1.00  0.00     0.082 A 
ATOM      3  N   UNL     1     149.285 134.875 161.974  1.00  0.00    -0.368 N 
ATOM      4  C   UNL     1     150.288 134.882 161.078  1.00  0.00     0.082 A 
ATOM      5  C   UNL     1     151.503 134.893 161.733  1.00  0.00     0.019 A 
ATOM      6  H   UNL     1     148.262 134.867 161.760  1.00  0.00     0.165 HD
ENDROOT
TORSDOF 0
ENDMDL
