MODEL 1
REMARK VINA RESULT:     0.000      0.000      0.000
REMARK INTER + INTRA:          -2.860
REMARK INTER:                   0.000
REMARK INTRA:                  -2.860
REMARK UNBOUND:                -2.860
REMARK SMILES CCCCCCCCCCCCCCC(=O)[O-]
REMARK SMILES IDX 9 1 10 2 11 3 12 4 13 5 14 6 15 7 16 8 17 9 8 10 7 11 6 12
REMARK SMILES IDX 5 13 4 14 3 15 2 16 1 17
REMARK H PARENT
REMARK Flexibility Score: inf
ROOT
ATOM      1  C   UNL     1      12.895  16.938  13.794  1.00  0.00     0.000 C 
ENDROOT
BRANCH   1   2
ATOM      2  C   UNL     1      12.371  15.911  14.805  1.00  0.00     0.000 C 
BRANCH   2   3
ATOM      3  C   UNL     1      11.191  16.481  15.607  1.00  0.00     0.000 C 
BRANCH   3   4
ATOM      4  C   UNL     1      10.052  15.464  15.805  1.00  0.00     0.000 C 
BRANCH   4   5
ATOM      5  C   UNL     1      10.339  14.052  15.261  1.00  0.00     0.006 C 
BRANCH   5   6
ATOM      6  C   UNL     1       9.065  13.295  14.865  1.00  0.00     0.053 C 
BRANCH   6   7
ATOM      7  C   UNL     1       9.323  12.430  13.671  1.00  0.00     0.041 C 
ATOM      8  O   UNL     1       8.462  12.339  12.757  1.00  0.00    -0.550 OA
ATOM      9  O   UNL     1      10.536  11.765  13.543  1.00  0.00    -0.550 OA
ENDBRANCH   6   7
ENDBRANCH   5   6
ENDBRANCH   4   5
ENDBRANCH   3   4
ENDBRANCH   2   3
ENDBRANCH   1   2
BRANCH   1  10
ATOM     10  C   UNL     1      12.817  16.389  12.361  1.00  0.00     0.000 C 
BRANCH  10  11
ATOM     11  C   UNL     1      12.361  14.923  12.314  1.00  0.00    -0.000 C 
BRANCH  11  12
ATOM     12  C   UNL     1      11.100  14.721  11.454  1.00  0.00    -0.000 C 
BRANCH  12  13
ATOM     13  C   UNL     1      10.241  15.992  11.359  1.00  0.00    -0.000 C 
BRANCH  13  14
ATOM     14  C   UNL     1       8.972  15.912  12.222  1.00  0.00    -0.000 C 
BRANCH  14  15
ATOM     15  C   UNL     1       8.690  17.255  12.907  1.00  0.00    -0.000 C 
BRANCH  15  16
ATOM     16  C   UNL     1       9.662  18.336  12.419  1.00  0.00    -0.003 C 
ATOM     17  C   UNL     1       9.995  19.321  13.535  1.00  0.00     0.004 C 
ENDBRANCH  15  16
ENDBRANCH  14  15
ENDBRANCH  13  14
ENDBRANCH  12  13
ENDBRANCH  11  12
ENDBRANCH  10  11
ENDBRANCH   1  10
TORSDOF 13
ENDMDL
MODEL 2
REMARK VINA RESULT:     0.010      7.885      9.698
REMARK INTER + INTRA:          -2.842
REMARK INTER:                   0.000
REMARK INTRA:                  -2.842
REMARK UNBOUND:                -2.860
REMARK SMILES CCCCCCCCCCCCCCC(=O)[O-]
REMARK SMILES IDX 9 1 10 2 11 3 12 4 13 5 14 6 15 7 16 8 17 9 8 10 7 11 6 12
REMARK SMILES IDX 5 13 4 14 3 15 2 16 1 17
REMARK H PARENT
REMARK Flexibility Score: inf
ROOT
ATOM      1  C   UNL     1      11.951  18.876  19.192  1.00  0.00     0.000 C 
ENDROOT
BRANCH   1   2
ATOM      2  C   UNL     1      12.570  19.968  20.072  1.00  0.00     0.000 C 
BRANCH   2   3
ATOM      3  C   UNL     1      11.541  20.519  21.071  1.00  0.00     0.000 C 
BRANCH   3   4
ATOM      4  C   UNL     1      11.585  22.053  21.192  1.00  0.00     0.000 C 
BRANCH   4   5
ATOM      5  C   UNL     1      12.852  22.716  20.622  1.00  0.00     0.006 C 
BRANCH   5   6
ATOM      6  C   UNL     1      12.543  23.894  19.690  1.00  0.00     0.053 C 
BRANCH   6   7
ATOM      7  C   UNL     1      11.741  24.932  20.409  1.00  0.00     0.041 C 
ATOM      8  O   UNL     1      10.587  25.233  20.005  1.00  0.00    -0.550 OA
ATOM      9  O   UNL     1      12.246  25.531  21.556  1.00  0.00    -0.550 OA
ENDBRANCH   6   7
ENDBRANCH   5   6
ENDBRANCH   4   5
ENDBRANCH   3   4
ENDBRANCH   2   3
ENDBRANCH   1   2
BRANCH   1  10
ATOM     10  C   UNL     1      11.938  19.301  17.715  1.00  0.00     0.000 C 
BRANCH  10  11
ATOM     11  C   UNL     1      12.641  20.647  17.482  1.00  0.00    -0.000 C 
BRANCH  11  12
ATOM     12  C   UNL     1      11.721  21.689  16.821  1.00  0.00    -0.000 C 
BRANCH  12  13
ATOM     13  C   UNL     1      10.231  21.399  17.061  1.00  0.00    -0.000 C 
BRANCH  13  14
ATOM     14  C   UNL     1       9.592  22.378  18.057  1.00  0.00    -0.000 C 
BRANCH  14  15
ATOM     15  C   UNL     1       8.630  21.648  19.003  1.00  0.00    -0.000 C 
BRANCH  15  16
ATOM     16  C   UNL     1       8.447  20.186  18.579  1.00  0.00    -0.003 C 
ATOM     17  C   UNL     1       8.269  19.279  19.792  1.00  0.00     0.004 C 
ENDBRANCH  15  16
ENDBRANCH  14  15
ENDBRANCH  13  14
ENDBRANCH  12  13
ENDBRANCH  11  12
ENDBRANCH  10  11
ENDBRANCH   1  10
TORSDOF 13
ENDMDL
MODEL 3
REMARK VINA RESULT:     0.013      8.355     11.023
REMARK INTER + INTRA:          -2.837
REMARK INTER:                   0.000
REMARK INTRA:                  -2.837
REMARK UNBOUND:                -2.860
REMARK SMILES CCCCCCCCCCCCCCC(=O)[O-]
REMARK SMILES IDX 9 1 10 2 11 3 12 4 13 5 14 6 15 7 16 8 17 9 8 10 7 11 6 12
REMARK SMILES IDX 5 13 4 14 3 15 2 16 1 17
REMARK H PARENT
REMARK Flexibility Score: inf
ROOT
ATOM      1  C   UNL     1      13.158  23.036  14.552  1.00  0.00     0.000 C 
ENDROOT
BRANCH   1   2
ATOM      2  C   UNL     1      14.188  23.958  13.890  1.00  0.00     0.000 C 
BRANCH   2   3
ATOM      3  C   UNL     1      14.585  23.433  12.502  1.00  0.00     0.000 C 
BRANCH   3   4
ATOM      4  C   UNL     1      14.652  24.543  11.436  1.00  0.00     0.000 C 
BRANCH   4   5
ATOM      5  C   UNL     1      14.463  25.973  11.974  1.00  0.00     0.006 C 
BRANCH   5   6
ATOM      6  C   UNL     1      13.987  26.958  10.898  1.00  0.00     0.053 C 
BRANCH   6   7
ATOM      7  C   UNL     1      13.100  28.000  11.501  1.00  0.00     0.041 C 
ATOM      8  O   UNL     1      12.078  28.398  10.882  1.00  0.00    -0.550 OA
ATOM      9  O   UNL     1      13.372  28.497  12.769  1.00  0.00    -0.550 OA
ENDBRANCH   6   7
ENDBRANCH   5   6
ENDBRANCH   4   5
ENDBRANCH   3   4
ENDBRANCH   2   3
ENDBRANCH   1   2
BRANCH   1  10
ATOM     10  C   UNL     1      11.838  23.779  14.807  1.00  0.00     0.000 C 
BRANCH  10  11
ATOM     11  C   UNL     1      11.963  25.296  14.598  1.00  0.00    -0.000 C 
BRANCH  11  12
ATOM     12  C   UNL     1      11.000  25.827  13.521  1.00  0.00    -0.000 C 
BRANCH  12  13
ATOM     13  C   UNL     1      10.451  24.711  12.617  1.00  0.00    -0.000 C 
BRANCH  13  14
ATOM     14  C   UNL     1      10.910  24.855  11.157  1.00  0.00    -0.000 C 
BRANCH  14  15
ATOM     15  C   UNL     1      11.294  23.493  10.567  1.00  0.00    -0.000 C 
BRANCH  15  16
ATOM     16  C   UNL     1      10.901  22.353  11.515  1.00  0.00    -0.003 C 
ATOM     17  C   UNL     1      11.879  21.187  11.409  1.00  0.00     0.004 C 
ENDBRANCH  15  16
ENDBRANCH  14  15
ENDBRANCH  13  14
ENDBRANCH  12  13
ENDBRANCH  11  12
ENDBRANCH  10  11
ENDBRANCH   1  10
TORSDOF 13
ENDMDL
MODEL 4
REMARK VINA RESULT:     0.017      8.880     10.639
REMARK INTER + INTRA:          -2.829
REMARK INTER:                   0.000
REMARK INTRA:                  -2.829
REMARK UNBOUND:                -2.860
REMARK SMILES CCCCCCCCCCCCCCC(=O)[O-]
REMARK SMILES IDX 9 1 10 2 11 3 12 4 13 5 14 6 15 7 16 8 17 9 8 10 7 11 6 12
REMARK SMILES IDX 5 13 4 14 3 15 2 16 1 17
REMARK H PARENT
REMARK Flexibility Score: inf
ROOT
ATOM      1  C   UNL     1      12.577  18.431  20.738  1.00  0.00     0.000 C 
ENDROOT
BRANCH   1   2
ATOM      2  C   UNL     1      12.737  19.265  22.014  1.00  0.00     0.000 C 
BRANCH   2   3
ATOM      3  C   UNL     1      11.386  19.457  22.719  1.00  0.00     0.000 C 
BRANCH   3   4
ATOM      4  C   UNL     1      11.192  20.883  23.268  1.00  0.00     0.000 C 
BRANCH   4   5
ATOM      5  C   UNL     1      12.463  21.751  23.288  1.00  0.00     0.006 C 
BRANCH   5   6
ATOM      6  C   UNL     1      12.236  23.156  22.715  1.00  0.00     0.053 C 
BRANCH   6   7
ATOM      7  C   UNL     1      11.142  23.853  23.459  1.00  0.00     0.041 C 
ATOM      8  O   UNL     1      10.095  24.210  22.858  1.00  0.00    -0.550 OA
ATOM      9  O   UNL     1      11.255  24.063  24.827  1.00  0.00    -0.550 OA
ENDBRANCH   6   7
ENDBRANCH   5   6
ENDBRANCH   4   5
ENDBRANCH   3   4
ENDBRANCH   2   3
ENDBRANCH   1   2
BRANCH   1  10
ATOM     10  C   UNL     1      12.797  19.293  19.485  1.00  0.00     0.000 C 
BRANCH  10  11
ATOM     11  C   UNL     1      13.449  20.646  19.806  1.00  0.00    -0.000 C 
BRANCH  11  12
ATOM     12  C   UNL     1      12.627  21.839  19.284  1.00  0.00    -0.000 C 
BRANCH  12  13
ATOM     13  C   UNL     1      11.184  21.451  18.926  1.00  0.00    -0.000 C 
BRANCH  13  14
ATOM     14  C   UNL     1      10.152  22.068  19.884  1.00  0.00    -0.000 C 
BRANCH  14  15
ATOM     15  C   UNL     1       9.060  21.052  20.240  1.00  0.00    -0.000 C 
BRANCH  15  16
ATOM     16  C   UNL     1       9.132  19.824  19.326  1.00  0.00    -0.003 C 
ATOM     17  C   UNL     1       8.887  18.538  20.109  1.00  0.00     0.004 C 
ENDBRANCH  15  16
ENDBRANCH  14  15
ENDBRANCH  13  14
ENDBRANCH  12  13
ENDBRANCH  11  12
ENDBRANCH  10  11
ENDBRANCH   1  10
TORSDOF 13
ENDMDL
MODEL 5
REMARK VINA RESULT:     0.020      5.237      6.675
REMARK INTER + INTRA:          -2.824
REMARK INTER:                   0.000
REMARK INTRA:                  -2.824
REMARK UNBOUND:                -2.860
REMARK SMILES CCCCCCCCCCCCCCC(=O)[O-]
REMARK SMILES IDX 9 1 10 2 11 3 12 4 13 5 14 6 15 7 16 8 17 9 8 10 7 11 6 12
REMARK SMILES IDX 5 13 4 14 3 15 2 16 1 17
REMARK H PARENT
REMARK Flexibility Score: inf
ROOT
ATOM      1  C   UNL     1      15.618  12.280  16.918  1.00  0.00     0.000 C 
ENDROOT
BRANCH   1   2
ATOM      2  C   UNL     1      15.294  11.931  18.375  1.00  0.00     0.000 C 
BRANCH   2   3
ATOM      3  C   UNL     1      15.317  13.186  19.260  1.00  0.00     0.000 C 
BRANCH   3   4
ATOM      4  C   UNL     1      14.010  13.391  20.047  1.00  0.00     0.000 C 
BRANCH   4   5
ATOM      5  C   UNL     1      13.234  12.100  20.367  1.00  0.00     0.006 C 
BRANCH   5   6
ATOM      6  C   UNL     1      11.713  12.283  20.298  1.00  0.00     0.053 C 
BRANCH   6   7
ATOM      7  C   UNL     1      11.275  13.370  21.228  1.00  0.00     0.041 C 
ATOM      8  O   UNL     1      11.461  13.256  22.468  1.00  0.00    -0.550 OA
ATOM      9  O   UNL     1      10.709  14.533  20.722  1.00  0.00    -0.550 OA
ENDBRANCH   6   7
ENDBRANCH   5   6
ENDBRANCH   4   5
ENDBRANCH   3   4
ENDBRANCH   2   3
ENDBRANCH   1   2
BRANCH   1  10
ATOM     10  C   UNL     1      14.446  11.919  15.992  1.00  0.00     0.000 C 
BRANCH  10  11
ATOM     11  C   UNL     1      13.303  11.212  16.734  1.00  0.00    -0.000 C 
BRANCH  11  12
ATOM     12  C   UNL     1      11.964  11.961  16.612  1.00  0.00    -0.000 C 
BRANCH  12  13
ATOM     13  C   UNL     1      12.144  13.428  16.188  1.00  0.00    -0.000 C 
BRANCH  13  14
ATOM     14  C   UNL     1      11.680  14.416  17.268  1.00  0.00    -0.000 C 
BRANCH  14  15
ATOM     15  C   UNL     1      12.691  15.557  17.438  1.00  0.00    -0.000 C 
BRANCH  15  16
ATOM     16  C   UNL     1      13.756  15.515  16.335  1.00  0.00    -0.003 C 
ATOM     17  C   UNL     1      15.106  15.999  16.855  1.00  0.00     0.004 C 
ENDBRANCH  15  16
ENDBRANCH  14  15
ENDBRANCH  13  14
ENDBRANCH  12  13
ENDBRANCH  11  12
ENDBRANCH  10  11
ENDBRANCH   1  10
TORSDOF 13
ENDMDL
MODEL 6
REMARK VINA RESULT:     0.024      8.307     10.138
REMARK INTER + INTRA:          -2.817
REMARK INTER:                   0.000
REMARK INTRA:                  -2.817
REMARK UNBOUND:                -2.860
REMARK SMILES CCCCCCCCCCCCCCC(=O)[O-]
REMARK SMILES IDX 9 1 10 2 11 3 12 4 13 5 14 6 15 7 16 8 17 9 8 10 7 11 6 12
REMARK SMILES IDX 5 13 4 14 3 15 2 16 1 17
REMARK H PARENT
REMARK Flexibility Score: inf
ROOT
ATOM      1  C   UNL     1      16.834  20.419  20.336  1.00  0.00     0.000 C 
ENDROOT
BRANCH   1   2
ATOM      2  C   UNL     1      16.918  21.886  20.772  1.00  0.00     0.000 C 
BRANCH   2   3
ATOM      3  C   UNL     1      15.518  22.512  20.872  1.00  0.00     0.000 C 
BRANCH   3   4
ATOM      4  C   UNL     1      15.303  23.665  19.874  1.00  0.00     0.000 C 
BRANCH   4   5
ATOM      5  C   UNL     1      13.970  23.620  19.105  1.00  0.00     0.006 C 
BRANCH   5   6
ATOM      6  C   UNL     1      12.926  22.717  19.772  1.00  0.00     0.053 C 
BRANCH   6   7
ATOM      7  C   UNL     1      12.200  21.910  18.743  1.00  0.00     0.041 C 
ATOM      8  O   UNL     1      11.706  20.792  19.046  1.00  0.00    -0.550 OA
ATOM      9  O   UNL     1      12.024  22.415  17.461  1.00  0.00    -0.550 OA
ENDBRANCH   6   7
ENDBRANCH   5   6
ENDBRANCH   4   5
ENDBRANCH   3   4
ENDBRANCH   2   3
ENDBRANCH   1   2
BRANCH   1  10
ATOM     10  C   UNL     1      15.373  19.950  20.260  1.00  0.00     0.000 C 
BRANCH  10  11
ATOM     11  C   UNL     1      14.999  19.404  18.874  1.00  0.00    -0.000 C 
BRANCH  11  12
ATOM     12  C   UNL     1      15.934  19.916  17.763  1.00  0.00    -0.000 C 
BRANCH  12  13
ATOM     13  C   UNL     1      15.259  20.955  16.854  1.00  0.00    -0.000 C 
BRANCH  13  14
ATOM     14  C   UNL     1      16.178  22.143  16.530  1.00  0.00    -0.000 C 
BRANCH  14  15
ATOM     15  C   UNL     1      17.600  21.892  17.047  1.00  0.00    -0.000 C 
BRANCH  15  16
ATOM     16  C   UNL     1      18.239  23.192  17.551  1.00  0.00    -0.003 C 
ATOM     17  C   UNL     1      17.514  24.413  16.995  1.00  0.00     0.004 C 
ENDBRANCH  15  16
ENDBRANCH  14  15
ENDBRANCH  13  14
ENDBRANCH  12  13
ENDBRANCH  11  12
ENDBRANCH  10  11
ENDBRANCH   1  10
TORSDOF 13
ENDMDL
MODEL 7
REMARK VINA RESULT:     0.029      9.028     11.040
REMARK INTER + INTRA:          -2.809
REMARK INTER:                   0.000
REMARK INTRA:                  -2.809
REMARK UNBOUND:                -2.860
REMARK SMILES CCCCCCCCCCCCCCC(=O)[O-]
REMARK SMILES IDX 9 1 10 2 11 3 12 4 13 5 14 6 15 7 16 8 17 9 8 10 7 11 6 12
REMARK SMILES IDX 5 13 4 14 3 15 2 16 1 17
REMARK H PARENT
REMARK Flexibility Score: inf
ROOT
ATOM      1  C   UNL     1      18.574  17.324  22.218  1.00  0.00     0.000 C 
ENDROOT
BRANCH   1   2
ATOM      2  C   UNL     1      17.826  16.235  21.439  1.00  0.00     0.000 C 
BRANCH   2   3
ATOM      3  C   UNL     1      16.352  16.167  21.865  1.00  0.00     0.000 C 
BRANCH   3   4
ATOM      4  C   UNL     1      15.386  16.646  20.766  1.00  0.00     0.000 C 
BRANCH   4   5
ATOM      5  C   UNL     1      14.224  17.527  21.259  1.00  0.00     0.006 C 
BRANCH   5   6
ATOM      6  C   UNL     1      14.084  17.532  22.786  1.00  0.00     0.053 C 
BRANCH   6   7
ATOM      7  C   UNL     1      13.764  18.909  23.276  1.00  0.00     0.041 C 
ATOM      8  O   UNL     1      13.149  19.719  22.534  1.00  0.00    -0.550 OA
ATOM      9  O   UNL     1      14.100  19.282  24.571  1.00  0.00    -0.550 OA
ENDBRANCH   6   7
ENDBRANCH   5   6
ENDBRANCH   4   5
ENDBRANCH   3   4
ENDBRANCH   2   3
ENDBRANCH   1   2
BRANCH   1  10
ATOM     10  C   UNL     1      17.758  17.790  23.433  1.00  0.00     0.000 C 
BRANCH  10  11
ATOM     11  C   UNL     1      17.492  19.303  23.421  1.00  0.00    -0.000 C 
BRANCH  11  12
ATOM     12  C   UNL     1      17.799  19.948  22.057  1.00  0.00    -0.000 C 
BRANCH  12  13
ATOM     13  C   UNL     1      16.533  20.444  21.340  1.00  0.00    -0.000 C 
BRANCH  13  14
ATOM     14  C   UNL     1      16.529  20.098  19.843  1.00  0.00    -0.000 C 
BRANCH  14  15
ATOM     15  C   UNL     1      17.910  19.606  19.390  1.00  0.00    -0.000 C 
BRANCH  15  16
ATOM     16  C   UNL     1      17.782  18.414  18.434  1.00  0.00    -0.003 C 
ATOM     17  C   UNL     1      16.448  18.440  17.695  1.00  0.00     0.004 C 
ENDBRANCH  15  16
ENDBRANCH  14  15
ENDBRANCH  13  14
ENDBRANCH  12  13
ENDBRANCH  11  12
ENDBRANCH  10  11
ENDBRANCH   1  10
TORSDOF 13
ENDMDL
MODEL 8
REMARK VINA RESULT:     0.029      6.653      8.904
REMARK INTER + INTRA:          -2.809
REMARK INTER:                   0.000
REMARK INTRA:                  -2.809
REMARK UNBOUND:                -2.860
REMARK SMILES CCCCCCCCCCCCCCC(=O)[O-]
REMARK SMILES IDX 9 1 10 2 11 3 12 4 13 5 14 6 15 7 16 8 17 9 8 10 7 11 6 12
REMARK SMILES IDX 5 13 4 14 3 15 2 16 1 17
REMARK H PARENT
REMARK Flexibility Score: inf
ROOT
ATOM      1  C   UNL     1      10.623  18.019  20.612  1.00  0.00     0.000 C 
ENDROOT
BRANCH   1   2
ATOM      2  C   UNL     1      11.978  18.533  20.112  1.00  0.00     0.000 C 
BRANCH   2   3
ATOM      3  C   UNL     1      12.880  18.940  21.287  1.00  0.00     0.000 C 
BRANCH   3   4
ATOM      4  C   UNL     1      14.335  18.462  21.122  1.00  0.00     0.000 C 
BRANCH   4   5
ATOM      5  C   UNL     1      14.717  18.022  19.697  1.00  0.00     0.006 C 
BRANCH   5   6
ATOM      6  C   UNL     1      15.392  16.645  19.657  1.00  0.00     0.053 C 
BRANCH   6   7
ATOM      7  C   UNL     1      15.419  16.118  18.258  1.00  0.00     0.041 C 
ATOM      8  O   UNL     1      15.134  14.912  18.029  1.00  0.00    -0.550 OA
ATOM      9  O   UNL     1      15.708  16.968  17.199  1.00  0.00    -0.550 OA
ENDBRANCH   6   7
ENDBRANCH   5   6
ENDBRANCH   4   5
ENDBRANCH   3   4
ENDBRANCH   2   3
ENDBRANCH   1   2
BRANCH   1  10
ATOM     10  C   UNL     1      10.410  16.550  20.214  1.00  0.00     0.000 C 
BRANCH  10  11
ATOM     11  C   UNL     1      11.588  15.979  19.410  1.00  0.00    -0.000 C 
BRANCH  11  12
ATOM     12  C   UNL     1      12.203  14.730  20.065  1.00  0.00    -0.000 C 
BRANCH  12  13
ATOM     13  C   UNL     1      12.020  14.712  21.591  1.00  0.00    -0.000 C 
BRANCH  13  14
ATOM     14  C   UNL     1      13.308  15.077  22.345  1.00  0.00    -0.000 C 
BRANCH  14  15
ATOM     15  C   UNL     1      13.003  15.988  23.541  1.00  0.00    -0.000 C 
BRANCH  15  16
ATOM     16  C   UNL     1      11.491  16.130  23.752  1.00  0.00    -0.003 C 
ATOM     17  C   UNL     1      11.137  17.515  24.284  1.00  0.00     0.004 C 
ENDBRANCH  15  16
ENDBRANCH  14  15
ENDBRANCH  13  14
ENDBRANCH  12  13
ENDBRANCH  11  12
ENDBRANCH  10  11
ENDBRANCH   1  10
TORSDOF 13
ENDMDL
MODEL 9
REMARK VINA RESULT:     0.032      6.916      8.967
REMARK INTER + INTRA:          -2.803
REMARK INTER:                   0.000
REMARK INTRA:                  -2.803
REMARK UNBOUND:                -2.860
REMARK SMILES CCCCCCCCCCCCCCC(=O)[O-]
REMARK SMILES IDX 9 1 10 2 11 3 12 4 13 5 14 6 15 7 16 8 17 9 8 10 7 11 6 12
REMARK SMILES IDX 5 13 4 14 3 15 2 16 1 17
REMARK H PARENT
REMARK Flexibility Score: inf
ROOT
ATOM      1  C   UNL     1       7.134  16.362  23.625  1.00  0.00     0.000 C 
ENDROOT
BRANCH   1   2
ATOM      2  C   UNL     1       7.563  15.326  22.579  1.00  0.00     0.000 C 
BRANCH   2   3
ATOM      3  C   UNL     1       8.798  15.806  21.802  1.00  0.00     0.000 C 
BRANCH   3   4
ATOM      4  C   UNL     1       8.694  15.546  20.288  1.00  0.00     0.000 C 
BRANCH   4   5
ATOM      5  C   UNL     1       7.595  14.553  19.873  1.00  0.00     0.006 C 
BRANCH   5   6
ATOM      6  C   UNL     1       6.712  15.080  18.735  1.00  0.00     0.053 C 
BRANCH   6   7
ATOM      7  C   UNL     1       5.577  14.139  18.476  1.00  0.00     0.041 C 
ATOM      8  O   UNL     1       4.417  14.422  18.875  1.00  0.00    -0.550 OA
ATOM      9  O   UNL     1       5.791  12.975  17.750  1.00  0.00    -0.550 OA
ENDBRANCH   6   7
ENDBRANCH   5   6
ENDBRANCH   4   5
ENDBRANCH   3   4
ENDBRANCH   2   3
ENDBRANCH   1   2
BRANCH   1  10
ATOM     10  C   UNL     1       5.739  16.922  23.306  1.00  0.00     0.000 C 
BRANCH  10  11
ATOM     11  C   UNL     1       5.101  16.253  22.079  1.00  0.00    -0.000 C 
BRANCH  11  12
ATOM     12  C   UNL     1       4.732  17.264  20.979  1.00  0.00    -0.000 C 
BRANCH  12  13
ATOM     13  C   UNL     1       5.576  18.547  21.047  1.00  0.00    -0.000 C 
BRANCH  13  14
ATOM     14  C   UNL     1       6.629  18.621  19.931  1.00  0.00    -0.000 C 
BRANCH  14  15
ATOM     15  C   UNL     1       7.951  19.190  20.462  1.00  0.00    -0.000 C 
BRANCH  15  16
ATOM     16  C   UNL     1       7.800  19.670  21.910  1.00  0.00    -0.003 C 
ATOM     17  C   UNL     1       9.076  19.422  22.709  1.00  0.00     0.004 C 
ENDBRANCH  15  16
ENDBRANCH  14  15
ENDBRANCH  13  14
ENDBRANCH  12  13
ENDBRANCH  11  12
ENDBRANCH  10  11
ENDBRANCH   1  10
TORSDOF 13
ENDMDL
