MODEL 1
REMARK VINA RESULT:    -3.874      0.000      0.000
REMARK INTER + INTRA:          -6.315
REMARK INTER:                  -5.913
REMARK INTRA:                  -0.403
REMARK UNBOUND:                -0.403
REMARK SMILES CCCCCCCCCCC(=O)[O-]
REMARK SMILES IDX 7 1 8 2 9 3 10 4 11 5 12 6 13 7 6 8 5 9 4 10 3 11 2 12 1 13
REMARK H PARENT
REMARK Flexibility Score: inf
ROOT
ATOM      1  C   UNL     1      -3.792   7.150  -4.539  1.00  0.00     0.000 C 
ENDROOT
BRANCH   1   2
ATOM      2  C   UNL     1      -4.622   8.048  -3.614  1.00  0.00     0.000 C 
BRANCH   2   3
ATOM      3  C   UNL     1      -3.752   8.647  -2.502  1.00  0.00     0.006 C 
BRANCH   3   4
ATOM      4  C   UNL     1      -4.311   8.298  -1.120  1.00  0.00     0.053 C 
BRANCH   4   5
ATOM      5  C   UNL     1      -3.696   9.170  -0.071  1.00  0.00     0.041 C 
ATOM      6  O   UNL     1      -4.268  10.235   0.283  1.00  0.00    -0.550 OA
ATOM      7  O   UNL     1      -2.517   8.783   0.552  1.00  0.00    -0.550 OA
ENDBRANCH   4   5
ENDBRANCH   3   4
ENDBRANCH   2   3
ENDBRANCH   1   2
BRANCH   1   8
ATOM      8  C   UNL     1      -2.394   7.738  -4.768  1.00  0.00     0.000 C 
BRANCH   8   9
ATOM      9  C   UNL     1      -1.530   6.790  -5.613  1.00  0.00    -0.000 C 
BRANCH   9  10
ATOM     10  C   UNL     1      -2.020   5.334  -5.556  1.00  0.00    -0.000 C 
BRANCH  10  11
ATOM     11  C   UNL     1      -1.226   4.407  -6.493  1.00  0.00    -0.000 C 
BRANCH  11  12
ATOM     12  C   UNL     1      -1.576   2.925  -6.288  1.00  0.00    -0.003 C 
ATOM     13  C   UNL     1      -1.249   2.431  -4.879  1.00  0.00     0.004 C 
ENDBRANCH  11  12
ENDBRANCH  10  11
ENDBRANCH   9  10
ENDBRANCH   8   9
ENDBRANCH   1   8
TORSDOF 9
ENDMDL
MODEL 2
REMARK VINA RESULT:    -3.850      1.136      1.557
REMARK INTER + INTRA:          -6.278
REMARK INTER:                  -5.778
REMARK INTRA:                  -0.500
REMARK UNBOUND:                -0.403
REMARK SMILES CCCCCCCCCCC(=O)[O-]
REMARK SMILES IDX 7 1 8 2 9 3 10 4 11 5 12 6 13 7 6 8 5 9 4 10 3 11 2 12 1 13
REMARK H PARENT
REMARK Flexibility Score: inf
ROOT
ATOM      1  C   UNL     1      -4.391   7.452  -3.840  1.00  0.00     0.000 C 
ENDROOT
BRANCH   1   2
ATOM      2  C   UNL     1      -4.928   8.488  -2.846  1.00  0.00     0.000 C 
BRANCH   2   3
ATOM      3  C   UNL     1      -4.603   8.087  -1.402  1.00  0.00     0.006 C 
BRANCH   3   4
ATOM      4  C   UNL     1      -3.631   9.081  -0.762  1.00  0.00     0.053 C 
BRANCH   4   5
ATOM      5  C   UNL     1      -2.373   8.389  -0.344  1.00  0.00     0.041 C 
ATOM      6  O   UNL     1      -1.775   7.623  -1.145  1.00  0.00    -0.550 OA
ATOM      7  O   UNL     1      -1.832   8.628   0.913  1.00  0.00    -0.550 OA
ENDBRANCH   4   5
ENDBRANCH   3   4
ENDBRANCH   2   3
ENDBRANCH   1   2
BRANCH   1   8
ATOM      8  C   UNL     1      -3.270   8.045  -4.702  1.00  0.00     0.000 C 
BRANCH   8   9
ATOM      9  C   UNL     1      -1.952   7.284  -4.491  1.00  0.00    -0.000 C 
BRANCH   9  10
ATOM     10  C   UNL     1      -1.561   6.430  -5.708  1.00  0.00    -0.000 C 
BRANCH  10  11
ATOM     11  C   UNL     1      -1.203   4.984  -5.324  1.00  0.00    -0.000 C 
BRANCH  11  12
ATOM     12  C   UNL     1      -1.737   3.957  -6.336  1.00  0.00    -0.003 C 
ATOM     13  C   UNL     1      -1.274   2.533  -6.032  1.00  0.00     0.004 C 
ENDBRANCH  11  12
ENDBRANCH  10  11
ENDBRANCH   9  10
ENDBRANCH   8   9
ENDBRANCH   1   8
TORSDOF 9
ENDMDL
MODEL 3
REMARK VINA RESULT:    -3.755      3.546      6.028
REMARK INTER + INTRA:          -6.134
REMARK INTER:                  -5.280
REMARK INTRA:                  -0.853
REMARK UNBOUND:                -0.403
REMARK SMILES CCCCCCCCCCC(=O)[O-]
REMARK SMILES IDX 7 1 8 2 9 3 10 4 11 5 12 6 13 7 6 8 5 9 4 10 3 11 2 12 1 13
REMARK H PARENT
REMARK Flexibility Score: inf
ROOT
ATOM      1  C   UNL     1      -4.655   7.401  -3.852  1.00  0.00     0.000 C 
ENDROOT
BRANCH   1   2
ATOM      2  C   UNL     1      -3.570   7.459  -4.934  1.00  0.00     0.000 C 
BRANCH   2   3
ATOM      3  C   UNL     1      -2.208   7.821  -4.329  1.00  0.00     0.006 C 
BRANCH   3   4
ATOM      4  C   UNL     1      -1.222   6.657  -4.460  1.00  0.00     0.053 C 
BRANCH   4   5
ATOM      5  C   UNL     1      -1.344   6.016  -5.806  1.00  0.00     0.041 C 
ATOM      6  O   UNL     1      -0.877   6.589  -6.825  1.00  0.00    -0.550 OA
ATOM      7  O   UNL     1      -1.930   4.762  -5.929  1.00  0.00    -0.550 OA
ENDBRANCH   4   5
ENDBRANCH   3   4
ENDBRANCH   2   3
ENDBRANCH   1   2
BRANCH   1   8
ATOM      8  C   UNL     1      -4.531   8.585  -2.884  1.00  0.00     0.000 C 
BRANCH   8   9
ATOM      9  C   UNL     1      -4.883   8.162  -1.450  1.00  0.00    -0.000 C 
BRANCH   9  10
ATOM     10  C   UNL     1      -4.225   9.060  -0.390  1.00  0.00    -0.000 C 
BRANCH  10  11
ATOM     11  C   UNL     1      -2.724   9.279  -0.650  1.00  0.00    -0.000 C 
BRANCH  11  12
ATOM     12  C   UNL     1      -1.842   8.293   0.133  1.00  0.00    -0.003 C 
ATOM     13  C   UNL     1      -1.077   7.335  -0.778  1.00  0.00     0.004 C 
ENDBRANCH  11  12
ENDBRANCH  10  11
ENDBRANCH   9  10
ENDBRANCH   8   9
ENDBRANCH   1   8
TORSDOF 9
ENDMDL
MODEL 4
REMARK VINA RESULT:    -3.720      1.613      1.982
REMARK INTER + INTRA:          -6.080
REMARK INTER:                  -5.522
REMARK INTRA:                  -0.557
REMARK UNBOUND:                -0.403
REMARK SMILES CCCCCCCCCCC(=O)[O-]
REMARK SMILES IDX 7 1 8 2 9 3 10 4 11 5 12 6 13 7 6 8 5 9 4 10 3 11 2 12 1 13
REMARK H PARENT
REMARK Flexibility Score: inf
ROOT
ATOM      1  C   UNL     1      -1.180   7.516  -3.306  1.00  0.00     0.000 C 
ENDROOT
BRANCH   1   2
ATOM      2  C   UNL     1      -1.493   7.283  -1.823  1.00  0.00     0.000 C 
BRANCH   2   3
ATOM      3  C   UNL     1      -1.683   8.614  -1.085  1.00  0.00     0.006 C 
BRANCH   3   4
ATOM      4  C   UNL     1      -2.907   8.563  -0.168  1.00  0.00     0.053 C 
BRANCH   4   5
ATOM      5  C   UNL     1      -4.152   8.872  -0.938  1.00  0.00     0.041 C 
ATOM      6  O   UNL     1      -4.434  10.062  -1.237  1.00  0.00    -0.550 OA
ATOM      7  O   UNL     1      -4.977   7.840  -1.370  1.00  0.00    -0.550 OA
ENDBRANCH   4   5
ENDBRANCH   3   4
ENDBRANCH   2   3
ENDBRANCH   1   2
BRANCH   1   8
ATOM      8  C   UNL     1      -2.466   7.732  -4.113  1.00  0.00     0.000 C 
BRANCH   8   9
ATOM      9  C   UNL     1      -2.682   6.592  -5.119  1.00  0.00    -0.000 C 
BRANCH   9  10
ATOM     10  C   UNL     1      -1.362   5.995  -5.630  1.00  0.00    -0.000 C 
BRANCH  10  11
ATOM     11  C   UNL     1      -1.565   4.670  -6.385  1.00  0.00    -0.000 C 
BRANCH  11  12
ATOM     12  C   UNL     1      -1.594   3.455  -5.444  1.00  0.00    -0.003 C 
ATOM     13  C   UNL     1      -1.119   2.171  -6.123  1.00  0.00     0.004 C 
ENDBRANCH  11  12
ENDBRANCH  10  11
ENDBRANCH   9  10
ENDBRANCH   8   9
ENDBRANCH   1   8
TORSDOF 9
ENDMDL
MODEL 5
REMARK VINA RESULT:    -3.700      3.008      5.716
REMARK INTER + INTRA:          -6.050
REMARK INTER:                  -5.206
REMARK INTRA:                  -0.843
REMARK UNBOUND:                -0.403
REMARK SMILES CCCCCCCCCCC(=O)[O-]
REMARK SMILES IDX 7 1 8 2 9 3 10 4 11 5 12 6 13 7 6 8 5 9 4 10 3 11 2 12 1 13
REMARK H PARENT
REMARK Flexibility Score: inf
ROOT
ATOM      1  C   UNL     1      -1.115   8.729  -2.960  1.00  0.00     0.000 C 
ENDROOT
BRANCH   1   2
ATOM      2  C   UNL     1      -2.311   8.903  -3.903  1.00  0.00     0.000 C 
BRANCH   2   3
ATOM      3  C   UNL     1      -3.022   7.565  -4.144  1.00  0.00     0.006 C 
BRANCH   3   4
ATOM      4  C   UNL     1      -4.539   7.718  -4.012  1.00  0.00     0.053 C 
BRANCH   4   5
ATOM      5  C   UNL     1      -4.888   8.385  -2.720  1.00  0.00     0.041 C 
ATOM      6  O   UNL     1      -5.475   9.499  -2.720  1.00  0.00    -0.550 OA
ATOM      7  O   UNL     1      -4.611   7.754  -1.513  1.00  0.00    -0.550 OA
ENDBRANCH   4   5
ENDBRANCH   3   4
ENDBRANCH   2   3
ENDBRANCH   1   2
BRANCH   1   8
ATOM      8  C   UNL     1      -1.084   7.316  -2.365  1.00  0.00     0.000 C 
BRANCH   8   9
ATOM      9  C   UNL     1      -1.197   7.361  -0.834  1.00  0.00    -0.000 C 
BRANCH   9  10
ATOM     10  C   UNL     1      -1.433   8.783  -0.299  1.00  0.00    -0.000 C 
BRANCH  10  11
ATOM     11  C   UNL     1      -1.175   8.895   1.214  1.00  0.00    -0.000 C 
BRANCH  11  12
ATOM     12  C   UNL     1      -2.174   9.832   1.912  1.00  0.00    -0.003 C 
ATOM     13  C   UNL     1      -3.523   9.894   1.198  1.00  0.00     0.004 C 
ENDBRANCH  11  12
ENDBRANCH  10  11
ENDBRANCH   9  10
ENDBRANCH   8   9
ENDBRANCH   1   8
TORSDOF 9
ENDMDL
MODEL 6
REMARK VINA RESULT:    -3.668      3.760      6.648
REMARK INTER + INTRA:          -6.001
REMARK INTER:                  -5.279
REMARK INTRA:                  -0.722
REMARK UNBOUND:                -0.403
REMARK SMILES CCCCCCCCCCC(=O)[O-]
REMARK SMILES IDX 7 1 8 2 9 3 10 4 11 5 12 6 13 7 6 8 5 9 4 10 3 11 2 12 1 13
REMARK H PARENT
REMARK Flexibility Score: inf
ROOT
ATOM      1  C   UNL     1      -2.257   7.388  -4.430  1.00  0.00     0.000 C 
ENDROOT
BRANCH   1   2
ATOM      2  C   UNL     1      -2.574   6.151  -5.280  1.00  0.00     0.000 C 
BRANCH   2   3
ATOM      3  C   UNL     1      -1.301   5.352  -5.585  1.00  0.00     0.006 C 
BRANCH   3   4
ATOM      4  C   UNL     1      -1.619   4.115  -6.430  1.00  0.00     0.053 C 
BRANCH   4   5
ATOM      5  C   UNL     1      -1.185   2.871  -5.721  1.00  0.00     0.041 C 
ATOM      6  O   UNL     1      -0.875   2.911  -4.502  1.00  0.00    -0.550 OA
ATOM      7  O   UNL     1      -1.171   1.656  -6.395  1.00  0.00    -0.550 OA
ENDBRANCH   4   5
ENDBRANCH   3   4
ENDBRANCH   2   3
ENDBRANCH   1   2
BRANCH   1   8
ATOM      8  C   UNL     1      -0.974   7.181  -3.615  1.00  0.00     0.000 C 
BRANCH   8   9
ATOM      9  C   UNL     1      -1.186   7.577  -2.146  1.00  0.00    -0.000 C 
BRANCH   9  10
ATOM     10  C   UNL     1      -2.214   8.707  -1.980  1.00  0.00    -0.000 C 
BRANCH  10  11
ATOM     11  C   UNL     1      -3.293   8.377  -0.934  1.00  0.00    -0.000 C 
BRANCH  11  12
ATOM     12  C   UNL     1      -4.660   8.083  -1.572  1.00  0.00    -0.003 C 
ATOM     13  C   UNL     1      -5.095   9.165  -2.559  1.00  0.00     0.004 C 
ENDBRANCH  11  12
ENDBRANCH  10  11
ENDBRANCH   9  10
ENDBRANCH   8   9
ENDBRANCH   1   8
TORSDOF 9
ENDMDL
MODEL 7
REMARK VINA RESULT:    -3.663      2.825      4.314
REMARK INTER + INTRA:          -5.993
REMARK INTER:                  -5.081
REMARK INTRA:                  -0.912
REMARK UNBOUND:                -0.403
REMARK SMILES CCCCCCCCCCC(=O)[O-]
REMARK SMILES IDX 7 1 8 2 9 3 10 4 11 5 12 6 13 7 6 8 5 9 4 10 3 11 2 12 1 13
REMARK H PARENT
REMARK Flexibility Score: inf
ROOT
ATOM      1  C   UNL     1      -1.208   7.276  -2.210  1.00  0.00     0.000 C 
ENDROOT
BRANCH   1   2
ATOM      2  C   UNL     1      -0.916   7.404  -0.710  1.00  0.00     0.000 C 
BRANCH   2   3
ATOM      3  C   UNL     1      -2.002   8.228  -0.007  1.00  0.00     0.006 C 
BRANCH   3   4
ATOM      4  C   UNL     1      -1.403   9.083   1.114  1.00  0.00     0.053 C 
BRANCH   4   5
ATOM      5  C   UNL     1      -2.473   9.872   1.799  1.00  0.00     0.041 C 
ATOM      6  O   UNL     1      -2.194  10.582   2.801  1.00  0.00    -0.550 OA
ATOM      7  O   UNL     1      -3.771   9.865   1.301  1.00  0.00    -0.550 OA
ENDBRANCH   4   5
ENDBRANCH   3   4
ENDBRANCH   2   3
ENDBRANCH   1   2
BRANCH   1   8
ATOM      8  C   UNL     1      -1.021   8.620  -2.924  1.00  0.00     0.000 C 
BRANCH   8   9
ATOM      9  C   UNL     1      -2.268   8.986  -3.742  1.00  0.00    -0.000 C 
BRANCH   9  10
ATOM     10  C   UNL     1      -2.965   7.755  -4.342  1.00  0.00    -0.000 C 
BRANCH  10  11
ATOM     11  C   UNL     1      -4.441   7.646  -3.920  1.00  0.00    -0.000 C 
BRANCH  11  12
ATOM     12  C   UNL     1      -4.826   8.686  -2.857  1.00  0.00    -0.003 C 
ATOM     13  C   UNL     1      -5.101   8.060  -1.490  1.00  0.00     0.004 C 
ENDBRANCH  11  12
ENDBRANCH  10  11
ENDBRANCH   9  10
ENDBRANCH   8   9
ENDBRANCH   1   8
TORSDOF 9
ENDMDL
MODEL 8
REMARK VINA RESULT:    -3.654      3.552      6.287
REMARK INTER + INTRA:          -5.980
REMARK INTER:                  -4.965
REMARK INTRA:                  -1.014
REMARK UNBOUND:                -0.403
REMARK SMILES CCCCCCCCCCC(=O)[O-]
REMARK SMILES IDX 7 1 8 2 9 3 10 4 11 5 12 6 13 7 6 8 5 9 4 10 3 11 2 12 1 13
REMARK H PARENT
REMARK Flexibility Score: inf
ROOT
ATOM      1  C   UNL     1      -1.086   7.069  -2.582  1.00  0.00     0.000 C 
ENDROOT
BRANCH   1   2
ATOM      2  C   UNL     1      -1.015   8.312  -3.476  1.00  0.00     0.000 C 
BRANCH   2   3
ATOM      3  C   UNL     1      -1.564   8.015  -4.877  1.00  0.00     0.006 C 
BRANCH   3   4
ATOM      4  C   UNL     1      -2.327   6.688  -4.897  1.00  0.00     0.053 C 
BRANCH   4   5
ATOM      5  C   UNL     1      -1.693   5.734  -5.860  1.00  0.00     0.041 C 
ATOM      6  O   UNL     1      -1.912   4.498  -5.765  1.00  0.00    -0.550 OA
ATOM      7  O   UNL     1      -0.901   6.215  -6.895  1.00  0.00    -0.550 OA
ENDBRANCH   4   5
ENDBRANCH   3   4
ENDBRANCH   2   3
ENDBRANCH   1   2
BRANCH   1   8
ATOM      8  C   UNL     1      -1.099   7.457  -1.099  1.00  0.00     0.000 C 
BRANCH   8   9
ATOM      9  C   UNL     1      -1.773   8.822  -0.893  1.00  0.00    -0.000 C 
BRANCH   9  10
ATOM     10  C   UNL     1      -2.930   8.765   0.117  1.00  0.00    -0.000 C 
BRANCH  10  11
ATOM     11  C   UNL     1      -4.277   9.177  -0.502  1.00  0.00    -0.000 C 
BRANCH  11  12
ATOM     12  C   UNL     1      -4.866   8.086  -1.409  1.00  0.00    -0.003 C 
ATOM     13  C   UNL     1      -4.831   8.466  -2.889  1.00  0.00     0.004 C 
ENDBRANCH  11  12
ENDBRANCH  10  11
ENDBRANCH   9  10
ENDBRANCH   8   9
ENDBRANCH   1   8
TORSDOF 9
ENDMDL
MODEL 9
REMARK VINA RESULT:    -3.622      3.070      6.828
REMARK INTER + INTRA:          -5.931
REMARK INTER:                  -5.133
REMARK INTRA:                  -0.798
REMARK UNBOUND:                -0.403
REMARK SMILES CCCCCCCCCCC(=O)[O-]
REMARK SMILES IDX 7 1 8 2 9 3 10 4 11 5 12 6 13 7 6 8 5 9 4 10 3 11 2 12 1 13
REMARK H PARENT
REMARK Flexibility Score: inf
ROOT
ATOM      1  C   UNL     1      -4.066   8.312  -0.838  1.00  0.00     0.000 C 
ENDROOT
BRANCH   1   2
ATOM      2  C   UNL     1      -4.642   8.162  -2.250  1.00  0.00     0.000 C 
BRANCH   2   3
ATOM      3  C   UNL     1      -3.644   8.652  -3.307  1.00  0.00     0.006 C 
BRANCH   3   4
ATOM      4  C   UNL     1      -3.469   7.615  -4.419  1.00  0.00     0.053 C 
BRANCH   4   5
ATOM      5  C   UNL     1      -2.030   7.227  -4.552  1.00  0.00     0.041 C 
ATOM      6  O   UNL     1      -1.314   7.089  -3.526  1.00  0.00    -0.550 OA
ATOM      7  O   UNL     1      -1.492   6.969  -5.807  1.00  0.00    -0.550 OA
ENDBRANCH   4   5
ENDBRANCH   3   4
ENDBRANCH   2   3
ENDBRANCH   1   2
BRANCH   1   8
ATOM      8  C   UNL     1      -2.656   8.914  -0.879  1.00  0.00     0.000 C 
BRANCH   8   9
ATOM      9  C   UNL     1      -1.678   8.084  -0.035  1.00  0.00    -0.000 C 
BRANCH   9  10
ATOM     10  C   UNL     1      -1.295   8.778   1.282  1.00  0.00    -0.000 C 
BRANCH  10  11
ATOM     11  C   UNL     1      -1.756  10.245   1.332  1.00  0.00    -0.000 C 
BRANCH  11  12
ATOM     12  C   UNL     1      -2.507  10.581   2.630  1.00  0.00    -0.003 C 
ATOM     13  C   UNL     1      -4.021  10.647   2.435  1.00  0.00     0.004 C 
ENDBRANCH  11  12
ENDBRANCH  10  11
ENDBRANCH   9  10
ENDBRANCH   8   9
ENDBRANCH   1   8
TORSDOF 9
ENDMDL
