MODEL 1
REMARK VINA RESULT:    -3.064      0.000      0.000
REMARK INTER + INTRA:          -3.684
REMARK INTER:                  -3.601
REMARK INTRA:                  -0.083
REMARK UNBOUND:                -0.083
REMARK SMILES O=C([O-])CCC(=O)[O-]
REMARK SMILES IDX 4 1 2 2 1 3 3 4 5 5 6 6 7 7 8 8
REMARK H PARENT
REMARK Flexibility Score: inf
ROOT
ATOM      1  C   UNL     1      -5.987  50.774  -9.361  1.00  0.00     0.059 C 
ENDROOT
BRANCH   1   2
ATOM      2  C   UNL     1      -7.396  50.770  -8.852  1.00  0.00     0.042 C 
ATOM      3  O   UNL     1      -8.347  50.476  -9.624  1.00  0.00    -0.550 OA
ATOM      4  O   UNL     1      -7.656  51.052  -7.517  1.00  0.00    -0.550 OA
ENDBRANCH   1   2
BRANCH   1   5
ATOM      5  C   UNL     1      -5.154  51.881  -8.708  1.00  0.00     0.059 C 
BRANCH   5   6
ATOM      6  C   UNL     1      -3.845  51.360  -8.199  1.00  0.00     0.042 C 
ATOM      7  O   UNL     1      -3.819  50.481  -7.299  1.00  0.00    -0.550 OA
ATOM      8  O   UNL     1      -2.653  51.875  -8.693  1.00  0.00    -0.550 OA
ENDBRANCH   5   6
ENDBRANCH   1   5
TORSDOF 3
ENDMDL
MODEL 2
REMARK VINA RESULT:    -2.947      0.638      3.986
REMARK INTER + INTRA:          -3.547
REMARK INTER:                  -3.461
REMARK INTRA:                  -0.086
REMARK UNBOUND:                -0.083
REMARK SMILES O=C([O-])CCC(=O)[O-]
REMARK SMILES IDX 4 1 2 2 1 3 3 4 5 5 6 6 7 7 8 8
REMARK H PARENT
REMARK Flexibility Score: inf
ROOT
ATOM      1  C   UNL     1      -5.061  50.906  -9.264  1.00  0.00     0.059 C 
ENDROOT
BRANCH   1   2
ATOM      2  C   UNL     1      -3.923  51.162  -8.323  1.00  0.00     0.042 C 
ATOM      3  O   UNL     1      -3.914  50.629  -7.182  1.00  0.00    -0.550 OA
ATOM      4  O   UNL     1      -2.854  51.954  -8.721  1.00  0.00    -0.550 OA
ENDBRANCH   1   2
BRANCH   1   5
ATOM      5  C   UNL     1      -6.248  51.830  -8.978  1.00  0.00     0.059 C 
BRANCH   5   6
ATOM      6  C   UNL     1      -7.402  51.080  -8.387  1.00  0.00     0.042 C 
ATOM      7  O   UNL     1      -7.760  51.299  -7.200  1.00  0.00    -0.550 OA
ATOM      8  O   UNL     1      -8.057  50.109  -9.135  1.00  0.00    -0.550 OA
ENDBRANCH   5   6
ENDBRANCH   1   5
TORSDOF 3
ENDMDL
MODEL 3
REMARK VINA RESULT:    -2.769     22.146     23.504
REMARK INTER + INTRA:          -3.338
REMARK INTER:                  -3.242
REMARK INTRA:                  -0.096
REMARK UNBOUND:                -0.083
REMARK SMILES O=C([O-])CCC(=O)[O-]
REMARK SMILES IDX 4 1 2 2 1 3 3 4 5 5 6 6 7 7 8 8
REMARK H PARENT
REMARK Flexibility Score: inf
ROOT
ATOM      1  C   UNL     1       8.507  33.089  -7.482  1.00  0.00     0.059 C 
ENDROOT
BRANCH   1   2
ATOM      2  C   UNL     1       9.692  32.513  -6.768  1.00  0.00     0.042 C 
ATOM      3  O   UNL     1       9.621  32.243  -5.540  1.00  0.00    -0.550 OA
ATOM      4  O   UNL     1      10.860  32.237  -7.467  1.00  0.00    -0.550 OA
ENDBRANCH   1   2
BRANCH   1   5
ATOM      5  C   UNL     1       8.571  32.821  -8.989  1.00  0.00     0.059 C 
BRANCH   5   6
ATOM      6  C   UNL     1       8.990  34.041  -9.750  1.00  0.00     0.042 C 
ATOM      7  O   UNL     1       8.130  34.881 -10.125  1.00  0.00    -0.550 OA
ATOM      8  O   UNL     1      10.326  34.231 -10.079  1.00  0.00    -0.550 OA
ENDBRANCH   5   6
ENDBRANCH   1   5
TORSDOF 3
ENDMDL
MODEL 4
REMARK VINA RESULT:    -2.764     22.012     23.172
REMARK INTER + INTRA:          -3.332
REMARK INTER:                  -3.269
REMARK INTRA:                  -0.062
REMARK UNBOUND:                -0.083
REMARK SMILES O=C([O-])CCC(=O)[O-]
REMARK SMILES IDX 4 1 2 2 1 3 3 4 5 5 6 6 7 7 8 8
REMARK H PARENT
REMARK Flexibility Score: inf
ROOT
ATOM      1  C   UNL     1       7.806  33.407  -7.960  1.00  0.00     0.059 C 
ENDROOT
BRANCH   1   2
ATOM      2  C   UNL     1       7.698  33.601  -9.442  1.00  0.00     0.042 C 
ATOM      3  O   UNL     1       6.943  32.859 -10.124  1.00  0.00    -0.550 OA
ATOM      4  O   UNL     1       8.398  34.627 -10.064  1.00  0.00    -0.550 OA
ENDBRANCH   1   2
BRANCH   1   5
ATOM      5  C   UNL     1       8.564  32.122  -7.613  1.00  0.00     0.059 C 
BRANCH   5   6
ATOM      6  C   UNL     1       9.854  32.414  -6.911  1.00  0.00     0.042 C 
ATOM      7  O   UNL     1       9.880  32.543  -5.659  1.00  0.00    -0.550 OA
ATOM      8  O   UNL     1      11.022  32.583  -7.644  1.00  0.00    -0.550 OA
ENDBRANCH   5   6
ENDBRANCH   1   5
TORSDOF 3
ENDMDL
MODEL 5
REMARK VINA RESULT:    -2.642     22.163     23.348
REMARK INTER + INTRA:          -3.189
REMARK INTER:                  -3.073
REMARK INTRA:                  -0.116
REMARK UNBOUND:                -0.083
REMARK SMILES O=C([O-])CCC(=O)[O-]
REMARK SMILES IDX 4 1 2 2 1 3 3 4 5 5 6 6 7 7 8 8
REMARK H PARENT
REMARK Flexibility Score: inf
ROOT
ATOM      1  C   UNL     1       8.386  33.371  -7.397  1.00  0.00     0.059 C 
ENDROOT
BRANCH   1   2
ATOM      2  C   UNL     1       9.647  32.668  -6.997  1.00  0.00     0.042 C 
ATOM      3  O   UNL     1      10.423  32.211  -7.876  1.00  0.00    -0.550 OA
ATOM      4  O   UNL     1       9.985  32.554  -5.654  1.00  0.00    -0.550 OA
ENDBRANCH   1   2
BRANCH   1   5
ATOM      5  C   UNL     1       7.418  32.428  -8.118  1.00  0.00     0.059 C 
BRANCH   5   6
ATOM      6  C   UNL     1       7.132  32.892  -9.513  1.00  0.00     0.042 C 
ATOM      7  O   UNL     1       7.961  33.617 -10.123  1.00  0.00    -0.550 OA
ATOM      8  O   UNL     1       5.931  32.557 -10.125  1.00  0.00    -0.550 OA
ENDBRANCH   5   6
ENDBRANCH   1   5
TORSDOF 3
ENDMDL
MODEL 6
REMARK VINA RESULT:    -2.458      4.770      5.874
REMARK INTER + INTRA:          -2.973
REMARK INTER:                  -2.897
REMARK INTRA:                  -0.076
REMARK UNBOUND:                -0.083
REMARK SMILES O=C([O-])CCC(=O)[O-]
REMARK SMILES IDX 4 1 2 2 1 3 3 4 5 5 6 6 7 7 8 8
REMARK H PARENT
REMARK Flexibility Score: inf
ROOT
ATOM      1  C   UNL     1      -8.572  50.395  -3.791  1.00  0.00     0.059 C 
ENDROOT
BRANCH   1   2
ATOM      2  C   UNL     1      -8.679  50.741  -2.337  1.00  0.00     0.042 C 
ATOM      3  O   UNL     1      -9.061  49.875  -1.507  1.00  0.00    -0.550 OA
ATOM      4  O   UNL     1      -8.316  52.006  -1.893  1.00  0.00    -0.550 OA
ENDBRANCH   1   2
BRANCH   1   5
ATOM      5  C   UNL     1      -8.741  51.632  -4.679  1.00  0.00     0.059 C 
BRANCH   5   6
ATOM      6  C   UNL     1      -7.656  51.725  -5.707  1.00  0.00     0.042 C 
ATOM      7  O   UNL     1      -6.507  52.125  -5.383  1.00  0.00    -0.550 OA
ATOM      8  O   UNL     1      -7.925  51.407  -7.032  1.00  0.00    -0.550 OA
ENDBRANCH   5   6
ENDBRANCH   1   5
TORSDOF 3
ENDMDL
MODEL 7
REMARK VINA RESULT:    -1.647      1.654      4.456
REMARK INTER + INTRA:          -2.019
REMARK INTER:                  -1.921
REMARK INTRA:                  -0.098
REMARK UNBOUND:                -0.083
REMARK SMILES O=C([O-])CCC(=O)[O-]
REMARK SMILES IDX 4 1 2 2 1 3 3 4 5 5 6 6 7 7 8 8
REMARK H PARENT
REMARK Flexibility Score: inf
ROOT
ATOM      1  C   UNL     1      -3.501  51.116  -7.434  1.00  0.00     0.059 C 
ENDROOT
BRANCH   1   2
ATOM      2  C   UNL     1      -2.216  51.824  -7.739  1.00  0.00     0.042 C 
ATOM      3  O   UNL     1      -1.423  52.125  -6.809  1.00  0.00    -0.550 OA
ATOM      4  O   UNL     1      -1.876  52.114  -9.054  1.00  0.00    -0.550 OA
ENDBRANCH   1   2
BRANCH   1   5
ATOM      5  C   UNL     1      -4.716  52.008  -7.708  1.00  0.00     0.059 C 
BRANCH   5   6
ATOM      6  C   UNL     1      -5.672  51.360  -8.662  1.00  0.00     0.042 C 
ATOM      7  O   UNL     1      -6.828  51.040  -8.281  1.00  0.00    -0.550 OA
ATOM      8  O   UNL     1      -5.272  51.075  -9.961  1.00  0.00    -0.550 OA
ENDBRANCH   5   6
ENDBRANCH   1   5
TORSDOF 3
ENDMDL
