MODEL 1
REMARK VINA RESULT:    -8.597      0.000      0.000
REMARK INTER + INTRA:         -10.420
REMARK INTER:                 -10.105
REMARK INTRA:                  -0.315
REMARK UNBOUND:                -0.315
REMARK SMILES O=c1c(O)c(-c2ccc(O)c(O)c2)oc2cc(O)ccc12
REMARK SMILES IDX 5 1 3 2 2 3 1 4 21 5 15 6 14 7 16 8 17 9 19 10 20 11 6 12
REMARK SMILES IDX 7 13 8 14 9 15 13 16 11 17 10 18 12 20 4 22 18 24
REMARK H PARENT 10 19 12 21 4 23 18 25
REMARK Flexibility Score: inf
ROOT
ATOM      1  C   UNL     1      -3.272  -0.382   9.616  1.00  0.00     0.180 A 
ATOM      2  C   UNL     1      -3.809  -1.638   9.265  1.00  0.00     0.208 A 
ATOM      3  C   UNL     1      -4.375  -2.437  10.271  1.00  0.00     0.235 A 
ATOM      4  O   UNL     1      -4.852  -3.569   9.984  1.00  0.00    -0.285 OA
ATOM      5  C   UNL     1      -4.412  -1.961  11.592  1.00  0.00     0.069 A 
ATOM      6  C   UNL     1      -3.874  -0.683  11.857  1.00  0.00     0.142 A 
ATOM      7  O   UNL     1      -3.339   0.038  10.878  1.00  0.00    -0.452 OA
ATOM      8  C   UNL     1      -3.901  -0.169  13.159  1.00  0.00     0.094 A 
ATOM      9  C   UNL     1      -4.458  -0.920  14.203  1.00  0.00     0.119 A 
ATOM     10  C   UNL     1      -4.990  -2.188  13.941  1.00  0.00     0.047 A 
ATOM     11  C   UNL     1      -4.969  -2.709  12.645  1.00  0.00     0.020 A 
ENDROOT
BRANCH   1  12
ATOM     12  C   UNL     1      -2.642   0.510   8.617  1.00  0.00     0.025 A 
ATOM     13  C   UNL     1      -3.378   1.581   8.086  1.00  0.00     0.016 A 
ATOM     14  C   UNL     1      -2.797   2.449   7.157  1.00  0.00     0.051 A 
ATOM     15  C   UNL     1      -1.466   2.267   6.759  1.00  0.00     0.157 A 
ATOM     16  C   UNL     1      -1.299   0.344   8.230  1.00  0.00     0.062 A 
ATOM     17  C   UNL     1      -0.715   1.215   7.299  1.00  0.00     0.158 A 
BRANCH  15  18
ATOM     18  O   UNL     1      -0.883   3.129   5.832  1.00  0.00    -0.504 OA
ATOM     19  H   UNL     1      -0.662   4.090   6.067  1.00  0.00     0.293 HD
ENDBRANCH  15  18
BRANCH  17  20
ATOM     20  O   UNL     1       0.613   1.046   6.912  1.00  0.00    -0.504 OA
ATOM     21  H   UNL     1       0.882   1.028   5.935  1.00  0.00     0.293 HD
ENDBRANCH  17  20
ENDBRANCH   1  12
BRANCH   2  22
ATOM     22  O   UNL     1      -3.803  -2.064   7.935  1.00  0.00    -0.502 OA
ATOM     23  H   UNL     1      -3.256  -1.600   7.220  1.00  0.00     0.293 HD
ENDBRANCH   2  22
BRANCH   9  24
ATOM     24  O   UNL     1      -4.489  -0.417  15.500  1.00  0.00    -0.508 OA
ATOM     25  H   UNL     1      -5.135  -0.775  16.193  1.00  0.00     0.293 HD
ENDBRANCH   9  24
TORSDOF 5
ENDMDL
MODEL 2
REMARK VINA RESULT:    -8.496      1.951      2.909
REMARK INTER + INTRA:         -10.301
REMARK INTER:                 -10.008
REMARK INTRA:                  -0.293
REMARK UNBOUND:                -0.315
REMARK SMILES O=c1c(O)c(-c2ccc(O)c(O)c2)oc2cc(O)ccc12
REMARK SMILES IDX 5 1 3 2 2 3 1 4 21 5 15 6 14 7 16 8 17 9 19 10 20 11 6 12
REMARK SMILES IDX 7 13 8 14 9 15 13 16 11 17 10 18 12 20 4 22 18 24
REMARK H PARENT 10 19 12 21 4 23 18 25
REMARK Flexibility Score: inf
ROOT
ATOM      1  C   UNL     1      -3.711   0.425  10.158  1.00  0.00     0.180 A 
ATOM      2  C   UNL     1      -4.898   0.734  10.855  1.00  0.00     0.208 A 
ATOM      3  C   UNL     1      -5.416  -0.209  11.757  1.00  0.00     0.235 A 
ATOM      4  O   UNL     1      -6.483   0.039  12.383  1.00  0.00    -0.285 OA
ATOM      5  C   UNL     1      -4.735  -1.419  11.959  1.00  0.00     0.069 A 
ATOM      6  C   UNL     1      -3.540  -1.642  11.241  1.00  0.00     0.142 A 
ATOM      7  O   UNL     1      -3.087  -0.728  10.389  1.00  0.00    -0.452 OA
ATOM      8  C   UNL     1      -2.826  -2.832  11.422  1.00  0.00     0.094 A 
ATOM      9  C   UNL     1      -3.294  -3.807  12.314  1.00  0.00     0.119 A 
ATOM     10  C   UNL     1      -4.478  -3.588  13.025  1.00  0.00     0.047 A 
ATOM     11  C   UNL     1      -5.198  -2.403  12.851  1.00  0.00     0.020 A 
ENDROOT
BRANCH   1  12
ATOM     12  C   UNL     1      -3.110   1.358   9.177  1.00  0.00     0.025 A 
ATOM     13  C   UNL     1      -1.973   2.099   9.536  1.00  0.00     0.016 A 
ATOM     14  C   UNL     1      -1.378   2.970   8.619  1.00  0.00     0.051 A 
ATOM     15  C   UNL     1      -1.901   3.099   7.326  1.00  0.00     0.157 A 
ATOM     16  C   UNL     1      -3.620   1.475   7.871  1.00  0.00     0.062 A 
ATOM     17  C   UNL     1      -3.022   2.347   6.950  1.00  0.00     0.158 A 
BRANCH  15  18
ATOM     18  O   UNL     1      -1.311   3.967   6.409  1.00  0.00    -0.504 OA
ATOM     19  H   UNL     1      -0.922   4.858   6.697  1.00  0.00     0.293 HD
ENDBRANCH  15  18
BRANCH  17  20
ATOM     20  O   UNL     1      -3.531   2.468   5.659  1.00  0.00    -0.504 OA
ATOM     21  H   UNL     1      -4.502   2.266   5.451  1.00  0.00     0.293 HD
ENDBRANCH  17  20
ENDBRANCH   1  12
BRANCH   2  22
ATOM     22  O   UNL     1      -5.528   1.967  10.670  1.00  0.00    -0.502 OA
ATOM     23  H   UNL     1      -6.315   2.084  10.045  1.00  0.00     0.293 HD
ENDBRANCH   2  22
BRANCH   9  24
ATOM     24  O   UNL     1      -2.590  -4.994  12.500  1.00  0.00    -0.508 OA
ATOM     25  H   UNL     1      -3.066  -5.881  12.612  1.00  0.00     0.293 HD
ENDBRANCH   9  24
TORSDOF 5
ENDMDL
MODEL 3
REMARK VINA RESULT:    -8.435      1.907      3.028
REMARK INTER + INTRA:         -10.230
REMARK INTER:                  -9.931
REMARK INTRA:                  -0.300
REMARK UNBOUND:                -0.315
REMARK SMILES O=c1c(O)c(-c2ccc(O)c(O)c2)oc2cc(O)ccc12
REMARK SMILES IDX 5 1 3 2 2 3 1 4 21 5 15 6 14 7 16 8 17 9 19 10 20 11 6 12
REMARK SMILES IDX 7 13 8 14 9 15 13 16 11 17 10 18 12 20 4 22 18 24
REMARK H PARENT 10 19 12 21 4 23 18 25
REMARK Flexibility Score: inf
ROOT
ATOM      1  C   UNL     1      -2.685   0.120  10.497  1.00  0.00     0.180 A 
ATOM      2  C   UNL     1      -2.029  -0.322  11.664  1.00  0.00     0.208 A 
ATOM      3  C   UNL     1      -2.716  -1.173  12.544  1.00  0.00     0.235 A 
ATOM      4  O   UNL     1      -2.155  -1.573  13.601  1.00  0.00    -0.285 OA
ATOM      5  C   UNL     1      -4.024  -1.578  12.234  1.00  0.00     0.069 A 
ATOM      6  C   UNL     1      -4.602  -1.110  11.033  1.00  0.00     0.142 A 
ATOM      7  O   UNL     1      -3.921  -0.299  10.232  1.00  0.00    -0.452 OA
ATOM      8  C   UNL     1      -5.899  -1.500  10.683  1.00  0.00     0.094 A 
ATOM      9  C   UNL     1      -6.631  -2.352  11.522  1.00  0.00     0.119 A 
ATOM     10  C   UNL     1      -6.060  -2.815  12.713  1.00  0.00     0.047 A 
ATOM     11  C   UNL     1      -4.765  -2.432  13.070  1.00  0.00     0.020 A 
ENDROOT
BRANCH   1  12
ATOM     12  C   UNL     1      -2.036   1.032   9.528  1.00  0.00     0.025 A 
ATOM     13  C   UNL     1      -1.527   0.515   8.326  1.00  0.00     0.016 A 
ATOM     14  C   UNL     1      -0.929   1.361   7.388  1.00  0.00     0.051 A 
ATOM     15  C   UNL     1      -0.845   2.738   7.631  1.00  0.00     0.157 A 
ATOM     16  C   UNL     1      -1.968   2.419   9.759  1.00  0.00     0.062 A 
ATOM     17  C   UNL     1      -1.370   3.268   8.818  1.00  0.00     0.158 A 
BRANCH  15  18
ATOM     18  O   UNL     1      -0.248   3.585   6.699  1.00  0.00    -0.504 OA
ATOM     19  H   UNL     1       0.718   3.875   6.791  1.00  0.00     0.293 HD
ENDBRANCH  15  18
BRANCH  17  20
ATOM     20  O   UNL     1      -1.298   4.640   9.050  1.00  0.00    -0.504 OA
ATOM     21  H   UNL     1      -0.760   5.020   9.820  1.00  0.00     0.293 HD
ENDBRANCH  17  20
ENDBRANCH   1  12
BRANCH   2  22
ATOM     22  O   UNL     1      -0.710   0.058  11.922  1.00  0.00    -0.502 OA
ATOM     23  H   UNL     1       0.082  -0.428  11.520  1.00  0.00     0.293 HD
ENDBRANCH   2  22
BRANCH   9  24
ATOM     24  O   UNL     1      -7.923  -2.744  11.181  1.00  0.00    -0.508 OA
ATOM     25  H   UNL     1      -8.149  -3.712  10.987  1.00  0.00     0.293 HD
ENDBRANCH   9  24
TORSDOF 5
ENDMDL
MODEL 4
REMARK VINA RESULT:    -7.999      1.178      1.563
REMARK INTER + INTRA:          -9.717
REMARK INTER:                  -9.581
REMARK INTRA:                  -0.136
REMARK UNBOUND:                -0.315
REMARK SMILES O=c1c(O)c(-c2ccc(O)c(O)c2)oc2cc(O)ccc12
REMARK SMILES IDX 5 1 3 2 2 3 1 4 21 5 15 6 14 7 16 8 17 9 19 10 20 11 6 12
REMARK SMILES IDX 7 13 8 14 9 15 13 16 11 17 10 18 12 20 4 22 18 24
REMARK H PARENT 10 19 12 21 4 23 18 25
REMARK Flexibility Score: inf
ROOT
ATOM      1  C   UNL     1      -3.201  -0.050   9.933  1.00  0.00     0.180 A 
ATOM      2  C   UNL     1      -3.195  -1.412   9.570  1.00  0.00     0.208 A 
ATOM      3  C   UNL     1      -3.622  -2.364  10.510  1.00  0.00     0.235 A 
ATOM      4  O   UNL     1      -3.615  -3.590  10.213  1.00  0.00    -0.285 OA
ATOM      5  C   UNL     1      -4.061  -1.938  11.773  1.00  0.00     0.069 A 
ATOM      6  C   UNL     1      -4.058  -0.554  12.051  1.00  0.00     0.142 A 
ATOM      7  O   UNL     1      -3.638   0.314  11.136  1.00  0.00    -0.452 OA
ATOM      8  C   UNL     1      -4.498  -0.089  13.295  1.00  0.00     0.094 A 
ATOM      9  C   UNL     1      -4.939  -0.993  14.271  1.00  0.00     0.119 A 
ATOM     10  C   UNL     1      -4.941  -2.365  13.998  1.00  0.00     0.047 A 
ATOM     11  C   UNL     1      -4.505  -2.839  12.758  1.00  0.00     0.020 A 
ENDROOT
BRANCH   1  12
ATOM     12  C   UNL     1      -2.749   1.012   9.005  1.00  0.00     0.025 A 
ATOM     13  C   UNL     1      -1.600   1.757   9.314  1.00  0.00     0.016 A 
ATOM     14  C   UNL     1      -1.144   2.750   8.442  1.00  0.00     0.051 A 
ATOM     15  C   UNL     1      -1.821   3.001   7.242  1.00  0.00     0.157 A 
ATOM     16  C   UNL     1      -3.415   1.253   7.789  1.00  0.00     0.062 A 
ATOM     17  C   UNL     1      -2.956   2.248   6.913  1.00  0.00     0.158 A 
BRANCH  15  18
ATOM     18  O   UNL     1      -1.371   3.991   6.371  1.00  0.00    -0.504 OA
ATOM     19  H   UNL     1      -1.396   4.971   6.626  1.00  0.00     0.293 HD
ENDBRANCH  15  18
BRANCH  17  20
ATOM     20  O   UNL     1      -3.620   2.491   5.712  1.00  0.00    -0.504 OA
ATOM     21  H   UNL     1      -3.401   1.970   4.871  1.00  0.00     0.293 HD
ENDBRANCH  17  20
ENDBRANCH   1  12
BRANCH   2  22
ATOM     22  O   UNL     1      -2.800  -1.803   8.288  1.00  0.00    -0.502 OA
ATOM     23  H   UNL     1      -3.365  -1.620   7.468  1.00  0.00     0.293 HD
ENDBRANCH   2  22
BRANCH   9  24
ATOM     24  O   UNL     1      -5.378  -0.539  15.512  1.00  0.00    -0.508 OA
ATOM     25  H   UNL     1      -5.040  -0.946  16.375  1.00  0.00     0.293 HD
ENDBRANCH   9  24
TORSDOF 5
ENDMDL
MODEL 5
REMARK VINA RESULT:    -7.979      1.366      2.716
REMARK INTER + INTRA:          -9.693
REMARK INTER:                  -9.485
REMARK INTRA:                  -0.209
REMARK UNBOUND:                -0.315
REMARK SMILES O=c1c(O)c(-c2ccc(O)c(O)c2)oc2cc(O)ccc12
REMARK SMILES IDX 5 1 3 2 2 3 1 4 21 5 15 6 14 7 16 8 17 9 19 10 20 11 6 12
REMARK SMILES IDX 7 13 8 14 9 15 13 16 11 17 10 18 12 20 4 22 18 24
REMARK H PARENT 10 19 12 21 4 23 18 25
REMARK Flexibility Score: inf
ROOT
ATOM      1  C   UNL     1      -2.899   0.202  10.124  1.00  0.00     0.180 A 
ATOM      2  C   UNL     1      -2.332   0.248  11.415  1.00  0.00     0.208 A 
ATOM      3  C   UNL     1      -2.939  -0.486  12.446  1.00  0.00     0.235 A 
ATOM      4  O   UNL     1      -2.458  -0.451  13.612  1.00  0.00    -0.285 OA
ATOM      5  C   UNL     1      -4.076  -1.260  12.166  1.00  0.00     0.069 A 
ATOM      6  C   UNL     1      -4.568  -1.272  10.842  1.00  0.00     0.142 A 
ATOM      7  O   UNL     1      -3.969  -0.556   9.897  1.00  0.00    -0.452 OA
ATOM      8  C   UNL     1      -5.693  -2.039  10.521  1.00  0.00     0.094 A 
ATOM      9  C   UNL     1      -6.338  -2.795  11.509  1.00  0.00     0.119 A 
ATOM     10  C   UNL     1      -5.853  -2.783  12.821  1.00  0.00     0.047 A 
ATOM     11  C   UNL     1      -4.729  -2.021  13.152  1.00  0.00     0.020 A 
ENDROOT
BRANCH   1  12
ATOM     12  C   UNL     1      -2.328   0.961   8.988  1.00  0.00     0.025 A 
ATOM     13  C   UNL     1      -3.010   2.087   8.498  1.00  0.00     0.016 A 
ATOM     14  C   UNL     1      -2.479   2.831   7.440  1.00  0.00     0.051 A 
ATOM     15  C   UNL     1      -1.252   2.469   6.869  1.00  0.00     0.157 A 
ATOM     16  C   UNL     1      -1.086   0.614   8.425  1.00  0.00     0.062 A 
ATOM     17  C   UNL     1      -0.552   1.361   7.365  1.00  0.00     0.158 A 
BRANCH  15  18
ATOM     18  O   UNL     1      -0.720   3.207   5.813  1.00  0.00    -0.504 OA
ATOM     19  H   UNL     1      -0.362   2.756   4.979  1.00  0.00     0.293 HD
ENDBRANCH  15  18
BRANCH  17  20
ATOM     20  O   UNL     1       0.675   1.013   6.804  1.00  0.00    -0.504 OA
ATOM     21  H   UNL     1       1.261   0.295   7.214  1.00  0.00     0.293 HD
ENDBRANCH  17  20
ENDBRANCH   1  12
BRANCH   2  22
ATOM     22  O   UNL     1      -1.171   0.988  11.653  1.00  0.00    -0.502 OA
ATOM     23  H   UNL     1      -1.184   1.995  11.763  1.00  0.00     0.293 HD
ENDBRANCH   2  22
BRANCH   9  24
ATOM     24  O   UNL     1      -7.458  -3.561  11.198  1.00  0.00    -0.508 OA
ATOM     25  H   UNL     1      -8.381  -3.149  11.135  1.00  0.00     0.293 HD
ENDBRANCH   9  24
TORSDOF 5
ENDMDL
MODEL 6
REMARK VINA RESULT:    -7.529      1.520      2.029
REMARK INTER + INTRA:          -9.165
REMARK INTER:                  -8.848
REMARK INTRA:                  -0.316
REMARK UNBOUND:                -0.315
REMARK SMILES O=c1c(O)c(-c2ccc(O)c(O)c2)oc2cc(O)ccc12
REMARK SMILES IDX 5 1 3 2 2 3 1 4 21 5 15 6 14 7 16 8 17 9 19 10 20 11 6 12
REMARK SMILES IDX 7 13 8 14 9 15 13 16 11 17 10 18 12 20 4 22 18 24
REMARK H PARENT 10 19 12 21 4 23 18 25
REMARK Flexibility Score: inf
ROOT
ATOM      1  C   UNL     1      -3.811  -0.157   9.388  1.00  0.00     0.180 A 
ATOM      2  C   UNL     1      -4.914  -0.679   8.681  1.00  0.00     0.208 A 
ATOM      3  C   UNL     1      -5.804  -1.534   9.352  1.00  0.00     0.235 A 
ATOM      4  O   UNL     1      -6.792  -2.023   8.738  1.00  0.00    -0.285 OA
ATOM      5  C   UNL     1      -5.588  -1.829  10.707  1.00  0.00     0.069 A 
ATOM      6  C   UNL     1      -4.473  -1.247  11.350  1.00  0.00     0.142 A 
ATOM      7  O   UNL     1      -3.650  -0.451  10.676  1.00  0.00    -0.452 OA
ATOM      8  C   UNL     1      -4.230  -1.509  12.702  1.00  0.00     0.094 A 
ATOM      9  C   UNL     1      -5.087  -2.351  13.424  1.00  0.00     0.119 A 
ATOM     10  C   UNL     1      -6.191  -2.930  12.788  1.00  0.00     0.047 A 
ATOM     11  C   UNL     1      -6.443  -2.674  11.438  1.00  0.00     0.020 A 
ENDROOT
BRANCH   1  12
ATOM     12  C   UNL     1      -2.819   0.736   8.747  1.00  0.00     0.025 A 
ATOM     13  C   UNL     1      -1.699   0.179   8.110  1.00  0.00     0.016 A 
ATOM     14  C   UNL     1      -0.760   1.002   7.480  1.00  0.00     0.051 A 
ATOM     15  C   UNL     1      -0.938   2.391   7.465  1.00  0.00     0.157 A 
ATOM     16  C   UNL     1      -3.004   2.130   8.711  1.00  0.00     0.062 A 
ATOM     17  C   UNL     1      -2.064   2.956   8.078  1.00  0.00     0.158 A 
BRANCH  15  18
ATOM     18  O   UNL     1      -0.004   3.216   6.840  1.00  0.00    -0.504 OA
ATOM     19  H   UNL     1      -0.116   3.505   5.875  1.00  0.00     0.293 HD
ENDBRANCH  15  18
BRANCH  17  20
ATOM     20  O   UNL     1      -2.245   4.337   8.049  1.00  0.00    -0.504 OA
ATOM     21  H   UNL     1      -2.823   4.782   7.345  1.00  0.00     0.293 HD
ENDBRANCH  17  20
ENDBRANCH   1  12
BRANCH   2  22
ATOM     22  O   UNL     1      -5.131  -0.329   7.347  1.00  0.00    -0.502 OA
ATOM     23  H   UNL     1      -4.631  -0.767   6.583  1.00  0.00     0.293 HD
ENDBRANCH   2  22
BRANCH   9  24
ATOM     24  O   UNL     1      -4.852  -2.617  14.770  1.00  0.00    -0.508 OA
ATOM     25  H   UNL     1      -4.486  -3.510  15.078  1.00  0.00     0.293 HD
ENDBRANCH   9  24
TORSDOF 5
ENDMDL
MODEL 7
REMARK VINA RESULT:    -7.258      1.849      6.750
REMARK INTER + INTRA:          -8.846
REMARK INTER:                  -8.574
REMARK INTRA:                  -0.272
REMARK UNBOUND:                -0.315
REMARK SMILES O=c1c(O)c(-c2ccc(O)c(O)c2)oc2cc(O)ccc12
REMARK SMILES IDX 5 1 3 2 2 3 1 4 21 5 15 6 14 7 16 8 17 9 19 10 20 11 6 12
REMARK SMILES IDX 7 13 8 14 9 15 13 16 11 17 10 18 12 20 4 22 18 24
REMARK H PARENT 10 19 12 21 4 23 18 25
REMARK Flexibility Score: inf
ROOT
ATOM      1  C   UNL     1      -4.295   0.751  10.553  1.00  0.00     0.180 A 
ATOM      2  C   UNL     1      -5.241   0.468   9.546  1.00  0.00     0.208 A 
ATOM      3  C   UNL     1      -4.948   0.833   8.222  1.00  0.00     0.235 A 
ATOM      4  O   UNL     1      -5.784   0.601   7.306  1.00  0.00    -0.285 OA
ATOM      5  C   UNL     1      -3.721   1.449   7.931  1.00  0.00     0.069 A 
ATOM      6  C   UNL     1      -2.817   1.676   8.992  1.00  0.00     0.142 A 
ATOM      7  O   UNL     1      -3.136   1.323  10.233  1.00  0.00    -0.452 OA
ATOM      8  C   UNL     1      -1.579   2.277   8.740  1.00  0.00     0.094 A 
ATOM      9  C   UNL     1      -1.232   2.659   7.437  1.00  0.00     0.119 A 
ATOM     10  C   UNL     1      -2.126   2.436   6.385  1.00  0.00     0.047 A 
ATOM     11  C   UNL     1      -3.365   1.835   6.626  1.00  0.00     0.020 A 
ENDROOT
BRANCH   1  12
ATOM     12  C   UNL     1      -4.536   0.414  11.975  1.00  0.00     0.025 A 
ATOM     13  C   UNL     1      -4.974   1.414  12.857  1.00  0.00     0.016 A 
ATOM     14  C   UNL     1      -5.228   1.114  14.199  1.00  0.00     0.051 A 
ATOM     15  C   UNL     1      -5.063  -0.194  14.672  1.00  0.00     0.157 A 
ATOM     16  C   UNL     1      -4.392  -0.903  12.450  1.00  0.00     0.062 A 
ATOM     17  C   UNL     1      -4.648  -1.205  13.795  1.00  0.00     0.158 A 
BRANCH  15  18
ATOM     18  O   UNL     1      -5.313  -0.499  16.009  1.00  0.00    -0.504 OA
ATOM     19  H   UNL     1      -6.116  -1.053  16.284  1.00  0.00     0.293 HD
ENDBRANCH  15  18
BRANCH  17  20
ATOM     20  O   UNL     1      -4.499  -2.508  14.266  1.00  0.00    -0.504 OA
ATOM     21  H   UNL     1      -3.584  -2.909  14.437  1.00  0.00     0.293 HD
ENDBRANCH  17  20
ENDBRANCH   1  12
BRANCH   2  22
ATOM     22  O   UNL     1      -6.433  -0.189   9.859  1.00  0.00    -0.502 OA
ATOM     23  H   UNL     1      -7.335   0.145   9.541  1.00  0.00     0.293 HD
ENDBRANCH   2  22
BRANCH   9  24
ATOM     24  O   UNL     1      -0.002   3.258   7.178  1.00  0.00    -0.508 OA
ATOM     25  H   UNL     1       0.289   4.100   7.659  1.00  0.00     0.293 HD
ENDBRANCH   9  24
TORSDOF 5
ENDMDL
MODEL 8
REMARK VINA RESULT:    -7.249      1.965      6.649
REMARK INTER + INTRA:          -8.836
REMARK INTER:                  -8.543
REMARK INTRA:                  -0.293
REMARK UNBOUND:                -0.315
REMARK SMILES O=c1c(O)c(-c2ccc(O)c(O)c2)oc2cc(O)ccc12
REMARK SMILES IDX 5 1 3 2 2 3 1 4 21 5 15 6 14 7 16 8 17 9 19 10 20 11 6 12
REMARK SMILES IDX 7 13 8 14 9 15 13 16 11 17 10 18 12 20 4 22 18 24
REMARK H PARENT 10 19 12 21 4 23 18 25
REMARK Flexibility Score: inf
ROOT
ATOM      1  C   UNL     1      -3.492  -1.188   9.308  1.00  0.00     0.180 A 
ATOM      2  C   UNL     1      -2.251  -1.857   9.276  1.00  0.00     0.208 A 
ATOM      3  C   UNL     1      -1.140  -1.195   8.729  1.00  0.00     0.235 A 
ATOM      4  O   UNL     1      -0.022  -1.777   8.678  1.00  0.00    -0.285 OA
ATOM      5  C   UNL     1      -1.285   0.117   8.249  1.00  0.00     0.069 A 
ATOM      6  C   UNL     1      -2.556   0.725   8.339  1.00  0.00     0.142 A 
ATOM      7  O   UNL     1      -3.584   0.061   8.856  1.00  0.00    -0.452 OA
ATOM      8  C   UNL     1      -2.738   2.035   7.881  1.00  0.00     0.094 A 
ATOM      9  C   UNL     1      -1.663   2.746   7.330  1.00  0.00     0.119 A 
ATOM     10  C   UNL     1      -0.404   2.143   7.238  1.00  0.00     0.047 A 
ATOM     11  C   UNL     1      -0.212   0.836   7.693  1.00  0.00     0.020 A 
ENDROOT
BRANCH   1  12
ATOM     12  C   UNL     1      -4.714  -1.823   9.852  1.00  0.00     0.025 A 
ATOM     13  C   UNL     1      -5.618  -2.444   8.976  1.00  0.00     0.016 A 
ATOM     14  C   UNL     1      -6.767  -3.069   9.470  1.00  0.00     0.051 A 
ATOM     15  C   UNL     1      -7.019  -3.095  10.848  1.00  0.00     0.157 A 
ATOM     16  C   UNL     1      -4.960  -1.871  11.237  1.00  0.00     0.062 A 
ATOM     17  C   UNL     1      -6.111  -2.499  11.733  1.00  0.00     0.158 A 
BRANCH  15  18
ATOM     18  O   UNL     1      -8.164  -3.716  11.345  1.00  0.00    -0.504 OA
ATOM     19  H   UNL     1      -8.110  -4.569  11.888  1.00  0.00     0.293 HD
ENDBRANCH  15  18
BRANCH  17  20
ATOM     20  O   UNL     1      -6.357  -2.540  13.104  1.00  0.00    -0.504 OA
ATOM     21  H   UNL     1      -7.285  -2.719  13.471  1.00  0.00     0.293 HD
ENDBRANCH  17  20
ENDBRANCH   1  12
BRANCH   2  22
ATOM     22  O   UNL     1      -2.126  -3.143   9.805  1.00  0.00    -0.502 OA
ATOM     23  H   UNL     1      -2.882  -3.816   9.778  1.00  0.00     0.293 HD
ENDBRANCH   2  22
BRANCH   9  24
ATOM     24  O   UNL     1      -1.836   4.050   6.872  1.00  0.00    -0.508 OA
ATOM     25  H   UNL     1      -2.758   4.448   6.743  1.00  0.00     0.293 HD
ENDBRANCH   9  24
TORSDOF 5
ENDMDL
MODEL 9
REMARK VINA RESULT:    -7.123      2.057      7.010
REMARK INTER + INTRA:          -8.687
REMARK INTER:                  -8.432
REMARK INTRA:                  -0.255
REMARK UNBOUND:                -0.315
REMARK SMILES O=c1c(O)c(-c2ccc(O)c(O)c2)oc2cc(O)ccc12
REMARK SMILES IDX 5 1 3 2 2 3 1 4 21 5 15 6 14 7 16 8 17 9 19 10 20 11 6 12
REMARK SMILES IDX 7 13 8 14 9 15 13 16 11 17 10 18 12 20 4 22 18 24
REMARK H PARENT 10 19 12 21 4 23 18 25
REMARK Flexibility Score: inf
ROOT
ATOM      1  C   UNL     1      -3.819   0.049  11.056  1.00  0.00     0.180 A 
ATOM      2  C   UNL     1      -3.178   1.005  11.871  1.00  0.00     0.208 A 
ATOM      3  C   UNL     1      -2.395   1.999  11.261  1.00  0.00     0.235 A 
ATOM      4  O   UNL     1      -1.803   2.858  11.970  1.00  0.00    -0.285 OA
ATOM      5  C   UNL     1      -2.287   2.030   9.862  1.00  0.00     0.069 A 
ATOM      6  C   UNL     1      -2.979   1.051   9.116  1.00  0.00     0.142 A 
ATOM      7  O   UNL     1      -3.702   0.123   9.732  1.00  0.00    -0.452 OA
ATOM      8  C   UNL     1      -2.904   1.055   7.718  1.00  0.00     0.094 A 
ATOM      9  C   UNL     1      -2.141   2.026   7.054  1.00  0.00     0.119 A 
ATOM     10  C   UNL     1      -1.454   2.995   7.793  1.00  0.00     0.047 A 
ATOM     11  C   UNL     1      -1.523   3.000   9.188  1.00  0.00     0.020 A 
ENDROOT
BRANCH   1  12
ATOM     12  C   UNL     1      -4.646  -1.039  11.624  1.00  0.00     0.025 A 
ATOM     13  C   UNL     1      -6.038  -1.016  11.442  1.00  0.00     0.016 A 
ATOM     14  C   UNL     1      -6.836  -2.044  11.952  1.00  0.00     0.051 A 
ATOM     15  C   UNL     1      -6.252  -3.118  12.635  1.00  0.00     0.157 A 
ATOM     16  C   UNL     1      -4.061  -2.130  12.294  1.00  0.00     0.062 A 
ATOM     17  C   UNL     1      -4.861  -3.163  12.803  1.00  0.00     0.158 A 
BRANCH  15  18
ATOM     18  O   UNL     1      -7.044  -4.145  13.146  1.00  0.00    -0.504 OA
ATOM     19  H   UNL     1      -7.192  -4.253  14.143  1.00  0.00     0.293 HD
ENDBRANCH  15  18
BRANCH  17  20
ATOM     20  O   UNL     1      -4.282  -4.240  13.471  1.00  0.00    -0.504 OA
ATOM     21  H   UNL     1      -3.608  -4.102  14.215  1.00  0.00     0.293 HD
ENDBRANCH  17  20
ENDBRANCH   1  12
BRANCH   2  22
ATOM     22  O   UNL     1      -3.344   0.979  13.258  1.00  0.00    -0.502 OA
ATOM     23  H   UNL     1      -2.642   1.338  13.894  1.00  0.00     0.293 HD
ENDBRANCH   2  22
BRANCH   9  24
ATOM     24  O   UNL     1      -2.062   2.036   5.664  1.00  0.00    -0.508 OA
ATOM     25  H   UNL     1      -1.259   2.422   5.182  1.00  0.00     0.293 HD
ENDBRANCH   9  24
TORSDOF 5
ENDMDL
