MODEL 1
REMARK VINA RESULT:    -4.139      0.000      0.000
REMARK INTER + INTRA:          -6.435
REMARK INTER:                  -6.317
REMARK INTRA:                  -0.118
REMARK UNBOUND:                -0.118
REMARK SMILES CC1=CCC[C@H](C)C(=O)C[C@H](C(C)C)C(=O)C1
REMARK SMILES IDX 8 1 9 2 6 3 7 4 5 5 4 6 3 7 2 8 1 9 10 11 11 12 15 13 16 14
REMARK SMILES IDX 17 15 12 17 13 18 14 19
REMARK H PARENT
REMARK Flexibility Score: 70.00
ROOT
ATOM      1  C   UNL     1      19.795  30.847  38.058  1.00  0.00     0.136 C 
ATOM      2  O   UNL     1      19.201  31.538  38.872  1.00  0.00    -0.299 OA
ENDROOT
BRANCH   1   3
ATOM      3  C   UNL     1      19.114  30.515  36.739  1.00  0.00     0.053 C 
ATOM      4  C   UNL     1      17.603  30.384  36.975  1.00  0.00     0.016 C 
BRANCH   3   5
ATOM      5  C   UNL     1      19.405  31.555  35.624  1.00  0.00     0.015 C 
BRANCH   5   6
ATOM      6  C   UNL     1      20.544  32.553  35.916  1.00  0.00     0.028 C 
BRANCH   6   7
ATOM      7  C   UNL     1      21.714  32.552  34.961  1.00  0.00    -0.028 C 
ATOM      8  C   UNL     1      23.001  32.287  35.278  1.00  0.00    -0.070 CG0
ATOM      9  C   UNL     1      24.050  32.620  34.243  1.00  0.00     0.039 C 
ATOM     10  G   UNL     1      23.442  31.692  36.606  1.00  0.00     0.000 G0
ENDBRANCH   6   7
ENDBRANCH   5   6
ENDBRANCH   3   5
ENDBRANCH   1   3
BRANCH   1  11
ATOM     11  C   UNL     1      21.235  30.461  38.330  1.00  0.00     0.087 C 
BRANCH  11  12
ATOM     12  C   UNL     1      21.923  29.601  37.227  1.00  0.00     0.066 C 
BRANCH  12  13
ATOM     13  C   UNL     1      23.208  30.207  36.681  1.00  0.00     0.140 C 
ATOM     14  O   UNL     1      24.105  29.446  36.349  1.00  0.00    -0.299 OA
BRANCH  13  15
ATOM     15  C   UNL     1      23.457  31.699  36.615  1.00  0.00     0.106 CG0
ATOM     16  G   UNL     1      22.997  32.260  35.280  1.00  0.00     0.000 G0
ENDBRANCH  13  15
ENDBRANCH  12  13
BRANCH  12  17
ATOM     17  C   UNL     1      22.148  28.128  37.692  1.00  0.00    -0.006 C 
ATOM     18  C   UNL     1      21.029  27.192  37.201  1.00  0.00     0.008 C 
ATOM     19  C   UNL     1      22.241  28.027  39.226  1.00  0.00     0.008 C 
ENDBRANCH  12  17
ENDBRANCH  11  12
ENDBRANCH   1  11
TORSDOF 1
ENDMDL
MODEL 2
REMARK VINA RESULT:    -4.086      1.928      2.521
REMARK INTER + INTRA:          -6.354
REMARK INTER:                  -6.076
REMARK INTRA:                  -0.278
REMARK UNBOUND:                -0.118
REMARK SMILES CC1=CCC[C@H](C)C(=O)C[C@H](C(C)C)C(=O)C1
REMARK SMILES IDX 8 1 9 2 6 3 7 4 5 5 4 6 3 7 2 8 1 9 10 11 11 12 15 13 16 14
REMARK SMILES IDX 17 15 12 17 13 18 14 19
REMARK H PARENT
REMARK Flexibility Score: 70.00
ROOT
ATOM      1  C   UNL     1      20.325  31.434  38.454  1.00  0.00     0.136 C 
ATOM      2  O   UNL     1      19.182  31.334  38.872  1.00  0.00    -0.299 OA
ENDROOT
BRANCH   1   3
ATOM      3  C   UNL     1      20.853  32.810  38.077  1.00  0.00     0.053 C 
ATOM      4  C   UNL     1      19.688  33.670  37.570  1.00  0.00     0.016 C 
BRANCH   3   5
ATOM      5  C   UNL     1      21.592  33.519  39.242  1.00  0.00     0.015 C 
BRANCH   5   6
ATOM      6  C   UNL     1      23.092  33.189  39.389  1.00  0.00     0.028 C 
BRANCH   6   7
ATOM      7  C   UNL     1      23.907  33.144  38.119  1.00  0.00    -0.028 C 
ATOM      8  C   UNL     1      24.471  32.043  37.573  1.00  0.00    -0.070 CG0
ATOM      9  C   UNL     1      25.480  32.258  36.469  1.00  0.00     0.039 C 
ATOM     10  G   UNL     1      24.157  30.623  38.015  1.00  0.00     0.000 G0
ENDBRANCH   6   7
ENDBRANCH   5   6
ENDBRANCH   3   5
ENDBRANCH   1   3
BRANCH   1  11
ATOM     11  C   UNL     1      21.221  30.211  38.454  1.00  0.00     0.087 C 
BRANCH  11  12
ATOM     12  C   UNL     1      21.794  29.793  37.066  1.00  0.00     0.066 C 
BRANCH  12  13
ATOM     13  C   UNL     1      23.308  29.913  36.961  1.00  0.00     0.140 C 
ATOM     14  O   UNL     1      23.863  29.360  36.022  1.00  0.00    -0.299 OA
BRANCH  13  15
ATOM     15  C   UNL     1      24.159  30.606  38.005  1.00  0.00     0.106 CG0
ATOM     16  G   UNL     1      24.482  32.027  37.574  1.00  0.00     0.000 G0
ENDBRANCH  13  15
ENDBRANCH  12  13
BRANCH  12  17
ATOM     17  C   UNL     1      21.311  28.371  36.641  1.00  0.00    -0.006 C 
ATOM     18  C   UNL     1      19.812  28.355  36.286  1.00  0.00     0.008 C 
ATOM     19  C   UNL     1      21.569  27.330  37.746  1.00  0.00     0.008 C 
ENDBRANCH  12  17
ENDBRANCH  11  12
ENDBRANCH   1  11
TORSDOF 1
ENDMDL
MODEL 3
REMARK VINA RESULT:    -4.033      2.148      2.969
REMARK INTER + INTRA:          -6.273
REMARK INTER:                  -6.277
REMARK INTRA:                   0.004
REMARK UNBOUND:                -0.118
REMARK SMILES CC1=CCC[C@H](C)C(=O)C[C@H](C(C)C)C(=O)C1
REMARK SMILES IDX 8 1 9 2 6 3 7 4 5 5 4 6 3 7 2 8 1 9 10 11 11 12 15 13 16 14
REMARK SMILES IDX 17 15 12 17 13 18 14 19
REMARK H PARENT
REMARK Flexibility Score: 70.00
ROOT
ATOM      1  C   UNL     1      21.749  28.182  37.593  1.00  0.00     0.136 C 
ATOM      2  O   UNL     1      22.025  27.005  37.414  1.00  0.00    -0.299 OA
ENDROOT
BRANCH   1   3
ATOM      3  C   UNL     1      20.893  28.902  36.562  1.00  0.00     0.053 C 
ATOM      4  C   UNL     1      19.561  28.157  36.410  1.00  0.00     0.016 C 
BRANCH   3   5
ATOM      5  C   UNL     1      20.649  30.395  36.908  1.00  0.00     0.015 C 
BRANCH   5   6
ATOM      6  C   UNL     1      21.503  31.415  36.128  1.00  0.00     0.028 C 
BRANCH   6   7
ATOM      7  C   UNL     1      22.926  31.019  35.818  1.00  0.00    -0.028 C 
ATOM      8  C   UNL     1      23.966  31.041  36.682  1.00  0.00    -0.070 CG0
ATOM      9  C   UNL     1      25.352  30.884  36.101  1.00  0.00     0.039 C 
ATOM     10  G   UNL     1      23.816  31.226  38.183  1.00  0.00     0.000 G0
ENDBRANCH   6   7
ENDBRANCH   5   6
ENDBRANCH   3   5
ENDBRANCH   1   3
BRANCH   1  11
ATOM     11  C   UNL     1      22.151  28.844  38.895  1.00  0.00     0.087 C 
BRANCH  11  12
ATOM     12  C   UNL     1      23.669  28.778  39.247  1.00  0.00     0.066 C 
BRANCH  12  13
ATOM     13  C   UNL     1      24.427  30.066  38.958  1.00  0.00     0.140 C 
ATOM     14  O   UNL     1      25.552  30.185  39.422  1.00  0.00    -0.299 OA
BRANCH  13  15
ATOM     15  C   UNL     1      23.824  31.231  38.203  1.00  0.00     0.106 CG0
ATOM     16  G   UNL     1      23.969  31.029  36.703  1.00  0.00     0.000 G0
ENDBRANCH  13  15
ENDBRANCH  12  13
BRANCH  12  17
ATOM     17  C   UNL     1      23.906  28.301  40.714  1.00  0.00    -0.006 C 
ATOM     18  C   UNL     1      25.070  27.297  40.811  1.00  0.00     0.008 C 
ATOM     19  C   UNL     1      22.643  27.654  41.311  1.00  0.00     0.008 C 
ENDBRANCH  12  17
ENDBRANCH  11  12
ENDBRANCH   1  11
TORSDOF 1
ENDMDL
MODEL 4
REMARK VINA RESULT:    -3.969      1.927      3.986
REMARK INTER + INTRA:          -6.175
REMARK INTER:                  -5.994
REMARK INTRA:                  -0.181
REMARK UNBOUND:                -0.118
REMARK SMILES CC1=CCC[C@H](C)C(=O)C[C@H](C(C)C)C(=O)C1
REMARK SMILES IDX 8 1 9 2 6 3 7 4 5 5 4 6 3 7 2 8 1 9 10 11 11 12 15 13 16 14
REMARK SMILES IDX 17 15 12 17 13 18 14 19
REMARK H PARENT
REMARK Flexibility Score: 70.00
ROOT
ATOM      1  C   UNL     1      19.346  30.864  37.746  1.00  0.00     0.136 C 
ATOM      2  O   UNL     1      18.621  31.514  38.485  1.00  0.00    -0.299 OA
ENDROOT
BRANCH   1   3
ATOM      3  C   UNL     1      18.923  29.457  37.352  1.00  0.00     0.053 C 
ATOM      4  C   UNL     1      17.444  29.475  36.944  1.00  0.00     0.016 C 
BRANCH   3   5
ATOM      5  C   UNL     1      19.797  28.853  36.221  1.00  0.00     0.015 C 
BRANCH   5   6
ATOM      6  C   UNL     1      20.831  27.795  36.660  1.00  0.00     0.028 C 
BRANCH   6   7
ATOM      7  C   UNL     1      21.492  28.004  38.002  1.00  0.00    -0.028 C 
ATOM      8  C   UNL     1      22.569  28.783  38.247  1.00  0.00    -0.070 CG0
ATOM      9  C   UNL     1      23.243  28.628  39.590  1.00  0.00     0.039 C 
ATOM     10  G   UNL     1      23.136  29.782  37.252  1.00  0.00     0.000 G0
ENDBRANCH   6   7
ENDBRANCH   5   6
ENDBRANCH   3   5
ENDBRANCH   1   3
BRANCH   1  11
ATOM     11  C   UNL     1      20.567  31.527  37.140  1.00  0.00     0.087 C 
BRANCH  11  12
ATOM     12  C   UNL     1      21.718  31.861  38.136  1.00  0.00     0.066 C 
BRANCH  12  13
ATOM     13  C   UNL     1      23.045  31.198  37.793  1.00  0.00     0.140 C 
ATOM     14  O   UNL     1      24.063  31.868  37.892  1.00  0.00    -0.299 OA
BRANCH  13  15
ATOM     15  C   UNL     1      23.151  29.787  37.254  1.00  0.00     0.106 CG0
ATOM     16  G   UNL     1      22.556  28.793  38.238  1.00  0.00     0.000 G0
ENDBRANCH  13  15
ENDBRANCH  12  13
BRANCH  12  17
ATOM     17  C   UNL     1      21.891  33.400  38.331  1.00  0.00    -0.006 C 
ATOM     18  C   UNL     1      21.276  33.885  39.656  1.00  0.00     0.008 C 
ATOM     19  C   UNL     1      21.259  34.193  37.172  1.00  0.00     0.008 C 
ENDBRANCH  12  17
ENDBRANCH  11  12
ENDBRANCH   1  11
TORSDOF 1
ENDMDL
MODEL 5
REMARK VINA RESULT:    -3.925      2.018      3.895
REMARK INTER + INTRA:          -6.108
REMARK INTER:                  -5.756
REMARK INTRA:                  -0.352
REMARK UNBOUND:                -0.118
REMARK SMILES CC1=CCC[C@H](C)C(=O)C[C@H](C(C)C)C(=O)C1
REMARK SMILES IDX 8 1 9 2 6 3 7 4 5 5 4 6 3 7 2 8 1 9 10 11 11 12 15 13 16 14
REMARK SMILES IDX 17 15 12 17 13 18 14 19
REMARK H PARENT
REMARK Flexibility Score: 70.00
ROOT
ATOM      1  C   UNL     1      21.677  29.360  38.098  1.00  0.00     0.136 C 
ATOM      2  O   UNL     1      21.553  28.908  39.227  1.00  0.00    -0.299 OA
ENDROOT
BRANCH   1   3
ATOM      3  C   UNL     1      21.019  28.630  36.937  1.00  0.00     0.053 C 
ATOM      4  C   UNL     1      21.378  27.140  37.014  1.00  0.00     0.016 C 
BRANCH   3   5
ATOM      5  C   UNL     1      19.479  28.820  36.893  1.00  0.00     0.015 C 
BRANCH   5   6
ATOM      6  C   UNL     1      18.963  29.916  35.938  1.00  0.00     0.028 C 
BRANCH   6   7
ATOM      7  C   UNL     1      18.514  31.213  36.567  1.00  0.00    -0.028 C 
ATOM      8  C   UNL     1      19.159  32.399  36.496  1.00  0.00    -0.070 CG0
ATOM      9  C   UNL     1      18.697  33.495  37.428  1.00  0.00     0.039 C 
ATOM     10  G   UNL     1      20.315  32.679  35.550  1.00  0.00     0.000 G0
ENDBRANCH   6   7
ENDBRANCH   5   6
ENDBRANCH   3   5
ENDBRANCH   1   3
BRANCH   1  11
ATOM     11  C   UNL     1      22.362  30.699  37.911  1.00  0.00     0.087 C 
BRANCH  11  12
ATOM     12  C   UNL     1      22.390  31.244  36.451  1.00  0.00     0.066 C 
BRANCH  12  13
ATOM     13  C   UNL     1      21.653  32.564  36.269  1.00  0.00     0.140 C 
ATOM     14  O   UNL     1      22.129  33.563  36.791  1.00  0.00    -0.299 OA
BRANCH  13  15
ATOM     15  C   UNL     1      20.324  32.679  35.553  1.00  0.00     0.106 CG0
ATOM     16  G   UNL     1      19.175  32.399  36.509  1.00  0.00     0.000 G0
ENDBRANCH  13  15
ENDBRANCH  12  13
BRANCH  12  17
ATOM     17  C   UNL     1      23.844  31.329  35.889  1.00  0.00    -0.006 C 
ATOM     18  C   UNL     1      23.880  31.941  34.477  1.00  0.00     0.008 C 
ATOM     19  C   UNL     1      24.516  29.944  35.846  1.00  0.00     0.008 C 
ENDBRANCH  12  17
ENDBRANCH  11  12
ENDBRANCH   1  11
TORSDOF 1
ENDMDL
MODEL 6
REMARK VINA RESULT:    -3.918      1.951      4.018
REMARK INTER + INTRA:          -6.097
REMARK INTER:                  -6.086
REMARK INTRA:                  -0.012
REMARK UNBOUND:                -0.118
REMARK SMILES CC1=CCC[C@H](C)C(=O)C[C@H](C(C)C)C(=O)C1
REMARK SMILES IDX 8 1 9 2 6 3 7 4 5 5 4 6 3 7 2 8 1 9 10 11 11 12 15 13 16 14
REMARK SMILES IDX 17 15 12 17 13 18 14 19
REMARK H PARENT
REMARK Flexibility Score: 70.00
ROOT
ATOM      1  C   UNL     1      22.124  29.318  37.004  1.00  0.00     0.136 C 
ATOM      2  O   UNL     1      23.036  28.684  36.495  1.00  0.00    -0.299 OA
ENDROOT
BRANCH   1   3
ATOM      3  C   UNL     1      22.276  29.803  38.437  1.00  0.00     0.053 C 
ATOM      4  C   UNL     1      22.824  28.658  39.298  1.00  0.00     0.016 C 
BRANCH   3   5
ATOM      5  C   UNL     1      23.177  31.061  38.562  1.00  0.00     0.015 C 
BRANCH   5   6
ATOM      6  C   UNL     1      22.439  32.399  38.776  1.00  0.00     0.028 C 
BRANCH   6   7
ATOM      7  C   UNL     1      22.464  33.383  37.632  1.00  0.00    -0.028 C 
ATOM      8  C   UNL     1      21.436  33.663  36.799  1.00  0.00    -0.070 CG0
ATOM      9  C   UNL     1      21.753  34.455  35.552  1.00  0.00     0.039 C 
ATOM     10  G   UNL     1      20.003  33.219  37.043  1.00  0.00     0.000 G0
ENDBRANCH   6   7
ENDBRANCH   5   6
ENDBRANCH   3   5
ENDBRANCH   1   3
BRANCH   1  11
ATOM     11  C   UNL     1      20.936  29.716  36.151  1.00  0.00     0.087 C 
BRANCH  11  12
ATOM     12  C   UNL     1      19.847  30.571  36.866  1.00  0.00     0.066 C 
BRANCH  12  13
ATOM     13  C   UNL     1      19.670  31.965  36.280  1.00  0.00     0.140 C 
ATOM     14  O   UNL     1      19.327  32.055  35.110  1.00  0.00    -0.299 OA
BRANCH  13  15
ATOM     15  C   UNL     1      19.983  33.232  37.048  1.00  0.00     0.106 CG0
ATOM     16  G   UNL     1      21.424  33.655  36.817  1.00  0.00     0.000 G0
ENDBRANCH  13  15
ENDBRANCH  12  13
BRANCH  12  17
ATOM     17  C   UNL     1      18.481  29.820  36.954  1.00  0.00    -0.006 C 
ATOM     18  C   UNL     1      18.140  29.090  35.642  1.00  0.00     0.008 C 
ATOM     19  C   UNL     1      17.328  30.779  37.301  1.00  0.00     0.008 C 
ENDBRANCH  12  17
ENDBRANCH  11  12
ENDBRANCH   1  11
TORSDOF 1
ENDMDL
MODEL 7
REMARK VINA RESULT:    -3.889      1.444      4.025
REMARK INTER + INTRA:          -6.052
REMARK INTER:                  -5.762
REMARK INTRA:                  -0.290
REMARK UNBOUND:                -0.118
REMARK SMILES CC1=CCC[C@H](C)C(=O)C[C@H](C(C)C)C(=O)C1
REMARK SMILES IDX 8 1 9 2 6 3 7 4 5 5 4 6 3 7 2 8 1 9 10 11 11 12 15 13 16 14
REMARK SMILES IDX 17 15 12 17 13 18 14 19
REMARK H PARENT
REMARK Flexibility Score: 70.00
ROOT
ATOM      1  C   UNL     1      23.840  30.200  36.038  1.00  0.00     0.136 C 
ATOM      2  O   UNL     1      24.762  29.406  36.154  1.00  0.00    -0.299 OA
ENDROOT
BRANCH   1   3
ATOM      3  C   UNL     1      24.157  31.657  35.739  1.00  0.00     0.053 C 
ATOM      4  C   UNL     1      25.673  31.871  35.844  1.00  0.00     0.016 C 
BRANCH   3   5
ATOM      5  C   UNL     1      23.632  32.123  34.355  1.00  0.00     0.015 C 
BRANCH   5   6
ATOM      6  C   UNL     1      22.273  32.852  34.360  1.00  0.00     0.028 C 
BRANCH   6   7
ATOM      7  C   UNL     1      21.783  33.372  35.690  1.00  0.00    -0.028 C 
ATOM      8  C   UNL     1      20.719  32.908  36.385  1.00  0.00    -0.070 CG0
ATOM      9  C   UNL     1      20.229  33.749  37.541  1.00  0.00     0.039 C 
ATOM     10  G   UNL     1      19.995  31.613  36.060  1.00  0.00     0.000 G0
ENDBRANCH   6   7
ENDBRANCH   5   6
ENDBRANCH   3   5
ENDBRANCH   1   3
BRANCH   1  11
ATOM     11  C   UNL     1      22.415  29.684  36.058  1.00  0.00     0.087 C 
BRANCH  11  12
ATOM     12  C   UNL     1      21.621  29.943  37.374  1.00  0.00     0.066 C 
BRANCH  12  13
ATOM     13  C   UNL     1      20.257  30.583  37.158  1.00  0.00     0.140 C 
ATOM     14  O   UNL     1      19.326  30.196  37.850  1.00  0.00    -0.299 OA
BRANCH  13  15
ATOM     15  C   UNL     1      19.984  31.605  36.074  1.00  0.00     0.106 CG0
ATOM     16  G   UNL     1      20.717  32.903  36.366  1.00  0.00     0.000 G0
ENDBRANCH  13  15
ENDBRANCH  12  13
BRANCH  12  17
ATOM     17  C   UNL     1      21.507  28.655  38.249  1.00  0.00    -0.006 C 
ATOM     18  C   UNL     1      22.646  28.557  39.280  1.00  0.00     0.008 C 
ATOM     19  C   UNL     1      21.511  27.380  37.384  1.00  0.00     0.008 C 
ENDBRANCH  12  17
ENDBRANCH  11  12
ENDBRANCH   1  11
TORSDOF 1
ENDMDL
MODEL 8
REMARK VINA RESULT:    -3.854      2.078      4.387
REMARK INTER + INTRA:          -5.999
REMARK INTER:                  -5.784
REMARK INTRA:                  -0.215
REMARK UNBOUND:                -0.118
REMARK SMILES CC1=CCC[C@H](C)C(=O)C[C@H](C(C)C)C(=O)C1
REMARK SMILES IDX 8 1 9 2 6 3 7 4 5 5 4 6 3 7 2 8 1 9 10 11 11 12 15 13 16 14
REMARK SMILES IDX 17 15 12 17 13 18 14 19
REMARK H PARENT
REMARK Flexibility Score: 70.00
ROOT
ATOM      1  C   UNL     1      23.957  29.795  37.154  1.00  0.00     0.136 C 
ATOM      2  O   UNL     1      24.888  30.032  36.399  1.00  0.00    -0.299 OA
ENDROOT
BRANCH   1   3
ATOM      3  C   UNL     1      24.207  29.794  38.654  1.00  0.00     0.053 C 
ATOM      4  C   UNL     1      25.326  28.794  38.974  1.00  0.00     0.016 C 
BRANCH   3   5
ATOM      5  C   UNL     1      24.552  31.200  39.214  1.00  0.00     0.015 C 
BRANCH   5   6
ATOM      6  C   UNL     1      24.047  32.398  38.384  1.00  0.00     0.028 C 
BRANCH   6   7
ATOM      7  C   UNL     1      22.849  33.143  38.920  1.00  0.00    -0.028 C 
ATOM      8  C   UNL     1      21.605  33.139  38.389  1.00  0.00    -0.070 CG0
ATOM      9  C   UNL     1      20.629  34.170  38.905  1.00  0.00     0.039 C 
ATOM     10  G   UNL     1      21.149  32.172  37.308  1.00  0.00     0.000 G0
ENDBRANCH   6   7
ENDBRANCH   5   6
ENDBRANCH   3   5
ENDBRANCH   1   3
BRANCH   1  11
ATOM     11  C   UNL     1      22.562  29.645  36.580  1.00  0.00     0.087 C 
BRANCH  11  12
ATOM     12  C   UNL     1      21.409  29.539  37.625  1.00  0.00     0.066 C 
BRANCH  12  13
ATOM     13  C   UNL     1      20.680  30.851  37.876  1.00  0.00     0.140 C 
ATOM     14  O   UNL     1      19.648  30.817  38.531  1.00  0.00    -0.299 OA
BRANCH  13  15
ATOM     15  C   UNL     1      21.124  32.172  37.284  1.00  0.00     0.106 CG0
ATOM     16  G   UNL     1      21.600  33.115  38.378  1.00  0.00     0.000 G0
ENDBRANCH  13  15
ENDBRANCH  12  13
BRANCH  12  17
ATOM     17  C   UNL     1      20.407  28.396  37.271  1.00  0.00    -0.006 C 
ATOM     18  C   UNL     1      21.088  27.015  37.260  1.00  0.00     0.008 C 
ATOM     19  C   UNL     1      19.740  28.630  35.903  1.00  0.00     0.008 C 
ENDBRANCH  12  17
ENDBRANCH  11  12
ENDBRANCH   1  11
TORSDOF 1
ENDMDL
MODEL 9
REMARK VINA RESULT:    -3.641      1.997      2.826
REMARK INTER + INTRA:          -5.674
REMARK INTER:                  -5.481
REMARK INTRA:                  -0.193
REMARK UNBOUND:                -0.118
REMARK SMILES CC1=CCC[C@H](C)C(=O)C[C@H](C(C)C)C(=O)C1
REMARK SMILES IDX 8 1 9 2 6 3 7 4 5 5 4 6 3 7 2 8 1 9 10 11 11 12 15 13 16 14
REMARK SMILES IDX 17 15 12 17 13 18 14 19
REMARK H PARENT
REMARK Flexibility Score: 70.00
ROOT
ATOM      1  C   UNL     1      21.489  28.775  36.974  1.00  0.00     0.136 C 
ATOM      2  O   UNL     1      22.127  27.832  36.530  1.00  0.00    -0.299 OA
ENDROOT
BRANCH   1   3
ATOM      3  C   UNL     1      20.164  29.139  36.322  1.00  0.00     0.053 C 
ATOM      4  C   UNL     1      19.333  27.864  36.131  1.00  0.00     0.016 C 
BRANCH   3   5
ATOM      5  C   UNL     1      19.363  30.200  37.122  1.00  0.00     0.015 C 
BRANCH   5   6
ATOM      6  C   UNL     1      19.188  31.571  36.436  1.00  0.00     0.028 C 
BRANCH   6   7
ATOM      7  C   UNL     1      20.432  32.217  35.876  1.00  0.00    -0.028 C 
ATOM      8  C   UNL     1      21.452  32.738  36.594  1.00  0.00    -0.070 CG0
ATOM      9  C   UNL     1      22.456  33.589  35.852  1.00  0.00     0.039 C 
ATOM     10  G   UNL     1      21.631  32.526  38.089  1.00  0.00     0.000 G0
ENDBRANCH   6   7
ENDBRANCH   5   6
ENDBRANCH   3   5
ENDBRANCH   1   3
BRANCH   1  11
ATOM     11  C   UNL     1      21.969  29.461  38.237  1.00  0.00     0.087 C 
BRANCH  11  12
ATOM     12  C   UNL     1      23.231  30.363  38.079  1.00  0.00     0.066 C 
BRANCH  12  13
ATOM     13  C   UNL     1      22.977  31.836  38.364  1.00  0.00     0.140 C 
ATOM     14  O   UNL     1      23.869  32.479  38.900  1.00  0.00    -0.299 OA
BRANCH  13  15
ATOM     15  C   UNL     1      21.650  32.515  38.097  1.00  0.00     0.106 CG0
ATOM     16  G   UNL     1      21.456  32.743  36.607  1.00  0.00     0.000 G0
ENDBRANCH  13  15
ENDBRANCH  12  13
BRANCH  12  17
ATOM     17  C   UNL     1      24.437  29.827  38.913  1.00  0.00    -0.006 C 
ATOM     18  C   UNL     1      25.591  29.349  38.013  1.00  0.00     0.008 C 
ATOM     19  C   UNL     1      24.018  28.670  39.838  1.00  0.00     0.008 C 
ENDBRANCH  12  17
ENDBRANCH  11  12
ENDBRANCH   1  11
TORSDOF 1
ENDMDL
