MODEL 1
REMARK VINA RESULT:    -2.224      0.000      0.000
REMARK INTER + INTRA:          -2.512
REMARK INTER:                  -2.354
REMARK INTRA:                  -0.158
REMARK UNBOUND:                -0.158
REMARK SMILES CC(C)[C@H]1CC[C@@H](C)CC1=O
REMARK SMILES IDX 8 1 7 2 6 3 5 4 4 5 10 6 11 7 9 8 2 9 1 10 3 11
REMARK H PARENT
REMARK Flexibility Score: inf
ROOT
ATOM      1  C   UNL     1     125.622 110.772 132.406  1.00  0.00     0.008 C 
ATOM      2  C   UNL     1     126.944 110.544 133.157  1.00  0.00    -0.007 C 
ATOM      3  C   UNL     1     127.125 109.070 133.583  1.00  0.00     0.004 C 
ATOM      4  C   UNL     1     126.153 108.658 134.701  1.00  0.00     0.012 C 
ATOM      5  C   UNL     1     126.289 109.571 135.941  1.00  0.00     0.058 C 
ATOM      6  C   UNL     1     126.209 111.028 135.512  1.00  0.00     0.136 C 
ATOM      7  O   UNL     1     125.539 111.845 136.123  1.00  0.00    -0.299 OA
ATOM      8  C   UNL     1     127.072 111.489 134.368  1.00  0.00     0.079 C 
ENDROOT
BRANCH   5   9
ATOM      9  C   UNL     1     125.317 109.139 137.085  1.00  0.00    -0.007 C 
ATOM     10  C   UNL     1     124.657 107.781 136.797  1.00  0.00     0.008 C 
ATOM     11  C   UNL     1     125.944 109.148 138.492  1.00  0.00     0.008 C 
ENDBRANCH   5   9
TORSDOF 1
ENDMDL
MODEL 2
REMARK VINA RESULT:    -2.200      1.032      1.203
REMARK INTER + INTRA:          -2.487
REMARK INTER:                  -2.331
REMARK INTRA:                  -0.156
REMARK UNBOUND:                -0.158
REMARK SMILES CC(C)[C@H]1CC[C@@H](C)CC1=O
REMARK SMILES IDX 8 1 7 2 6 3 5 4 4 5 10 6 11 7 9 8 2 9 1 10 3 11
REMARK H PARENT
REMARK Flexibility Score: inf
ROOT
ATOM      1  C   UNL     1     125.499 108.877 132.084  1.00  0.00     0.008 C 
ATOM      2  C   UNL     1     126.853 108.909 132.811  1.00  0.00    -0.007 C 
ATOM      3  C   UNL     1     126.980 107.778 133.855  1.00  0.00     0.004 C 
ATOM      4  C   UNL     1     126.063 107.995 135.071  1.00  0.00     0.012 C 
ATOM      5  C   UNL     1     126.333 109.355 135.752  1.00  0.00     0.058 C 
ATOM      6  C   UNL     1     126.306 110.462 134.710  1.00  0.00     0.136 C 
ATOM      7  O   UNL     1     125.725 111.518 134.903  1.00  0.00    -0.299 OA
ATOM      8  C   UNL     1     127.114 110.285 133.452  1.00  0.00     0.079 C 
ENDROOT
BRANCH   5   9
ATOM      9  C   UNL     1     125.416 109.567 137.000  1.00  0.00    -0.007 C 
ATOM     10  C   UNL     1     124.710 108.269 137.421  1.00  0.00     0.008 C 
ATOM     11  C   UNL     1     126.121 110.215 138.206  1.00  0.00     0.008 C 
ENDBRANCH   5   9
TORSDOF 1
ENDMDL
MODEL 3
REMARK VINA RESULT:    -2.125      1.975      4.328
REMARK INTER + INTRA:          -2.407
REMARK INTER:                  -2.264
REMARK INTRA:                  -0.143
REMARK UNBOUND:                -0.158
REMARK SMILES CC(C)[C@H]1CC[C@@H](C)CC1=O
REMARK SMILES IDX 8 1 7 2 6 3 5 4 4 5 10 6 11 7 9 8 2 9 1 10 3 11
REMARK H PARENT
REMARK Flexibility Score: inf
ROOT
ATOM      1  C   UNL     1     124.389 112.524 138.439  1.00  0.00     0.008 C 
ATOM      2  C   UNL     1     125.460 111.467 138.749  1.00  0.00    -0.007 C 
ATOM      3  C   UNL     1     126.816 111.801 138.087  1.00  0.00     0.004 C 
ATOM      4  C   UNL     1     126.777 111.645 136.558  1.00  0.00     0.012 C 
ATOM      5  C   UNL     1     126.338 110.223 136.140  1.00  0.00     0.058 C 
ATOM      6  C   UNL     1     125.054 109.853 136.865  1.00  0.00     0.136 C 
ATOM      7  O   UNL     1     124.120 109.317 136.291  1.00  0.00    -0.299 OA
ATOM      8  C   UNL     1     124.986 110.055 138.355  1.00  0.00     0.079 C 
ENDROOT
BRANCH   5   9
ATOM      9  C   UNL     1     126.319 110.059 134.586  1.00  0.00    -0.007 C 
ATOM     10  C   UNL     1     127.125 111.162 133.881  1.00  0.00     0.008 C 
ATOM     11  C   UNL     1     126.755 108.668 134.087  1.00  0.00     0.008 C 
ENDBRANCH   5   9
TORSDOF 1
ENDMDL
MODEL 4
REMARK VINA RESULT:    -2.113      1.616      2.657
REMARK INTER + INTRA:          -2.394
REMARK INTER:                  -2.220
REMARK INTRA:                  -0.175
REMARK UNBOUND:                -0.158
REMARK SMILES CC(C)[C@H]1CC[C@@H](C)CC1=O
REMARK SMILES IDX 8 1 7 2 6 3 5 4 4 5 10 6 11 7 9 8 2 9 1 10 3 11
REMARK H PARENT
REMARK Flexibility Score: inf
ROOT
ATOM      1  C   UNL     1     124.870 108.117 133.228  1.00  0.00     0.008 C 
ATOM      2  C   UNL     1     126.229 108.073 133.946  1.00  0.00    -0.007 C 
ATOM      3  C   UNL     1     126.074 108.011 135.482  1.00  0.00     0.004 C 
ATOM      4  C   UNL     1     125.548 109.330 136.072  1.00  0.00     0.012 C 
ATOM      5  C   UNL     1     126.451 110.525 135.694  1.00  0.00     0.058 C 
ATOM      6  C   UNL     1     126.686 110.532 134.192  1.00  0.00     0.136 C 
ATOM      7  O   UNL     1     126.617 111.556 133.532  1.00  0.00    -0.299 OA
ATOM      8  C   UNL     1     127.124 109.255 133.527  1.00  0.00     0.079 C 
ENDROOT
BRANCH   5   9
ATOM      9  C   UNL     1     125.928 111.862 136.312  1.00  0.00    -0.007 C 
ATOM     10  C   UNL     1     124.459 111.755 136.751  1.00  0.00     0.008 C 
ATOM     11  C   UNL     1     126.796 112.418 137.457  1.00  0.00     0.008 C 
ENDBRANCH   5   9
TORSDOF 1
ENDMDL
MODEL 5
REMARK VINA RESULT:    -1.976      1.350      1.688
REMARK INTER + INTRA:          -2.249
REMARK INTER:                  -2.094
REMARK INTRA:                  -0.155
REMARK UNBOUND:                -0.158
REMARK SMILES CC(C)[C@H]1CC[C@@H](C)CC1=O
REMARK SMILES IDX 8 1 7 2 6 3 5 4 4 5 10 6 11 7 9 8 2 9 1 10 3 11
REMARK H PARENT
REMARK Flexibility Score: inf
ROOT
ATOM      1  C   UNL     1     125.260 112.691 134.423  1.00  0.00     0.008 C 
ATOM      2  C   UNL     1     126.653 112.097 134.685  1.00  0.00    -0.007 C 
ATOM      3  C   UNL     1     126.709 110.585 134.374  1.00  0.00     0.004 C 
ATOM      4  C   UNL     1     125.911 109.747 135.387  1.00  0.00     0.012 C 
ATOM      5  C   UNL     1     126.391 109.991 136.834  1.00  0.00     0.058 C 
ATOM      6  C   UNL     1     126.431 111.486 137.113  1.00  0.00     0.136 C 
ATOM      7  O   UNL     1     125.999 111.961 138.151  1.00  0.00    -0.299 OA
ATOM      8  C   UNL     1     127.125 112.383 136.123  1.00  0.00     0.079 C 
ENDROOT
BRANCH   5   9
ATOM      9  C   UNL     1     125.594 109.125 137.861  1.00  0.00    -0.007 C 
ATOM     10  C   UNL     1     124.768 108.028 137.169  1.00  0.00     0.008 C 
ATOM     11  C   UNL     1     126.452 108.523 138.990  1.00  0.00     0.008 C 
ENDBRANCH   5   9
TORSDOF 1
ENDMDL
MODEL 6
REMARK VINA RESULT:    -1.901      1.787      2.769
REMARK INTER + INTRA:          -2.170
REMARK INTER:                  -2.002
REMARK INTRA:                  -0.168
REMARK UNBOUND:                -0.158
REMARK SMILES CC(C)[C@H]1CC[C@@H](C)CC1=O
REMARK SMILES IDX 8 1 7 2 6 3 5 4 4 5 10 6 11 7 9 8 2 9 1 10 3 11
REMARK H PARENT
REMARK Flexibility Score: inf
ROOT
ATOM      1  C   UNL     1     124.741 112.922 134.122  1.00  0.00     0.008 C 
ATOM      2  C   UNL     1     126.253 112.673 134.001  1.00  0.00    -0.007 C 
ATOM      3  C   UNL     1     126.604 111.818 132.763  1.00  0.00     0.004 C 
ATOM      4  C   UNL     1     126.144 110.357 132.908  1.00  0.00     0.012 C 
ATOM      5  C   UNL     1     126.734 109.696 134.174  1.00  0.00     0.058 C 
ATOM      6  C   UNL     1     126.475 110.584 135.381  1.00  0.00     0.136 C 
ATOM      7  O   UNL     1     126.080 110.130 136.443  1.00  0.00    -0.299 OA
ATOM      8  C   UNL     1     126.824 112.045 135.287  1.00  0.00     0.079 C 
ENDROOT
BRANCH   5   9
ATOM      9  C   UNL     1     126.283 108.206 134.310  1.00  0.00    -0.007 C 
ATOM     10  C   UNL     1     124.787 108.028 134.003  1.00  0.00     0.008 C 
ATOM     11  C   UNL     1     127.125 107.208 133.494  1.00  0.00     0.008 C 
ENDBRANCH   5   9
TORSDOF 1
ENDMDL
MODEL 7
REMARK VINA RESULT:    -1.849      1.717      2.450
REMARK INTER + INTRA:          -2.115
REMARK INTER:                  -1.951
REMARK INTRA:                  -0.164
REMARK UNBOUND:                -0.158
REMARK SMILES CC(C)[C@H]1CC[C@@H](C)CC1=O
REMARK SMILES IDX 8 1 7 2 6 3 5 4 4 5 10 6 11 7 9 8 2 9 1 10 3 11
REMARK H PARENT
REMARK Flexibility Score: inf
ROOT
ATOM      1  C   UNL     1     125.415 112.025 131.582  1.00  0.00     0.008 C 
ATOM      2  C   UNL     1     125.795 112.403 133.023  1.00  0.00    -0.007 C 
ATOM      3  C   UNL     1     127.124 111.750 133.465  1.00  0.00     0.004 C 
ATOM      4  C   UNL     1     126.996 110.229 133.654  1.00  0.00     0.012 C 
ATOM      5  C   UNL     1     125.886 109.871 134.668  1.00  0.00     0.058 C 
ATOM      6  C   UNL     1     124.601 110.591 134.291  1.00  0.00     0.136 C 
ATOM      7  O   UNL     1     123.518 110.027 134.300  1.00  0.00    -0.299 OA
ATOM      8  C   UNL     1     124.660 112.069 134.010  1.00  0.00     0.079 C 
ENDROOT
BRANCH   5   9
ATOM      9  C   UNL     1     125.770 108.327 134.876  1.00  0.00    -0.007 C 
ATOM     10  C   UNL     1     126.752 107.552 133.982  1.00  0.00     0.008 C 
ATOM     11  C   UNL     1     125.897 107.870 136.341  1.00  0.00     0.008 C 
ENDBRANCH   5   9
TORSDOF 1
ENDMDL
MODEL 8
REMARK VINA RESULT:    -1.822      1.843      2.900
REMARK INTER + INTRA:          -2.086
REMARK INTER:                  -1.942
REMARK INTRA:                  -0.144
REMARK UNBOUND:                -0.158
REMARK SMILES CC(C)[C@H]1CC[C@@H](C)CC1=O
REMARK SMILES IDX 8 1 7 2 6 3 5 4 4 5 10 6 11 7 9 8 2 9 1 10 3 11
REMARK H PARENT
REMARK Flexibility Score: inf
ROOT
ATOM      1  C   UNL     1     127.125 108.105 133.511  1.00  0.00     0.008 C 
ATOM      2  C   UNL     1     125.754 108.787 133.651  1.00  0.00    -0.007 C 
ATOM      3  C   UNL     1     125.879 110.252 134.125  1.00  0.00     0.004 C 
ATOM      4  C   UNL     1     126.337 110.359 135.589  1.00  0.00     0.012 C 
ATOM      5  C   UNL     1     125.392 109.590 136.540  1.00  0.00     0.058 C 
ATOM      6  C   UNL     1     125.189 108.175 136.022  1.00  0.00     0.136 C 
ATOM      7  O   UNL     1     125.229 107.205 136.761  1.00  0.00    -0.299 OA
ATOM      8  C   UNL     1     124.819 107.985 134.575  1.00  0.00     0.079 C 
ENDROOT
BRANCH   5   9
ATOM      9  C   UNL     1     125.846 109.715 138.030  1.00  0.00    -0.007 C 
ATOM     10  C   UNL     1     126.834 110.875 138.234  1.00  0.00     0.008 C 
ATOM     11  C   UNL     1     124.690 109.806 139.043  1.00  0.00     0.008 C 
ENDBRANCH   5   9
TORSDOF 1
ENDMDL
