MODEL 1
REMARK VINA RESULT:    -5.609      0.000      0.000
REMARK INTER + INTRA:          -6.473
REMARK INTER:                  -6.429
REMARK INTRA:                  -0.045
REMARK UNBOUND:                -0.045
REMARK SMILES O=C([O-])c1cc(O)c(O)c(O)c1
REMARK SMILES IDX 4 1 5 2 12 3 6 4 10 5 8 6 2 7 1 8 3 9 7 10 11 12 9 14
REMARK H PARENT 7 11 11 13 9 15
REMARK Flexibility Score: inf
ROOT
ATOM      1  C   UNL     1       4.004 -30.478   4.971  1.00  0.00     0.005 A 
ATOM      2  C   UNL     1       3.391 -29.364   5.568  1.00  0.00     0.060 A 
ATOM      3  C   UNL     1       3.391 -31.737   5.088  1.00  0.00     0.060 A 
ATOM      4  C   UNL     1       2.189 -29.501   6.272  1.00  0.00     0.162 A 
ATOM      5  C   UNL     1       2.187 -31.883   5.790  1.00  0.00     0.162 A 
ATOM      6  C   UNL     1       1.582 -30.763   6.386  1.00  0.00     0.200 A 
ENDROOT
BRANCH   1   7
ATOM      7  C   UNL     1       5.275 -30.322   4.229  1.00  0.00     0.072 C 
ATOM      8  O   UNL     1       6.371 -30.633   4.766  1.00  0.00    -0.545 OA
ATOM      9  O   UNL     1       5.276 -29.832   2.928  1.00  0.00    -0.545 OA
ENDBRANCH   1   7
BRANCH   4  10
ATOM     10  O   UNL     1       1.614 -28.370   6.851  1.00  0.00    -0.504 OA
ATOM     11  H   UNL     1       0.737 -27.983   6.522  1.00  0.00     0.293 HD
ENDBRANCH   4  10
BRANCH   5  12
ATOM     12  O   UNL     1       1.589 -33.138   5.899  1.00  0.00    -0.504 OA
ATOM     13  H   UNL     1       2.066 -33.982   5.600  1.00  0.00     0.293 HD
ENDBRANCH   5  12
BRANCH   6  14
ATOM     14  O   UNL     1       0.383 -30.891   7.088  1.00  0.00    -0.502 OA
ATOM     15  H   UNL     1       0.342 -31.281   8.022  1.00  0.00     0.293 HD
ENDBRANCH   6  14
TORSDOF 4
ENDMDL
MODEL 2
REMARK VINA RESULT:    -5.604      0.028      2.429
REMARK INTER + INTRA:          -6.468
REMARK INTER:                  -6.423
REMARK INTRA:                  -0.045
REMARK UNBOUND:                -0.045
REMARK SMILES O=C([O-])c1cc(O)c(O)c(O)c1
REMARK SMILES IDX 4 1 5 2 12 3 6 4 10 5 8 6 2 7 1 8 3 9 7 10 11 12 9 14
REMARK H PARENT 7 11 11 13 9 15
REMARK Flexibility Score: inf
ROOT
ATOM      1  C   UNL     1       4.017 -30.480   4.985  1.00  0.00     0.005 A 
ATOM      2  C   UNL     1       3.399 -31.735   5.103  1.00  0.00     0.060 A 
ATOM      3  C   UNL     1       3.406 -29.361   5.577  1.00  0.00     0.060 A 
ATOM      4  C   UNL     1       2.192 -31.876   5.796  1.00  0.00     0.162 A 
ATOM      5  C   UNL     1       2.197 -29.493   6.274  1.00  0.00     0.162 A 
ATOM      6  C   UNL     1       1.585 -30.753   6.385  1.00  0.00     0.200 A 
ENDROOT
BRANCH   1   7
ATOM      7  C   UNL     1       5.293 -30.341   4.249  1.00  0.00     0.072 C 
ATOM      8  O   UNL     1       6.387 -30.631   4.803  1.00  0.00    -0.545 OA
ATOM      9  O   UNL     1       5.302 -29.891   2.934  1.00  0.00    -0.545 OA
ENDBRANCH   1   7
BRANCH   4  10
ATOM     10  O   UNL     1       1.610 -33.140   5.889  1.00  0.00    -0.504 OA
ATOM     11  H   UNL     1       0.607 -33.276   5.844  1.00  0.00     0.293 HD
ENDBRANCH   4  10
BRANCH   5  12
ATOM     12  O   UNL     1       1.601 -28.375   6.857  1.00  0.00    -0.504 OA
ATOM     13  H   UNL     1       1.578 -27.478   6.385  1.00  0.00     0.293 HD
ENDBRANCH   5  12
BRANCH   6  14
ATOM     14  O   UNL     1       0.382 -30.902   7.076  1.00  0.00    -0.502 OA
ATOM     15  H   UNL     1       0.255 -31.606   7.794  1.00  0.00     0.293 HD
ENDBRANCH   6  14
TORSDOF 4
ENDMDL
MODEL 3
REMARK VINA RESULT:    -5.165      5.830      7.420
REMARK INTER + INTRA:          -5.965
REMARK INTER:                  -5.914
REMARK INTRA:                  -0.051
REMARK UNBOUND:                -0.045
REMARK SMILES O=C([O-])c1cc(O)c(O)c(O)c1
REMARK SMILES IDX 4 1 5 2 12 3 6 4 10 5 8 6 2 7 1 8 3 9 7 10 11 12 9 14
REMARK H PARENT 7 11 11 13 9 15
REMARK Flexibility Score: inf
ROOT
ATOM      1  C   UNL     1       1.042 -27.278  -0.140  1.00  0.00     0.005 A 
ATOM      2  C   UNL     1       1.335 -27.715   1.162  1.00  0.00     0.060 A 
ATOM      3  C   UNL     1       1.980 -27.506  -1.163  1.00  0.00     0.060 A 
ATOM      4  C   UNL     1       2.540 -28.367   1.443  1.00  0.00     0.162 A 
ATOM      5  C   UNL     1       3.189 -28.159  -0.890  1.00  0.00     0.162 A 
ATOM      6  C   UNL     1       3.474 -28.592   0.417  1.00  0.00     0.200 A 
ENDROOT
BRANCH   1   7
ATOM      7  C   UNL     1      -0.235 -26.588  -0.427  1.00  0.00     0.072 C 
ATOM      8  O   UNL     1      -0.324 -25.776  -1.386  1.00  0.00    -0.545 OA
ATOM      9  O   UNL     1      -1.357 -26.829   0.358  1.00  0.00    -0.545 OA
ENDBRANCH   1   7
BRANCH   4  10
ATOM     10  O   UNL     1       2.793 -28.785   2.750  1.00  0.00    -0.504 OA
ATOM     11  H   UNL     1       3.662 -28.572   3.225  1.00  0.00     0.293 HD
ENDBRANCH   4  10
BRANCH   5  12
ATOM     12  O   UNL     1       4.110 -28.379  -1.913  1.00  0.00    -0.504 OA
ATOM     13  H   UNL     1       3.815 -28.632  -2.850  1.00  0.00     0.293 HD
ENDBRANCH   5  12
BRANCH   6  14
ATOM     14  O   UNL     1       4.673 -29.244   0.705  1.00  0.00    -0.502 OA
ATOM     15  H   UNL     1       5.211 -29.724  -0.006  1.00  0.00     0.293 HD
ENDBRANCH   6  14
TORSDOF 4
ENDMDL
MODEL 4
REMARK VINA RESULT:    -5.157      6.745      8.198
REMARK INTER + INTRA:          -5.956
REMARK INTER:                  -5.903
REMARK INTRA:                  -0.053
REMARK UNBOUND:                -0.045
REMARK SMILES O=C([O-])c1cc(O)c(O)c(O)c1
REMARK SMILES IDX 4 1 5 2 12 3 6 4 10 5 8 6 2 7 1 8 3 9 7 10 11 12 9 14
REMARK H PARENT 7 11 11 13 9 15
REMARK Flexibility Score: inf
ROOT
ATOM      1  C   UNL     1       0.432 -26.569  -0.613  1.00  0.00     0.005 A 
ATOM      2  C   UNL     1       0.669 -27.256   0.589  1.00  0.00     0.060 A 
ATOM      3  C   UNL     1       1.360 -26.691  -1.662  1.00  0.00     0.060 A 
ATOM      4  C   UNL     1       1.810 -28.051   0.745  1.00  0.00     0.162 A 
ATOM      5  C   UNL     1       2.504 -27.485  -1.514  1.00  0.00     0.162 A 
ATOM      6  C   UNL     1       2.734 -28.168  -0.307  1.00  0.00     0.200 A 
ENDROOT
BRANCH   1   7
ATOM      7  C   UNL     1      -0.778 -25.731  -0.768  1.00  0.00     0.072 C 
ATOM      8  O   UNL     1      -1.673 -25.728   0.118  1.00  0.00    -0.545 OA
ATOM      9  O   UNL     1      -0.941 -24.933  -1.895  1.00  0.00    -0.545 OA
ENDBRANCH   1   7
BRANCH   4  10
ATOM     10  O   UNL     1       2.008 -28.716   1.955  1.00  0.00    -0.504 OA
ATOM     11  H   UNL     1       2.934 -28.911   2.317  1.00  0.00     0.293 HD
ENDBRANCH   4  10
BRANCH   5  12
ATOM     12  O   UNL     1       3.417 -27.598  -2.562  1.00  0.00    -0.504 OA
ATOM     13  H   UNL     1       4.094 -26.869  -2.759  1.00  0.00     0.293 HD
ENDBRANCH   5  12
BRANCH   6  14
ATOM     14  O   UNL     1       3.868 -28.964  -0.144  1.00  0.00    -0.502 OA
ATOM     15  H   UNL     1       3.812 -29.969  -0.032  1.00  0.00     0.293 HD
ENDBRANCH   6  14
TORSDOF 4
ENDMDL
MODEL 5
REMARK VINA RESULT:    -5.154      6.428      7.965
REMARK INTER + INTRA:          -5.952
REMARK INTER:                  -5.900
REMARK INTRA:                  -0.053
REMARK UNBOUND:                -0.045
REMARK SMILES O=C([O-])c1cc(O)c(O)c(O)c1
REMARK SMILES IDX 4 1 5 2 12 3 6 4 10 5 8 6 2 7 1 8 3 9 7 10 11 12 9 14
REMARK H PARENT 7 11 11 13 9 15
REMARK Flexibility Score: inf
ROOT
ATOM      1  C   UNL     1       0.689 -26.795  -0.515  1.00  0.00     0.005 A 
ATOM      2  C   UNL     1       1.652 -26.964  -1.523  1.00  0.00     0.060 A 
ATOM      3  C   UNL     1       0.919 -27.363   0.750  1.00  0.00     0.060 A 
ATOM      4  C   UNL     1       2.825 -27.687  -1.278  1.00  0.00     0.162 A 
ATOM      5  C   UNL     1       2.091 -28.088   1.004  1.00  0.00     0.162 A 
ATOM      6  C   UNL     1       3.049 -28.253  -0.011  1.00  0.00     0.200 A 
ENDROOT
BRANCH   1   7
ATOM      7  C   UNL     1      -0.548 -26.028  -0.785  1.00  0.00     0.072 C 
ATOM      8  O   UNL     1      -0.672 -25.368  -1.851  1.00  0.00    -0.545 OA
ATOM      9  O   UNL     1      -1.591 -26.029   0.134  1.00  0.00    -0.545 OA
ENDBRANCH   1   7
BRANCH   4  10
ATOM     10  O   UNL     1       3.756 -27.833  -2.306  1.00  0.00    -0.504 OA
ATOM     11  H   UNL     1       3.499 -28.188  -3.219  1.00  0.00     0.293 HD
ENDBRANCH   4  10
BRANCH   5  12
ATOM     12  O   UNL     1       2.307 -28.647   2.264  1.00  0.00    -0.504 OA
ATOM     13  H   UNL     1       3.241 -28.773   2.636  1.00  0.00     0.293 HD
ENDBRANCH   5  12
BRANCH   6  14
ATOM     14  O   UNL     1       4.221 -28.972   0.226  1.00  0.00    -0.502 OA
ATOM     15  H   UNL     1       4.324 -29.590   1.023  1.00  0.00     0.293 HD
ENDBRANCH   6  14
TORSDOF 4
ENDMDL
MODEL 6
REMARK VINA RESULT:    -5.143      5.063      6.774
REMARK INTER + INTRA:          -5.939
REMARK INTER:                  -5.887
REMARK INTRA:                  -0.052
REMARK UNBOUND:                -0.045
REMARK SMILES O=C([O-])c1cc(O)c(O)c(O)c1
REMARK SMILES IDX 4 1 5 2 12 3 6 4 10 5 8 6 2 7 1 8 3 9 7 10 11 12 9 14
REMARK H PARENT 7 11 11 13 9 15
REMARK Flexibility Score: inf
ROOT
ATOM      1  C   UNL     1       2.028 -27.767   0.000  1.00  0.00     0.005 A 
ATOM      2  C   UNL     1       3.164 -28.179  -0.717  1.00  0.00     0.060 A 
ATOM      3  C   UNL     1       1.954 -28.044   1.376  1.00  0.00     0.060 A 
ATOM      4  C   UNL     1       4.207 -28.856  -0.076  1.00  0.00     0.162 A 
ATOM      5  C   UNL     1       2.994 -28.721   2.026  1.00  0.00     0.162 A 
ATOM      6  C   UNL     1       4.126 -29.130   1.300  1.00  0.00     0.200 A 
ENDROOT
BRANCH   1   7
ATOM      7  C   UNL     1       0.930 -27.052  -0.687  1.00  0.00     0.072 C 
ATOM      8  O   UNL     1       1.125 -26.498  -1.801  1.00  0.00    -0.545 OA
ATOM      9  O   UNL     1      -0.334 -26.984  -0.112  1.00  0.00    -0.545 OA
ENDBRANCH   1   7
BRANCH   4  10
ATOM     10  O   UNL     1       5.317 -29.249  -0.824  1.00  0.00    -0.504 OA
ATOM     11  H   UNL     1       5.949 -29.975  -0.510  1.00  0.00     0.293 HD
ENDBRANCH   4  10
BRANCH   5  12
ATOM     12  O   UNL     1       2.908 -28.989   3.391  1.00  0.00    -0.504 OA
ATOM     13  H   UNL     1       2.136 -29.518   3.781  1.00  0.00     0.293 HD
ENDBRANCH   5  12
BRANCH   6  14
ATOM     14  O   UNL     1       5.172 -29.805   1.932  1.00  0.00    -0.502 OA
ATOM     15  H   UNL     1       5.507 -30.705   1.610  1.00  0.00     0.293 HD
ENDBRANCH   6  14
TORSDOF 4
ENDMDL
MODEL 7
REMARK VINA RESULT:    -5.060      5.243      6.692
REMARK INTER + INTRA:          -5.845
REMARK INTER:                  -5.800
REMARK INTRA:                  -0.045
REMARK UNBOUND:                -0.045
REMARK SMILES O=C([O-])c1cc(O)c(O)c(O)c1
REMARK SMILES IDX 4 1 5 2 12 3 6 4 10 5 8 6 2 7 1 8 3 9 7 10 11 12 9 14
REMARK H PARENT 7 11 11 13 9 15
REMARK Flexibility Score: inf
ROOT
ATOM      1  C   UNL     1       2.733 -28.774   1.264  1.00  0.00     0.005 A 
ATOM      2  C   UNL     1       1.580 -27.982   1.144  1.00  0.00     0.060 A 
ATOM      3  C   UNL     1       3.624 -28.849   0.180  1.00  0.00     0.060 A 
ATOM      4  C   UNL     1       1.316 -27.276  -0.035  1.00  0.00     0.162 A 
ATOM      5  C   UNL     1       3.369 -28.146  -1.005  1.00  0.00     0.162 A 
ATOM      6  C   UNL     1       2.211 -27.356  -1.116  1.00  0.00     0.200 A 
ENDROOT
BRANCH   1   7
ATOM      7  C   UNL     1       3.002 -29.517   2.515  1.00  0.00     0.072 C 
ATOM      8  O   UNL     1       3.393 -28.911   3.548  1.00  0.00    -0.545 OA
ATOM      9  O   UNL     1       2.824 -30.895   2.569  1.00  0.00    -0.545 OA
ENDBRANCH   1   7
BRANCH   4  10
ATOM     10  O   UNL     1       0.159 -26.501  -0.115  1.00  0.00    -0.504 OA
ATOM     11  H   UNL     1       0.120 -25.554   0.242  1.00  0.00     0.293 HD
ENDBRANCH   4  10
BRANCH   5  12
ATOM     12  O   UNL     1       4.261 -28.229  -2.073  1.00  0.00    -0.504 OA
ATOM     13  H   UNL     1       4.080 -27.761  -2.955  1.00  0.00     0.293 HD
ENDBRANCH   5  12
BRANCH   6  14
ATOM     14  O   UNL     1       1.942 -26.649  -2.289  1.00  0.00    -0.502 OA
ATOM     15  H   UNL     1       1.031 -26.663  -2.732  1.00  0.00     0.293 HD
ENDBRANCH   6  14
TORSDOF 4
ENDMDL
MODEL 8
REMARK VINA RESULT:    -5.055      5.255      6.909
REMARK INTER + INTRA:          -5.839
REMARK INTER:                  -5.794
REMARK INTRA:                  -0.045
REMARK UNBOUND:                -0.045
REMARK SMILES O=C([O-])c1cc(O)c(O)c(O)c1
REMARK SMILES IDX 4 1 5 2 12 3 6 4 10 5 8 6 2 7 1 8 3 9 7 10 11 12 9 14
REMARK H PARENT 7 11 11 13 9 15
REMARK Flexibility Score: inf
ROOT
ATOM      1  C   UNL     1       2.735 -28.756   1.245  1.00  0.00     0.005 A 
ATOM      2  C   UNL     1       3.620 -28.855   0.159  1.00  0.00     0.060 A 
ATOM      3  C   UNL     1       1.599 -27.937   1.125  1.00  0.00     0.060 A 
ATOM      4  C   UNL     1       3.381 -28.151  -1.026  1.00  0.00     0.162 A 
ATOM      5  C   UNL     1       1.351 -27.228  -0.058  1.00  0.00     0.162 A 
ATOM      6  C   UNL     1       2.243 -27.333  -1.139  1.00  0.00     0.200 A 
ENDROOT
BRANCH   1   7
ATOM      7  C   UNL     1       2.998 -29.505   2.494  1.00  0.00     0.072 C 
ATOM      8  O   UNL     1       3.441 -28.914   3.514  1.00  0.00    -0.545 OA
ATOM      9  O   UNL     1       2.758 -30.873   2.558  1.00  0.00    -0.545 OA
ENDBRANCH   1   7
BRANCH   4  10
ATOM     10  O   UNL     1       4.285 -28.276  -2.080  1.00  0.00    -0.504 OA
ATOM     11  H   UNL     1       4.734 -29.156  -2.304  1.00  0.00     0.293 HD
ENDBRANCH   4  10
BRANCH   5  12
ATOM     12  O   UNL     1       0.221 -26.419  -0.163  1.00  0.00    -0.504 OA
ATOM     13  H   UNL     1      -0.063 -25.801   0.589  1.00  0.00     0.293 HD
ENDBRANCH   5  12
BRANCH   6  14
ATOM     14  O   UNL     1       2.011 -26.634  -2.324  1.00  0.00    -0.502 OA
ATOM     15  H   UNL     1       2.241 -27.019  -3.232  1.00  0.00     0.293 HD
ENDBRANCH   6  14
TORSDOF 4
ENDMDL
MODEL 9
REMARK VINA RESULT:    -4.984      8.899      9.598
REMARK INTER + INTRA:          -5.758
REMARK INTER:                  -5.706
REMARK INTRA:                  -0.052
REMARK UNBOUND:                -0.045
REMARK SMILES O=C([O-])c1cc(O)c(O)c(O)c1
REMARK SMILES IDX 4 1 5 2 12 3 6 4 10 5 8 6 2 7 1 8 3 9 7 10 11 12 9 14
REMARK H PARENT 7 11 11 13 9 15
REMARK Flexibility Score: inf
ROOT
ATOM      1  C   UNL     1      -1.009 -26.194  -0.480  1.00  0.00     0.005 A 
ATOM      2  C   UNL     1      -2.046 -26.638   0.357  1.00  0.00     0.060 A 
ATOM      3  C   UNL     1      -1.293 -25.232  -1.464  1.00  0.00     0.060 A 
ATOM      4  C   UNL     1      -3.343 -26.135   0.217  1.00  0.00     0.162 A 
ATOM      5  C   UNL     1      -2.589 -24.721  -1.611  1.00  0.00     0.162 A 
ATOM      6  C   UNL     1      -3.621 -25.172  -0.769  1.00  0.00     0.200 A 
ENDROOT
BRANCH   1   7
ATOM      7  C   UNL     1       0.360 -26.734  -0.324  1.00  0.00     0.072 C 
ATOM      8  O   UNL     1       0.703 -27.311   0.742  1.00  0.00    -0.545 OA
ATOM      9  O   UNL     1       1.286 -26.613  -1.354  1.00  0.00    -0.545 OA
ENDBRANCH   1   7
BRANCH   4  10
ATOM     10  O   UNL     1      -4.345 -26.602   1.068  1.00  0.00    -0.504 OA
ATOM     11  H   UNL     1      -5.010 -25.980   1.510  1.00  0.00     0.293 HD
ENDBRANCH   4  10
BRANCH   5  12
ATOM     12  O   UNL     1      -2.858 -23.767  -2.591  1.00  0.00    -0.504 OA
ATOM     13  H   UNL     1      -2.897 -24.011  -3.574  1.00  0.00     0.293 HD
ENDBRANCH   5  12
BRANCH   6  14
ATOM     14  O   UNL     1      -4.917 -24.674  -0.901  1.00  0.00    -0.502 OA
ATOM     15  H   UNL     1      -5.368 -24.138  -0.169  1.00  0.00     0.293 HD
ENDBRANCH   6  14
TORSDOF 4
ENDMDL
