MODEL 1
REMARK VINA RESULT:    -7.704      0.000      0.000
REMARK INTER + INTRA:         -12.984
REMARK INTER:                 -11.982
REMARK INTRA:                  -1.002
REMARK UNBOUND:                -1.002
REMARK SMILES COc1cc(CNC(=O)CCCCC=CC(C)C)ccc1O
REMARK SMILES IDX 11 1 12 2 13 3 14 4 15 5 16 6 17 7 18 8 10 9 8 10 9 11 7 12
REMARK SMILES IDX 6 14 5 15 4 16 19 17 3 18 20 19 21 20 2 21 1 22 22 23
REMARK H PARENT 7 13 22 24
REMARK Flexibility Score: inf
ROOT
ATOM      1  C   UNL     1      80.670  62.365 105.525  1.00  0.00     0.010 C 
ENDROOT
BRANCH   1   2
ATOM      2  C   UNL     1      80.832  62.520 104.002  1.00  0.00     0.005 C 
BRANCH   2   3
ATOM      3  C   UNL     1      79.822  63.512 103.402  1.00  0.00     0.027 C 
BRANCH   3   4
ATOM      4  C   UNL     1      79.977  63.682 101.910  1.00  0.00    -0.031 C 
ATOM      5  C   UNL     1      78.974  63.649 101.011  1.00  0.00    -0.028 C 
BRANCH   5   6
ATOM      6  C   UNL     1      77.508  63.454 101.337  1.00  0.00     0.005 C 
ATOM      7  C   UNL     1      77.245  61.986 101.679  1.00  0.00     0.012 C 
ATOM      8  C   UNL     1      76.654  63.889 100.141  1.00  0.00     0.012 C 
ENDBRANCH   5   6
ENDBRANCH   3   4
ENDBRANCH   2   3
ENDBRANCH   1   2
BRANCH   1   9
ATOM      9  C   UNL     1      79.448  63.123 106.057  1.00  0.00     0.100 C 
BRANCH   9  10
ATOM     10  C   UNL     1      78.471  62.197 106.725  1.00  0.00     0.220 C 
ATOM     11  O   UNL     1      77.979  62.516 107.840  1.00  0.00    -0.275 OA
ATOM     12  N   UNL     1      78.069  60.983 106.075  1.00  0.00    -0.352 N 
ATOM     13  H   UNL     1      78.493  60.737 105.151  1.00  0.00     0.163 HD
BRANCH  12  14
ATOM     14  C   UNL     1      77.041  60.101 106.621  1.00  0.00     0.151 C 
BRANCH  14  15
ATOM     15  C   UNL     1      75.711  60.375 105.973  1.00  0.00    -0.025 A 
ATOM     16  C   UNL     1      74.579  59.633 106.348  1.00  0.00     0.056 A 
ATOM     17  C   UNL     1      75.585  61.379 105.003  1.00  0.00     0.009 A 
ATOM     18  C   UNL     1      73.325  59.891 105.760  1.00  0.00     0.160 A 
ATOM     19  C   UNL     1      74.347  61.637 104.413  1.00  0.00     0.050 A 
ATOM     20  C   UNL     1      73.218  60.901 104.785  1.00  0.00     0.157 A 
BRANCH  18  21
ATOM     21  O   UNL     1      72.174  59.172 106.119  1.00  0.00    -0.493 OA
ATOM     22  C   UNL     1      72.183  57.886 106.730  1.00  0.00     0.278 C 
ENDBRANCH  18  21
BRANCH  20  23
ATOM     23  O   UNL     1      71.997  61.188 104.176  1.00  0.00    -0.504 OA
ATOM     24  H   UNL     1      71.138  61.287 104.705  1.00  0.00     0.293 HD
ENDBRANCH  20  23
ENDBRANCH  14  15
ENDBRANCH  12  14
ENDBRANCH   9  10
ENDBRANCH   1   9
TORSDOF 10
ENDMDL
MODEL 2
REMARK VINA RESULT:    -7.651      1.864      3.882
REMARK INTER + INTRA:         -12.902
REMARK INTER:                 -11.535
REMARK INTRA:                  -1.366
REMARK UNBOUND:                -1.002
REMARK SMILES COc1cc(CNC(=O)CCCCC=CC(C)C)ccc1O
REMARK SMILES IDX 11 1 12 2 13 3 14 4 15 5 16 6 17 7 18 8 10 9 8 10 9 11 7 12
REMARK SMILES IDX 6 14 5 15 4 16 19 17 3 18 20 19 21 20 2 21 1 22 22 23
REMARK H PARENT 7 13 22 24
REMARK Flexibility Score: inf
ROOT
ATOM      1  C   UNL     1      78.777  64.264 101.729  1.00  0.00     0.010 C 
ENDROOT
BRANCH   1   2
ATOM      2  C   UNL     1      80.171  63.838 102.222  1.00  0.00     0.005 C 
BRANCH   2   3
ATOM      3  C   UNL     1      80.125  62.566 103.085  1.00  0.00     0.027 C 
BRANCH   3   4
ATOM      4  C   UNL     1      80.823  62.730 104.414  1.00  0.00    -0.031 C 
ATOM      5  C   UNL     1      80.244  62.597 105.623  1.00  0.00    -0.028 C 
BRANCH   5   6
ATOM      6  C   UNL     1      78.793  62.242 105.867  1.00  0.00     0.005 C 
ATOM      7  C   UNL     1      78.305  62.913 107.153  1.00  0.00     0.012 C 
ATOM      8  C   UNL     1      78.646  60.719 105.967  1.00  0.00     0.012 C 
ENDBRANCH   5   6
ENDBRANCH   3   4
ENDBRANCH   2   3
ENDBRANCH   1   2
BRANCH   1   9
ATOM      9  C   UNL     1      77.803  63.082 101.650  1.00  0.00     0.100 C 
BRANCH   9  10
ATOM     10  C   UNL     1      76.588  63.310 102.502  1.00  0.00     0.220 C 
ATOM     11  O   UNL     1      76.520  64.342 103.222  1.00  0.00    -0.275 OA
ATOM     12  N   UNL     1      75.494  62.381 102.461  1.00  0.00    -0.352 N 
ATOM     13  H   UNL     1      75.573  61.530 101.859  1.00  0.00     0.163 HD
BRANCH  12  14
ATOM     14  C   UNL     1      74.243  62.607 103.180  1.00  0.00     0.151 C 
BRANCH  14  15
ATOM     15  C   UNL     1      74.072  61.592 104.277  1.00  0.00    -0.025 A 
ATOM     16  C   UNL     1      72.927  60.780 104.313  1.00  0.00     0.056 A 
ATOM     17  C   UNL     1      75.058  61.435 105.262  1.00  0.00     0.009 A 
ATOM     18  C   UNL     1      72.764  59.814 105.326  1.00  0.00     0.160 A 
ATOM     19  C   UNL     1      74.901  60.484 106.271  1.00  0.00     0.050 A 
ATOM     20  C   UNL     1      73.762  59.673 106.308  1.00  0.00     0.157 A 
BRANCH  18  21
ATOM     21  O   UNL     1      71.634  58.983 105.384  1.00  0.00    -0.493 OA
ATOM     22  C   UNL     1      71.561  57.678 104.819  1.00  0.00     0.278 C 
ENDBRANCH  18  21
BRANCH  20  23
ATOM     23  O   UNL     1      73.640  58.732 107.330  1.00  0.00    -0.504 OA
ATOM     24  H   UNL     1      73.795  58.967 108.304  1.00  0.00     0.293 HD
ENDBRANCH  20  23
ENDBRANCH  14  15
ENDBRANCH  12  14
ENDBRANCH   9  10
ENDBRANCH   1   9
TORSDOF 10
ENDMDL
MODEL 3
REMARK VINA RESULT:    -7.632      3.201      5.889
REMARK INTER + INTRA:         -12.873
REMARK INTER:                 -10.663
REMARK INTRA:                  -2.209
REMARK UNBOUND:                -1.002
REMARK SMILES COc1cc(CNC(=O)CCCCC=CC(C)C)ccc1O
REMARK SMILES IDX 11 1 12 2 13 3 14 4 15 5 16 6 17 7 18 8 10 9 8 10 9 11 7 12
REMARK SMILES IDX 6 14 5 15 4 16 19 17 3 18 20 19 21 20 2 21 1 22 22 23
REMARK H PARENT 7 13 22 24
REMARK Flexibility Score: inf
ROOT
ATOM      1  C   UNL     1      79.326  63.186 102.226  1.00  0.00     0.010 C 
ENDROOT
BRANCH   1   2
ATOM      2  C   UNL     1      80.562  63.360 103.127  1.00  0.00     0.005 C 
BRANCH   2   3
ATOM      3  C   UNL     1      80.678  62.252 104.185  1.00  0.00     0.027 C 
BRANCH   3   4
ATOM      4  C   UNL     1      80.058  62.632 105.509  1.00  0.00    -0.031 C 
ATOM      5  C   UNL     1      79.042  61.984 106.111  1.00  0.00    -0.028 C 
BRANCH   5   6
ATOM      6  C   UNL     1      78.351  60.746 105.579  1.00  0.00     0.005 C 
ATOM      7  C   UNL     1      77.306  61.146 104.535  1.00  0.00     0.012 C 
ATOM      8  C   UNL     1      77.693  59.987 106.736  1.00  0.00     0.012 C 
ENDBRANCH   5   6
ENDBRANCH   3   4
ENDBRANCH   2   3
ENDBRANCH   1   2
BRANCH   1   9
ATOM      9  C   UNL     1      78.499  64.473 102.120  1.00  0.00     0.100 C 
BRANCH   9  10
ATOM     10  C   UNL     1      77.242  64.391 102.938  1.00  0.00     0.220 C 
ATOM     11  O   UNL     1      76.262  63.730 102.502  1.00  0.00    -0.275 OA
ATOM     12  N   UNL     1      77.177  65.022 104.225  1.00  0.00    -0.352 N 
ATOM     13  H   UNL     1      78.001  65.567 104.566  1.00  0.00     0.163 HD
BRANCH  12  14
ATOM     14  C   UNL     1      76.025  64.883 105.113  1.00  0.00     0.151 C 
BRANCH  14  15
ATOM     15  C   UNL     1      76.468  64.480 106.494  1.00  0.00    -0.025 A 
ATOM     16  C   UNL     1      77.539  65.145 107.111  1.00  0.00     0.056 A 
ATOM     17  C   UNL     1      75.807  63.452 107.182  1.00  0.00     0.009 A 
ATOM     18  C   UNL     1      77.952  64.788 108.410  1.00  0.00     0.160 A 
ATOM     19  C   UNL     1      76.214  63.090 108.467  1.00  0.00     0.050 A 
ATOM     20  C   UNL     1      77.280  63.752 109.084  1.00  0.00     0.157 A 
BRANCH  18  21
ATOM     21  O   UNL     1      79.015  65.439 109.056  1.00  0.00    -0.493 OA
ATOM     22  C   UNL     1      79.218  66.848 109.059  1.00  0.00     0.278 C 
ENDBRANCH  18  21
BRANCH  20  23
ATOM     23  O   UNL     1      77.658  63.364 110.370  1.00  0.00    -0.504 OA
ATOM     24  H   UNL     1      78.552  62.927 110.562  1.00  0.00     0.293 HD
ENDBRANCH  20  23
ENDBRANCH  14  15
ENDBRANCH  12  14
ENDBRANCH   9  10
ENDBRANCH   1   9
TORSDOF 10
ENDMDL
MODEL 4
REMARK VINA RESULT:    -7.548      1.355      2.459
REMARK INTER + INTRA:         -12.742
REMARK INTER:                 -11.477
REMARK INTRA:                  -1.264
REMARK UNBOUND:                -1.002
REMARK SMILES COc1cc(CNC(=O)CCCCC=CC(C)C)ccc1O
REMARK SMILES IDX 11 1 12 2 13 3 14 4 15 5 16 6 17 7 18 8 10 9 8 10 9 11 7 12
REMARK SMILES IDX 6 14 5 15 4 16 19 17 3 18 20 19 21 20 2 21 1 22 22 23
REMARK H PARENT 7 13 22 24
REMARK Flexibility Score: inf
ROOT
ATOM      1  C   UNL     1      80.070  62.687 105.339  1.00  0.00     0.010 C 
ENDROOT
BRANCH   1   2
ATOM      2  C   UNL     1      80.474  62.814 103.860  1.00  0.00     0.005 C 
BRANCH   2   3
ATOM      3  C   UNL     1      79.645  63.871 103.113  1.00  0.00     0.027 C 
BRANCH   3   4
ATOM      4  C   UNL     1      79.775  63.772 101.612  1.00  0.00    -0.031 C 
ATOM      5  C   UNL     1      78.754  63.615 100.747  1.00  0.00    -0.028 C 
BRANCH   5   6
ATOM      6  C   UNL     1      77.290  63.530 101.123  1.00  0.00     0.005 C 
ATOM      7  C   UNL     1      76.953  62.106 101.571  1.00  0.00     0.012 C 
ATOM      8  C   UNL     1      76.427  63.934  99.923  1.00  0.00     0.012 C 
ENDBRANCH   5   6
ENDBRANCH   3   4
ENDBRANCH   2   3
ENDBRANCH   1   2
BRANCH   1   9
ATOM      9  C   UNL     1      79.500  61.302 105.668  1.00  0.00     0.100 C 
BRANCH   9  10
ATOM     10  C   UNL     1      78.125  61.397 106.266  1.00  0.00     0.220 C 
ATOM     11  O   UNL     1      77.760  60.544 107.119  1.00  0.00    -0.275 OA
ATOM     12  N   UNL     1      77.254  62.478 105.902  1.00  0.00    -0.352 N 
ATOM     13  H   UNL     1      77.577  63.173 105.191  1.00  0.00     0.163 HD
BRANCH  12  14
ATOM     14  C   UNL     1      75.953  62.687 106.533  1.00  0.00     0.151 C 
BRANCH  14  15
ATOM     15  C   UNL     1      74.872  61.982 105.759  1.00  0.00    -0.025 A 
ATOM     16  C   UNL     1      74.602  62.352 104.431  1.00  0.00     0.056 A 
ATOM     17  C   UNL     1      74.137  60.943 106.347  1.00  0.00     0.009 A 
ATOM     18  C   UNL     1      73.603  61.689 103.691  1.00  0.00     0.160 A 
ATOM     19  C   UNL     1      73.143  60.285 105.622  1.00  0.00     0.050 A 
ATOM     20  C   UNL     1      72.873  60.650 104.299  1.00  0.00     0.157 A 
BRANCH  18  21
ATOM     21  O   UNL     1      73.314  62.030 102.361  1.00  0.00    -0.493 OA
ATOM     22  C   UNL     1      73.327  63.358 101.846  1.00  0.00     0.278 C 
ENDBRANCH  18  21
BRANCH  20  23
ATOM     23  O   UNL     1      71.873  59.969 103.604  1.00  0.00    -0.504 OA
ATOM     24  H   UNL     1      71.389  59.170 103.997  1.00  0.00     0.293 HD
ENDBRANCH  20  23
ENDBRANCH  14  15
ENDBRANCH  12  14
ENDBRANCH   9  10
ENDBRANCH   1   9
TORSDOF 10
ENDMDL
MODEL 5
REMARK VINA RESULT:    -7.545      2.489      4.580
REMARK INTER + INTRA:         -12.737
REMARK INTER:                 -11.171
REMARK INTRA:                  -1.566
REMARK UNBOUND:                -1.002
REMARK SMILES COc1cc(CNC(=O)CCCCC=CC(C)C)ccc1O
REMARK SMILES IDX 11 1 12 2 13 3 14 4 15 5 16 6 17 7 18 8 10 9 8 10 9 11 7 12
REMARK SMILES IDX 6 14 5 15 4 16 19 17 3 18 20 19 21 20 2 21 1 22 22 23
REMARK H PARENT 7 13 22 24
REMARK Flexibility Score: inf
ROOT
ATOM      1  C   UNL     1      79.905  63.506 103.311  1.00  0.00     0.010 C 
ENDROOT
BRANCH   1   2
ATOM      2  C   UNL     1      80.766  62.360 103.869  1.00  0.00     0.005 C 
BRANCH   2   3
ATOM      3  C   UNL     1      80.859  62.389 105.404  1.00  0.00     0.027 C 
BRANCH   3   4
ATOM      4  C   UNL     1      79.597  62.895 106.062  1.00  0.00    -0.031 C 
ATOM      5  C   UNL     1      78.469  62.180 106.242  1.00  0.00    -0.028 C 
BRANCH   5   6
ATOM      6  C   UNL     1      78.270  60.736 105.836  1.00  0.00     0.005 C 
ATOM      7  C   UNL     1      77.602  60.673 104.461  1.00  0.00     0.012 C 
ATOM      8  C   UNL     1      77.410  60.021 106.884  1.00  0.00     0.012 C 
ENDBRANCH   5   6
ENDBRANCH   3   4
ENDBRANCH   2   3
ENDBRANCH   1   2
BRANCH   1   9
ATOM      9  C   UNL     1      79.646  63.357 101.806  1.00  0.00     0.100 C 
BRANCH   9  10
ATOM     10  C   UNL     1      78.266  63.819 101.434  1.00  0.00     0.220 C 
ATOM     11  O   UNL     1      77.785  63.494 100.316  1.00  0.00    -0.275 OA
ATOM     12  N   UNL     1      77.487  64.585 102.364  1.00  0.00    -0.352 N 
ATOM     13  H   UNL     1      77.907  64.845 103.286  1.00  0.00     0.163 HD
BRANCH  12  14
ATOM     14  C   UNL     1      76.101  64.965 102.104  1.00  0.00     0.151 C 
BRANCH  14  15
ATOM     15  C   UNL     1      75.169  63.837 102.456  1.00  0.00    -0.025 A 
ATOM     16  C   UNL     1      75.129  63.342 103.769  1.00  0.00     0.056 A 
ATOM     17  C   UNL     1      74.323  63.283 101.485  1.00  0.00     0.009 A 
ATOM     18  C   UNL     1      74.248  62.297 104.115  1.00  0.00     0.160 A 
ATOM     19  C   UNL     1      73.452  62.245 101.819  1.00  0.00     0.050 A 
ATOM     20  C   UNL     1      73.409  61.751 103.126  1.00  0.00     0.157 A 
BRANCH  18  21
ATOM     21  O   UNL     1      74.179  61.785 105.420  1.00  0.00    -0.493 OA
ATOM     22  C   UNL     1      74.641  62.468 106.581  1.00  0.00     0.278 C 
ENDBRANCH  18  21
BRANCH  20  23
ATOM     23  O   UNL     1      72.524  60.714 103.424  1.00  0.00    -0.504 OA
ATOM     24  H   UNL     1      71.705  60.852 104.005  1.00  0.00     0.293 HD
ENDBRANCH  20  23
ENDBRANCH  14  15
ENDBRANCH  12  14
ENDBRANCH   9  10
ENDBRANCH   1   9
TORSDOF 10
ENDMDL
MODEL 6
REMARK VINA RESULT:    -7.544      2.376      4.457
REMARK INTER + INTRA:         -12.736
REMARK INTER:                 -10.554
REMARK INTRA:                  -2.182
REMARK UNBOUND:                -1.002
REMARK SMILES COc1cc(CNC(=O)CCCCC=CC(C)C)ccc1O
REMARK SMILES IDX 11 1 12 2 13 3 14 4 15 5 16 6 17 7 18 8 10 9 8 10 9 11 7 12
REMARK SMILES IDX 6 14 5 15 4 16 19 17 3 18 20 19 21 20 2 21 1 22 22 23
REMARK H PARENT 7 13 22 24
REMARK Flexibility Score: inf
ROOT
ATOM      1  C   UNL     1      80.100  63.523 103.214  1.00  0.00     0.010 C 
ENDROOT
BRANCH   1   2
ATOM      2  C   UNL     1      80.799  62.304 103.838  1.00  0.00     0.005 C 
BRANCH   2   3
ATOM      3  C   UNL     1      80.894  62.402 105.370  1.00  0.00     0.027 C 
BRANCH   3   4
ATOM      4  C   UNL     1      79.623  62.907 106.008  1.00  0.00    -0.031 C 
ATOM      5  C   UNL     1      78.519  62.171 106.242  1.00  0.00    -0.028 C 
BRANCH   5   6
ATOM      6  C   UNL     1      78.361  60.699 105.924  1.00  0.00     0.005 C 
ATOM      7  C   UNL     1      77.825  60.533 104.500  1.00  0.00     0.012 C 
ATOM      8  C   UNL     1      77.408  60.054 106.936  1.00  0.00     0.012 C 
ENDBRANCH   5   6
ENDBRANCH   3   4
ENDBRANCH   2   3
ENDBRANCH   1   2
BRANCH   1   9
ATOM      9  C   UNL     1      79.452  63.192 101.864  1.00  0.00     0.100 C 
BRANCH   9  10
ATOM     10  C   UNL     1      77.977  63.475 101.874  1.00  0.00     0.220 C 
ATOM     11  O   UNL     1      77.296  63.249 100.838  1.00  0.00    -0.275 OA
ATOM     12  N   UNL     1      77.343  63.954 103.069  1.00  0.00    -0.352 N 
ATOM     13  H   UNL     1      77.928  64.136 103.916  1.00  0.00     0.163 HD
BRANCH  12  14
ATOM     14  C   UNL     1      75.898  64.139 103.173  1.00  0.00     0.151 C 
BRANCH  14  15
ATOM     15  C   UNL     1      75.327  63.248 104.244  1.00  0.00    -0.025 A 
ATOM     16  C   UNL     1      75.375  63.647 105.590  1.00  0.00     0.056 A 
ATOM     17  C   UNL     1      74.730  62.025 103.909  1.00  0.00     0.009 A 
ATOM     18  C   UNL     1      74.830  62.829 106.600  1.00  0.00     0.160 A 
ATOM     19  C   UNL     1      74.192  61.208 104.905  1.00  0.00     0.050 A 
ATOM     20  C   UNL     1      74.237  61.603 106.245  1.00  0.00     0.157 A 
BRANCH  18  21
ATOM     21  O   UNL     1      74.855  63.203 107.952  1.00  0.00    -0.493 OA
ATOM     22  C   UNL     1      76.040  63.330 108.733  1.00  0.00     0.278 C 
ENDBRANCH  18  21
BRANCH  20  23
ATOM     23  O   UNL     1      73.688  60.762 107.213  1.00  0.00    -0.504 OA
ATOM     24  H   UNL     1      74.162  60.559 108.086  1.00  0.00     0.293 HD
ENDBRANCH  20  23
ENDBRANCH  14  15
ENDBRANCH  12  14
ENDBRANCH   9  10
ENDBRANCH   1   9
TORSDOF 10
ENDMDL
MODEL 7
REMARK VINA RESULT:    -7.539      2.305      4.177
REMARK INTER + INTRA:         -12.728
REMARK INTER:                 -10.480
REMARK INTRA:                  -2.248
REMARK UNBOUND:                -1.002
REMARK SMILES COc1cc(CNC(=O)CCCCC=CC(C)C)ccc1O
REMARK SMILES IDX 11 1 12 2 13 3 14 4 15 5 16 6 17 7 18 8 10 9 8 10 9 11 7 12
REMARK SMILES IDX 6 14 5 15 4 16 19 17 3 18 20 19 21 20 2 21 1 22 22 23
REMARK H PARENT 7 13 22 24
REMARK Flexibility Score: inf
ROOT
ATOM      1  C   UNL     1      80.019  63.503 103.368  1.00  0.00     0.010 C 
ENDROOT
BRANCH   1   2
ATOM      2  C   UNL     1      80.980  62.459 103.962  1.00  0.00     0.005 C 
BRANCH   2   3
ATOM      3  C   UNL     1      80.900  62.394 105.496  1.00  0.00     0.027 C 
BRANCH   3   4
ATOM      4  C   UNL     1      79.606  62.946 106.044  1.00  0.00    -0.031 C 
ATOM      5  C   UNL     1      78.476  62.239 106.241  1.00  0.00    -0.028 C 
BRANCH   5   6
ATOM      6  C   UNL     1      78.306  60.760 105.967  1.00  0.00     0.005 C 
ATOM      7  C   UNL     1      77.751  60.556 104.555  1.00  0.00     0.012 C 
ATOM      8  C   UNL     1      77.363  60.149 107.009  1.00  0.00     0.012 C 
ENDBRANCH   5   6
ENDBRANCH   3   4
ENDBRANCH   2   3
ENDBRANCH   1   2
BRANCH   1   9
ATOM      9  C   UNL     1      79.508  63.097 101.980  1.00  0.00     0.100 C 
BRANCH   9  10
ATOM     10  C   UNL     1      78.007  63.129 101.913  1.00  0.00     0.220 C 
ATOM     11  O   UNL     1      77.398  62.241 101.258  1.00  0.00    -0.275 OA
ATOM     12  N   UNL     1      77.275  64.135 102.627  1.00  0.00    -0.352 N 
ATOM     13  H   UNL     1      77.801  64.862 103.162  1.00  0.00     0.163 HD
BRANCH  12  14
ATOM     14  C   UNL     1      75.815  64.148 102.691  1.00  0.00     0.151 C 
BRANCH  14  15
ATOM     15  C   UNL     1      75.336  63.498 103.961  1.00  0.00    -0.025 A 
ATOM     16  C   UNL     1      74.674  62.261 103.911  1.00  0.00     0.056 A 
ATOM     17  C   UNL     1      75.558  64.111 105.202  1.00  0.00     0.009 A 
ATOM     18  C   UNL     1      74.235  61.634 105.094  1.00  0.00     0.160 A 
ATOM     19  C   UNL     1      75.122  63.498 106.378  1.00  0.00     0.050 A 
ATOM     20  C   UNL     1      74.464  62.265 106.331  1.00  0.00     0.157 A 
BRANCH  18  21
ATOM     21  O   UNL     1      73.577  60.394 105.078  1.00  0.00    -0.493 OA
ATOM     22  C   UNL     1      72.172  60.227 104.913  1.00  0.00     0.278 C 
ENDBRANCH  18  21
BRANCH  20  23
ATOM     23  O   UNL     1      74.044  61.681 107.527  1.00  0.00    -0.504 OA
ATOM     24  H   UNL     1      74.496  61.877 108.413  1.00  0.00     0.293 HD
ENDBRANCH  20  23
ENDBRANCH  14  15
ENDBRANCH  12  14
ENDBRANCH   9  10
ENDBRANCH   1   9
TORSDOF 10
ENDMDL
MODEL 8
REMARK VINA RESULT:    -7.435      2.166      4.566
REMARK INTER + INTRA:         -12.567
REMARK INTER:                 -11.258
REMARK INTRA:                  -1.308
REMARK UNBOUND:                -1.002
REMARK SMILES COc1cc(CNC(=O)CCCCC=CC(C)C)ccc1O
REMARK SMILES IDX 11 1 12 2 13 3 14 4 15 5 16 6 17 7 18 8 10 9 8 10 9 11 7 12
REMARK SMILES IDX 6 14 5 15 4 16 19 17 3 18 20 19 21 20 2 21 1 22 22 23
REMARK H PARENT 7 13 22 24
REMARK Flexibility Score: inf
ROOT
ATOM      1  C   UNL     1      77.436  62.709 100.882  1.00  0.00     0.010 C 
ENDROOT
BRANCH   1   2
ATOM      2  C   UNL     1      78.723  63.524 100.663  1.00  0.00     0.005 C 
BRANCH   2   3
ATOM      3  C   UNL     1      79.199  64.225 101.946  1.00  0.00     0.027 C 
BRANCH   3   4
ATOM      4  C   UNL     1      80.402  63.560 102.570  1.00  0.00    -0.031 C 
ATOM      5  C   UNL     1      80.425  62.959 103.776  1.00  0.00    -0.028 C 
BRANCH   5   6
ATOM      6  C   UNL     1      79.243  62.824 104.713  1.00  0.00     0.005 C 
ATOM      7  C   UNL     1      79.733  62.796 106.162  1.00  0.00     0.012 C 
ATOM      8  C   UNL     1      78.470  61.543 104.383  1.00  0.00     0.012 C 
ENDBRANCH   5   6
ENDBRANCH   3   4
ENDBRANCH   2   3
ENDBRANCH   1   2
BRANCH   1   9
ATOM      9  C   UNL     1      76.214  63.368 100.231  1.00  0.00     0.100 C 
BRANCH   9  10
ATOM     10  C   UNL     1      75.084  63.523 101.208  1.00  0.00     0.220 C 
ATOM     11  O   UNL     1      74.685  64.678 101.516  1.00  0.00    -0.275 OA
ATOM     12  N   UNL     1      74.436  62.364 101.750  1.00  0.00    -0.352 N 
ATOM     13  H   UNL     1      74.785  61.415 101.483  1.00  0.00     0.163 HD
BRANCH  12  14
ATOM     14  C   UNL     1      73.262  62.451 102.615  1.00  0.00     0.151 C 
BRANCH  14  15
ATOM     15  C   UNL     1      73.436  61.582 103.832  1.00  0.00    -0.025 A 
ATOM     16  C   UNL     1      74.506  61.810 104.712  1.00  0.00     0.056 A 
ATOM     17  C   UNL     1      72.526  60.551 104.106  1.00  0.00     0.009 A 
ATOM     18  C   UNL     1      74.670  61.014 105.863  1.00  0.00     0.160 A 
ATOM     19  C   UNL     1      72.685  59.756 105.242  1.00  0.00     0.050 A 
ATOM     20  C   UNL     1      73.749  59.982 106.121  1.00  0.00     0.157 A 
BRANCH  18  21
ATOM     21  O   UNL     1      75.725  61.222 106.765  1.00  0.00    -0.493 OA
ATOM     22  C   UNL     1      76.162  62.500 107.218  1.00  0.00     0.278 C 
ENDBRANCH  18  21
BRANCH  20  23
ATOM     23  O   UNL     1      73.876  59.168 107.247  1.00  0.00    -0.504 OA
ATOM     24  H   UNL     1      74.267  59.508 108.118  1.00  0.00     0.293 HD
ENDBRANCH  20  23
ENDBRANCH  14  15
ENDBRANCH  12  14
ENDBRANCH   9  10
ENDBRANCH   1   9
TORSDOF 10
ENDMDL
MODEL 9
REMARK VINA RESULT:    -7.424      2.208      3.313
REMARK INTER + INTRA:         -12.549
REMARK INTER:                 -10.957
REMARK INTRA:                  -1.591
REMARK UNBOUND:                -1.002
REMARK SMILES COc1cc(CNC(=O)CCCCC=CC(C)C)ccc1O
REMARK SMILES IDX 11 1 12 2 13 3 14 4 15 5 16 6 17 7 18 8 10 9 8 10 9 11 7 12
REMARK SMILES IDX 6 14 5 15 4 16 19 17 3 18 20 19 21 20 2 21 1 22 22 23
REMARK H PARENT 7 13 22 24
REMARK Flexibility Score: inf
ROOT
ATOM      1  C   UNL     1      80.540  62.374 105.273  1.00  0.00     0.010 C 
ENDROOT
BRANCH   1   2
ATOM      2  C   UNL     1      80.780  62.526 103.761  1.00  0.00     0.005 C 
BRANCH   2   3
ATOM      3  C   UNL     1      79.927  63.644 103.141  1.00  0.00     0.027 C 
BRANCH   3   4
ATOM      4  C   UNL     1      79.991  63.668 101.632  1.00  0.00    -0.031 C 
ATOM      5  C   UNL     1      78.934  63.568 100.803  1.00  0.00    -0.028 C 
BRANCH   5   6
ATOM      6  C   UNL     1      77.489  63.432 101.235  1.00  0.00     0.005 C 
ATOM      7  C   UNL     1      77.238  62.018 101.764  1.00  0.00     0.012 C 
ATOM      8  C   UNL     1      76.568  63.733 100.047  1.00  0.00     0.012 C 
ENDBRANCH   5   6
ENDBRANCH   3   4
ENDBRANCH   2   3
ENDBRANCH   1   2
BRANCH   1   9
ATOM      9  C   UNL     1      79.454  61.338 105.587  1.00  0.00     0.100 C 
BRANCH   9  10
ATOM     10  C   UNL     1      78.185  61.992 106.053  1.00  0.00     0.220 C 
ATOM     11  O   UNL     1      78.247  63.057 106.724  1.00  0.00    -0.275 OA
ATOM     12  N   UNL     1      76.912  61.432 105.697  1.00  0.00    -0.352 N 
ATOM     13  H   UNL     1      76.884  60.547 105.141  1.00  0.00     0.163 HD
BRANCH  12  14
ATOM     14  C   UNL     1      75.646  62.084 106.024  1.00  0.00     0.151 C 
BRANCH  14  15
ATOM     15  C   UNL     1      74.876  62.402 104.771  1.00  0.00    -0.025 A 
ATOM     16  C   UNL     1      74.987  63.670 104.180  1.00  0.00     0.056 A 
ATOM     17  C   UNL     1      74.055  61.433 104.176  1.00  0.00     0.009 A 
ATOM     18  C   UNL     1      74.283  63.974 102.997  1.00  0.00     0.160 A 
ATOM     19  C   UNL     1      73.351  61.729 103.007  1.00  0.00     0.050 A 
ATOM     20  C   UNL     1      73.461  62.991 102.415  1.00  0.00     0.157 A 
BRANCH  18  21
ATOM     21  O   UNL     1      74.379  65.230 102.378  1.00  0.00    -0.493 OA
ATOM     22  C   UNL     1      73.561  66.352 102.695  1.00  0.00     0.278 C 
ENDBRANCH  18  21
BRANCH  20  23
ATOM     23  O   UNL     1      72.745  63.250 101.247  1.00  0.00    -0.504 OA
ATOM     24  H   UNL     1      72.034  62.618 100.896  1.00  0.00     0.293 HD
ENDBRANCH  20  23
ENDBRANCH  14  15
ENDBRANCH  12  14
ENDBRANCH   9  10
ENDBRANCH   1   9
TORSDOF 10
ENDMDL
