MODEL 1
REMARK VINA RESULT:    -5.933      0.000      0.000
REMARK INTER + INTRA:          -8.753
REMARK INTER:                  -8.014
REMARK INTRA:                  -0.739
REMARK UNBOUND:                -0.739
REMARK SMILES CC(=O)CCC=C(C)CCC=C(C)C
REMARK SMILES IDX 7 1 6 2 8 3 9 4 10 5 11 6 13 7 12 8 14 9 5 10 4 11 2 12 3 13
REMARK SMILES IDX 1 14
REMARK H PARENT
REMARK Flexibility Score: inf
ROOT
ATOM      1  C   UNL     1      -7.694  33.695  22.715  1.00  0.00    -0.077 C 
ATOM      2  C   UNL     1      -7.485  32.433  23.157  1.00  0.00    -0.028 C 
ATOM      3  C   UNL     1      -7.946  33.999  21.258  1.00  0.00     0.039 C 
ENDROOT
BRANCH   1   4
ATOM      4  C   UNL     1      -7.670  34.834  23.711  1.00  0.00     0.034 C 
BRANCH   4   5
ATOM      5  C   UNL     1      -8.830  34.713  24.705  1.00  0.00     0.032 C 
BRANCH   5   6
ATOM      6  C   UNL     1      -8.337  34.223  26.044  1.00  0.00    -0.028 C 
ATOM      7  C   UNL     1      -8.181  32.730  27.989  1.00  0.00     0.039 C 
ATOM      8  C   UNL     1      -8.729  33.070  26.628  1.00  0.00    -0.080 C 
ATOM      9  C   UNL     1      -9.681  32.112  25.948  1.00  0.00     0.039 C 
ENDBRANCH   5   6
ENDBRANCH   4   5
ENDBRANCH   1   4
BRANCH   2  10
ATOM     10  C   UNL     1      -7.433  31.207  22.274  1.00  0.00     0.035 C 
BRANCH  10  11
ATOM     11  C   UNL     1      -7.162  29.939  23.092  1.00  0.00     0.079 C 
BRANCH  11  12
ATOM     12  C   UNL     1      -8.349  29.011  23.093  1.00  0.00     0.130 C 
ATOM     13  O   UNL     1      -9.145  29.051  24.018  1.00  0.00    -0.300 OA
ATOM     14  C   UNL     1      -8.571  28.033  21.978  1.00  0.00     0.087 C 
ENDBRANCH  11  12
ENDBRANCH  10  11
ENDBRANCH   2  10
TORSDOF 6
ENDMDL
MODEL 2
REMARK VINA RESULT:    -5.884      1.983      4.985
REMARK INTER + INTRA:          -8.687
REMARK INTER:                  -7.668
REMARK INTRA:                  -1.019
REMARK UNBOUND:                -0.739
REMARK SMILES CC(=O)CCC=C(C)CCC=C(C)C
REMARK SMILES IDX 7 1 6 2 8 3 9 4 10 5 11 6 13 7 12 8 14 9 5 10 4 11 2 12 3 13
REMARK SMILES IDX 1 14
REMARK H PARENT
REMARK Flexibility Score: inf
ROOT
ATOM      1  C   UNL     1      -8.353  30.632  23.441  1.00  0.00    -0.077 C 
ATOM      2  C   UNL     1      -9.366  30.597  24.337  1.00  0.00    -0.028 C 
ATOM      3  C   UNL     1      -6.906  30.650  23.870  1.00  0.00     0.039 C 
ENDROOT
BRANCH   1   4
ATOM      4  C   UNL     1      -8.682  30.657  21.963  1.00  0.00     0.034 C 
BRANCH   4   5
ATOM      5  C   UNL     1      -9.595  31.842  21.628  1.00  0.00     0.032 C 
BRANCH   5   6
ATOM      6  C   UNL     1      -8.999  33.134  22.129  1.00  0.00    -0.028 C 
ATOM      7  C   UNL     1      -7.485  35.069  22.148  1.00  0.00     0.039 C 
ATOM      8  C   UNL     1      -8.008  33.810  21.507  1.00  0.00    -0.080 C 
ATOM      9  C   UNL     1      -7.430  33.350  20.189  1.00  0.00     0.039 C 
ENDBRANCH   5   6
ENDBRANCH   4   5
ENDBRANCH   1   4
BRANCH   2  10
ATOM     10  C   UNL     1      -9.190  30.617  25.839  1.00  0.00     0.035 C 
BRANCH  10  11
ATOM     11  C   UNL     1      -9.789  31.886  26.456  1.00  0.00     0.079 C 
BRANCH  11  12
ATOM     12  C   UNL     1      -8.736  32.934  26.709  1.00  0.00     0.130 C 
ATOM     13  O   UNL     1      -8.105  32.916  27.754  1.00  0.00    -0.300 OA
ATOM     14  C   UNL     1      -8.449  34.005  25.699  1.00  0.00     0.087 C 
ENDBRANCH  11  12
ENDBRANCH  10  11
ENDBRANCH   2  10
TORSDOF 6
ENDMDL
MODEL 3
REMARK VINA RESULT:    -5.826      1.397      2.104
REMARK INTER + INTRA:          -8.608
REMARK INTER:                  -8.391
REMARK INTRA:                  -0.218
REMARK UNBOUND:                -0.739
REMARK SMILES CC(=O)CCC=C(C)CCC=C(C)C
REMARK SMILES IDX 7 1 6 2 8 3 9 4 10 5 11 6 13 7 12 8 14 9 5 10 4 11 2 12 3 13
REMARK SMILES IDX 1 14
REMARK H PARENT
REMARK Flexibility Score: inf
ROOT
ATOM      1  C   UNL     1      -8.013  33.518  21.306  1.00  0.00    -0.077 C 
ATOM      2  C   UNL     1      -9.021  32.820  21.877  1.00  0.00    -0.028 C 
ATOM      3  C   UNL     1      -7.066  32.887  20.313  1.00  0.00     0.039 C 
ENDROOT
BRANCH   1   4
ATOM      4  C   UNL     1      -7.827  34.974  21.674  1.00  0.00     0.034 C 
BRANCH   4   5
ATOM      5  C   UNL     1      -7.161  35.107  23.049  1.00  0.00     0.032 C 
BRANCH   5   6
ATOM      6  C   UNL     1      -7.625  34.011  23.976  1.00  0.00    -0.028 C 
ATOM      7  C   UNL     1      -8.621  33.027  25.995  1.00  0.00     0.039 C 
ATOM      8  C   UNL     1      -8.251  34.221  25.154  1.00  0.00    -0.080 C 
ATOM      9  C   UNL     1      -8.602  35.610  25.638  1.00  0.00     0.039 C 
ENDBRANCH   5   6
ENDBRANCH   4   5
ENDBRANCH   1   4
BRANCH   2  10
ATOM     10  C   UNL     1      -9.297  31.353  21.641  1.00  0.00     0.035 C 
BRANCH  10  11
ATOM     11  C   UNL     1      -8.972  30.515  22.883  1.00  0.00     0.079 C 
BRANCH  11  12
ATOM     12  C   UNL     1      -7.902  29.492  22.602  1.00  0.00     0.130 C 
ATOM     13  O   UNL     1      -6.727  29.810  22.685  1.00  0.00    -0.300 OA
ATOM     14  C   UNL     1      -8.254  28.085  22.217  1.00  0.00     0.087 C 
ENDBRANCH  11  12
ENDBRANCH  10  11
ENDBRANCH   2  10
TORSDOF 6
ENDMDL
MODEL 4
REMARK VINA RESULT:    -5.725      1.536      4.667
REMARK INTER + INTRA:          -8.472
REMARK INTER:                  -7.758
REMARK INTRA:                  -0.715
REMARK UNBOUND:                -0.739
REMARK SMILES CC(=O)CCC=C(C)CCC=C(C)C
REMARK SMILES IDX 7 1 6 2 8 3 9 4 10 5 11 6 13 7 12 8 14 9 5 10 4 11 2 12 3 13
REMARK SMILES IDX 1 14
REMARK H PARENT
REMARK Flexibility Score: inf
ROOT
ATOM      1  C   UNL     1      -7.835  33.910  22.460  1.00  0.00    -0.077 C 
ATOM      2  C   UNL     1      -7.867  33.651  23.787  1.00  0.00    -0.028 C 
ATOM      3  C   UNL     1      -7.510  35.283  21.921  1.00  0.00     0.039 C 
ENDROOT
BRANCH   1   4
ATOM      4  C   UNL     1      -8.137  32.791  21.486  1.00  0.00     0.034 C 
BRANCH   4   5
ATOM      5  C   UNL     1      -9.268  31.901  22.013  1.00  0.00     0.032 C 
BRANCH   5   6
ATOM      6  C   UNL     1      -8.967  30.445  21.755  1.00  0.00    -0.028 C 
ATOM      7  C   UNL     1      -8.134  28.186  22.244  1.00  0.00     0.039 C 
ATOM      8  C   UNL     1      -8.414  29.607  22.659  1.00  0.00    -0.080 C 
ATOM      9  C   UNL     1      -8.089  30.050  24.067  1.00  0.00     0.039 C 
ENDBRANCH   5   6
ENDBRANCH   4   5
ENDBRANCH   1   4
BRANCH   2  10
ATOM     10  C   UNL     1      -7.635  34.678  24.872  1.00  0.00     0.035 C 
BRANCH  10  11
ATOM     11  C   UNL     1      -8.722  34.609  25.950  1.00  0.00     0.079 C 
BRANCH  11  12
ATOM     12  C   UNL     1      -8.874  33.216  26.502  1.00  0.00     0.130 C 
ATOM     13  O   UNL     1      -9.733  32.477  26.048  1.00  0.00    -0.300 OA
ATOM     14  C   UNL     1      -7.989  32.716  27.606  1.00  0.00     0.087 C 
ENDBRANCH  11  12
ENDBRANCH  10  11
ENDBRANCH   2  10
TORSDOF 6
ENDMDL
MODEL 5
REMARK VINA RESULT:    -4.494     17.061     18.281
REMARK INTER + INTRA:          -6.809
REMARK INTER:                  -6.289
REMARK INTRA:                  -0.521
REMARK UNBOUND:                -0.739
REMARK SMILES CC(=O)CCC=C(C)CCC=C(C)C
REMARK SMILES IDX 7 1 6 2 8 3 9 4 10 5 11 6 13 7 12 8 14 9 5 10 4 11 2 12 3 13
REMARK SMILES IDX 1 14
REMARK H PARENT
REMARK Flexibility Score: inf
ROOT
ATOM      1  C   UNL     1      -0.881  47.733  19.944  1.00  0.00    -0.077 C 
ATOM      2  C   UNL     1      -0.688  47.726  18.605  1.00  0.00    -0.028 C 
ATOM      3  C   UNL     1      -2.263  47.775  20.551  1.00  0.00     0.039 C 
ENDROOT
BRANCH   1   4
ATOM      4  C   UNL     1       0.324  47.700  20.859  1.00  0.00     0.034 C 
BRANCH   4   5
ATOM      5  C   UNL     1       1.573  47.243  20.099  1.00  0.00     0.032 C 
BRANCH   5   6
ATOM      6  C   UNL     1       1.831  45.774  20.327  1.00  0.00    -0.028 C 
ATOM      7  C   UNL     1       3.072  43.655  20.243  1.00  0.00     0.039 C 
ATOM      8  C   UNL     1       2.974  45.137  19.990  1.00  0.00    -0.080 C 
ATOM      9  C   UNL     1       4.150  45.869  19.388  1.00  0.00     0.039 C 
ENDBRANCH   5   6
ENDBRANCH   4   5
ENDBRANCH   1   4
BRANCH   2  10
ATOM     10  C   UNL     1      -1.790  47.804  17.573  1.00  0.00     0.035 C 
BRANCH  10  11
ATOM     11  C   UNL     1      -1.223  47.958  16.158  1.00  0.00     0.079 C 
BRANCH  11  12
ATOM     12  C   UNL     1      -1.967  47.106  15.162  1.00  0.00     0.130 C 
ATOM     13  O   UNL     1      -1.594  47.070  14.000  1.00  0.00    -0.300 OA
ATOM     14  C   UNL     1      -3.165  46.300  15.571  1.00  0.00     0.087 C 
ENDBRANCH  11  12
ENDBRANCH  10  11
ENDBRANCH   2  10
TORSDOF 6
ENDMDL
MODEL 6
REMARK VINA RESULT:    -4.482     17.522     19.839
REMARK INTER + INTRA:          -6.793
REMARK INTER:                  -6.254
REMARK INTRA:                  -0.540
REMARK UNBOUND:                -0.739
REMARK SMILES CC(=O)CCC=C(C)CCC=C(C)C
REMARK SMILES IDX 7 1 6 2 8 3 9 4 10 5 11 6 13 7 12 8 14 9 5 10 4 11 2 12 3 13
REMARK SMILES IDX 1 14
REMARK H PARENT
REMARK Flexibility Score: inf
ROOT
ATOM      1  C   UNL     1      -1.903  47.512  13.948  1.00  0.00    -0.077 C 
ATOM      2  C   UNL     1      -1.228  47.701  15.106  1.00  0.00    -0.028 C 
ATOM      3  C   UNL     1      -3.406  47.369  13.913  1.00  0.00     0.039 C 
ENDROOT
BRANCH   1   4
ATOM      4  C   UNL     1      -1.128  47.439  12.650  1.00  0.00     0.034 C 
BRANCH   4   5
ATOM      5  C   UNL     1      -2.036  47.750  11.455  1.00  0.00     0.032 C 
BRANCH   5   6
ATOM      6  C   UNL     1      -2.089  46.579  10.506  1.00  0.00    -0.028 C 
ATOM      7  C   UNL     1      -3.126  44.815   9.147  1.00  0.00     0.039 C 
ATOM      8  C   UNL     1      -3.230  46.006  10.063  1.00  0.00    -0.080 C 
ATOM      9  C   UNL     1      -4.592  46.535  10.445  1.00  0.00     0.039 C 
ENDBRANCH   5   6
ENDBRANCH   4   5
ENDBRANCH   1   4
BRANCH   2  10
ATOM     10  C   UNL     1      -1.864  47.746  16.477  1.00  0.00     0.035 C 
BRANCH  10  11
ATOM     11  C   UNL     1      -0.805  47.724  17.585  1.00  0.00     0.079 C 
BRANCH  11  12
ATOM     12  C   UNL     1      -1.432  47.669  18.955  1.00  0.00     0.130 C 
ATOM     13  O   UNL     1      -2.552  48.125  19.124  1.00  0.00    -0.300 OA
ATOM     14  C   UNL     1      -0.704  47.065  20.119  1.00  0.00     0.087 C 
ENDBRANCH  11  12
ENDBRANCH  10  11
ENDBRANCH   2  10
TORSDOF 6
ENDMDL
MODEL 7
REMARK VINA RESULT:    -4.423     15.703     17.909
REMARK INTER + INTRA:          -6.713
REMARK INTER:                  -5.973
REMARK INTRA:                  -0.740
REMARK UNBOUND:                -0.739
REMARK SMILES CC(=O)CCC=C(C)CCC=C(C)C
REMARK SMILES IDX 7 1 6 2 8 3 9 4 10 5 11 6 13 7 12 8 14 9 5 10 4 11 2 12 3 13
REMARK SMILES IDX 1 14
REMARK H PARENT
REMARK Flexibility Score: inf
ROOT
ATOM      1  C   UNL     1       0.765  47.165  19.548  1.00  0.00    -0.077 C 
ATOM      2  C   UNL     1       1.402  46.443  20.499  1.00  0.00    -0.028 C 
ATOM      3  C   UNL     1       1.511  47.836  18.420  1.00  0.00     0.039 C 
ENDROOT
BRANCH   1   4
ATOM      4  C   UNL     1      -0.741  47.305  19.620  1.00  0.00     0.034 C 
BRANCH   4   5
ATOM      5  C   UNL     1      -1.268  48.125  18.437  1.00  0.00     0.032 C 
BRANCH   5   6
ATOM      6  C   UNL     1      -2.207  47.300  17.592  1.00  0.00    -0.028 C 
ATOM      7  C   UNL     1      -3.161  46.360  15.532  1.00  0.00     0.039 C 
ATOM      8  C   UNL     1      -2.127  47.189  16.247  1.00  0.00    -0.080 C 
ATOM      9  C   UNL     1      -1.028  47.855  15.453  1.00  0.00     0.039 C 
ENDBRANCH   5   6
ENDBRANCH   4   5
ENDBRANCH   1   4
BRANCH   2  10
ATOM     10  C   UNL     1       2.900  46.257  20.581  1.00  0.00     0.035 C 
BRANCH  10  11
ATOM     11  C   UNL     1       3.349  44.994  19.837  1.00  0.00     0.079 C 
BRANCH  11  12
ATOM     12  C   UNL     1       2.798  43.745  20.474  1.00  0.00     0.130 C 
ATOM     13  O   UNL     1       3.223  43.384  21.560  1.00  0.00    -0.300 OA
ATOM     14  C   UNL     1       1.735  42.931  19.796  1.00  0.00     0.087 C 
ENDBRANCH  11  12
ENDBRANCH  10  11
ENDBRANCH   2  10
TORSDOF 6
ENDMDL
MODEL 8
REMARK VINA RESULT:    -4.408     17.116     18.604
REMARK INTER + INTRA:          -6.693
REMARK INTER:                  -6.110
REMARK INTRA:                  -0.583
REMARK UNBOUND:                -0.739
REMARK SMILES CC(=O)CCC=C(C)CCC=C(C)C
REMARK SMILES IDX 7 1 6 2 8 3 9 4 10 5 11 6 13 7 12 8 14 9 5 10 4 11 2 12 3 13
REMARK SMILES IDX 1 14
REMARK H PARENT
REMARK Flexibility Score: inf
ROOT
ATOM      1  C   UNL     1       2.483  46.400  20.608  1.00  0.00    -0.077 C 
ATOM      2  C   UNL     1       1.844  47.429  20.006  1.00  0.00    -0.028 C 
ATOM      3  C   UNL     1       1.950  44.988  20.557  1.00  0.00     0.039 C 
ENDROOT
BRANCH   1   4
ATOM      4  C   UNL     1       3.768  46.673  21.359  1.00  0.00     0.034 C 
BRANCH   4   5
ATOM      5  C   UNL     1       3.753  48.078  21.973  1.00  0.00     0.032 C 
BRANCH   5   6
ATOM      6  C   UNL     1       3.949  48.010  23.467  1.00  0.00    -0.028 C 
ATOM      7  C   UNL     1       3.299  48.018  25.836  1.00  0.00     0.039 C 
ATOM      8  C   UNL     1       2.947  48.056  24.373  1.00  0.00    -0.080 C 
ATOM      9  C   UNL     1       1.496  48.125  23.957  1.00  0.00     0.039 C 
ENDBRANCH   5   6
ENDBRANCH   4   5
ENDBRANCH   1   4
BRANCH   2  10
ATOM     10  C   UNL     1       0.532  47.314  19.264  1.00  0.00     0.035 C 
BRANCH  10  11
ATOM     11  C   UNL     1      -0.620  46.969  20.214  1.00  0.00     0.079 C 
BRANCH  11  12
ATOM     12  C   UNL     1      -1.877  47.725  19.865  1.00  0.00     0.130 C 
ATOM     13  O   UNL     1      -2.665  48.025  20.748  1.00  0.00    -0.300 OA
ATOM     14  C   UNL     1      -2.181  48.114  18.449  1.00  0.00     0.087 C 
ENDBRANCH  11  12
ENDBRANCH  10  11
ENDBRANCH   2  10
TORSDOF 6
ENDMDL
