MODEL 1
REMARK VINA RESULT:    -3.954      0.000      0.000
REMARK INTER + INTRA:          -4.728
REMARK INTER:                  -4.647
REMARK INTRA:                  -0.081
REMARK UNBOUND:                -0.081
REMARK SMILES CCCCC(=O)[O-]
REMARK SMILES IDX 4 1 5 2 6 3 7 4 3 5 2 6 1 7
REMARK H PARENT
REMARK Flexibility Score: inf
ROOT
ATOM      1  C   UNL     1      19.009  -8.504  21.617  1.00  0.00     0.053 C 
ENDROOT
BRANCH   1   2
ATOM      2  C   UNL     1      18.912  -7.322  20.706  1.00  0.00     0.041 C 
ATOM      3  O   UNL     1      18.191  -7.373  19.675  1.00  0.00    -0.550 OA
ATOM      4  O   UNL     1      19.583  -6.146  21.019  1.00  0.00    -0.550 OA
ENDBRANCH   1   2
BRANCH   1   5
ATOM      5  C   UNL     1      18.185  -8.271  22.886  1.00  0.00     0.006 C 
BRANCH   5   6
ATOM      6  C   UNL     1      19.086  -8.218  24.125  1.00  0.00    -0.003 C 
ATOM      7  C   UNL     1      20.550  -8.441  23.753  1.00  0.00     0.004 C 
ENDBRANCH   5   6
ENDBRANCH   1   5
TORSDOF 3
ENDMDL
MODEL 2
REMARK VINA RESULT:    -3.796      2.435      3.480
REMARK INTER + INTRA:          -4.543
REMARK INTER:                  -4.548
REMARK INTRA:                   0.005
REMARK UNBOUND:                -0.081
REMARK SMILES CCCCC(=O)[O-]
REMARK SMILES IDX 4 1 5 2 6 3 7 4 3 5 2 6 1 7
REMARK H PARENT
REMARK Flexibility Score: inf
ROOT
ATOM      1  C   UNL     1      19.770  -8.745  21.873  1.00  0.00     0.053 C 
ENDROOT
BRANCH   1   2
ATOM      2  C   UNL     1      19.882  -8.579  23.355  1.00  0.00     0.041 C 
ATOM      3  O   UNL     1      21.013  -8.573  23.909  1.00  0.00    -0.550 OA
ATOM      4  O   UNL     1      18.739  -8.385  24.121  1.00  0.00    -0.550 OA
ENDBRANCH   1   2
BRANCH   1   5
ATOM      5  C   UNL     1      18.425  -8.210  21.374  1.00  0.00     0.006 C 
BRANCH   5   6
ATOM      6  C   UNL     1      18.623  -7.024  20.423  1.00  0.00    -0.003 C 
ATOM      7  C   UNL     1      19.750  -6.114  20.903  1.00  0.00     0.004 C 
ENDBRANCH   5   6
ENDBRANCH   1   5
TORSDOF 3
ENDMDL
MODEL 3
REMARK VINA RESULT:    -3.570      2.281      3.446
REMARK INTER + INTRA:          -4.277
REMARK INTER:                  -4.344
REMARK INTRA:                   0.067
REMARK UNBOUND:                -0.081
REMARK SMILES CCCCC(=O)[O-]
REMARK SMILES IDX 4 1 5 2 6 3 7 4 3 5 2 6 1 7
REMARK H PARENT
REMARK Flexibility Score: inf
ROOT
ATOM      1  C   UNL     1      18.639  -8.549  24.094  1.00  0.00     0.053 C 
ENDROOT
BRANCH   1   2
ATOM      2  C   UNL     1      20.056  -8.084  23.982  1.00  0.00     0.041 C 
ATOM      3  O   UNL     1      20.336  -6.865  24.125  1.00  0.00    -0.550 OA
ATOM      4  O   UNL     1      21.075  -9.003  23.764  1.00  0.00    -0.550 OA
ENDBRANCH   1   2
BRANCH   1   5
ATOM      5  C   UNL     1      17.872  -8.244  22.805  1.00  0.00     0.006 C 
BRANCH   5   6
ATOM      6  C   UNL     1      18.788  -8.351  21.581  1.00  0.00    -0.003 C 
ATOM      7  C   UNL     1      18.625  -7.144  20.661  1.00  0.00     0.004 C 
ENDBRANCH   5   6
ENDBRANCH   1   5
TORSDOF 3
ENDMDL
MODEL 4
REMARK VINA RESULT:    -3.350      2.309      3.158
REMARK INTER + INTRA:          -4.019
REMARK INTER:                  -4.051
REMARK INTRA:                   0.032
REMARK UNBOUND:                -0.081
REMARK SMILES CCCCC(=O)[O-]
REMARK SMILES IDX 4 1 5 2 6 3 7 4 3 5 2 6 1 7
REMARK H PARENT
REMARK Flexibility Score: inf
ROOT
ATOM      1  C   UNL     1      19.653  -8.608  23.729  1.00  0.00     0.053 C 
ENDROOT
BRANCH   1   2
ATOM      2  C   UNL     1      18.228  -8.520  23.282  1.00  0.00     0.041 C 
ATOM      3  O   UNL     1      17.295  -8.586  24.125  1.00  0.00    -0.550 OA
ATOM      4  O   UNL     1      17.931  -8.321  21.940  1.00  0.00    -0.550 OA
ENDBRANCH   1   2
BRANCH   1   5
ATOM      5  C   UNL     1      20.338  -7.244  23.603  1.00  0.00     0.006 C 
BRANCH   5   6
ATOM      6  C   UNL     1      21.059  -7.113  22.257  1.00  0.00    -0.003 C 
ATOM      7  C   UNL     1      20.330  -6.144  21.331  1.00  0.00     0.004 C 
ENDBRANCH   5   6
ENDBRANCH   1   5
TORSDOF 3
ENDMDL
MODEL 5
REMARK VINA RESULT:    -2.591     13.989     15.348
REMARK INTER + INTRA:          -3.127
REMARK INTER:                  -3.107
REMARK INTRA:                  -0.020
REMARK UNBOUND:                -0.081
REMARK SMILES CCCCC(=O)[O-]
REMARK SMILES IDX 4 1 5 2 6 3 7 4 3 5 2 6 1 7
REMARK H PARENT
REMARK Flexibility Score: inf
ROOT
ATOM      1  C   UNL     1      18.186  -7.643   6.767  1.00  0.00     0.053 C 
ENDROOT
BRANCH   1   2
ATOM      2  C   UNL     1      19.095  -7.573   7.953  1.00  0.00     0.041 C 
ATOM      3  O   UNL     1      19.254  -6.484   8.565  1.00  0.00    -0.550 OA
ATOM      4  O   UNL     1      19.731  -8.720   8.410  1.00  0.00    -0.550 OA
ENDBRANCH   1   2
BRANCH   1   5
ATOM      5  C   UNL     1      16.774  -7.188   7.146  1.00  0.00     0.006 C 
BRANCH   5   6
ATOM      6  C   UNL     1      15.772  -7.518   6.035  1.00  0.00    -0.003 C 
ATOM      7  C   UNL     1      16.100  -6.760   4.752  1.00  0.00     0.004 C 
ENDBRANCH   5   6
ENDBRANCH   1   5
TORSDOF 3
ENDMDL
MODEL 6
REMARK VINA RESULT:    -2.570     18.583     19.768
REMARK INTER + INTRA:          -3.102
REMARK INTER:                  -3.028
REMARK INTRA:                  -0.074
REMARK UNBOUND:                -0.081
REMARK SMILES CCCCC(=O)[O-]
REMARK SMILES IDX 4 1 5 2 6 3 7 4 3 5 2 6 1 7
REMARK H PARENT
REMARK Flexibility Score: inf
ROOT
ATOM      1  C   UNL     1       7.457  -7.723   5.510  1.00  0.00     0.053 C 
ENDROOT
BRANCH   1   2
ATOM      2  C   UNL     1       6.201  -7.018   5.913  1.00  0.00     0.041 C 
ATOM      3  O   UNL     1       5.142  -7.182   5.252  1.00  0.00    -0.550 OA
ATOM      4  O   UNL     1       6.187  -6.214   7.046  1.00  0.00    -0.550 OA
ENDBRANCH   1   2
BRANCH   1   5
ATOM      5  C   UNL     1       7.485  -9.140   6.090  1.00  0.00     0.006 C 
BRANCH   5   6
ATOM      6  C   UNL     1       8.087  -9.145   7.500  1.00  0.00    -0.003 C 
ATOM      7  C   UNL     1       7.320 -10.085   8.425  1.00  0.00     0.004 C 
ENDBRANCH   5   6
ENDBRANCH   1   5
TORSDOF 3
ENDMDL
MODEL 7
REMARK VINA RESULT:    -2.532     14.582     16.145
REMARK INTER + INTRA:          -3.057
REMARK INTER:                  -3.002
REMARK INTRA:                  -0.055
REMARK UNBOUND:                -0.081
REMARK SMILES CCCCC(=O)[O-]
REMARK SMILES IDX 4 1 5 2 6 3 7 4 3 5 2 6 1 7
REMARK H PARENT
REMARK Flexibility Score: inf
ROOT
ATOM      1  C   UNL     1      19.737  -7.844   6.180  1.00  0.00     0.053 C 
ENDROOT
BRANCH   1   2
ATOM      2  C   UNL     1      18.751  -7.397   7.212  1.00  0.00     0.041 C 
ATOM      3  O   UNL     1      17.516  -7.462   6.977  1.00  0.00    -0.550 OA
ATOM      4  O   UNL     1      19.194  -6.951   8.451  1.00  0.00    -0.550 OA
ENDBRANCH   1   2
BRANCH   1   5
ATOM      5  C   UNL     1      19.833  -6.815   5.050  1.00  0.00     0.006 C 
BRANCH   5   6
ATOM      6  C   UNL     1      20.935  -5.788   5.332  1.00  0.00    -0.003 C 
ATOM      7  C   UNL     1      21.111  -4.830   4.158  1.00  0.00     0.004 C 
ENDBRANCH   5   6
ENDBRANCH   1   5
TORSDOF 3
ENDMDL
MODEL 8
REMARK VINA RESULT:    -2.445     18.080     19.555
REMARK INTER + INTRA:          -2.955
REMARK INTER:                  -2.933
REMARK INTRA:                  -0.022
REMARK UNBOUND:                -0.081
REMARK SMILES CCCCC(=O)[O-]
REMARK SMILES IDX 4 1 5 2 6 3 7 4 3 5 2 6 1 7
REMARK H PARENT
REMARK Flexibility Score: inf
ROOT
ATOM      1  C   UNL     1       7.391  -8.109   7.625  1.00  0.00     0.053 C 
ENDROOT
BRANCH   1   2
ATOM      2  C   UNL     1       7.813  -9.488   8.022  1.00  0.00     0.041 C 
ATOM      3  O   UNL     1       7.162 -10.124   8.892  1.00  0.00    -0.550 OA
ATOM      4  O   UNL     1       8.900 -10.089   7.399  1.00  0.00    -0.550 OA
ENDBRANCH   1   2
BRANCH   1   5
ATOM      5  C   UNL     1       7.350  -7.980   6.099  1.00  0.00     0.006 C 
BRANCH   5   6
ATOM      6  C   UNL     1       6.239  -7.021   5.658  1.00  0.00    -0.003 C 
ATOM      7  C   UNL     1       5.056  -7.782   5.065  1.00  0.00     0.004 C 
ENDBRANCH   5   6
ENDBRANCH   1   5
TORSDOF 3
ENDMDL
MODEL 9
REMARK VINA RESULT:    -2.303      1.428      2.020
REMARK INTER + INTRA:          -2.788
REMARK INTER:                  -3.168
REMARK INTRA:                   0.380
REMARK UNBOUND:                -0.081
REMARK SMILES CCCCC(=O)[O-]
REMARK SMILES IDX 4 1 5 2 6 3 7 4 3 5 2 6 1 7
REMARK H PARENT
REMARK Flexibility Score: inf
ROOT
ATOM      1  C   UNL     1      19.668  -6.613  21.558  1.00  0.00     0.053 C 
ENDROOT
BRANCH   1   2
ATOM      2  C   UNL     1      19.012  -7.738  20.822  1.00  0.00     0.041 C 
ATOM      3  O   UNL     1      18.190  -7.498  19.899  1.00  0.00    -0.550 OA
ATOM      4  O   UNL     1      19.344  -9.053  21.123  1.00  0.00    -0.550 OA
ENDBRANCH   1   2
BRANCH   1   5
ATOM      5  C   UNL     1      20.998  -7.072  22.162  1.00  0.00     0.006 C 
BRANCH   5   6
ATOM      6  C   UNL     1      20.777  -7.786  23.500  1.00  0.00    -0.003 C 
ATOM      7  C   UNL     1      19.443  -7.388  24.125  1.00  0.00     0.004 C 
ENDBRANCH   5   6
ENDBRANCH   1   5
TORSDOF 3
ENDMDL
