MODEL 1
REMARK VINA RESULT:    -4.573      0.000      0.000
REMARK INTER + INTRA:          -6.465
REMARK INTER:                  -6.445
REMARK INTRA:                  -0.021
REMARK UNBOUND:                -0.021
REMARK SMILES CC1=CCC(=C(C)C)C(=O)CC(C)=CCC1
REMARK SMILES IDX 12 1 14 2 13 3 15 4 16 5 2 6 1 7 3 8 11 10 9 11 10 12 5 13
REMARK SMILES IDX 6 14 7 15 8 16 4 17
REMARK H PARENT
REMARK Flexibility Score: 60.00
ROOT
ATOM      1  C   UNL     1     -58.596  20.805 -28.734  1.00  0.00    -0.070 C 
ATOM      2  C   UNL     1     -59.076  19.542 -28.660  1.00  0.00    -0.027 C 
ATOM      3  C   UNL     1     -57.121  20.995 -28.475  1.00  0.00     0.039 C 
ENDROOT
BRANCH   2   4
ATOM      4  C   UNL     1     -60.513  19.119 -28.836  1.00  0.00     0.032 C 
BRANCH   4   5
ATOM      5  C   UNL     1     -61.047  19.183 -30.287  1.00  0.00     0.034 C 
BRANCH   5   6
ATOM      6  C   UNL     1     -62.469  19.705 -30.441  1.00  0.00    -0.077 C 
ATOM      7  C   UNL     1     -63.588  18.855 -29.891  1.00  0.00     0.039 C 
ATOM      8  C   UNL     1     -62.810  20.906 -30.984  1.00  0.00    -0.023 CG0
ATOM      9  G   UNL     1     -61.957  21.912 -31.742  1.00  0.00     0.000 G0
ENDBRANCH   5   6
ENDBRANCH   4   5
ENDBRANCH   2   4
BRANCH   1  10
ATOM     10  C   UNL     1     -59.437  22.047 -29.006  1.00  0.00     0.111 C 
BRANCH  10  11
ATOM     11  C   UNL     1     -59.753  22.347 -30.453  1.00  0.00     0.163 C 
ATOM     12  O   UNL     1     -58.817  22.165 -31.280  1.00  0.00    -0.294 OA
BRANCH  11  13
ATOM     13  C   UNL     1     -61.091  22.853 -30.934  1.00  0.00    -0.002 C 
ATOM     14  C   UNL     1     -61.555  24.101 -30.609  1.00  0.00    -0.069 C 
ATOM     15  C   UNL     1     -60.702  25.116 -29.882  1.00  0.00     0.039 C 
ATOM     16  C   UNL     1     -62.950  24.548 -30.995  1.00  0.00     0.039 C 
BRANCH  13  17
ATOM     17  C   UNL     1     -61.962  21.912 -31.751  1.00  0.00     0.066 CG0
ATOM     18  G   UNL     1     -62.799  20.906 -30.977  1.00  0.00     0.000 G0
ENDBRANCH  13  17
ENDBRANCH  11  13
ENDBRANCH  10  11
ENDBRANCH   1  10
TORSDOF 0
ENDMDL
MODEL 2
REMARK VINA RESULT:    -4.354      1.683      3.798
REMARK INTER + INTRA:          -6.157
REMARK INTER:                  -6.303
REMARK INTRA:                   0.146
REMARK UNBOUND:                -0.021
REMARK SMILES CC1=CCC(=C(C)C)C(=O)CC(C)=CCC1
REMARK SMILES IDX 12 1 14 2 13 3 15 4 16 5 2 6 1 7 3 8 11 10 9 11 10 12 5 13
REMARK SMILES IDX 6 14 7 15 8 16 4 17
REMARK H PARENT
REMARK Flexibility Score: 60.00
ROOT
ATOM      1  C   UNL     1     -59.927  22.532 -31.467  1.00  0.00    -0.070 C 
ATOM      2  C   UNL     1     -61.188  23.022 -31.456  1.00  0.00    -0.027 C 
ATOM      3  C   UNL     1     -58.855  23.380 -30.824  1.00  0.00     0.039 C 
ENDROOT
BRANCH   2   4
ATOM      4  C   UNL     1     -62.404  22.376 -32.073  1.00  0.00     0.032 C 
BRANCH   4   5
ATOM      5  C   UNL     1     -63.338  21.645 -31.080  1.00  0.00     0.034 C 
BRANCH   5   6
ATOM      6  C   UNL     1     -63.346  20.125 -31.183  1.00  0.00    -0.077 C 
ATOM      7  C   UNL     1     -64.344  19.495 -32.124  1.00  0.00     0.039 C 
ATOM      8  C   UNL     1     -62.485  19.289 -30.539  1.00  0.00    -0.023 CG0
ATOM      9  G   UNL     1     -61.478  19.585 -29.438  1.00  0.00     0.000 G0
ENDBRANCH   5   6
ENDBRANCH   4   5
ENDBRANCH   2   4
BRANCH   1  10
ATOM     10  C   UNL     1     -59.501  21.222 -32.122  1.00  0.00     0.111 C 
BRANCH  10  11
ATOM     11  C   UNL     1     -59.722  19.962 -31.318  1.00  0.00     0.163 C 
ATOM     12  O   UNL     1     -59.616  18.873 -31.946  1.00  0.00    -0.294 OA
BRANCH  11  13
ATOM     13  C   UNL     1     -60.070  19.951 -29.850  1.00  0.00    -0.002 C 
ATOM     14  C   UNL     1     -59.137  20.214 -28.881  1.00  0.00    -0.069 C 
ATOM     15  C   UNL     1     -57.739  20.685 -29.212  1.00  0.00     0.039 C 
ATOM     16  C   UNL     1     -59.471  20.080 -27.409  1.00  0.00     0.039 C 
BRANCH  13  17
ATOM     17  C   UNL     1     -61.488  19.575 -29.451  1.00  0.00     0.066 CG0
ATOM     18  G   UNL     1     -62.468  19.299 -30.581  1.00  0.00     0.000 G0
ENDBRANCH  13  17
ENDBRANCH  11  13
ENDBRANCH  10  11
ENDBRANCH   1  10
TORSDOF 0
ENDMDL
MODEL 3
REMARK VINA RESULT:    -4.353      1.398      3.782
REMARK INTER + INTRA:          -6.155
REMARK INTER:                  -5.836
REMARK INTRA:                  -0.319
REMARK UNBOUND:                -0.021
REMARK SMILES CC1=CCC(=C(C)C)C(=O)CC(C)=CCC1
REMARK SMILES IDX 12 1 14 2 13 3 15 4 16 5 2 6 1 7 3 8 11 10 9 11 10 12 5 13
REMARK SMILES IDX 6 14 7 15 8 16 4 17
REMARK H PARENT
REMARK Flexibility Score: 60.00
ROOT
ATOM      1  C   UNL     1     -58.852  21.101 -29.389  1.00  0.00    -0.070 C 
ATOM      2  C   UNL     1     -58.867  22.446 -29.536  1.00  0.00    -0.027 C 
ATOM      3  C   UNL     1     -59.113  20.558 -28.004  1.00  0.00     0.039 C 
ENDROOT
BRANCH   2   4
ATOM      4  C   UNL     1     -58.591  23.210 -30.807  1.00  0.00     0.032 C 
BRANCH   4   5
ATOM      5  C   UNL     1     -59.846  23.635 -31.606  1.00  0.00     0.034 C 
BRANCH   5   6
ATOM      6  C   UNL     1     -61.177  23.434 -30.895  1.00  0.00    -0.077 C 
ATOM      7  C   UNL     1     -61.652  24.536 -29.979  1.00  0.00     0.039 C 
ATOM      8  C   UNL     1     -62.004  22.365 -31.062  1.00  0.00    -0.023 CG0
ATOM      9  G   UNL     1     -61.763  21.049 -31.785  1.00  0.00     0.000 G0
ENDBRANCH   5   6
ENDBRANCH   4   5
ENDBRANCH   2   4
BRANCH   1  10
ATOM     10  C   UNL     1     -58.542  20.102 -30.498  1.00  0.00     0.111 C 
BRANCH  10  11
ATOM     11  C   UNL     1     -59.727  19.515 -31.230  1.00  0.00     0.163 C 
ATOM     12  O   UNL     1     -59.467  18.662 -32.123  1.00  0.00    -0.294 OA
BRANCH  11  13
ATOM     13  C   UNL     1     -61.159  19.905 -30.959  1.00  0.00    -0.002 C 
ATOM     14  C   UNL     1     -61.931  19.241 -30.041  1.00  0.00    -0.069 C 
ATOM     15  C   UNL     1     -61.365  18.179 -29.125  1.00  0.00     0.039 C 
ATOM     16  C   UNL     1     -63.401  19.564 -29.868  1.00  0.00     0.039 C 
BRANCH  13  17
ATOM     17  C   UNL     1     -61.765  21.030 -31.782  1.00  0.00     0.066 CG0
ATOM     18  G   UNL     1     -62.011  22.349 -31.065  1.00  0.00     0.000 G0
ENDBRANCH  13  17
ENDBRANCH  11  13
ENDBRANCH  10  11
ENDBRANCH   1  10
TORSDOF 0
ENDMDL
MODEL 4
REMARK VINA RESULT:    -4.314      1.182      1.520
REMARK INTER + INTRA:          -6.101
REMARK INTER:                  -6.906
REMARK INTRA:                   0.805
REMARK UNBOUND:                -0.021
REMARK SMILES CC1=CCC(=C(C)C)C(=O)CC(C)=CCC1
REMARK SMILES IDX 12 1 14 2 13 3 15 4 16 5 2 6 1 7 3 8 11 10 9 11 10 12 5 13
REMARK SMILES IDX 6 14 7 15 8 16 4 17
REMARK H PARENT
REMARK Flexibility Score: 60.00
ROOT
ATOM      1  C   UNL     1     -58.522  21.498 -29.504  1.00  0.00    -0.070 C 
ATOM      2  C   UNL     1     -58.299  20.482 -30.370  1.00  0.00    -0.027 C 
ATOM      3  C   UNL     1     -57.485  21.727 -28.431  1.00  0.00     0.039 C 
ENDROOT
BRANCH   2   4
ATOM      4  C   UNL     1     -59.211  20.042 -31.488  1.00  0.00     0.032 C 
BRANCH   4   5
ATOM      5  C   UNL     1     -60.090  18.809 -31.174  1.00  0.00     0.034 C 
BRANCH   5   6
ATOM      6  C   UNL     1     -61.280  19.067 -30.259  1.00  0.00    -0.077 C 
ATOM      7  C   UNL     1     -61.484  18.125 -29.097  1.00  0.00     0.039 C 
ATOM      8  C   UNL     1     -62.145  20.113 -30.370  1.00  0.00    -0.023 CG0
ATOM      9  G   UNL     1     -62.300  21.136 -31.486  1.00  0.00     0.000 G0
ENDBRANCH   5   6
ENDBRANCH   4   5
ENDBRANCH   2   4
BRANCH   1  10
ATOM     10  C   UNL     1     -59.760  22.389 -29.500  1.00  0.00     0.111 C 
BRANCH  10  11
ATOM     11  C   UNL     1     -60.353  22.731 -30.847  1.00  0.00     0.163 C 
ATOM     12  O   UNL     1     -59.557  23.203 -31.705  1.00  0.00    -0.294 OA
BRANCH  11  13
ATOM     13  C   UNL     1     -61.811  22.552 -31.194  1.00  0.00    -0.002 C 
ATOM     14  C   UNL     1     -62.691  23.603 -31.197  1.00  0.00    -0.069 C 
ATOM     15  C   UNL     1     -62.241  25.034 -31.009  1.00  0.00     0.039 C 
ATOM     16  C   UNL     1     -64.173  23.389 -31.426  1.00  0.00     0.039 C 
BRANCH  13  17
ATOM     17  C   UNL     1     -62.311  21.147 -31.486  1.00  0.00     0.066 CG0
ATOM     18  G   UNL     1     -62.156  20.119 -30.375  1.00  0.00     0.000 G0
ENDBRANCH  13  17
ENDBRANCH  11  13
ENDBRANCH  10  11
ENDBRANCH   1  10
TORSDOF 0
ENDMDL
MODEL 5
REMARK VINA RESULT:    -4.149      1.759      4.951
REMARK INTER + INTRA:          -5.867
REMARK INTER:                  -5.700
REMARK INTRA:                  -0.168
REMARK UNBOUND:                -0.021
REMARK SMILES CC1=CCC(=C(C)C)C(=O)CC(C)=CCC1
REMARK SMILES IDX 12 1 14 2 13 3 15 4 16 5 2 6 1 7 3 8 11 10 9 11 10 12 5 13
REMARK SMILES IDX 6 14 7 15 8 16 4 17
REMARK H PARENT
REMARK Flexibility Score: 60.00
ROOT
ATOM      1  C   UNL     1     -63.266  20.765 -31.203  1.00  0.00    -0.070 C 
ATOM      2  C   UNL     1     -63.735  21.974 -31.590  1.00  0.00    -0.027 C 
ATOM      3  C   UNL     1     -63.926  19.547 -31.805  1.00  0.00     0.039 C 
ENDROOT
BRANCH   2   4
ATOM      4  C   UNL     1     -63.264  23.317 -31.093  1.00  0.00     0.032 C 
BRANCH   4   5
ATOM      5  C   UNL     1     -61.917  23.802 -31.679  1.00  0.00     0.034 C 
BRANCH   5   6
ATOM      6  C   UNL     1     -60.923  24.359 -30.668  1.00  0.00    -0.077 C 
ATOM      7  C   UNL     1     -61.246  25.691 -30.034  1.00  0.00     0.039 C 
ATOM      8  C   UNL     1     -59.795  23.726 -30.244  1.00  0.00    -0.023 CG0
ATOM      9  G   UNL     1     -59.124  22.469 -30.775  1.00  0.00     0.000 G0
ENDBRANCH   5   6
ENDBRANCH   4   5
ENDBRANCH   2   4
BRANCH   1  10
ATOM     10  C   UNL     1     -62.164  20.541 -30.173  1.00  0.00     0.111 C 
BRANCH  10  11
ATOM     11  C   UNL     1     -60.756  20.416 -30.705  1.00  0.00     0.163 C 
ATOM     12  O   UNL     1     -60.596  19.644 -31.689  1.00  0.00    -0.294 OA
BRANCH  11  13
ATOM     13  C   UNL     1     -59.568  21.139 -30.118  1.00  0.00    -0.002 C 
ATOM     14  C   UNL     1     -58.919  20.683 -29.001  1.00  0.00    -0.069 C 
ATOM     15  C   UNL     1     -59.241  19.348 -28.368  1.00  0.00     0.039 C 
ATOM     16  C   UNL     1     -57.808  21.484 -28.352  1.00  0.00     0.039 C 
BRANCH  13  17
ATOM     17  C   UNL     1     -59.132  22.444 -30.764  1.00  0.00     0.066 CG0
ATOM     18  G   UNL     1     -59.777  23.719 -30.240  1.00  0.00     0.000 G0
ENDBRANCH  13  17
ENDBRANCH  11  13
ENDBRANCH  10  11
ENDBRANCH   1  10
TORSDOF 0
ENDMDL
MODEL 6
REMARK VINA RESULT:    -4.089      1.848      3.813
REMARK INTER + INTRA:          -5.783
REMARK INTER:                  -6.277
REMARK INTRA:                   0.495
REMARK UNBOUND:                -0.021
REMARK SMILES CC1=CCC(=C(C)C)C(=O)CC(C)=CCC1
REMARK SMILES IDX 12 1 14 2 13 3 15 4 16 5 2 6 1 7 3 8 11 10 9 11 10 12 5 13
REMARK SMILES IDX 6 14 7 15 8 16 4 17
REMARK H PARENT
REMARK Flexibility Score: 60.00
ROOT
ATOM      1  C   UNL     1     -60.045  19.411 -28.907  1.00  0.00    -0.070 C 
ATOM      2  C   UNL     1     -58.913  20.039 -28.513  1.00  0.00    -0.027 C 
ATOM      3  C   UNL     1     -60.794  18.621 -27.861  1.00  0.00     0.039 C 
ENDROOT
BRANCH   2   4
ATOM      4  C   UNL     1     -57.985  20.844 -29.387  1.00  0.00     0.032 C 
BRANCH   4   5
ATOM      5  C   UNL     1     -58.345  22.342 -29.527  1.00  0.00     0.034 C 
BRANCH   5   6
ATOM      6  C   UNL     1     -58.893  22.762 -30.885  1.00  0.00    -0.077 C 
ATOM      7  C   UNL     1     -57.901  23.227 -31.924  1.00  0.00     0.039 C 
ATOM      8  C   UNL     1     -60.201  22.697 -31.259  1.00  0.00    -0.023 CG0
ATOM      9  G   UNL     1     -61.441  22.417 -30.424  1.00  0.00     0.000 G0
ENDBRANCH   5   6
ENDBRANCH   4   5
ENDBRANCH   2   4
BRANCH   1  10
ATOM     10  C   UNL     1     -60.590  19.400 -30.332  1.00  0.00     0.111 C 
BRANCH  10  11
ATOM     11  C   UNL     1     -62.008  19.887 -30.517  1.00  0.00     0.163 C 
ATOM     12  O   UNL     1     -62.920  19.029 -30.362  1.00  0.00    -0.294 OA
BRANCH  11  13
ATOM     13  C   UNL     1     -62.368  21.306 -30.884  1.00  0.00    -0.002 C 
ATOM     14  C   UNL     1     -63.456  21.602 -31.663  1.00  0.00    -0.069 C 
ATOM     15  C   UNL     1     -64.460  20.551 -32.081  1.00  0.00     0.039 C 
ATOM     16  C   UNL     1     -63.734  23.018 -32.125  1.00  0.00     0.039 C 
BRANCH  13  17
ATOM     17  C   UNL     1     -61.449  22.423 -30.417  1.00  0.00     0.066 CG0
ATOM     18  G   UNL     1     -60.213  22.694 -31.262  1.00  0.00     0.000 G0
ENDBRANCH  13  17
ENDBRANCH  11  13
ENDBRANCH  10  11
ENDBRANCH   1  10
TORSDOF 0
ENDMDL
MODEL 7
REMARK VINA RESULT:    -3.952      1.338      1.650
REMARK INTER + INTRA:          -5.590
REMARK INTER:                  -6.327
REMARK INTRA:                   0.737
REMARK UNBOUND:                -0.021
REMARK SMILES CC1=CCC(=C(C)C)C(=O)CC(C)=CCC1
REMARK SMILES IDX 12 1 14 2 13 3 15 4 16 5 2 6 1 7 3 8 11 10 9 11 10 12 5 13
REMARK SMILES IDX 6 14 7 15 8 16 4 17
REMARK H PARENT
REMARK Flexibility Score: 60.00
ROOT
ATOM      1  C   UNL     1     -58.046  20.908 -28.840  1.00  0.00    -0.070 C 
ATOM      2  C   UNL     1     -58.731  20.239 -27.884  1.00  0.00    -0.027 C 
ATOM      3  C   UNL     1     -57.178  22.057 -28.387  1.00  0.00     0.039 C 
ENDROOT
BRANCH   2   4
ATOM      4  C   UNL     1     -59.688  19.094 -28.104  1.00  0.00     0.032 C 
BRANCH   4   5
ATOM      5  C   UNL     1     -60.937  19.431 -28.952  1.00  0.00     0.034 C 
BRANCH   5   6
ATOM      6  C   UNL     1     -60.826  19.117 -30.438  1.00  0.00    -0.077 C 
ATOM      7  C   UNL     1     -60.500  17.695 -30.827  1.00  0.00     0.039 C 
ATOM      8  C   UNL     1     -61.055  20.001 -31.447  1.00  0.00    -0.023 CG0
ATOM      9  G   UNL     1     -61.258  21.508 -31.397  1.00  0.00     0.000 G0
ENDBRANCH   5   6
ENDBRANCH   4   5
ENDBRANCH   2   4
BRANCH   1  10
ATOM     10  C   UNL     1     -58.125  20.623 -30.336  1.00  0.00     0.111 C 
BRANCH  10  11
ATOM     11  C   UNL     1     -58.659  21.734 -31.209  1.00  0.00     0.163 C 
ATOM     12  O   UNL     1     -57.889  22.152 -32.117  1.00  0.00    -0.294 OA
BRANCH  11  13
ATOM     13  C   UNL     1     -60.023  22.357 -31.037  1.00  0.00    -0.002 C 
ATOM     14  C   UNL     1     -60.187  23.620 -30.532  1.00  0.00    -0.069 C 
ATOM     15  C   UNL     1     -59.017  24.539 -30.259  1.00  0.00     0.039 C 
ATOM     16  C   UNL     1     -61.565  24.184 -30.251  1.00  0.00     0.039 C 
BRANCH  13  17
ATOM     17  C   UNL     1     -61.243  21.518 -31.383  1.00  0.00     0.066 CG0
ATOM     18  G   UNL     1     -61.042  20.011 -31.453  1.00  0.00     0.000 G0
ENDBRANCH  13  17
ENDBRANCH  11  13
ENDBRANCH  10  11
ENDBRANCH   1  10
TORSDOF 0
ENDMDL
MODEL 8
REMARK VINA RESULT:    -3.873      1.909      3.542
REMARK INTER + INTRA:          -5.478
REMARK INTER:                  -6.004
REMARK INTRA:                   0.526
REMARK UNBOUND:                -0.021
REMARK SMILES CC1=CCC(=C(C)C)C(=O)CC(C)=CCC1
REMARK SMILES IDX 12 1 14 2 13 3 15 4 16 5 2 6 1 7 3 8 11 10 9 11 10 12 5 13
REMARK SMILES IDX 6 14 7 15 8 16 4 17
REMARK H PARENT
REMARK Flexibility Score: 60.00
ROOT
ATOM      1  C   UNL     1     -61.104  19.049 -30.034  1.00  0.00    -0.070 C 
ATOM      2  C   UNL     1     -60.059  18.826 -30.864  1.00  0.00    -0.027 C 
ATOM      3  C   UNL     1     -61.619  17.870 -29.244  1.00  0.00     0.039 C 
ENDROOT
BRANCH   2   4
ATOM      4  C   UNL     1     -59.410  19.836 -31.778  1.00  0.00     0.032 C 
BRANCH   4   5
ATOM      5  C   UNL     1     -58.225  20.616 -31.162  1.00  0.00     0.034 C 
BRANCH   5   6
ATOM      6  C   UNL     1     -58.601  21.715 -30.178  1.00  0.00    -0.077 C 
ATOM      7  C   UNL     1     -57.920  21.708 -28.831  1.00  0.00     0.039 C 
ATOM      8  C   UNL     1     -59.462  22.739 -30.434  1.00  0.00    -0.023 CG0
ATOM      9  G   UNL     1     -60.400  22.952 -31.612  1.00  0.00     0.000 G0
ENDBRANCH   5   6
ENDBRANCH   4   5
ENDBRANCH   2   4
BRANCH   1  10
ATOM     10  C   UNL     1     -61.828  20.382 -29.875  1.00  0.00     0.111 C 
BRANCH  10  11
ATOM     11  C   UNL     1     -62.188  21.113 -31.148  1.00  0.00     0.163 C 
ATOM     12  O   UNL     1     -62.776  20.436 -32.035  1.00  0.00    -0.294 OA
BRANCH  11  13
ATOM     13  C   UNL     1     -61.870  22.566 -31.401  1.00  0.00    -0.002 C 
ATOM     14  C   UNL     1     -62.850  23.519 -31.495  1.00  0.00    -0.069 C 
ATOM     15  C   UNL     1     -64.302  23.216 -31.200  1.00  0.00     0.039 C 
ATOM     16  C   UNL     1     -62.525  24.950 -31.871  1.00  0.00     0.039 C 
BRANCH  13  17
ATOM     17  C   UNL     1     -60.416  22.955 -31.615  1.00  0.00     0.066 CG0
ATOM     18  G   UNL     1     -59.467  22.734 -30.446  1.00  0.00     0.000 G0
ENDBRANCH  13  17
ENDBRANCH  11  13
ENDBRANCH  10  11
ENDBRANCH   1  10
TORSDOF 0
ENDMDL
MODEL 9
REMARK VINA RESULT:    -3.744      2.038      3.823
REMARK INTER + INTRA:          -5.297
REMARK INTER:                  -5.941
REMARK INTRA:                   0.644
REMARK UNBOUND:                -0.021
REMARK SMILES CC1=CCC(=C(C)C)C(=O)CC(C)=CCC1
REMARK SMILES IDX 12 1 14 2 13 3 15 4 16 5 2 6 1 7 3 8 11 10 9 11 10 12 5 13
REMARK SMILES IDX 6 14 7 15 8 16 4 17
REMARK H PARENT
REMARK Flexibility Score: 60.00
ROOT
ATOM      1  C   UNL     1     -61.565  20.721 -31.168  1.00  0.00    -0.070 C 
ATOM      2  C   UNL     1     -60.488  19.902 -31.190  1.00  0.00    -0.027 C 
ATOM      3  C   UNL     1     -62.704  20.334 -30.256  1.00  0.00     0.039 C 
ENDROOT
BRANCH   2   4
ATOM      4  C   UNL     1     -59.259  20.063 -32.050  1.00  0.00     0.032 C 
BRANCH   4   5
ATOM      5  C   UNL     1     -58.017  20.631 -31.325  1.00  0.00     0.034 C 
BRANCH   5   6
ATOM      6  C   UNL     1     -58.286  21.292 -29.980  1.00  0.00    -0.077 C 
ATOM      7  C   UNL     1     -57.922  20.517 -28.736  1.00  0.00     0.039 C 
ATOM      8  C   UNL     1     -58.775  22.551 -29.807  1.00  0.00    -0.023 CG0
ATOM      9  G   UNL     1     -59.362  23.518 -30.824  1.00  0.00     0.000 G0
ENDBRANCH   5   6
ENDBRANCH   4   5
ENDBRANCH   2   4
BRANCH   1  10
ATOM     10  C   UNL     1     -61.734  21.969 -32.028  1.00  0.00     0.111 C 
BRANCH  10  11
ATOM     11  C   UNL     1     -61.905  23.279 -31.293  1.00  0.00     0.163 C 
ATOM     12  O   UNL     1     -63.066  23.771 -31.288  1.00  0.00    -0.294 OA
BRANCH  11  13
ATOM     13  C   UNL     1     -60.778  24.007 -30.601  1.00  0.00    -0.002 C 
ATOM     14  C   UNL     1     -60.998  25.114 -29.825  1.00  0.00    -0.069 C 
ATOM     15  C   UNL     1     -62.389  25.595 -29.477  1.00  0.00     0.039 C 
ATOM     16  C   UNL     1     -59.847  25.906 -29.238  1.00  0.00     0.039 C 
BRANCH  13  17
ATOM     17  C   UNL     1     -59.358  23.517 -30.834  1.00  0.00     0.066 CG0
ATOM     18  G   UNL     1     -58.789  22.548 -29.809  1.00  0.00     0.000 G0
ENDBRANCH  13  17
ENDBRANCH  11  13
ENDBRANCH  10  11
ENDBRANCH   1  10
TORSDOF 0
ENDMDL
