MODEL 1
REMARK VINA RESULT:    -4.784      0.000      0.000
REMARK INTER + INTRA:          -8.466
REMARK INTER:                  -7.021
REMARK INTRA:                  -1.445
REMARK UNBOUND:                -1.445
REMARK SMILES Cc1cc2c(C(C)C)c(O)c(O)c(C=O)c2c(O)c1-c1c(C)cc2c(C(C)C)c(O)c(O)c(C=O)c2c1O
REMARK SMILES IDX 1 1 2 2 3 3 4 4 16 5 13 6 11 7 9 8 5 9 17 10 19 11 20 12
REMARK SMILES IDX 37 13 21 14 36 15 23 16 22 17 24 18 33 19 25 20 31 21 29 22
REMARK SMILES IDX 38 23 34 25 35 26 26 27 27 28 28 29 32 30 30 32 18 34 6 36
REMARK SMILES IDX 7 37 8 38 14 39 15 40 10 41 12 43
REMARK H PARENT 38 24 32 31 30 33 18 35 10 42 12 44
REMARK Flexibility Score: inf
ROOT
ATOM      1  C   UNL     1     140.533 139.587 132.259  1.00  0.00     0.045 C 
ATOM      2  C   UNL     1     141.388 140.553 131.475  1.00  0.00    -0.039 A 
ATOM      3  C   UNL     1     141.457 140.431 130.086  1.00  0.00     0.013 A 
ATOM      4  C   UNL     1     142.224 141.317 129.300  1.00  0.00    -0.006 A 
ATOM      5  C   UNL     1     143.066 142.258 129.960  1.00  0.00     0.039 A 
ATOM      6  C   UNL     1     144.038 142.966 129.197  1.00  0.00     0.072 A 
ATOM      7  C   UNL     1     144.107 142.789 127.801  1.00  0.00     0.169 A 
ATOM      8  C   UNL     1     143.186 141.948 127.141  1.00  0.00     0.162 A 
ATOM      9  C   UNL     1     142.187 141.267 127.874  1.00  0.00     0.008 A 
ATOM     10  C   UNL     1     142.887 142.472 131.358  1.00  0.00     0.132 A 
ATOM     11  C   UNL     1     142.054 141.615 132.108  1.00  0.00     0.031 A 
ENDROOT
BRANCH  11  12
ATOM     12  C   UNL     1     141.877 141.835 133.568  1.00  0.00     0.031 A 
ATOM     13  C   UNL     1     140.864 142.698 134.037  1.00  0.00     0.132 A 
ATOM     14  C   UNL     1     142.719 141.180 134.481  1.00  0.00    -0.039 A 
ATOM     15  C   UNL     1     140.723 142.947 135.432  1.00  0.00     0.039 A 
ATOM     16  C   UNL     1     142.483 141.314 135.852  1.00  0.00     0.013 A 
ATOM     17  C   UNL     1     143.821 140.264 134.006  1.00  0.00     0.045 C 
ATOM     18  C   UNL     1     141.445 142.132 136.350  1.00  0.00    -0.006 A 
ATOM     19  C   UNL     1     139.860 143.958 135.940  1.00  0.00     0.072 A 
ATOM     20  C   UNL     1     141.132 142.173 137.742  1.00  0.00     0.008 A 
ATOM     21  C   UNL     1     139.633 144.066 137.322  1.00  0.00     0.169 A 
ATOM     22  C   UNL     1     140.290 143.204 138.222  1.00  0.00     0.162 A 
BRANCH  13  23
ATOM     23  O   UNL     1     139.967 143.269 133.127  1.00  0.00    -0.507 OA
ATOM     24  H   UNL     1     138.970 143.094 133.134  1.00  0.00     0.293 HD
ENDBRANCH  13  23
BRANCH  19  25
ATOM     25  C   UNL     1     139.269 145.014 135.086  1.00  0.00     0.264 C 
ATOM     26  O   UNL     1     138.052 144.974 134.762  1.00  0.00    -0.298 OA
ENDBRANCH  19  25
BRANCH  20  27
ATOM     27  C   UNL     1     141.694 141.128 138.723  1.00  0.00     0.017 C 
ATOM     28  C   UNL     1     142.702 141.764 139.685  1.00  0.00     0.012 C 
ATOM     29  C   UNL     1     140.609 140.342 139.483  1.00  0.00     0.012 C 
ENDBRANCH  20  27
BRANCH  21  30
ATOM     30  O   UNL     1     138.745 145.054 137.769  1.00  0.00    -0.504 OA
ATOM     31  H   UNL     1     139.023 145.948 138.144  1.00  0.00     0.293 HD
ENDBRANCH  21  30
BRANCH  22  32
ATOM     32  O   UNL     1     140.160 143.379 139.604  1.00  0.00    -0.504 OA
ATOM     33  H   UNL     1     139.326 143.699 140.070  1.00  0.00     0.293 HD
ENDBRANCH  22  32
ENDBRANCH  11  12
BRANCH  10  34
ATOM     34  O   UNL     1     143.503 143.560 131.988  1.00  0.00    -0.507 OA
ATOM     35  H   UNL     1     143.779 144.407 131.509  1.00  0.00     0.293 HD
ENDBRANCH  10  34
BRANCH   9  36
ATOM     36  C   UNL     1     141.081 140.497 127.131  1.00  0.00     0.017 C 
ATOM     37  C   UNL     1     141.660 139.301 126.368  1.00  0.00     0.012 C 
ATOM     38  C   UNL     1     140.217 141.383 126.214  1.00  0.00     0.012 C 
ENDBRANCH   9  36
BRANCH   6  39
ATOM     39  C   UNL     1     145.096 143.783 129.842  1.00  0.00     0.264 C 
ATOM     40  O   UNL     1     144.987 145.035 129.928  1.00  0.00    -0.298 OA
ENDBRANCH   6  39
BRANCH   8  41
ATOM     41  O   UNL     1     143.255 141.746 125.759  1.00  0.00    -0.504 OA
ATOM     42  H   UNL     1     143.978 141.236 125.278  1.00  0.00     0.293 HD
ENDBRANCH   8  41
BRANCH   7  43
ATOM     43  O   UNL     1     145.125 143.453 127.103  1.00  0.00    -0.504 OA
ATOM     44  H   UNL     1     145.267 144.451 127.087  1.00  0.00     0.293 HD
ENDBRANCH   7  43
TORSDOF 11
ENDMDL
MODEL 2
REMARK VINA RESULT:    -4.759     18.180     20.294
REMARK INTER + INTRA:          -8.430
REMARK INTER:                  -7.032
REMARK INTRA:                  -1.398
REMARK UNBOUND:                -1.445
REMARK SMILES Cc1cc2c(C(C)C)c(O)c(O)c(C=O)c2c(O)c1-c1c(C)cc2c(C(C)C)c(O)c(O)c(C=O)c2c1O
REMARK SMILES IDX 1 1 2 2 3 3 4 4 16 5 13 6 11 7 9 8 5 9 17 10 19 11 20 12
REMARK SMILES IDX 37 13 21 14 36 15 23 16 22 17 24 18 33 19 25 20 31 21 29 22
REMARK SMILES IDX 38 23 34 25 35 26 26 27 27 28 28 29 32 30 30 32 18 34 6 36
REMARK SMILES IDX 7 37 8 38 14 39 15 40 10 41 12 43
REMARK H PARENT 38 24 32 31 30 33 18 35 10 42 12 44
REMARK Flexibility Score: inf
ROOT
ATOM      1  C   UNL     1     131.296 128.282 133.946  1.00  0.00     0.045 C 
ATOM      2  C   UNL     1     130.203 127.802 133.021  1.00  0.00    -0.039 A 
ATOM      3  C   UNL     1     130.451 127.736 131.648  1.00  0.00     0.013 A 
ATOM      4  C   UNL     1     129.475 127.277 130.739  1.00  0.00    -0.006 A 
ATOM      5  C   UNL     1     128.160 127.023 131.223  1.00  0.00     0.039 A 
ATOM      6  C   UNL     1     127.107 126.824 130.285  1.00  0.00     0.072 A 
ATOM      7  C   UNL     1     127.385 126.804 128.904  1.00  0.00     0.169 A 
ATOM      8  C   UNL     1     128.712 126.934 128.441  1.00  0.00     0.162 A 
ATOM      9  C   UNL     1     129.777 127.091 129.356  1.00  0.00     0.008 A 
ATOM     10  C   UNL     1     127.951 126.954 132.631  1.00  0.00     0.132 A 
ATOM     11  C   UNL     1     128.972 127.349 133.522  1.00  0.00     0.031 A 
ENDROOT
BRANCH  11  12
ATOM     12  C   UNL     1     128.749 127.285 134.990  1.00  0.00     0.031 A 
ATOM     13  C   UNL     1     128.221 128.398 135.678  1.00  0.00     0.132 A 
ATOM     14  C   UNL     1     129.062 126.110 135.694  1.00  0.00    -0.039 A 
ATOM     15  C   UNL     1     128.051 128.355 137.091  1.00  0.00     0.039 A 
ATOM     16  C   UNL     1     128.757 126.022 137.055  1.00  0.00     0.013 A 
ATOM     17  C   UNL     1     129.642 124.910 134.987  1.00  0.00     0.045 C 
ATOM     18  C   UNL     1     128.183 127.104 137.759  1.00  0.00    -0.006 A 
ATOM     19  C   UNL     1     127.720 129.510 137.852  1.00  0.00     0.072 A 
ATOM     20  C   UNL     1     127.764 126.970 139.117  1.00  0.00     0.008 A 
ATOM     21  C   UNL     1     127.409 129.393 139.217  1.00  0.00     0.169 A 
ATOM     22  C   UNL     1     127.465 128.139 139.857  1.00  0.00     0.162 A 
BRANCH  13  23
ATOM     23  O   UNL     1     127.819 129.528 134.956  1.00  0.00    -0.507 OA
ATOM     24  H   UNL     1     128.173 129.764 134.038  1.00  0.00     0.293 HD
ENDBRANCH  13  23
BRANCH  19  25
ATOM     25  C   UNL     1     127.809 130.884 137.308  1.00  0.00     0.264 C 
ATOM     26  O   UNL     1     126.768 131.525 137.002  1.00  0.00    -0.298 OA
ENDBRANCH  19  25
BRANCH  20  27
ATOM     27  C   UNL     1     127.640 125.590 139.788  1.00  0.00     0.017 C 
ATOM     28  C   UNL     1     128.868 125.288 140.653  1.00  0.00     0.012 C 
ATOM     29  C   UNL     1     126.332 125.399 140.579  1.00  0.00     0.012 C 
ENDBRANCH  20  27
BRANCH  21  30
ATOM     30  O   UNL     1     127.053 130.556 139.914  1.00  0.00    -0.504 OA
ATOM     31  H   UNL     1     127.425 130.824 140.813  1.00  0.00     0.293 HD
ENDBRANCH  21  30
BRANCH  22  32
ATOM     32  O   UNL     1     127.270 128.031 141.237  1.00  0.00    -0.504 OA
ATOM     33  H   UNL     1     127.879 128.421 141.939  1.00  0.00     0.293 HD
ENDBRANCH  22  32
ENDBRANCH  11  12
BRANCH  10  34
ATOM     34  O   UNL     1     126.748 126.453 133.142  1.00  0.00    -0.507 OA
ATOM     35  H   UNL     1     126.685 125.863 133.962  1.00  0.00     0.293 HD
ENDBRANCH  10  34
BRANCH   9  36
ATOM     36  C   UNL     1     131.232 127.053 128.855  1.00  0.00     0.017 C 
ATOM     37  C   UNL     1     131.587 128.336 128.097  1.00  0.00     0.012 C 
ATOM     38  C   UNL     1     131.569 125.799 128.026  1.00  0.00     0.012 C 
ENDBRANCH   9  36
BRANCH   6  39
ATOM     39  C   UNL     1     125.684 126.783 130.702  1.00  0.00     0.264 C 
ATOM     40  O   UNL     1     124.986 125.748 130.532  1.00  0.00    -0.298 OA
ENDBRANCH   6  39
BRANCH   8  41
ATOM     41  O   UNL     1     129.001 126.937 127.072  1.00  0.00    -0.504 OA
ATOM     42  H   UNL     1     129.796 127.384 126.644  1.00  0.00     0.293 HD
ENDBRANCH   8  41
BRANCH   7  43
ATOM     43  O   UNL     1     126.307 126.675 128.017  1.00  0.00    -0.504 OA
ATOM     44  H   UNL     1     125.720 127.431 127.698  1.00  0.00     0.293 HD
ENDBRANCH   7  43
TORSDOF 11
ENDMDL
MODEL 3
REMARK VINA RESULT:    -4.748     18.233     20.437
REMARK INTER + INTRA:          -8.414
REMARK INTER:                  -6.970
REMARK INTRA:                  -1.444
REMARK UNBOUND:                -1.445
REMARK SMILES Cc1cc2c(C(C)C)c(O)c(O)c(C=O)c2c(O)c1-c1c(C)cc2c(C(C)C)c(O)c(O)c(C=O)c2c1O
REMARK SMILES IDX 1 1 2 2 3 3 4 4 16 5 13 6 11 7 9 8 5 9 17 10 19 11 20 12
REMARK SMILES IDX 37 13 21 14 36 15 23 16 22 17 24 18 33 19 25 20 31 21 29 22
REMARK SMILES IDX 38 23 34 25 35 26 26 27 27 28 28 29 32 30 30 32 18 34 6 36
REMARK SMILES IDX 7 37 8 38 14 39 15 40 10 41 12 43
REMARK H PARENT 38 24 32 31 30 33 18 35 10 42 12 44
REMARK Flexibility Score: inf
ROOT
ATOM      1  C   UNL     1     129.280 130.528 132.317  1.00  0.00     0.045 C 
ATOM      2  C   UNL     1     128.478 129.541 131.504  1.00  0.00    -0.039 A 
ATOM      3  C   UNL     1     128.383 129.714 130.121  1.00  0.00     0.013 A 
ATOM      4  C   UNL     1     127.663 128.812 129.308  1.00  0.00    -0.006 A 
ATOM      5  C   UNL     1     126.892 127.794 129.938  1.00  0.00     0.039 A 
ATOM      6  C   UNL     1     125.957 127.056 129.158  1.00  0.00     0.072 A 
ATOM      7  C   UNL     1     125.858 127.284 127.772  1.00  0.00     0.169 A 
ATOM      8  C   UNL     1     126.714 128.208 127.137  1.00  0.00     0.162 A 
ATOM      9  C   UNL     1     127.677 128.922 127.886  1.00  0.00     0.008 A 
ATOM     10  C   UNL     1     127.103 127.535 131.325  1.00  0.00     0.132 A 
ATOM     11  C   UNL     1     127.890 128.414 132.100  1.00  0.00     0.031 A 
ENDROOT
BRANCH  11  12
ATOM     12  C   UNL     1     128.101 128.147 133.547  1.00  0.00     0.031 A 
ATOM     13  C   UNL     1     129.173 127.332 133.970  1.00  0.00     0.132 A 
ATOM     14  C   UNL     1     127.232 128.711 134.496  1.00  0.00    -0.039 A 
ATOM     15  C   UNL     1     129.349 127.037 135.351  1.00  0.00     0.039 A 
ATOM     16  C   UNL     1     127.496 128.537 135.857  1.00  0.00     0.013 A 
ATOM     17  C   UNL     1     126.069 129.573 134.071  1.00  0.00     0.045 C 
ATOM     18  C   UNL     1     128.590 127.767 136.310  1.00  0.00    -0.006 A 
ATOM     19  C   UNL     1     130.281 126.063 135.808  1.00  0.00     0.072 A 
ATOM     20  C   UNL     1     128.924 127.691 137.696  1.00  0.00     0.008 A 
ATOM     21  C   UNL     1     130.533 125.915 137.182  1.00  0.00     0.169 A 
ATOM     22  C   UNL     1     129.836 126.696 138.124  1.00  0.00     0.162 A 
BRANCH  13  23
ATOM     23  O   UNL     1     130.092 126.856 133.027  1.00  0.00    -0.507 OA
ATOM     24  H   UNL     1     130.850 127.411 132.650  1.00  0.00     0.293 HD
ENDBRANCH  13  23
BRANCH  19  25
ATOM     25  C   UNL     1     130.925 125.082 134.905  1.00  0.00     0.264 C 
ATOM     26  O   UNL     1     132.111 125.248 134.514  1.00  0.00    -0.298 OA
ENDBRANCH  19  25
BRANCH  20  27
ATOM     27  C   UNL     1     128.311 128.658 138.725  1.00  0.00     0.017 C 
ATOM     28  C   UNL     1     127.416 127.908 139.718  1.00  0.00     0.012 C 
ATOM     29  C   UNL     1     129.350 129.532 139.452  1.00  0.00     0.012 C 
ENDBRANCH  20  27
BRANCH  21  30
ATOM     30  O   UNL     1     131.487 124.968 137.578  1.00  0.00    -0.504 OA
ATOM     31  H   UNL     1     132.471 125.017 137.360  1.00  0.00     0.293 HD
ENDBRANCH  21  30
BRANCH  22  32
ATOM     32  O   UNL     1     129.996 126.475 139.496  1.00  0.00    -0.504 OA
ATOM     33  H   UNL     1     129.720 125.637 139.982  1.00  0.00     0.293 HD
ENDBRANCH  22  32
ENDBRANCH  11  12
BRANCH  10  34
ATOM     34  O   UNL     1     126.568 126.386 131.917  1.00  0.00    -0.507 OA
ATOM     35  H   UNL     1     127.126 125.660 132.347  1.00  0.00     0.293 HD
ENDBRANCH  10  34
BRANCH   9  36
ATOM     36  C   UNL     1     128.722 129.791 127.162  1.00  0.00     0.017 C 
ATOM     37  C   UNL     1     128.081 131.060 126.590  1.00  0.00     0.012 C 
ATOM     38  C   UNL     1     129.522 129.032 126.087  1.00  0.00     0.012 C 
ENDBRANCH   9  36
BRANCH   6  39
ATOM     39  C   UNL     1     124.963 126.147 129.781  1.00  0.00     0.264 C 
ATOM     40  O   UNL     1     125.005 124.904 129.582  1.00  0.00    -0.298 OA
ENDBRANCH   6  39
BRANCH   8  41
ATOM     41  O   UNL     1     126.614 128.460 125.764  1.00  0.00    -0.504 OA
ATOM     42  H   UNL     1     127.190 129.102 125.244  1.00  0.00     0.293 HD
ENDBRANCH   8  41
BRANCH   7  43
ATOM     43  O   UNL     1     124.875 126.584 127.059  1.00  0.00    -0.504 OA
ATOM     44  H   UNL     1     124.737 125.586 127.081  1.00  0.00     0.293 HD
ENDBRANCH   7  43
TORSDOF 11
ENDMDL
MODEL 4
REMARK VINA RESULT:    -4.741      2.667      4.076
REMARK INTER + INTRA:          -8.403
REMARK INTER:                  -7.175
REMARK INTRA:                  -1.228
REMARK UNBOUND:                -1.445
REMARK SMILES Cc1cc2c(C(C)C)c(O)c(O)c(C=O)c2c(O)c1-c1c(C)cc2c(C(C)C)c(O)c(O)c(C=O)c2c1O
REMARK SMILES IDX 1 1 2 2 3 3 4 4 16 5 13 6 11 7 9 8 5 9 17 10 19 11 20 12
REMARK SMILES IDX 37 13 21 14 36 15 23 16 22 17 24 18 33 19 25 20 31 21 29 22
REMARK SMILES IDX 38 23 34 25 35 26 26 27 27 28 28 29 32 30 30 32 18 34 6 36
REMARK SMILES IDX 7 37 8 38 14 39 15 40 10 41 12 43
REMARK H PARENT 38 24 32 31 30 33 18 35 10 42 12 44
REMARK Flexibility Score: inf
ROOT
ATOM      1  C   UNL     1     138.699 141.817 134.435  1.00  0.00     0.045 C 
ATOM      2  C   UNL     1     139.752 142.327 133.482  1.00  0.00    -0.039 A 
ATOM      3  C   UNL     1     139.439 142.462 132.127  1.00  0.00     0.013 A 
ATOM      4  C   UNL     1     140.377 142.952 131.194  1.00  0.00    -0.006 A 
ATOM      5  C   UNL     1     141.718 143.166 131.624  1.00  0.00     0.039 A 
ATOM      6  C   UNL     1     142.726 143.398 130.646  1.00  0.00     0.072 A 
ATOM      7  C   UNL     1     142.383 143.487 129.283  1.00  0.00     0.169 A 
ATOM      8  C   UNL     1     141.033 143.396 128.880  1.00  0.00     0.162 A 
ATOM      9  C   UNL     1     140.012 143.208 129.838  1.00  0.00     0.008 A 
ATOM     10  C   UNL     1     141.996 143.165 133.023  1.00  0.00     0.132 A 
ATOM     11  C   UNL     1     141.013 142.740 133.942  1.00  0.00     0.031 A 
ENDROOT
BRANCH  11  12
ATOM     12  C   UNL     1     141.308 142.731 135.399  1.00  0.00     0.031 A 
ATOM     13  C   UNL     1     141.839 141.575 136.010  1.00  0.00     0.132 A 
ATOM     14  C   UNL     1     141.060 143.879 136.170  1.00  0.00    -0.039 A 
ATOM     15  C   UNL     1     142.077 141.549 137.413  1.00  0.00     0.039 A 
ATOM     16  C   UNL     1     141.432 143.897 137.517  1.00  0.00     0.013 A 
ATOM     17  C   UNL     1     140.478 145.125 135.546  1.00  0.00     0.045 C 
ATOM     18  C   UNL     1     142.011 142.770 138.142  1.00  0.00    -0.006 A 
ATOM     19  C   UNL     1     142.414 140.352 138.104  1.00  0.00     0.072 A 
ATOM     20  C   UNL     1     142.497 142.831 139.483  1.00  0.00     0.008 A 
ATOM     21  C   UNL     1     142.793 140.398 139.456  1.00  0.00     0.169 A 
ATOM     22  C   UNL     1     142.801 141.622 140.154  1.00  0.00     0.162 A 
BRANCH  13  23
ATOM     23  O   UNL     1     142.176 140.470 135.219  1.00  0.00    -0.507 OA
ATOM     24  H   UNL     1     142.506 139.590 135.593  1.00  0.00     0.293 HD
ENDBRANCH  13  23
BRANCH  19  25
ATOM     25  C   UNL     1     142.262 139.007 137.503  1.00  0.00     0.264 C 
ATOM     26  O   UNL     1     143.271 138.355 137.120  1.00  0.00    -0.298 OA
ENDBRANCH  19  25
BRANCH  20  27
ATOM     27  C   UNL     1     142.689 144.176 140.208  1.00  0.00     0.017 C 
ATOM     28  C   UNL     1     141.527 144.453 141.167  1.00  0.00     0.012 C 
ATOM     29  C   UNL     1     144.050 144.309 140.918  1.00  0.00     0.012 C 
ENDBRANCH  20  27
BRANCH  21  30
ATOM     30  O   UNL     1     143.151 139.196 140.082  1.00  0.00    -0.504 OA
ATOM     31  H   UNL     1     142.499 138.483 140.373  1.00  0.00     0.293 HD
ENDBRANCH  21  30
BRANCH  22  32
ATOM     32  O   UNL     1     143.064 141.662 141.527  1.00  0.00    -0.504 OA
ATOM     33  H   UNL     1     143.701 142.302 141.975  1.00  0.00     0.293 HD
ENDBRANCH  22  32
ENDBRANCH  11  12
BRANCH  10  34
ATOM     34  O   UNL     1     143.229 143.626 133.497  1.00  0.00    -0.507 OA
ATOM     35  H   UNL     1     143.337 144.432 134.098  1.00  0.00     0.293 HD
ENDBRANCH  10  34
BRANCH   9  36
ATOM     36  C   UNL     1     138.534 143.288 129.411  1.00  0.00     0.017 C 
ATOM     37  C   UNL     1     137.804 144.406 130.163  1.00  0.00     0.012 C 
ATOM     38  C   UNL     1     137.782 141.949 129.527  1.00  0.00     0.012 C 
ENDBRANCH   9  36
BRANCH   6  39
ATOM     39  C   UNL     1     144.169 143.400 130.994  1.00  0.00     0.264 C 
ATOM     40  O   UNL     1     144.956 144.249 130.497  1.00  0.00    -0.298 OA
ENDBRANCH   6  39
BRANCH   8  41
ATOM     41  O   UNL     1     140.677 143.462 127.528  1.00  0.00    -0.504 OA
ATOM     42  H   UNL     1     141.019 144.141 126.867  1.00  0.00     0.293 HD
ENDBRANCH   8  41
BRANCH   7  43
ATOM     43  O   UNL     1     143.417 143.645 128.352  1.00  0.00    -0.504 OA
ATOM     44  H   UNL     1     143.755 142.929 127.727  1.00  0.00     0.293 HD
ENDBRANCH   7  43
TORSDOF 11
ENDMDL
MODEL 5
REMARK VINA RESULT:    -4.586     17.986     21.819
REMARK INTER + INTRA:          -8.176
REMARK INTER:                  -6.840
REMARK INTRA:                  -1.336
REMARK UNBOUND:                -1.445
REMARK SMILES Cc1cc2c(C(C)C)c(O)c(O)c(C=O)c2c(O)c1-c1c(C)cc2c(C(C)C)c(O)c(O)c(C=O)c2c1O
REMARK SMILES IDX 1 1 2 2 3 3 4 4 16 5 13 6 11 7 9 8 5 9 17 10 19 11 20 12
REMARK SMILES IDX 37 13 21 14 36 15 23 16 22 17 24 18 33 19 25 20 31 21 29 22
REMARK SMILES IDX 38 23 34 25 35 26 26 27 27 28 28 29 32 30 30 32 18 34 6 36
REMARK SMILES IDX 7 37 8 38 14 39 15 40 10 41 12 43
REMARK H PARENT 38 24 32 31 30 33 18 35 10 42 12 44
REMARK Flexibility Score: inf
ROOT
ATOM      1  C   UNL     1     129.527 131.036 137.316  1.00  0.00     0.045 C 
ATOM      2  C   UNL     1     128.590 130.304 138.246  1.00  0.00    -0.039 A 
ATOM      3  C   UNL     1     127.884 131.027 139.210  1.00  0.00     0.013 A 
ATOM      4  C   UNL     1     126.979 130.399 140.093  1.00  0.00    -0.006 A 
ATOM      5  C   UNL     1     126.908 128.976 140.096  1.00  0.00     0.039 A 
ATOM      6  C   UNL     1     126.211 128.324 141.153  1.00  0.00     0.072 A 
ATOM      7  C   UNL     1     125.543 129.083 142.134  1.00  0.00     0.169 A 
ATOM      8  C   UNL     1     125.517 130.491 142.051  1.00  0.00     0.162 A 
ATOM      9  C   UNL     1     126.167 131.158 140.988  1.00  0.00     0.008 A 
ATOM     10  C   UNL     1     127.516 128.259 139.025  1.00  0.00     0.132 A 
ATOM     11  C   UNL     1     128.358 128.926 138.110  1.00  0.00     0.031 A 
ENDROOT
BRANCH  11  12
ATOM     12  C   UNL     1     128.999 128.174 136.999  1.00  0.00     0.031 A 
ATOM     13  C   UNL     1     128.360 128.078 135.744  1.00  0.00     0.132 A 
ATOM     14  C   UNL     1     130.246 127.559 137.199  1.00  0.00    -0.039 A 
ATOM     15  C   UNL     1     128.949 127.319 134.694  1.00  0.00     0.039 A 
ATOM     16  C   UNL     1     130.887 126.940 136.123  1.00  0.00     0.013 A 
ATOM     17  C   UNL     1     130.945 127.632 138.535  1.00  0.00     0.045 C 
ATOM     18  C   UNL     1     130.293 126.872 134.843  1.00  0.00    -0.006 A 
ATOM     19  C   UNL     1     128.255 127.022 133.489  1.00  0.00     0.072 A 
ATOM     20  C   UNL     1     131.001 126.344 133.721  1.00  0.00     0.008 A 
ATOM     21  C   UNL     1     128.925 126.407 132.419  1.00  0.00     0.169 A 
ATOM     22  C   UNL     1     130.279 126.036 132.543  1.00  0.00     0.162 A 
BRANCH  13  23
ATOM     23  O   UNL     1     127.166 128.776 135.523  1.00  0.00    -0.507 OA
ATOM     24  H   UNL     1     127.056 129.768 135.687  1.00  0.00     0.293 HD
ENDBRANCH  13  23
BRANCH  19  25
ATOM     25  C   UNL     1     126.794 127.213 133.335  1.00  0.00     0.264 C 
ATOM     26  O   UNL     1     126.338 128.169 132.651  1.00  0.00    -0.298 OA
ENDBRANCH  19  25
BRANCH  20  27
ATOM     27  C   UNL     1     132.520 126.101 133.771  1.00  0.00     0.017 C 
ATOM     28  C   UNL     1     133.292 127.420 133.658  1.00  0.00     0.012 C 
ATOM     29  C   UNL     1     132.978 125.283 134.994  1.00  0.00     0.012 C 
ENDBRANCH  20  27
BRANCH  21  30
ATOM     30  O   UNL     1     128.206 126.169 131.239  1.00  0.00    -0.504 OA
ATOM     31  H   UNL     1     128.623 126.021 130.332  1.00  0.00     0.293 HD
ENDBRANCH  21  30
BRANCH  22  32
ATOM     32  O   UNL     1     130.921 125.320 131.528  1.00  0.00    -0.504 OA
ATOM     33  H   UNL     1     131.918 125.200 131.447  1.00  0.00     0.293 HD
ENDBRANCH  22  32
ENDBRANCH  11  12
BRANCH  10  34
ATOM     34  O   UNL     1     127.249 126.896 138.847  1.00  0.00    -0.507 OA
ATOM     35  H   UNL     1     127.947 126.169 138.931  1.00  0.00     0.293 HD
ENDBRANCH  10  34
BRANCH   9  36
ATOM     36  C   UNL     1     125.984 132.676 140.807  1.00  0.00     0.017 C 
ATOM     37  C   UNL     1     125.367 132.998 139.442  1.00  0.00     0.012 C 
ATOM     38  C   UNL     1     127.271 133.488 141.048  1.00  0.00     0.012 C 
ENDBRANCH   9  36
BRANCH   6  39
ATOM     39  C   UNL     1     126.287 126.855 141.351  1.00  0.00     0.264 C 
ATOM     40  O   UNL     1     125.298 126.115 141.102  1.00  0.00    -0.298 OA
ENDBRANCH   6  39
BRANCH   8  41
ATOM     41  O   UNL     1     124.876 131.260 143.029  1.00  0.00    -0.504 OA
ATOM     42  H   UNL     1     123.884 131.270 143.206  1.00  0.00     0.293 HD
ENDBRANCH   8  41
BRANCH   7  43
ATOM     43  O   UNL     1     124.932 128.398 143.192  1.00  0.00    -0.504 OA
ATOM     44  H   UNL     1     124.570 127.458 143.148  1.00  0.00     0.293 HD
ENDBRANCH   7  43
TORSDOF 11
ENDMDL
MODEL 6
REMARK VINA RESULT:    -4.486     18.132     21.555
REMARK INTER + INTRA:          -8.029
REMARK INTER:                  -6.975
REMARK INTRA:                  -1.055
REMARK UNBOUND:                -1.445
REMARK SMILES Cc1cc2c(C(C)C)c(O)c(O)c(C=O)c2c(O)c1-c1c(C)cc2c(C(C)C)c(O)c(O)c(C=O)c2c1O
REMARK SMILES IDX 1 1 2 2 3 3 4 4 16 5 13 6 11 7 9 8 5 9 17 10 19 11 20 12
REMARK SMILES IDX 37 13 21 14 36 15 23 16 22 17 24 18 33 19 25 20 31 21 29 22
REMARK SMILES IDX 38 23 34 25 35 26 26 27 27 28 28 29 32 30 30 32 18 34 6 36
REMARK SMILES IDX 7 37 8 38 14 39 15 40 10 41 12 43
REMARK H PARENT 38 24 32 31 30 33 18 35 10 42 12 44
REMARK Flexibility Score: inf
ROOT
ATOM      1  C   UNL     1     126.789 129.608 134.536  1.00  0.00     0.045 C 
ATOM      2  C   UNL     1     127.882 128.586 134.729  1.00  0.00    -0.039 A 
ATOM      3  C   UNL     1     128.157 128.115 136.016  1.00  0.00     0.013 A 
ATOM      4  C   UNL     1     129.153 127.145 136.254  1.00  0.00    -0.006 A 
ATOM      5  C   UNL     1     129.997 126.757 135.175  1.00  0.00     0.039 A 
ATOM      6  C   UNL     1     131.166 125.993 135.455  1.00  0.00     0.072 A 
ATOM      7  C   UNL     1     131.436 125.569 136.771  1.00  0.00     0.169 A 
ATOM      8  C   UNL     1     130.527 125.855 137.812  1.00  0.00     0.162 A 
ATOM      9  C   UNL     1     129.341 126.576 137.549  1.00  0.00     0.008 A 
ATOM     10  C   UNL     1     129.626 127.127 133.849  1.00  0.00     0.132 A 
ATOM     11  C   UNL     1     128.575 128.044 133.634  1.00  0.00     0.031 A 
ENDROOT
BRANCH  11  12
ATOM     12  C   UNL     1     128.195 128.435 132.252  1.00  0.00     0.031 A 
ATOM     13  C   UNL     1     127.304 127.634 131.506  1.00  0.00     0.132 A 
ATOM     14  C   UNL     1     128.724 129.608 131.687  1.00  0.00    -0.039 A 
ATOM     15  C   UNL     1     126.977 127.982 130.165  1.00  0.00     0.039 A 
ATOM     16  C   UNL     1     128.286 130.022 130.426  1.00  0.00     0.013 A 
ATOM     17  C   UNL     1     129.691 130.475 132.456  1.00  0.00     0.045 C 
ATOM     18  C   UNL     1     127.357 129.265 129.677  1.00  0.00    -0.006 A 
ATOM     19  C   UNL     1     126.253 127.107 129.308  1.00  0.00     0.072 A 
ATOM     20  C   UNL     1     126.824 129.750 128.445  1.00  0.00     0.008 A 
ATOM     21  C   UNL     1     125.818 127.551 128.048  1.00  0.00     0.169 A 
ATOM     22  C   UNL     1     126.130 128.850 127.602  1.00  0.00     0.162 A 
BRANCH  13  23
ATOM     23  O   UNL     1     126.706 126.522 132.110  1.00  0.00    -0.507 OA
ATOM     24  H   UNL     1     125.707 126.421 132.238  1.00  0.00     0.293 HD
ENDBRANCH  13  23
BRANCH  19  25
ATOM     25  C   UNL     1     126.036 125.676 129.619  1.00  0.00     0.264 C 
ATOM     26  O   UNL     1     124.875 125.232 129.831  1.00  0.00    -0.298 OA
ENDBRANCH  19  25
BRANCH  20  27
ATOM     27  C   UNL     1     126.995 131.219 128.018  1.00  0.00     0.017 C 
ATOM     28  C   UNL     1     126.395 132.168 129.061  1.00  0.00     0.012 C 
ATOM     29  C   UNL     1     128.448 131.601 127.678  1.00  0.00     0.012 C 
ENDBRANCH  20  27
BRANCH  21  30
ATOM     30  O   UNL     1     125.076 126.663 127.257  1.00  0.00    -0.504 OA
ATOM     31  H   UNL     1     125.323 125.699 127.089  1.00  0.00     0.293 HD
ENDBRANCH  21  30
BRANCH  22  32
ATOM     32  O   UNL     1     125.800 129.260 126.306  1.00  0.00    -0.504 OA
ATOM     33  H   UNL     1     125.091 128.836 125.728  1.00  0.00     0.293 HD
ENDBRANCH  22  32
ENDBRANCH  11  12
BRANCH  10  34
ATOM     34  O   UNL     1     130.273 126.552 132.749  1.00  0.00    -0.507 OA
ATOM     35  H   UNL     1     131.064 125.925 132.824  1.00  0.00     0.293 HD
ENDBRANCH  10  34
BRANCH   9  36
ATOM     36  C   UNL     1     128.275 126.728 138.650  1.00  0.00     0.017 C 
ATOM     37  C   UNL     1     128.681 127.803 139.664  1.00  0.00     0.012 C 
ATOM     38  C   UNL     1     127.912 125.405 139.349  1.00  0.00     0.012 C 
ENDBRANCH   9  36
BRANCH   6  39
ATOM     39  C   UNL     1     132.207 125.749 134.425  1.00  0.00     0.264 C 
ATOM     40  O   UNL     1     132.850 126.703 133.912  1.00  0.00    -0.298 OA
ENDBRANCH   6  39
BRANCH   8  41
ATOM     41  O   UNL     1     130.791 125.459 139.128  1.00  0.00    -0.504 OA
ATOM     42  H   UNL     1     130.177 125.600 139.915  1.00  0.00     0.293 HD
ENDBRANCH   8  41
BRANCH   7  43
ATOM     43  O   UNL     1     132.633 124.882 137.009  1.00  0.00    -0.504 OA
ATOM     44  H   UNL     1     133.308 124.625 136.306  1.00  0.00     0.293 HD
ENDBRANCH   7  43
TORSDOF 11
ENDMDL
MODEL 7
REMARK VINA RESULT:    -4.443     18.038     21.809
REMARK INTER + INTRA:          -7.965
REMARK INTER:                  -6.707
REMARK INTRA:                  -1.259
REMARK UNBOUND:                -1.445
REMARK SMILES Cc1cc2c(C(C)C)c(O)c(O)c(C=O)c2c(O)c1-c1c(C)cc2c(C(C)C)c(O)c(O)c(C=O)c2c1O
REMARK SMILES IDX 1 1 2 2 3 3 4 4 16 5 13 6 11 7 9 8 5 9 17 10 19 11 20 12
REMARK SMILES IDX 37 13 21 14 36 15 23 16 22 17 24 18 33 19 25 20 31 21 29 22
REMARK SMILES IDX 38 23 34 25 35 26 26 27 27 28 28 29 32 30 30 32 18 34 6 36
REMARK SMILES IDX 7 37 8 38 14 39 15 40 10 41 12 43
REMARK H PARENT 38 24 32 31 30 33 18 35 10 42 12 44
REMARK Flexibility Score: inf
ROOT
ATOM      1  C   UNL     1     127.906 124.878 135.530  1.00  0.00     0.045 C 
ATOM      2  C   UNL     1     127.986 126.280 136.083  1.00  0.00    -0.039 A 
ATOM      3  C   UNL     1     127.792 126.487 137.450  1.00  0.00     0.013 A 
ATOM      4  C   UNL     1     127.874 127.773 138.026  1.00  0.00    -0.006 A 
ATOM      5  C   UNL     1     128.005 128.898 137.162  1.00  0.00     0.039 A 
ATOM      6  C   UNL     1     127.818 130.203 137.699  1.00  0.00     0.072 A 
ATOM      7  C   UNL     1     127.584 130.374 139.077  1.00  0.00     0.169 A 
ATOM      8  C   UNL     1     127.579 129.261 139.944  1.00  0.00     0.162 A 
ATOM      9  C   UNL     1     127.803 127.960 139.439  1.00  0.00     0.008 A 
ATOM     10  C   UNL     1     128.343 128.675 135.795  1.00  0.00     0.132 A 
ATOM     11  C   UNL     1     128.325 127.368 135.262  1.00  0.00     0.031 A 
ENDROOT
BRANCH  11  12
ATOM     12  C   UNL     1     128.669 127.139 133.834  1.00  0.00     0.031 A 
ATOM     13  C   UNL     1     127.672 127.237 132.839  1.00  0.00     0.132 A 
ATOM     14  C   UNL     1     129.991 126.828 133.474  1.00  0.00    -0.039 A 
ATOM     15  C   UNL     1     127.990 126.971 131.477  1.00  0.00     0.039 A 
ATOM     16  C   UNL     1     130.326 126.712 132.123  1.00  0.00     0.013 A 
ATOM     17  C   UNL     1     131.073 126.701 134.519  1.00  0.00     0.045 C 
ATOM     18  C   UNL     1     129.359 126.853 131.103  1.00  0.00    -0.006 A 
ATOM     19  C   UNL     1     126.989 126.855 130.473  1.00  0.00     0.072 A 
ATOM     20  C   UNL     1     129.726 126.853 129.723  1.00  0.00     0.008 A 
ATOM     21  C   UNL     1     127.353 126.749 129.120  1.00  0.00     0.169 A 
ATOM     22  C   UNL     1     128.711 126.711 128.747  1.00  0.00     0.162 A 
BRANCH  13  23
ATOM     23  O   UNL     1     126.381 127.645 133.194  1.00  0.00    -0.507 OA
ATOM     24  H   UNL     1     125.699 127.037 133.630  1.00  0.00     0.293 HD
ENDBRANCH  13  23
BRANCH  19  25
ATOM     25  C   UNL     1     125.549 126.707 130.786  1.00  0.00     0.264 C 
ATOM     26  O   UNL     1     124.930 125.652 130.485  1.00  0.00    -0.298 OA
ENDBRANCH  19  25
BRANCH  20  27
ATOM     27  C   UNL     1     131.194 126.995 129.282  1.00  0.00     0.017 C 
ATOM     28  C   UNL     1     131.699 125.705 128.629  1.00  0.00     0.012 C 
ATOM     29  C   UNL     1     131.457 128.220 128.386  1.00  0.00     0.012 C 
ENDBRANCH  20  27
BRANCH  21  30
ATOM     30  O   UNL     1     126.329 126.674 128.166  1.00  0.00    -0.504 OA
ATOM     31  H   UNL     1     126.295 126.007 127.410  1.00  0.00     0.293 HD
ENDBRANCH  21  30
BRANCH  22  32
ATOM     32  O   UNL     1     129.082 126.489 127.417  1.00  0.00    -0.504 OA
ATOM     33  H   UNL     1     129.467 127.187 126.801  1.00  0.00     0.293 HD
ENDBRANCH  22  32
ENDBRANCH  11  12
BRANCH  10  34
ATOM     34  O   UNL     1     128.735 129.745 134.982  1.00  0.00    -0.507 OA
ATOM     35  H   UNL     1     128.426 130.699 135.117  1.00  0.00     0.293 HD
ENDBRANCH  10  34
BRANCH   9  36
ATOM     36  C   UNL     1     127.974 126.778 140.410  1.00  0.00     0.017 C 
ATOM     37  C   UNL     1     126.627 126.359 141.009  1.00  0.00     0.012 C 
ATOM     38  C   UNL     1     129.025 127.025 141.508  1.00  0.00     0.012 C 
ENDBRANCH   9  36
BRANCH   6  39
ATOM     39  C   UNL     1     127.711 131.400 136.828  1.00  0.00     0.264 C 
ATOM     40  O   UNL     1     128.642 132.247 136.770  1.00  0.00    -0.298 OA
ENDBRANCH   6  39
BRANCH   8  41
ATOM     41  O   UNL     1     127.327 129.412 141.312  1.00  0.00    -0.504 OA
ATOM     42  H   UNL     1     127.854 128.980 142.055  1.00  0.00     0.293 HD
ENDBRANCH   8  41
BRANCH   7  43
ATOM     43  O   UNL     1     127.336 131.671 139.547  1.00  0.00    -0.504 OA
ATOM     44  H   UNL     1     127.967 132.453 139.461  1.00  0.00     0.293 HD
ENDBRANCH   7  43
TORSDOF 11
ENDMDL
MODEL 8
REMARK VINA RESULT:    -2.062     17.885     22.029
REMARK INTER + INTRA:          -4.472
REMARK INTER:                  -3.175
REMARK INTRA:                  -1.297
REMARK UNBOUND:                -1.445
REMARK SMILES Cc1cc2c(C(C)C)c(O)c(O)c(C=O)c2c(O)c1-c1c(C)cc2c(C(C)C)c(O)c(O)c(C=O)c2c1O
REMARK SMILES IDX 1 1 2 2 3 3 4 4 16 5 13 6 11 7 9 8 5 9 17 10 19 11 20 12
REMARK SMILES IDX 37 13 21 14 36 15 23 16 22 17 24 18 33 19 25 20 31 21 29 22
REMARK SMILES IDX 38 23 34 25 35 26 26 27 27 28 28 29 32 30 30 32 18 34 6 36
REMARK SMILES IDX 7 37 8 38 14 39 15 40 10 41 12 43
REMARK H PARENT 38 24 32 31 30 33 18 35 10 42 12 44
REMARK Flexibility Score: inf
ROOT
ATOM      1  C   UNL     1     131.085 125.003 136.833  1.00  0.00     0.045 C 
ATOM      2  C   UNL     1     130.340 125.835 137.848  1.00  0.00    -0.039 A 
ATOM      3  C   UNL     1     130.784 125.855 139.172  1.00  0.00     0.013 A 
ATOM      4  C   UNL     1     130.139 126.629 140.160  1.00  0.00    -0.006 A 
ATOM      5  C   UNL     1     128.918 127.281 139.825  1.00  0.00     0.039 A 
ATOM      6  C   UNL     1     128.123 127.835 140.868  1.00  0.00     0.072 A 
ATOM      7  C   UNL     1     128.582 127.802 142.200  1.00  0.00     0.169 A 
ATOM      8  C   UNL     1     129.850 127.264 142.504  1.00  0.00     0.162 A 
ATOM      9  C   UNL     1     130.673 126.745 141.478  1.00  0.00     0.008 A 
ATOM     10  C   UNL     1     128.548 127.375 138.451  1.00  0.00     0.132 A 
ATOM     11  C   UNL     1     129.257 126.647 137.472  1.00  0.00     0.031 A 
ENDROOT
BRANCH  11  12
ATOM     12  C   UNL     1     128.864 126.740 136.041  1.00  0.00     0.031 A 
ATOM     13  C   UNL     1     129.484 127.684 135.194  1.00  0.00     0.132 A 
ATOM     14  C   UNL     1     127.875 125.883 135.531  1.00  0.00    -0.039 A 
ATOM     15  C   UNL     1     129.075 127.806 133.836  1.00  0.00     0.039 A 
ATOM     16  C   UNL     1     127.582 125.908 134.165  1.00  0.00     0.013 A 
ATOM     17  C   UNL     1     127.185 124.875 136.418  1.00  0.00     0.045 C 
ATOM     18  C   UNL     1     128.222 126.808 133.284  1.00  0.00    -0.006 A 
ATOM     19  C   UNL     1     129.518 128.870 133.002  1.00  0.00     0.072 A 
ATOM     20  C   UNL     1     128.007 126.750 131.874  1.00  0.00     0.008 A 
ATOM     21  C   UNL     1     129.217 128.867 131.631  1.00  0.00     0.169 A 
ATOM     22  C   UNL     1     128.437 127.834 131.073  1.00  0.00     0.162 A 
BRANCH  13  23
ATOM     23  O   UNL     1     130.537 128.465 135.685  1.00  0.00    -0.507 OA
ATOM     24  H   UNL     1     131.032 128.265 136.544  1.00  0.00     0.293 HD
ENDBRANCH  13  23
BRANCH  19  25
ATOM     25  C   UNL     1     130.188 130.081 133.532  1.00  0.00     0.264 C 
ATOM     26  O   UNL     1     131.432 130.237 133.402  1.00  0.00    -0.298 OA
ENDBRANCH  19  25
BRANCH  20  27
ATOM     27  C   UNL     1     127.316 125.541 131.216  1.00  0.00     0.017 C 
ATOM     28  C   UNL     1     125.916 125.914 130.718  1.00  0.00     0.012 C 
ATOM     29  C   UNL     1     128.152 124.879 130.104  1.00  0.00     0.012 C 
ENDBRANCH  20  27
BRANCH  21  30
ATOM     30  O   UNL     1     129.708 129.919 130.845  1.00  0.00    -0.504 OA
ATOM     31  H   UNL     1     130.248 129.803 130.001  1.00  0.00     0.293 HD
ENDBRANCH  21  30
BRANCH  22  32
ATOM     32  O   UNL     1     128.036 127.884 129.735  1.00  0.00    -0.504 OA
ATOM     33  H   UNL     1     128.474 127.378 128.981  1.00  0.00     0.293 HD
ENDBRANCH  22  32
ENDBRANCH  11  12
BRANCH  10  34
ATOM     34  O   UNL     1     127.506 128.223 138.058  1.00  0.00    -0.507 OA
ATOM     35  H   UNL     1     126.786 127.963 137.396  1.00  0.00     0.293 HD
ENDBRANCH  10  34
BRANCH   9  36
ATOM     36  C   UNL     1     132.120 126.326 141.793  1.00  0.00     0.017 C 
ATOM     37  C   UNL     1     132.152 125.048 142.637  1.00  0.00     0.012 C 
ATOM     38  C   UNL     1     132.964 127.444 142.435  1.00  0.00     0.012 C 
ENDBRANCH   9  36
BRANCH   6  39
ATOM     39  C   UNL     1     126.742 128.321 140.627  1.00  0.00     0.264 C 
ATOM     40  O   UNL     1     125.745 127.689 141.066  1.00  0.00    -0.298 OA
ENDBRANCH   6  39
BRANCH   8  41
ATOM     41  O   UNL     1     130.311 127.205 143.824  1.00  0.00    -0.504 OA
ATOM     42  H   UNL     1     131.164 126.762 144.126  1.00  0.00     0.293 HD
ENDBRANCH   8  41
BRANCH   7  43
ATOM     43  O   UNL     1     127.735 128.296 143.200  1.00  0.00    -0.504 OA
ATOM     44  H   UNL     1     127.380 129.238 143.252  1.00  0.00     0.293 HD
ENDBRANCH   7  43
TORSDOF 11
ENDMDL
