MODEL 1
REMARK VINA RESULT:    -5.422      0.000      0.000
REMARK INTER + INTRA:          -6.662
REMARK INTER:                  -6.373
REMARK INTRA:                  -0.289
REMARK UNBOUND:                -0.289
REMARK SMILES O=c1c(O)c(-c2ccc(O)cc2)oc2cc(O)cc(O)c12
REMARK SMILES IDX 5 1 3 2 2 3 1 4 21 5 19 6 18 7 16 8 15 9 14 10 13 11 6 12
REMARK SMILES IDX 7 13 8 14 9 15 12 16 11 17 10 18 4 20 20 22 17 24
REMARK H PARENT 10 19 4 21 20 23 17 25
REMARK Flexibility Score: inf
ROOT
ATOM      1  C   UNL     1      -7.334  22.863  -8.681  1.00  0.00     0.180 A 
ATOM      2  C   UNL     1      -7.554  21.623  -9.304  1.00  0.00     0.208 A 
ATOM      3  C   UNL     1      -6.614  20.595  -9.127  1.00  0.00     0.238 A 
ATOM      4  O   UNL     1      -6.789  19.505  -9.732  1.00  0.00    -0.285 OA
ATOM      5  C   UNL     1      -5.476  20.814  -8.315  1.00  0.00     0.111 A 
ATOM      6  C   UNL     1      -4.480  19.830  -8.033  1.00  0.00     0.134 A 
ATOM      7  C   UNL     1      -3.329  20.196  -7.323  1.00  0.00     0.093 A 
ATOM      8  C   UNL     1      -3.168  21.490  -6.830  1.00  0.00     0.123 A 
ATOM      9  C   UNL     1      -4.163  22.444  -7.049  1.00  0.00     0.094 A 
ATOM     10  C   UNL     1      -5.305  22.120  -7.784  1.00  0.00     0.146 A 
ATOM     11  O   UNL     1      -6.223  23.058  -7.978  1.00  0.00    -0.452 OA
ENDROOT
BRANCH   1  12
ATOM     12  C   UNL     1      -8.290  23.987  -8.800  1.00  0.00     0.021 A 
ATOM     13  C   UNL     1      -9.334  24.109  -7.867  1.00  0.00     0.016 A 
ATOM     14  C   UNL     1     -10.262  25.149  -7.974  1.00  0.00     0.047 A 
ATOM     15  C   UNL     1     -10.167  26.072  -9.023  1.00  0.00     0.115 A 
ATOM     16  C   UNL     1      -8.213  24.906  -9.862  1.00  0.00     0.016 A 
ATOM     17  C   UNL     1      -9.143  25.945  -9.966  1.00  0.00     0.047 A 
BRANCH  15  18
ATOM     18  O   UNL     1     -11.085  27.113  -9.140  1.00  0.00    -0.508 OA
ATOM     19  H   UNL     1     -11.137  27.681  -9.978  1.00  0.00     0.293 HD
ENDBRANCH  15  18
ENDBRANCH   1  12
BRANCH   2  20
ATOM     20  O   UNL     1      -8.673  21.436 -10.120  1.00  0.00    -0.502 OA
ATOM     21  H   UNL     1      -9.049  22.173 -10.704  1.00  0.00     0.293 HD
ENDBRANCH   2  20
BRANCH   6  22
ATOM     22  O   UNL     1      -4.585  18.486  -8.400  1.00  0.00    -0.507 OA
ATOM     23  H   UNL     1      -5.336  17.871  -8.123  1.00  0.00     0.293 HD
ENDBRANCH   6  22
BRANCH   8  24
ATOM     24  O   UNL     1      -2.018  21.815  -6.115  1.00  0.00    -0.508 OA
ATOM     25  H   UNL     1      -1.225  22.262  -6.560  1.00  0.00     0.293 HD
ENDBRANCH   8  24
TORSDOF 5
ENDMDL
MODEL 2
REMARK VINA RESULT:    -5.285      1.757      6.949
REMARK INTER + INTRA:          -6.500
REMARK INTER:                  -6.216
REMARK INTRA:                  -0.284
REMARK UNBOUND:                -0.289
REMARK SMILES O=c1c(O)c(-c2ccc(O)cc2)oc2cc(O)cc(O)c12
REMARK SMILES IDX 5 1 3 2 2 3 1 4 21 5 19 6 18 7 16 8 15 9 14 10 13 11 6 12
REMARK SMILES IDX 7 13 8 14 9 15 12 16 11 17 10 18 4 20 20 22 17 24
REMARK H PARENT 10 19 4 21 20 23 17 25
REMARK Flexibility Score: inf
ROOT
ATOM      1  C   UNL     1      -7.632  23.253  -8.952  1.00  0.00     0.180 A 
ATOM      2  C   UNL     1      -8.689  23.435  -8.043  1.00  0.00     0.208 A 
ATOM      3  C   UNL     1      -9.493  24.581  -8.154  1.00  0.00     0.238 A 
ATOM      4  O   UNL     1     -10.402  24.766  -7.304  1.00  0.00    -0.285 OA
ATOM      5  C   UNL     1      -9.240  25.521  -9.181  1.00  0.00     0.111 A 
ATOM      6  C   UNL     1     -10.017  26.697  -9.412  1.00  0.00     0.134 A 
ATOM      7  C   UNL     1      -9.598  27.624 -10.375  1.00  0.00     0.093 A 
ATOM      8  C   UNL     1      -8.470  27.386 -11.160  1.00  0.00     0.123 A 
ATOM      9  C   UNL     1      -7.737  26.211 -10.984  1.00  0.00     0.094 A 
ATOM     10  C   UNL     1      -8.110  25.285 -10.007  1.00  0.00     0.146 A 
ATOM     11  O   UNL     1      -7.381  24.185  -9.864  1.00  0.00    -0.452 OA
ENDROOT
BRANCH   1  12
ATOM     12  C   UNL     1      -6.758  22.059  -8.915  1.00  0.00     0.021 A 
ATOM     13  C   UNL     1      -7.168  20.880  -9.562  1.00  0.00     0.016 A 
ATOM     14  C   UNL     1      -6.368  19.734  -9.520  1.00  0.00     0.047 A 
ATOM     15  C   UNL     1      -5.155  19.747  -8.821  1.00  0.00     0.115 A 
ATOM     16  C   UNL     1      -5.548  22.058  -8.197  1.00  0.00     0.016 A 
ATOM     17  C   UNL     1      -4.750  20.910  -8.158  1.00  0.00     0.047 A 
BRANCH  15  18
ATOM     18  O   UNL     1      -4.349  18.612  -8.773  1.00  0.00    -0.508 OA
ATOM     19  H   UNL     1      -4.688  17.739  -8.388  1.00  0.00     0.293 HD
ENDBRANCH  15  18
ENDBRANCH   1  12
BRANCH   2  20
ATOM     20  O   UNL     1      -8.906  22.505  -7.023  1.00  0.00    -0.502 OA
ATOM     21  H   UNL     1      -8.401  21.628  -6.970  1.00  0.00     0.293 HD
ENDBRANCH   2  20
BRANCH   6  22
ATOM     22  O   UNL     1     -11.211  26.987  -8.747  1.00  0.00    -0.507 OA
ATOM     23  H   UNL     1     -12.132  26.779  -9.103  1.00  0.00     0.293 HD
ENDBRANCH   6  22
BRANCH   8  24
ATOM     24  O   UNL     1      -8.091  28.321 -12.120  1.00  0.00    -0.508 OA
ATOM     25  H   UNL     1      -7.128  28.623 -12.215  1.00  0.00     0.293 HD
ENDBRANCH   8  24
TORSDOF 5
ENDMDL
MODEL 3
REMARK VINA RESULT:    -5.278      1.757      6.934
REMARK INTER + INTRA:          -6.492
REMARK INTER:                  -6.199
REMARK INTRA:                  -0.294
REMARK UNBOUND:                -0.289
REMARK SMILES O=c1c(O)c(-c2ccc(O)cc2)oc2cc(O)cc(O)c12
REMARK SMILES IDX 5 1 3 2 2 3 1 4 21 5 19 6 18 7 16 8 15 9 14 10 13 11 6 12
REMARK SMILES IDX 7 13 8 14 9 15 12 16 11 17 10 18 4 20 20 22 17 24
REMARK H PARENT 10 19 4 21 20 23 17 25
REMARK Flexibility Score: inf
ROOT
ATOM      1  C   UNL     1      -7.670  23.210  -8.948  1.00  0.00     0.180 A 
ATOM      2  C   UNL     1      -8.742  23.416  -8.063  1.00  0.00     0.208 A 
ATOM      3  C   UNL     1      -9.518  24.580  -8.192  1.00  0.00     0.238 A 
ATOM      4  O   UNL     1     -10.441  24.786  -7.363  1.00  0.00    -0.285 OA
ATOM      5  C   UNL     1      -9.222  25.513  -9.215  1.00  0.00     0.111 A 
ATOM      6  C   UNL     1      -9.967  26.706  -9.463  1.00  0.00     0.134 A 
ATOM      7  C   UNL     1      -9.506  27.621 -10.418  1.00  0.00     0.093 A 
ATOM      8  C   UNL     1      -8.367  27.357 -11.177  1.00  0.00     0.123 A 
ATOM      9  C   UNL     1      -7.665  26.167 -10.984  1.00  0.00     0.094 A 
ATOM     10  C   UNL     1      -8.079  25.251 -10.014  1.00  0.00     0.146 A 
ATOM     11  O   UNL     1      -7.378  24.135  -9.855  1.00  0.00    -0.452 OA
ENDROOT
BRANCH   1  12
ATOM     12  C   UNL     1      -6.823  21.997  -8.891  1.00  0.00     0.021 A 
ATOM     13  C   UNL     1      -5.588  22.045  -8.222  1.00  0.00     0.016 A 
ATOM     14  C   UNL     1      -4.763  20.918  -8.175  1.00  0.00     0.047 A 
ATOM     15  C   UNL     1      -5.155  19.732  -8.808  1.00  0.00     0.115 A 
ATOM     16  C   UNL     1      -7.201  20.808  -9.542  1.00  0.00     0.016 A 
ATOM     17  C   UNL     1      -6.372  19.682  -9.493  1.00  0.00     0.047 A 
BRANCH  15  18
ATOM     18  O   UNL     1      -4.341  18.602  -8.768  1.00  0.00    -0.508 OA
ATOM     19  H   UNL     1      -3.339  18.676  -8.637  1.00  0.00     0.293 HD
ENDBRANCH  15  18
ENDBRANCH   1  12
BRANCH   2  20
ATOM     20  O   UNL     1      -9.002  22.493  -7.047  1.00  0.00    -0.502 OA
ATOM     21  H   UNL     1      -9.288  22.774  -6.117  1.00  0.00     0.293 HD
ENDBRANCH   2  20
BRANCH   6  22
ATOM     22  O   UNL     1     -11.169  27.022  -8.825  1.00  0.00    -0.507 OA
ATOM     23  H   UNL     1     -11.962  27.454  -9.275  1.00  0.00     0.293 HD
ENDBRANCH   6  22
BRANCH   8  24
ATOM     24  O   UNL     1      -7.946  28.283 -12.129  1.00  0.00    -0.508 OA
ATOM     25  H   UNL     1      -7.443  27.997 -12.961  1.00  0.00     0.293 HD
ENDBRANCH   8  24
TORSDOF 5
ENDMDL
MODEL 4
REMARK VINA RESULT:    -5.038      1.616      2.288
REMARK INTER + INTRA:          -6.210
REMARK INTER:                  -6.043
REMARK INTRA:                  -0.168
REMARK UNBOUND:                -0.289
REMARK SMILES O=c1c(O)c(-c2ccc(O)cc2)oc2cc(O)cc(O)c12
REMARK SMILES IDX 5 1 3 2 2 3 1 4 21 5 19 6 18 7 16 8 15 9 14 10 13 11 6 12
REMARK SMILES IDX 7 13 8 14 9 15 12 16 11 17 10 18 4 20 20 22 17 24
REMARK H PARENT 10 19 4 21 20 23 17 25
REMARK Flexibility Score: inf
ROOT
ATOM      1  C   UNL     1      -7.985  24.169  -9.684  1.00  0.00     0.180 A 
ATOM      2  C   UNL     1      -8.605  22.908  -9.666  1.00  0.00     0.208 A 
ATOM      3  C   UNL     1      -7.819  21.765  -9.445  1.00  0.00     0.238 A 
ATOM      4  O   UNL     1      -8.370  20.635  -9.484  1.00  0.00    -0.285 OA
ATOM      5  C   UNL     1      -6.427  21.900  -9.228  1.00  0.00     0.111 A 
ATOM      6  C   UNL     1      -5.540  20.814  -8.953  1.00  0.00     0.134 A 
ATOM      7  C   UNL     1      -4.161  21.049  -8.885  1.00  0.00     0.093 A 
ATOM      8  C   UNL     1      -3.643  22.337  -9.014  1.00  0.00     0.123 A 
ATOM      9  C   UNL     1      -4.505  23.414  -9.224  1.00  0.00     0.094 A 
ATOM     10  C   UNL     1      -5.882  23.207  -9.333  1.00  0.00     0.146 A 
ATOM     11  O   UNL     1      -6.667  24.256  -9.541  1.00  0.00    -0.452 OA
ENDROOT
BRANCH   1  12
ATOM     12  C   UNL     1      -8.750  25.421  -9.885  1.00  0.00     0.021 A 
ATOM     13  C   UNL     1      -8.485  26.220 -11.011  1.00  0.00     0.016 A 
ATOM     14  C   UNL     1      -9.180  27.416 -11.209  1.00  0.00     0.047 A 
ATOM     15  C   UNL     1     -10.138  27.837 -10.277  1.00  0.00     0.115 A 
ATOM     16  C   UNL     1      -9.698  25.860  -8.943  1.00  0.00     0.016 A 
ATOM     17  C   UNL     1     -10.392  27.058  -9.145  1.00  0.00     0.047 A 
BRANCH  15  18
ATOM     18  O   UNL     1     -10.837  29.027 -10.464  1.00  0.00    -0.508 OA
ATOM     19  H   UNL     1     -11.551  29.329  -9.811  1.00  0.00     0.293 HD
ENDBRANCH  15  18
ENDBRANCH   1  12
BRANCH   2  20
ATOM     20  O   UNL     1      -9.977  22.796  -9.905  1.00  0.00    -0.502 OA
ATOM     21  H   UNL     1     -10.381  22.924 -10.825  1.00  0.00     0.293 HD
ENDBRANCH   2  20
BRANCH   6  22
ATOM     22  O   UNL     1      -5.962  19.504  -8.716  1.00  0.00    -0.507 OA
ATOM     23  H   UNL     1      -5.893  19.029  -7.828  1.00  0.00     0.293 HD
ENDBRANCH   6  22
BRANCH   8  24
ATOM     24  O   UNL     1      -2.267  22.536  -8.925  1.00  0.00    -0.508 OA
ATOM     25  H   UNL     1      -1.864  23.466  -8.923  1.00  0.00     0.293 HD
ENDBRANCH   8  24
TORSDOF 5
ENDMDL
MODEL 5
REMARK VINA RESULT:    -4.864      2.656      6.730
REMARK INTER + INTRA:          -6.006
REMARK INTER:                  -5.884
REMARK INTRA:                  -0.122
REMARK UNBOUND:                -0.289
REMARK SMILES O=c1c(O)c(-c2ccc(O)cc2)oc2cc(O)cc(O)c12
REMARK SMILES IDX 5 1 3 2 2 3 1 4 21 5 19 6 18 7 16 8 15 9 14 10 13 11 6 12
REMARK SMILES IDX 7 13 8 14 9 15 12 16 11 17 10 18 4 20 20 22 17 24
REMARK H PARENT 10 19 4 21 20 23 17 25
REMARK Flexibility Score: inf
ROOT
ATOM      1  C   UNL     1      -5.848  21.881  -6.606  1.00  0.00     0.180 A 
ATOM      2  C   UNL     1      -6.778  21.785  -5.557  1.00  0.00     0.208 A 
ATOM      3  C   UNL     1      -8.149  21.753  -5.863  1.00  0.00     0.238 A 
ATOM      4  O   UNL     1      -8.979  21.722  -4.918  1.00  0.00    -0.285 OA
ATOM      5  C   UNL     1      -8.569  21.800  -7.214  1.00  0.00     0.111 A 
ATOM      6  C   UNL     1      -9.930  21.732  -7.641  1.00  0.00     0.134 A 
ATOM      7  C   UNL     1     -10.239  21.919  -8.994  1.00  0.00     0.093 A 
ATOM      8  C   UNL     1      -9.234  22.105  -9.943  1.00  0.00     0.123 A 
ATOM      9  C   UNL     1      -7.897  22.114  -9.544  1.00  0.00     0.094 A 
ATOM     10  C   UNL     1      -7.559  21.966  -8.197  1.00  0.00     0.146 A 
ATOM     11  O   UNL     1      -6.277  21.989  -7.858  1.00  0.00    -0.452 OA
ENDROOT
BRANCH   1  12
ATOM     12  C   UNL     1      -4.387  21.896  -6.364  1.00  0.00     0.021 A 
ATOM     13  C   UNL     1      -3.622  22.986  -6.813  1.00  0.00     0.016 A 
ATOM     14  C   UNL     1      -2.238  23.009  -6.615  1.00  0.00     0.047 A 
ATOM     15  C   UNL     1      -1.599  21.937  -5.980  1.00  0.00     0.115 A 
ATOM     16  C   UNL     1      -3.736  20.813  -5.745  1.00  0.00     0.016 A 
ATOM     17  C   UNL     1      -2.351  20.840  -5.549  1.00  0.00     0.047 A 
BRANCH  15  18
ATOM     18  O   UNL     1      -0.222  21.949  -5.777  1.00  0.00    -0.508 OA
ATOM     19  H   UNL     1       0.200  21.484  -4.981  1.00  0.00     0.293 HD
ENDBRANCH  15  18
ENDBRANCH   1  12
BRANCH   2  20
ATOM     20  O   UNL     1      -6.342  21.763  -4.230  1.00  0.00    -0.502 OA
ATOM     21  H   UNL     1      -6.163  22.608  -3.702  1.00  0.00     0.293 HD
ENDBRANCH   2  20
BRANCH   6  22
ATOM     22  O   UNL     1     -11.003  21.460  -6.789  1.00  0.00    -0.507 OA
ATOM     23  H   UNL     1     -11.081  21.790  -5.838  1.00  0.00     0.293 HD
ENDBRANCH   6  22
BRANCH   8  24
ATOM     24  O   UNL     1      -9.577  22.273 -11.283  1.00  0.00    -0.508 OA
ATOM     25  H   UNL     1      -8.871  22.408 -11.998  1.00  0.00     0.293 HD
ENDBRANCH   8  24
TORSDOF 5
ENDMDL
MODEL 6
REMARK VINA RESULT:    -4.827      1.596      6.563
REMARK INTER + INTRA:          -5.962
REMARK INTER:                  -5.940
REMARK INTRA:                  -0.022
REMARK UNBOUND:                -0.289
REMARK SMILES O=c1c(O)c(-c2ccc(O)cc2)oc2cc(O)cc(O)c12
REMARK SMILES IDX 5 1 3 2 2 3 1 4 21 5 19 6 18 7 16 8 15 9 14 10 13 11 6 12
REMARK SMILES IDX 7 13 8 14 9 15 12 16 11 17 10 18 4 20 20 22 17 24
REMARK H PARENT 10 19 4 21 20 23 17 25
REMARK Flexibility Score: inf
ROOT
ATOM      1  C   UNL     1      -7.219  22.363  -8.400  1.00  0.00     0.180 A 
ATOM      2  C   UNL     1      -8.589  22.051  -8.438  1.00  0.00     0.208 A 
ATOM      3  C   UNL     1      -9.521  23.094  -8.565  1.00  0.00     0.238 A 
ATOM      4  O   UNL     1     -10.747  22.814  -8.544  1.00  0.00    -0.285 OA
ATOM      5  C   UNL     1      -9.071  24.431  -8.670  1.00  0.00     0.111 A 
ATOM      6  C   UNL     1      -9.925  25.563  -8.844  1.00  0.00     0.134 A 
ATOM      7  C   UNL     1      -9.381  26.852  -8.804  1.00  0.00     0.093 A 
ATOM      8  C   UNL     1      -8.008  27.050  -8.663  1.00  0.00     0.123 A 
ATOM      9  C   UNL     1      -7.156  25.949  -8.552  1.00  0.00     0.094 A 
ATOM     10  C   UNL     1      -7.674  24.652  -8.552  1.00  0.00     0.146 A 
ATOM     11  O   UNL     1      -6.832  23.633  -8.435  1.00  0.00    -0.452 OA
ENDROOT
BRANCH   1  12
ATOM     12  C   UNL     1      -6.176  21.318  -8.293  1.00  0.00     0.021 A 
ATOM     13  C   UNL     1      -6.147  20.269  -9.229  1.00  0.00     0.016 A 
ATOM     14  C   UNL     1      -5.184  19.260  -9.133  1.00  0.00     0.047 A 
ATOM     15  C   UNL     1      -4.247  19.278  -8.092  1.00  0.00     0.115 A 
ATOM     16  C   UNL     1      -5.244  21.317  -7.239  1.00  0.00     0.016 A 
ATOM     17  C   UNL     1      -4.282  20.306  -7.146  1.00  0.00     0.047 A 
BRANCH  15  18
ATOM     18  O   UNL     1      -3.283  18.278  -7.987  1.00  0.00    -0.508 OA
ATOM     19  H   UNL     1      -2.619  18.262  -7.221  1.00  0.00     0.293 HD
ENDBRANCH  15  18
ENDBRANCH   1  12
BRANCH   2  20
ATOM     20  O   UNL     1      -9.012  20.725  -8.311  1.00  0.00    -0.502 OA
ATOM     21  H   UNL     1      -9.989  20.461  -8.344  1.00  0.00     0.293 HD
ENDBRANCH   2  20
BRANCH   6  22
ATOM     22  O   UNL     1     -11.299  25.473  -9.083  1.00  0.00    -0.507 OA
ATOM     23  H   UNL     1     -12.016  25.649  -8.394  1.00  0.00     0.293 HD
ENDBRANCH   6  22
BRANCH   8  24
ATOM     24  O   UNL     1      -7.498  28.346  -8.644  1.00  0.00    -0.508 OA
ATOM     25  H   UNL     1      -7.097  28.771  -9.471  1.00  0.00     0.293 HD
ENDBRANCH   8  24
TORSDOF 5
ENDMDL
MODEL 7
REMARK VINA RESULT:    -4.788      1.593      2.316
REMARK INTER + INTRA:          -5.916
REMARK INTER:                  -5.630
REMARK INTRA:                  -0.287
REMARK UNBOUND:                -0.289
REMARK SMILES O=c1c(O)c(-c2ccc(O)cc2)oc2cc(O)cc(O)c12
REMARK SMILES IDX 5 1 3 2 2 3 1 4 21 5 19 6 18 7 16 8 15 9 14 10 13 11 6 12
REMARK SMILES IDX 7 13 8 14 9 15 12 16 11 17 10 18 4 20 20 22 17 24
REMARK H PARENT 10 19 4 21 20 23 17 25
REMARK Flexibility Score: inf
ROOT
ATOM      1  C   UNL     1      -8.545  24.100  -8.375  1.00  0.00     0.180 A 
ATOM      2  C   UNL     1      -9.315  23.037  -8.875  1.00  0.00     0.208 A 
ATOM      3  C   UNL     1      -8.683  21.819  -9.175  1.00  0.00     0.238 A 
ATOM      4  O   UNL     1      -9.368  20.889  -9.673  1.00  0.00    -0.285 OA
ATOM      5  C   UNL     1      -7.292  21.675  -8.955  1.00  0.00     0.111 A 
ATOM      6  C   UNL     1      -6.555  20.474  -9.184  1.00  0.00     0.134 A 
ATOM      7  C   UNL     1      -5.161  20.484  -9.056  1.00  0.00     0.093 A 
ATOM      8  C   UNL     1      -4.484  21.631  -8.644  1.00  0.00     0.123 A 
ATOM      9  C   UNL     1      -5.200  22.795  -8.359  1.00  0.00     0.094 A 
ATOM     10  C   UNL     1      -6.588  22.826  -8.513  1.00  0.00     0.146 A 
ATOM     11  O   UNL     1      -7.231  23.955  -8.241  1.00  0.00    -0.452 OA
ENDROOT
BRANCH   1  12
ATOM     12  C   UNL     1      -9.143  25.405  -8.012  1.00  0.00     0.021 A 
ATOM     13  C   UNL     1      -9.603  25.615  -6.701  1.00  0.00     0.016 A 
ATOM     14  C   UNL     1     -10.192  26.831  -6.343  1.00  0.00     0.047 A 
ATOM     15  C   UNL     1     -10.341  27.848  -7.295  1.00  0.00     0.115 A 
ATOM     16  C   UNL     1      -9.315  26.424  -8.968  1.00  0.00     0.016 A 
ATOM     17  C   UNL     1      -9.904  27.639  -8.606  1.00  0.00     0.047 A 
BRANCH  15  18
ATOM     18  O   UNL     1     -10.925  29.065  -6.950  1.00  0.00    -0.508 OA
ATOM     19  H   UNL     1     -11.658  29.121  -6.253  1.00  0.00     0.293 HD
ENDBRANCH  15  18
ENDBRANCH   1  12
BRANCH   2  20
ATOM     20  O   UNL     1     -10.683  23.208  -9.106  1.00  0.00    -0.502 OA
ATOM     21  H   UNL     1     -11.342  22.440  -9.062  1.00  0.00     0.293 HD
ENDBRANCH   2  20
BRANCH   6  22
ATOM     22  O   UNL     1      -7.143  19.249  -9.511  1.00  0.00    -0.507 OA
ATOM     23  H   UNL     1      -8.129  19.110  -9.676  1.00  0.00     0.293 HD
ENDBRANCH   6  22
BRANCH   8  24
ATOM     24  O   UNL     1      -3.097  21.601  -8.512  1.00  0.00    -0.508 OA
ATOM     25  H   UNL     1      -2.599  22.310  -7.988  1.00  0.00     0.293 HD
ENDBRANCH   8  24
TORSDOF 5
ENDMDL
MODEL 8
REMARK VINA RESULT:    -4.787      1.988      7.059
REMARK INTER + INTRA:          -5.915
REMARK INTER:                  -5.797
REMARK INTRA:                  -0.118
REMARK UNBOUND:                -0.289
REMARK SMILES O=c1c(O)c(-c2ccc(O)cc2)oc2cc(O)cc(O)c12
REMARK SMILES IDX 5 1 3 2 2 3 1 4 21 5 19 6 18 7 16 8 15 9 14 10 13 11 6 12
REMARK SMILES IDX 7 13 8 14 9 15 12 16 11 17 10 18 4 20 20 22 17 24
REMARK H PARENT 10 19 4 21 20 23 17 25
REMARK Flexibility Score: inf
ROOT
ATOM      1  C   UNL     1      -6.017  23.382  -9.120  1.00  0.00     0.180 A 
ATOM      2  C   UNL     1      -5.195  24.428  -9.575  1.00  0.00     0.208 A 
ATOM      3  C   UNL     1      -5.763  25.692  -9.803  1.00  0.00     0.238 A 
ATOM      4  O   UNL     1      -5.034  26.608 -10.262  1.00  0.00    -0.285 OA
ATOM      5  C   UNL     1      -7.142  25.898  -9.558  1.00  0.00     0.111 A 
ATOM      6  C   UNL     1      -7.815  27.148  -9.716  1.00  0.00     0.134 A 
ATOM      7  C   UNL     1      -9.206  27.206  -9.571  1.00  0.00     0.093 A 
ATOM      8  C   UNL     1      -9.941  26.077  -9.210  1.00  0.00     0.123 A 
ATOM      9  C   UNL     1      -9.285  24.863  -8.995  1.00  0.00     0.094 A 
ATOM     10  C   UNL     1      -7.903  24.765  -9.167  1.00  0.00     0.146 A 
ATOM     11  O   UNL     1      -7.319  23.591  -8.962  1.00  0.00    -0.452 OA
ENDROOT
BRANCH   1  12
ATOM     12  C   UNL     1      -5.487  22.030  -8.833  1.00  0.00     0.021 A 
ATOM     13  C   UNL     1      -6.021  20.919  -9.509  1.00  0.00     0.016 A 
ATOM     14  C   UNL     1      -5.550  19.632  -9.236  1.00  0.00     0.047 A 
ATOM     15  C   UNL     1      -4.551  19.436  -8.275  1.00  0.00     0.115 A 
ATOM     16  C   UNL     1      -4.497  21.824  -7.854  1.00  0.00     0.016 A 
ATOM     17  C   UNL     1      -4.029  20.533  -7.585  1.00  0.00     0.047 A 
BRANCH  15  18
ATOM     18  O   UNL     1      -4.073  18.157  -7.996  1.00  0.00    -0.508 OA
ATOM     19  H   UNL     1      -3.181  18.014  -7.537  1.00  0.00     0.293 HD
ENDBRANCH  15  18
ENDBRANCH   1  12
BRANCH   2  20
ATOM     20  O   UNL     1      -3.841  24.196  -9.831  1.00  0.00    -0.502 OA
ATOM     21  H   UNL     1      -3.476  23.272 -10.032  1.00  0.00     0.293 HD
ENDBRANCH   2  20
BRANCH   6  22
ATOM     22  O   UNL     1      -7.165  28.355  -9.987  1.00  0.00    -0.507 OA
ATOM     23  H   UNL     1      -7.522  29.267  -9.745  1.00  0.00     0.293 HD
ENDBRANCH   6  22
BRANCH   8  24
ATOM     24  O   UNL     1     -11.322  26.174  -9.059  1.00  0.00    -0.508 OA
ATOM     25  H   UNL     1     -11.936  26.295  -9.856  1.00  0.00     0.293 HD
ENDBRANCH   8  24
TORSDOF 5
ENDMDL
MODEL 9
REMARK VINA RESULT:    -4.749      2.649      6.482
REMARK INTER + INTRA:          -5.870
REMARK INTER:                  -5.585
REMARK INTRA:                  -0.285
REMARK UNBOUND:                -0.289
REMARK SMILES O=c1c(O)c(-c2ccc(O)cc2)oc2cc(O)cc(O)c12
REMARK SMILES IDX 5 1 3 2 2 3 1 4 21 5 19 6 18 7 16 8 15 9 14 10 13 11 6 12
REMARK SMILES IDX 7 13 8 14 9 15 12 16 11 17 10 18 4 20 20 22 17 24
REMARK H PARENT 10 19 4 21 20 23 17 25
REMARK Flexibility Score: inf
ROOT
ATOM      1  C   UNL     1      -4.963  22.054  -7.493  1.00  0.00     0.180 A 
ATOM      2  C   UNL     1      -4.879  22.183  -8.890  1.00  0.00     0.208 A 
ATOM      3  C   UNL     1      -6.062  22.181  -9.647  1.00  0.00     0.238 A 
ATOM      4  O   UNL     1      -5.977  22.242 -10.901  1.00  0.00    -0.285 OA
ATOM      5  C   UNL     1      -7.313  22.066  -8.996  1.00  0.00     0.111 A 
ATOM      6  C   UNL     1      -8.577  22.094  -9.660  1.00  0.00     0.134 A 
ATOM      7  C   UNL     1      -9.746  21.841  -8.931  1.00  0.00     0.093 A 
ATOM      8  C   UNL     1      -9.703  21.627  -7.553  1.00  0.00     0.123 A 
ATOM      9  C   UNL     1      -8.478  21.657  -6.885  1.00  0.00     0.094 A 
ATOM     10  C   UNL     1      -7.293  21.871  -7.590  1.00  0.00     0.146 A 
ATOM     11  O   UNL     1      -6.148  21.883  -6.919  1.00  0.00    -0.452 OA
ENDROOT
BRANCH   1  12
ATOM     12  C   UNL     1      -3.763  22.073  -6.626  1.00  0.00     0.021 A 
ATOM     13  C   UNL     1      -3.241  20.862  -6.139  1.00  0.00     0.016 A 
ATOM     14  C   UNL     1      -2.123  20.859  -5.301  1.00  0.00     0.047 A 
ATOM     15  C   UNL     1      -1.519  22.066  -4.927  1.00  0.00     0.115 A 
ATOM     16  C   UNL     1      -3.164  23.283  -6.230  1.00  0.00     0.016 A 
ATOM     17  C   UNL     1      -2.044  23.275  -5.391  1.00  0.00     0.047 A 
BRANCH  15  18
ATOM     18  O   UNL     1      -0.404  22.076  -4.093  1.00  0.00    -0.508 OA
ATOM     19  H   UNL     1       0.516  21.825  -4.437  1.00  0.00     0.293 HD
ENDBRANCH  15  18
ENDBRANCH   1  12
BRANCH   2  20
ATOM     20  O   UNL     1      -3.631  22.273  -9.514  1.00  0.00    -0.502 OA
ATOM     21  H   UNL     1      -3.225  23.158  -9.792  1.00  0.00     0.293 HD
ENDBRANCH   2  20
BRANCH   6  22
ATOM     22  O   UNL     1      -8.740  22.389 -11.016  1.00  0.00    -0.507 OA
ATOM     23  H   UNL     1      -8.266  23.134 -11.503  1.00  0.00     0.293 HD
ENDBRANCH   6  22
BRANCH   8  24
ATOM     24  O   UNL     1     -10.887  21.394  -6.857  1.00  0.00    -0.508 OA
ATOM     25  H   UNL     1     -10.883  21.090  -5.891  1.00  0.00     0.293 HD
ENDBRANCH   8  24
TORSDOF 5
ENDMDL
