MODEL 1
REMARK VINA RESULT:    -3.431      0.000      0.000
REMARK INTER + INTRA:          -8.947
REMARK INTER:                  -6.238
REMARK INTRA:                  -2.709
REMARK UNBOUND:                -2.709
REMARK SMILES CCCCCCCCCCCCCC[C@H](C)C(=O)[O-]
REMARK SMILES IDX 9 1 10 2 11 3 12 4 13 5 14 6 15 7 16 8 17 9 18 10 19 11 8 12
REMARK SMILES IDX 7 13 6 14 5 15 4 16 3 17 2 18 1 19
REMARK H PARENT
REMARK Flexibility Score: inf
ROOT
ATOM      1  C   UNL     1      35.884 -43.692  -0.872  1.00  0.00     0.000 C 
ENDROOT
BRANCH   1   2
ATOM      2  C   UNL     1      34.881 -43.115   0.137  1.00  0.00     0.000 C 
BRANCH   2   3
ATOM      3  C   UNL     1      33.440 -43.479  -0.254  1.00  0.00     0.000 C 
BRANCH   3   4
ATOM      4  C   UNL     1      32.682 -44.198   0.872  1.00  0.00     0.000 C 
BRANCH   4   5
ATOM      5  C   UNL     1      33.585 -44.547   2.068  1.00  0.00     0.001 C 
BRANCH   5   6
ATOM      6  C   UNL     1      33.878 -46.059   2.171  1.00  0.00     0.009 C 
BRANCH   6   7
ATOM      7  C   UNL     1      35.136 -46.389   3.007  1.00  0.00     0.032 C 
ATOM      8  C   UNL     1      36.404 -45.918   2.284  1.00  0.00     0.014 C 
BRANCH   7   9
ATOM      9  C   UNL     1      35.237 -47.859   3.309  1.00  0.00     0.044 C 
ATOM     10  O   UNL     1      36.039 -48.280   4.185  1.00  0.00    -0.550 OA
ATOM     11  O   UNL     1      34.451 -48.765   2.608  1.00  0.00    -0.550 OA
ENDBRANCH   7   9
ENDBRANCH   6   7
ENDBRANCH   5   6
ENDBRANCH   4   5
ENDBRANCH   3   4
ENDBRANCH   2   3
ENDBRANCH   1   2
BRANCH   1  12
ATOM     12  C   UNL     1      35.207 -44.496  -1.994  1.00  0.00     0.000 C 
BRANCH  12  13
ATOM     13  C   UNL     1      35.664 -45.965  -2.026  1.00  0.00    -0.000 C 
BRANCH  13  14
ATOM     14  C   UNL     1      34.852 -46.866  -1.078  1.00  0.00    -0.000 C 
BRANCH  14  15
ATOM     15  C   UNL     1      33.368 -47.041  -1.450  1.00  0.00    -0.000 C 
BRANCH  15  16
ATOM     16  C   UNL     1      33.165 -47.526  -2.893  1.00  0.00    -0.000 C 
BRANCH  16  17
ATOM     17  C   UNL     1      32.385 -46.494  -3.715  1.00  0.00    -0.000 C 
BRANCH  17  18
ATOM     18  C   UNL     1      31.376 -45.741  -2.840  1.00  0.00    -0.003 C 
ATOM     19  C   UNL     1      31.433 -44.238  -3.101  1.00  0.00     0.004 C 
ENDBRANCH  17  18
ENDBRANCH  16  17
ENDBRANCH  15  16
ENDBRANCH  14  15
ENDBRANCH  13  14
ENDBRANCH  12  13
ENDBRANCH   1  12
TORSDOF 14
ENDMDL
MODEL 2
REMARK VINA RESULT:    -3.399      1.748      4.613
REMARK INTER + INTRA:          -8.889
REMARK INTER:                  -6.304
REMARK INTRA:                  -2.585
REMARK UNBOUND:                -2.709
REMARK SMILES CCCCCCCCCCCCCC[C@H](C)C(=O)[O-]
REMARK SMILES IDX 9 1 10 2 11 3 12 4 13 5 14 6 15 7 16 8 17 9 18 10 19 11 8 12
REMARK SMILES IDX 7 13 6 14 5 15 4 16 3 17 2 18 1 19
REMARK H PARENT
REMARK Flexibility Score: inf
ROOT
ATOM      1  C   UNL     1      36.562 -43.945  -1.589  1.00  0.00     0.000 C 
ENDROOT
BRANCH   1   2
ATOM      2  C   UNL     1      35.900 -45.304  -1.319  1.00  0.00     0.000 C 
BRANCH   2   3
ATOM      3  C   UNL     1      34.675 -45.507  -2.224  1.00  0.00     0.000 C 
BRANCH   3   4
ATOM      4  C   UNL     1      33.420 -45.925  -1.442  1.00  0.00     0.000 C 
BRANCH   4   5
ATOM      5  C   UNL     1      33.325 -47.448  -1.242  1.00  0.00     0.001 C 
BRANCH   5   6
ATOM      6  C   UNL     1      33.014 -47.838   0.219  1.00  0.00     0.009 C 
BRANCH   6   7
ATOM      7  C   UNL     1      34.127 -48.681   0.883  1.00  0.00     0.032 C 
ATOM      8  C   UNL     1      35.261 -48.958  -0.111  1.00  0.00     0.014 C 
BRANCH   7   9
ATOM      9  C   UNL     1      33.596 -49.978   1.427  1.00  0.00     0.044 C 
ATOM     10  O   UNL     1      34.309 -50.701   2.172  1.00  0.00    -0.550 OA
ATOM     11  O   UNL     1      32.312 -50.394   1.095  1.00  0.00    -0.550 OA
ENDBRANCH   7   9
ENDBRANCH   6   7
ENDBRANCH   5   6
ENDBRANCH   4   5
ENDBRANCH   3   4
ENDBRANCH   2   3
ENDBRANCH   1   2
BRANCH   1  12
ATOM     12  C   UNL     1      36.594 -43.040  -0.347  1.00  0.00     0.000 C 
BRANCH  12  13
ATOM     13  C   UNL     1      35.190 -42.765   0.220  1.00  0.00    -0.000 C 
BRANCH  13  14
ATOM     14  C   UNL     1      35.033 -43.229   1.680  1.00  0.00    -0.000 C 
BRANCH  14  15
ATOM     15  C   UNL     1      34.022 -44.369   1.899  1.00  0.00    -0.000 C 
BRANCH  15  16
ATOM     16  C   UNL     1      34.619 -45.562   2.659  1.00  0.00    -0.000 C 
BRANCH  16  17
ATOM     17  C   UNL     1      36.085 -45.786   2.267  1.00  0.00    -0.000 C 
BRANCH  17  18
ATOM     18  C   UNL     1      36.642 -47.056   2.920  1.00  0.00    -0.003 C 
ATOM     19  C   UNL     1      35.628 -47.672   3.881  1.00  0.00     0.004 C 
ENDBRANCH  17  18
ENDBRANCH  16  17
ENDBRANCH  15  16
ENDBRANCH  14  15
ENDBRANCH  13  14
ENDBRANCH  12  13
ENDBRANCH   1  12
TORSDOF 14
ENDMDL
MODEL 3
REMARK VINA RESULT:    -3.361      2.707      5.414
REMARK INTER + INTRA:          -8.820
REMARK INTER:                  -6.889
REMARK INTRA:                  -1.932
REMARK UNBOUND:                -2.709
REMARK SMILES CCCCCCCCCCCCCC[C@H](C)C(=O)[O-]
REMARK SMILES IDX 9 1 10 2 11 3 12 4 13 5 14 6 15 7 16 8 17 9 18 10 19 11 8 12
REMARK SMILES IDX 7 13 6 14 5 15 4 16 3 17 2 18 1 19
REMARK H PARENT
REMARK Flexibility Score: inf
ROOT
ATOM      1  C   UNL     1      34.768 -45.753   2.968  1.00  0.00     0.000 C 
ENDROOT
BRANCH   1   2
ATOM      2  C   UNL     1      34.053 -44.493   2.460  1.00  0.00     0.000 C 
BRANCH   2   3
ATOM      3  C   UNL     1      32.763 -44.859   1.710  1.00  0.00     0.000 C 
BRANCH   3   4
ATOM      4  C   UNL     1      32.570 -44.041   0.424  1.00  0.00     0.000 C 
BRANCH   4   5
ATOM      5  C   UNL     1      33.853 -43.949  -0.420  1.00  0.00     0.001 C 
BRANCH   5   6
ATOM      6  C   UNL     1      34.133 -45.239  -1.220  1.00  0.00     0.009 C 
BRANCH   6   7
ATOM      7  C   UNL     1      33.490 -45.246  -2.626  1.00  0.00     0.032 C 
ATOM      8  C   UNL     1      33.187 -43.816  -3.088  1.00  0.00     0.014 C 
BRANCH   7   9
ATOM      9  C   UNL     1      32.233 -46.071  -2.662  1.00  0.00     0.044 C 
ATOM     10  O   UNL     1      32.290 -47.329  -2.618  1.00  0.00    -0.550 OA
ATOM     11  O   UNL     1      30.997 -45.445  -2.760  1.00  0.00    -0.550 OA
ENDBRANCH   7   9
ENDBRANCH   6   7
ENDBRANCH   5   6
ENDBRANCH   4   5
ENDBRANCH   3   4
ENDBRANCH   2   3
ENDBRANCH   1   2
BRANCH   1  12
ATOM     12  C   UNL     1      36.124 -45.987   2.282  1.00  0.00     0.000 C 
BRANCH  12  13
ATOM     13  C   UNL     1      36.802 -47.289   2.743  1.00  0.00    -0.000 C 
BRANCH  13  14
ATOM     14  C   UNL     1      36.009 -48.021   3.841  1.00  0.00    -0.000 C 
BRANCH  14  15
ATOM     15  C   UNL     1      35.691 -49.498   3.544  1.00  0.00    -0.000 C 
BRANCH  15  16
ATOM     16  C   UNL     1      35.279 -49.742   2.085  1.00  0.00    -0.000 C 
BRANCH  16  17
ATOM     17  C   UNL     1      33.904 -50.417   2.007  1.00  0.00    -0.000 C 
BRANCH  17  18
ATOM     18  C   UNL     1      33.048 -49.794   0.899  1.00  0.00    -0.003 C 
ATOM     19  C   UNL     1      33.436 -48.339   0.653  1.00  0.00     0.004 C 
ENDBRANCH  17  18
ENDBRANCH  16  17
ENDBRANCH  15  16
ENDBRANCH  14  15
ENDBRANCH  13  14
ENDBRANCH  12  13
ENDBRANCH   1  12
TORSDOF 14
ENDMDL
MODEL 4
REMARK VINA RESULT:    -3.339      2.840      5.634
REMARK INTER + INTRA:          -8.780
REMARK INTER:                  -6.603
REMARK INTRA:                  -2.177
REMARK UNBOUND:                -2.709
REMARK SMILES CCCCCCCCCCCCCC[C@H](C)C(=O)[O-]
REMARK SMILES IDX 9 1 10 2 11 3 12 4 13 5 14 6 15 7 16 8 17 9 18 10 19 11 8 12
REMARK SMILES IDX 7 13 6 14 5 15 4 16 3 17 2 18 1 19
REMARK H PARENT
REMARK Flexibility Score: inf
ROOT
ATOM      1  C   UNL     1      35.261 -48.467   3.264  1.00  0.00     0.000 C 
ENDROOT
BRANCH   1   2
ATOM      2  C   UNL     1      35.343 -49.287   1.968  1.00  0.00     0.000 C 
BRANCH   2   3
ATOM      3  C   UNL     1      34.005 -49.981   1.673  1.00  0.00     0.000 C 
BRANCH   3   4
ATOM      4  C   UNL     1      33.137 -49.200   0.674  1.00  0.00     0.000 C 
BRANCH   4   5
ATOM      5  C   UNL     1      33.923 -48.751  -0.571  1.00  0.00     0.001 C 
BRANCH   5   6
ATOM      6  C   UNL     1      33.181 -47.668  -1.384  1.00  0.00     0.009 C 
BRANCH   6   7
ATOM      7  C   UNL     1      33.427 -47.761  -2.907  1.00  0.00     0.032 C 
ATOM      8  C   UNL     1      32.611 -46.698  -3.652  1.00  0.00     0.014 C 
BRANCH   7   9
ATOM      9  C   UNL     1      33.098 -49.127  -3.444  1.00  0.00     0.044 C 
ATOM     10  O   UNL     1      33.967 -49.802  -4.057  1.00  0.00    -0.550 OA
ATOM     11  O   UNL     1      31.820 -49.646  -3.277  1.00  0.00    -0.550 OA
ENDBRANCH   7   9
ENDBRANCH   6   7
ENDBRANCH   5   6
ENDBRANCH   4   5
ENDBRANCH   3   4
ENDBRANCH   2   3
ENDBRANCH   1   2
BRANCH   1  12
ATOM     12  C   UNL     1      36.186 -47.239   3.253  1.00  0.00     0.000 C 
BRANCH  12  13
ATOM     13  C   UNL     1      36.206 -46.528   1.888  1.00  0.00    -0.000 C 
BRANCH  13  14
ATOM     14  C   UNL     1      35.493 -45.164   1.914  1.00  0.00    -0.000 C 
BRANCH  14  15
ATOM     15  C   UNL     1      34.044 -45.192   2.432  1.00  0.00    -0.000 C 
BRANCH  15  16
ATOM     16  C   UNL     1      33.009 -45.374   1.311  1.00  0.00    -0.000 C 
BRANCH  16  17
ATOM     17  C   UNL     1      32.552 -44.018   0.760  1.00  0.00    -0.000 C 
BRANCH  17  18
ATOM     18  C   UNL     1      32.586 -44.008  -0.773  1.00  0.00    -0.003 C 
ATOM     19  C   UNL     1      34.020 -44.037  -1.294  1.00  0.00     0.004 C 
ENDBRANCH  17  18
ENDBRANCH  16  17
ENDBRANCH  15  16
ENDBRANCH  14  15
ENDBRANCH  13  14
ENDBRANCH  12  13
ENDBRANCH   1  12
TORSDOF 14
ENDMDL
MODEL 5
REMARK VINA RESULT:    -3.338      2.721      5.167
REMARK INTER + INTRA:          -8.778
REMARK INTER:                  -6.485
REMARK INTRA:                  -2.293
REMARK UNBOUND:                -2.709
REMARK SMILES CCCCCCCCCCCCCC[C@H](C)C(=O)[O-]
REMARK SMILES IDX 9 1 10 2 11 3 12 4 13 5 14 6 15 7 16 8 17 9 18 10 19 11 8 12
REMARK SMILES IDX 7 13 6 14 5 15 4 16 3 17 2 18 1 19
REMARK H PARENT
REMARK Flexibility Score: inf
ROOT
ATOM      1  C   UNL     1      36.790 -47.106   2.489  1.00  0.00     0.000 C 
ENDROOT
BRANCH   1   2
ATOM      2  C   UNL     1      35.992 -47.744   3.635  1.00  0.00     0.000 C 
BRANCH   2   3
ATOM      3  C   UNL     1      35.616 -49.195   3.300  1.00  0.00     0.000 C 
BRANCH   3   4
ATOM      4  C   UNL     1      34.360 -49.296   2.419  1.00  0.00     0.000 C 
BRANCH   4   5
ATOM      5  C   UNL     1      34.691 -49.577   0.943  1.00  0.00     0.001 C 
BRANCH   5   6
ATOM      6  C   UNL     1      33.610 -49.042  -0.021  1.00  0.00     0.009 C 
BRANCH   6   7
ATOM      7  C   UNL     1      34.133 -48.780  -1.451  1.00  0.00     0.032 C 
ATOM      8  C   UNL     1      35.109 -47.597  -1.462  1.00  0.00     0.014 C 
BRANCH   7   9
ATOM      9  C   UNL     1      33.010 -48.524  -2.419  1.00  0.00     0.044 C 
ATOM     10  O   UNL     1      32.282 -49.470  -2.820  1.00  0.00    -0.550 OA
ATOM     11  O   UNL     1      32.781 -47.237  -2.887  1.00  0.00    -0.550 OA
ENDBRANCH   7   9
ENDBRANCH   6   7
ENDBRANCH   5   6
ENDBRANCH   4   5
ENDBRANCH   3   4
ENDBRANCH   2   3
ENDBRANCH   1   2
BRANCH   1  12
ATOM     12  C   UNL     1      36.051 -45.930   1.830  1.00  0.00     0.000 C 
BRANCH  12  13
ATOM     13  C   UNL     1      34.718 -45.605   2.527  1.00  0.00    -0.000 C 
BRANCH  13  14
ATOM     14  C   UNL     1      33.502 -45.758   1.595  1.00  0.00    -0.000 C 
BRANCH  14  15
ATOM     15  C   UNL     1      32.507 -44.583   1.619  1.00  0.00    -0.000 C 
BRANCH  15  16
ATOM     16  C   UNL     1      32.419 -43.843   0.277  1.00  0.00    -0.000 C 
BRANCH  16  17
ATOM     17  C   UNL     1      33.325 -44.499  -0.773  1.00  0.00    -0.000 C 
BRANCH  17  18
ATOM     18  C   UNL     1      34.396 -43.518  -1.265  1.00  0.00    -0.003 C 
ATOM     19  C   UNL     1      34.797 -42.542  -0.163  1.00  0.00     0.004 C 
ENDBRANCH  17  18
ENDBRANCH  16  17
ENDBRANCH  15  16
ENDBRANCH  14  15
ENDBRANCH  13  14
ENDBRANCH  12  13
ENDBRANCH   1  12
TORSDOF 14
ENDMDL
MODEL 6
REMARK VINA RESULT:    -3.312      3.534      6.350
REMARK INTER + INTRA:          -8.731
REMARK INTER:                  -6.044
REMARK INTRA:                  -2.687
REMARK UNBOUND:                -2.709
REMARK SMILES CCCCCCCCCCCCCC[C@H](C)C(=O)[O-]
REMARK SMILES IDX 9 1 10 2 11 3 12 4 13 5 14 6 15 7 16 8 17 9 18 10 19 11 8 12
REMARK SMILES IDX 7 13 6 14 5 15 4 16 3 17 2 18 1 19
REMARK H PARENT
REMARK Flexibility Score: inf
ROOT
ATOM      1  C   UNL     1      35.914 -45.129  -1.118  1.00  0.00     0.000 C 
ENDROOT
BRANCH   1   2
ATOM      2  C   UNL     1      35.612 -46.632  -1.025  1.00  0.00     0.000 C 
BRANCH   2   3
ATOM      3  C   UNL     1      34.774 -47.097  -2.225  1.00  0.00     0.000 C 
BRANCH   3   4
ATOM      4  C   UNL     1      33.386 -47.617  -1.817  1.00  0.00     0.000 C 
BRANCH   4   5
ATOM      5  C   UNL     1      32.345 -47.474  -2.940  1.00  0.00     0.001 C 
BRANCH   5   6
ATOM      6  C   UNL     1      31.812 -46.032  -3.078  1.00  0.00     0.009 C 
BRANCH   6   7
ATOM      7  C   UNL     1      31.676 -45.561  -4.544  1.00  0.00     0.032 C 
ATOM      8  C   UNL     1      33.055 -45.446  -5.204  1.00  0.00     0.014 C 
BRANCH   7   9
ATOM      9  C   UNL     1      30.951 -44.247  -4.644  1.00  0.00     0.044 C 
ATOM     10  O   UNL     1      31.592 -43.168  -4.752  1.00  0.00    -0.550 OA
ATOM     11  O   UNL     1      29.563 -44.217  -4.602  1.00  0.00    -0.550 OA
ENDBRANCH   7   9
ENDBRANCH   6   7
ENDBRANCH   5   6
ENDBRANCH   4   5
ENDBRANCH   3   4
ENDBRANCH   2   3
ENDBRANCH   1   2
BRANCH   1  12
ATOM     12  C   UNL     1      35.128 -44.431  -2.239  1.00  0.00     0.000 C 
BRANCH  12  13
ATOM     13  C   UNL     1      34.068 -43.455  -1.699  1.00  0.00    -0.000 C 
BRANCH  13  14
ATOM     14  C   UNL     1      33.967 -43.472  -0.162  1.00  0.00    -0.000 C 
BRANCH  14  15
ATOM     15  C   UNL     1      32.711 -44.159   0.404  1.00  0.00    -0.000 C 
BRANCH  15  16
ATOM     16  C   UNL     1      33.038 -45.356   1.309  1.00  0.00    -0.000 C 
BRANCH  16  17
ATOM     17  C   UNL     1      34.092 -44.981   2.358  1.00  0.00    -0.000 C 
BRANCH  17  18
ATOM     18  C   UNL     1      34.859 -46.219   2.835  1.00  0.00    -0.003 C 
ATOM     19  C   UNL     1      34.279 -47.494   2.230  1.00  0.00     0.004 C 
ENDBRANCH  17  18
ENDBRANCH  16  17
ENDBRANCH  15  16
ENDBRANCH  14  15
ENDBRANCH  13  14
ENDBRANCH  12  13
ENDBRANCH   1  12
TORSDOF 14
ENDMDL
MODEL 7
REMARK VINA RESULT:    -3.291      4.077      6.918
REMARK INTER + INTRA:          -8.693
REMARK INTER:                  -6.473
REMARK INTRA:                  -2.220
REMARK UNBOUND:                -2.709
REMARK SMILES CCCCCCCCCCCCCC[C@H](C)C(=O)[O-]
REMARK SMILES IDX 9 1 10 2 11 3 12 4 13 5 14 6 15 7 16 8 17 9 18 10 19 11 8 12
REMARK SMILES IDX 7 13 6 14 5 15 4 16 3 17 2 18 1 19
REMARK H PARENT
REMARK Flexibility Score: inf
ROOT
ATOM      1  C   UNL     1      33.198 -41.275  -5.924  1.00  0.00     0.000 C 
ENDROOT
BRANCH   1   2
ATOM      2  C   UNL     1      33.873 -42.521  -6.517  1.00  0.00     0.000 C 
BRANCH   2   3
ATOM      3  C   UNL     1      33.981 -43.638  -5.467  1.00  0.00     0.000 C 
BRANCH   3   4
ATOM      4  C   UNL     1      32.932 -44.743  -5.664  1.00  0.00     0.000 C 
BRANCH   4   5
ATOM      5  C   UNL     1      31.599 -44.428  -4.963  1.00  0.00     0.001 C 
BRANCH   5   6
ATOM      6  C   UNL     1      31.014 -45.650  -4.222  1.00  0.00     0.009 C 
BRANCH   6   7
ATOM      7  C   UNL     1      31.345 -45.674  -2.712  1.00  0.00     0.032 C 
ATOM      8  C   UNL     1      31.731 -44.274  -2.222  1.00  0.00     0.014 C 
BRANCH   7   9
ATOM      9  C   UNL     1      32.447 -46.647  -2.397  1.00  0.00     0.044 C 
ATOM     10  O   UNL     1      32.869 -46.777  -1.217  1.00  0.00    -0.550 OA
ATOM     11  O   UNL     1      33.017 -47.401  -3.415  1.00  0.00    -0.550 OA
ENDBRANCH   7   9
ENDBRANCH   6   7
ENDBRANCH   5   6
ENDBRANCH   4   5
ENDBRANCH   3   4
ENDBRANCH   2   3
ENDBRANCH   1   2
BRANCH   1  12
ATOM     12  C   UNL     1      31.853 -40.949  -6.594  1.00  0.00     0.000 C 
BRANCH  12  13
ATOM     13  C   UNL     1      31.595 -41.806  -7.846  1.00  0.00    -0.000 C 
BRANCH  13  14
ATOM     14  C   UNL     1      30.096 -42.042  -8.110  1.00  0.00    -0.000 C 
BRANCH  14  15
ATOM     15  C   UNL     1      29.265 -42.424  -6.872  1.00  0.00    -0.000 C 
BRANCH  15  16
ATOM     16  C   UNL     1      28.111 -41.448  -6.599  1.00  0.00    -0.000 C 
BRANCH  16  17
ATOM     17  C   UNL     1      27.918 -41.233  -5.093  1.00  0.00    -0.000 C 
BRANCH  17  18
ATOM     18  C   UNL     1      29.126 -41.751  -4.304  1.00  0.00    -0.003 C 
ATOM     19  C   UNL     1      28.716 -42.214  -2.909  1.00  0.00     0.004 C 
ENDBRANCH  17  18
ENDBRANCH  16  17
ENDBRANCH  15  16
ENDBRANCH  14  15
ENDBRANCH  13  14
ENDBRANCH  12  13
ENDBRANCH   1  12
TORSDOF 14
ENDMDL
MODEL 8
REMARK VINA RESULT:    -3.276      2.319      4.938
REMARK INTER + INTRA:          -8.666
REMARK INTER:                  -6.369
REMARK INTRA:                  -2.297
REMARK UNBOUND:                -2.709
REMARK SMILES CCCCCCCCCCCCCC[C@H](C)C(=O)[O-]
REMARK SMILES IDX 9 1 10 2 11 3 12 4 13 5 14 6 15 7 16 8 17 9 18 10 19 11 8 12
REMARK SMILES IDX 7 13 6 14 5 15 4 16 3 17 2 18 1 19
REMARK H PARENT
REMARK Flexibility Score: inf
ROOT
ATOM      1  C   UNL     1      33.387 -47.098  -1.487  1.00  0.00     0.000 C 
ENDROOT
BRANCH   1   2
ATOM      2  C   UNL     1      34.087 -48.018  -0.475  1.00  0.00     0.000 C 
BRANCH   2   3
ATOM      3  C   UNL     1      33.109 -48.473   0.620  1.00  0.00     0.000 C 
BRANCH   3   4
ATOM      4  C   UNL     1      33.500 -49.821   1.244  1.00  0.00     0.000 C 
BRANCH   4   5
ATOM      5  C   UNL     1      34.974 -49.867   1.685  1.00  0.00     0.001 C 
BRANCH   5   6
ATOM      6  C   UNL     1      35.134 -49.914   3.220  1.00  0.00     0.009 C 
BRANCH   6   7
ATOM      7  C   UNL     1      36.605 -50.006   3.685  1.00  0.00     0.032 C 
ATOM      8  C   UNL     1      37.553 -50.018   2.479  1.00  0.00     0.014 C 
BRANCH   7   9
ATOM      9  C   UNL     1      36.847 -51.221   4.537  1.00  0.00     0.044 C 
ATOM     10  O   UNL     1      37.885 -51.310   5.246  1.00  0.00    -0.550 OA
ATOM     11  O   UNL     1      35.929 -52.262   4.534  1.00  0.00    -0.550 OA
ENDBRANCH   7   9
ENDBRANCH   6   7
ENDBRANCH   5   6
ENDBRANCH   4   5
ENDBRANCH   3   4
ENDBRANCH   2   3
ENDBRANCH   1   2
BRANCH   1  12
ATOM     12  C   UNL     1      33.764 -45.619  -1.308  1.00  0.00     0.000 C 
BRANCH  12  13
ATOM     13  C   UNL     1      32.553 -44.741  -0.944  1.00  0.00    -0.000 C 
BRANCH  13  14
ATOM     14  C   UNL     1      32.733 -43.996   0.391  1.00  0.00    -0.000 C 
BRANCH  14  15
ATOM     15  C   UNL     1      34.159 -43.487   0.670  1.00  0.00    -0.000 C 
BRANCH  15  16
ATOM     16  C   UNL     1      34.713 -43.963   2.021  1.00  0.00    -0.000 C 
BRANCH  16  17
ATOM     17  C   UNL     1      33.972 -45.214   2.509  1.00  0.00    -0.000 C 
BRANCH  17  18
ATOM     18  C   UNL     1      34.958 -46.282   2.997  1.00  0.00    -0.003 C 
ATOM     19  C   UNL     1      36.224 -46.294   2.146  1.00  0.00     0.004 C 
ENDBRANCH  17  18
ENDBRANCH  16  17
ENDBRANCH  15  16
ENDBRANCH  14  15
ENDBRANCH  13  14
ENDBRANCH  12  13
ENDBRANCH   1  12
TORSDOF 14
ENDMDL
MODEL 9
REMARK VINA RESULT:    -3.260      1.753      3.347
REMARK INTER + INTRA:          -8.637
REMARK INTER:                  -6.467
REMARK INTRA:                  -2.169
REMARK UNBOUND:                -2.709
REMARK SMILES CCCCCCCCCCCCCC[C@H](C)C(=O)[O-]
REMARK SMILES IDX 9 1 10 2 11 3 12 4 13 5 14 6 15 7 16 8 17 9 18 10 19 11 8 12
REMARK SMILES IDX 7 13 6 14 5 15 4 16 3 17 2 18 1 19
REMARK H PARENT
REMARK Flexibility Score: inf
ROOT
ATOM      1  C   UNL     1      33.468 -43.550  -0.914  1.00  0.00     0.000 C 
ENDROOT
BRANCH   1   2
ATOM      2  C   UNL     1      34.367 -44.247   0.117  1.00  0.00     0.000 C 
BRANCH   2   3
ATOM      3  C   UNL     1      33.574 -44.607   1.383  1.00  0.00     0.000 C 
BRANCH   3   4
ATOM      4  C   UNL     1      33.741 -46.078   1.792  1.00  0.00     0.000 C 
BRANCH   4   5
ATOM      5  C   UNL     1      33.270 -47.055   0.700  1.00  0.00     0.001 C 
BRANCH   5   6
ATOM      6  C   UNL     1      34.389 -48.013   0.237  1.00  0.00     0.009 C 
BRANCH   6   7
ATOM      7  C   UNL     1      34.111 -49.496   0.574  1.00  0.00     0.032 C 
ATOM      8  C   UNL     1      32.602 -49.762   0.637  1.00  0.00     0.014 C 
BRANCH   7   9
ATOM      9  C   UNL     1      34.756 -49.905   1.869  1.00  0.00     0.044 C 
ATOM     10  O   UNL     1      35.805 -49.335   2.272  1.00  0.00    -0.550 OA
ATOM     11  O   UNL     1      34.202 -50.931   2.625  1.00  0.00    -0.550 OA
ENDBRANCH   7   9
ENDBRANCH   6   7
ENDBRANCH   5   6
ENDBRANCH   4   5
ENDBRANCH   3   4
ENDBRANCH   2   3
ENDBRANCH   1   2
BRANCH   1  12
ATOM     12  C   UNL     1      31.991 -43.513  -0.489  1.00  0.00     0.000 C 
BRANCH  12  13
ATOM     13  C   UNL     1      31.036 -43.878  -1.639  1.00  0.00    -0.000 C 
BRANCH  13  14
ATOM     14  C   UNL     1      31.414 -45.198  -2.336  1.00  0.00    -0.000 C 
BRANCH  14  15
ATOM     15  C   UNL     1      31.862 -45.060  -3.802  1.00  0.00    -0.000 C 
BRANCH  15  16
ATOM     16  C   UNL     1      32.809 -46.183  -4.248  1.00  0.00    -0.000 C 
BRANCH  16  17
ATOM     17  C   UNL     1      33.287 -47.009  -3.047  1.00  0.00    -0.000 C 
BRANCH  17  18
ATOM     18  C   UNL     1      32.794 -48.458  -3.145  1.00  0.00    -0.003 C 
ATOM     19  C   UNL     1      33.932 -49.403  -3.518  1.00  0.00     0.004 C 
ENDBRANCH  17  18
ENDBRANCH  16  17
ENDBRANCH  15  16
ENDBRANCH  14  15
ENDBRANCH  13  14
ENDBRANCH  12  13
ENDBRANCH   1  12
TORSDOF 14
ENDMDL
