MODEL 1
REMARK VINA RESULT:    -6.852      0.000      0.000
REMARK INTER + INTRA:          -7.518
REMARK INTER:                  -7.252
REMARK INTRA:                  -0.265
REMARK UNBOUND:                -0.265
REMARK SMILES O=c1cc(-c2ccccc2)oc2ccccc12
REMARK SMILES IDX 4 1 3 2 2 3 1 4 17 5 16 6 15 7 14 8 13 9 12 10 11 11 5 12
REMARK SMILES IDX 8 13 7 14 9 15 6 16 10 17
REMARK H PARENT
REMARK Flexibility Score: inf
ROOT
ATOM      1  C   UNL     1      10.018 -17.352   7.604  1.00  0.00     0.138 A 
ATOM      2  C   UNL     1      10.801 -18.406   7.090  1.00  0.00     0.100 A 
ATOM      3  C   UNL     1      12.148 -18.183   6.796  1.00  0.00     0.193 A 
ATOM      4  O   UNL     1      12.849 -19.125   6.336  1.00  0.00    -0.289 OA
ATOM      5  C   UNL     1      12.702 -16.914   7.017  1.00  0.00     0.065 A 
ATOM      6  C   UNL     1      14.051 -16.623   6.744  1.00  0.00     0.016 A 
ATOM      7  C   UNL     1      14.552 -15.339   6.984  1.00  0.00     0.001 A 
ATOM      8  C   UNL     1      13.716 -14.342   7.495  1.00  0.00     0.004 A 
ATOM      9  C   UNL     1      12.375 -14.623   7.770  1.00  0.00     0.048 A 
ATOM     10  C   UNL     1      11.863 -15.904   7.534  1.00  0.00     0.138 A 
ATOM     11  O   UNL     1      10.586 -16.161   7.799  1.00  0.00    -0.456 OA
ENDROOT
BRANCH   1  12
ATOM     12  C   UNL     1       8.569 -17.506   7.944  1.00  0.00     0.017 A 
ATOM     13  C   UNL     1       5.838 -17.707   8.627  1.00  0.00     0.000 A 
ATOM     14  C   UNL     1       6.469 -18.754   7.956  1.00  0.00     0.001 A 
ATOM     15  C   UNL     1       6.558 -16.561   8.961  1.00  0.00     0.001 A 
ATOM     16  C   UNL     1       7.821 -18.660   7.614  1.00  0.00     0.012 A 
ATOM     17  C   UNL     1       7.910 -16.459   8.624  1.00  0.00     0.012 A 
ENDBRANCH   1  12
TORSDOF 1
ENDMDL
MODEL 2
REMARK VINA RESULT:    -6.656      1.222      2.660
REMARK INTER + INTRA:          -7.311
REMARK INTER:                  -7.054
REMARK INTRA:                  -0.257
REMARK UNBOUND:                -0.265
REMARK SMILES O=c1cc(-c2ccccc2)oc2ccccc12
REMARK SMILES IDX 4 1 3 2 2 3 1 4 17 5 16 6 15 7 14 8 13 9 12 10 11 11 5 12
REMARK SMILES IDX 8 13 7 14 9 15 6 16 10 17
REMARK H PARENT
REMARK Flexibility Score: inf
ROOT
ATOM      1  C   UNL     1       9.693 -17.192   7.751  1.00  0.00     0.138 A 
ATOM      2  C   UNL     1      10.168 -15.864   7.713  1.00  0.00     0.100 A 
ATOM      3  C   UNL     1      11.533 -15.627   7.534  1.00  0.00     0.193 A 
ATOM      4  O   UNL     1      11.958 -14.440   7.500  1.00  0.00    -0.289 OA
ATOM      5  C   UNL     1      12.410 -16.711   7.394  1.00  0.00     0.065 A 
ATOM      6  C   UNL     1      13.794 -16.542   7.210  1.00  0.00     0.016 A 
ATOM      7  C   UNL     1      14.624 -17.660   7.075  1.00  0.00     0.001 A 
ATOM      8  C   UNL     1      14.083 -18.948   7.122  1.00  0.00     0.004 A 
ATOM      9  C   UNL     1      12.708 -19.125   7.305  1.00  0.00     0.048 A 
ATOM     10  C   UNL     1      11.869 -18.014   7.440  1.00  0.00     0.138 A 
ATOM     11  O   UNL     1      10.563 -18.193   7.613  1.00  0.00    -0.456 OA
ENDROOT
BRANCH   1  12
ATOM     12  C   UNL     1       8.249 -17.533   7.940  1.00  0.00     0.017 A 
ATOM     13  C   UNL     1       5.539 -18.262   8.246  1.00  0.00     0.000 A 
ATOM     14  C   UNL     1       6.005 -17.061   8.782  1.00  0.00     0.001 A 
ATOM     15  C   UNL     1       6.414 -19.102   7.559  1.00  0.00     0.001 A 
ATOM     16  C   UNL     1       7.345 -16.695   8.633  1.00  0.00     0.012 A 
ATOM     17  C   UNL     1       7.756 -18.744   7.406  1.00  0.00     0.012 A 
ENDBRANCH   1  12
TORSDOF 1
ENDMDL
MODEL 3
REMARK VINA RESULT:    -5.732      1.601      2.761
REMARK INTER + INTRA:          -6.333
REMARK INTER:                  -6.085
REMARK INTRA:                  -0.247
REMARK UNBOUND:                -0.265
REMARK SMILES O=c1cc(-c2ccccc2)oc2ccccc12
REMARK SMILES IDX 4 1 3 2 2 3 1 4 17 5 16 6 15 7 14 8 13 9 12 10 11 11 5 12
REMARK SMILES IDX 8 13 7 14 9 15 6 16 10 17
REMARK H PARENT
REMARK Flexibility Score: inf
ROOT
ATOM      1  C   UNL     1       9.710 -17.554   8.161  1.00  0.00     0.138 A 
ATOM      2  C   UNL     1      10.557 -16.790   8.991  1.00  0.00     0.100 A 
ATOM      3  C   UNL     1      11.935 -16.798   8.762  1.00  0.00     0.193 A 
ATOM      4  O   UNL     1      12.692 -16.115   9.504  1.00  0.00    -0.289 OA
ATOM      5  C   UNL     1      12.455 -17.563   7.709  1.00  0.00     0.065 A 
ATOM      6  C   UNL     1      13.832 -17.613   7.423  1.00  0.00     0.016 A 
ATOM      7  C   UNL     1      14.298 -18.393   6.360  1.00  0.00     0.001 A 
ATOM      8  C   UNL     1      13.399 -19.125   5.578  1.00  0.00     0.004 A 
ATOM      9  C   UNL     1      12.030 -19.080   5.855  1.00  0.00     0.048 A 
ATOM     10  C   UNL     1      11.553 -18.303   6.916  1.00  0.00     0.138 A 
ATOM     11  O   UNL     1      10.249 -18.267   7.171  1.00  0.00    -0.456 OA
ENDROOT
BRANCH   1  12
ATOM     12  C   UNL     1       8.226 -17.603   8.338  1.00  0.00     0.017 A 
ATOM     13  C   UNL     1       5.427 -17.793   8.656  1.00  0.00     0.000 A 
ATOM     14  C   UNL     1       6.061 -16.556   8.771  1.00  0.00     0.001 A 
ATOM     15  C   UNL     1       6.178 -18.936   8.384  1.00  0.00     0.001 A 
ATOM     16  C   UNL     1       7.447 -16.455   8.614  1.00  0.00     0.012 A 
ATOM     17  C   UNL     1       7.563 -18.845   8.226  1.00  0.00     0.012 A 
ENDBRANCH   1  12
TORSDOF 1
ENDMDL
MODEL 4
REMARK VINA RESULT:    -5.687      1.760      6.117
REMARK INTER + INTRA:          -6.285
REMARK INTER:                  -6.026
REMARK INTRA:                  -0.259
REMARK UNBOUND:                -0.265
REMARK SMILES O=c1cc(-c2ccccc2)oc2ccccc12
REMARK SMILES IDX 4 1 3 2 2 3 1 4 17 5 16 6 15 7 14 8 13 9 12 10 11 11 5 12
REMARK SMILES IDX 8 13 7 14 9 15 6 16 10 17
REMARK H PARENT
REMARK Flexibility Score: inf
ROOT
ATOM      1  C   UNL     1      10.108 -17.841   7.483  1.00  0.00     0.138 A 
ATOM      2  C   UNL     1       9.666 -18.290   6.221  1.00  0.00     0.100 A 
ATOM      3  C   UNL     1       8.347 -18.723   6.067  1.00  0.00     0.193 A 
ATOM      4  O   UNL     1       7.952 -19.125   4.939  1.00  0.00    -0.289 OA
ATOM      5  C   UNL     1       7.481 -18.704   7.170  1.00  0.00     0.065 A 
ATOM      6  C   UNL     1       6.142 -19.125   7.083  1.00  0.00     0.016 A 
ATOM      7  C   UNL     1       5.321 -19.084   8.215  1.00  0.00     0.001 A 
ATOM      8  C   UNL     1       5.827 -18.626   9.435  1.00  0.00     0.004 A 
ATOM      9  C   UNL     1       7.157 -18.207   9.530  1.00  0.00     0.048 A 
ATOM     10  C   UNL     1       7.987 -18.242   8.404  1.00  0.00     0.138 A 
ATOM     11  O   UNL     1       9.250 -17.840   8.504  1.00  0.00    -0.456 OA
ENDROOT
BRANCH   1  12
ATOM     12  C   UNL     1      11.503 -17.363   7.733  1.00  0.00     0.017 A 
ATOM     13  C   UNL     1      14.165 -16.513   8.129  1.00  0.00     0.000 A 
ATOM     14  C   UNL     1      13.158 -16.079   8.991  1.00  0.00     0.001 A 
ATOM     15  C   UNL     1      13.855 -17.368   7.072  1.00  0.00     0.001 A 
ATOM     16  C   UNL     1      11.838 -16.497   8.800  1.00  0.00     0.012 A 
ATOM     17  C   UNL     1      12.538 -17.790   6.873  1.00  0.00     0.012 A 
ENDBRANCH   1  12
TORSDOF 1
ENDMDL
MODEL 5
REMARK VINA RESULT:    -4.882      1.559      1.780
REMARK INTER + INTRA:          -5.433
REMARK INTER:                  -5.212
REMARK INTRA:                  -0.221
REMARK UNBOUND:                -0.265
REMARK SMILES O=c1cc(-c2ccccc2)oc2ccccc12
REMARK SMILES IDX 4 1 3 2 2 3 1 4 17 5 16 6 15 7 14 8 13 9 12 10 11 11 5 12
REMARK SMILES IDX 8 13 7 14 9 15 6 16 10 17
REMARK H PARENT
REMARK Flexibility Score: inf
ROOT
ATOM      1  C   UNL     1       9.054 -17.930   8.378  1.00  0.00     0.138 A 
ATOM      2  C   UNL     1      10.074 -18.793   8.830  1.00  0.00     0.100 A 
ATOM      3  C   UNL     1      11.400 -18.354   8.823  1.00  0.00     0.193 A 
ATOM      4  O   UNL     1      12.312 -19.125   9.227  1.00  0.00    -0.289 OA
ATOM      5  C   UNL     1      11.697 -17.062   8.367  1.00  0.00     0.065 A 
ATOM      6  C   UNL     1      13.011 -16.558   8.334  1.00  0.00     0.016 A 
ATOM      7  C   UNL     1      13.251 -15.261   7.869  1.00  0.00     0.001 A 
ATOM      8  C   UNL     1      12.189 -14.461   7.436  1.00  0.00     0.004 A 
ATOM      9  C   UNL     1      10.882 -14.954   7.465  1.00  0.00     0.048 A 
ATOM     10  C   UNL     1      10.630 -16.250   7.928  1.00  0.00     0.138 A 
ATOM     11  O   UNL     1       9.382 -16.709   7.952  1.00  0.00    -0.456 OA
ENDROOT
BRANCH   1  12
ATOM     12  C   UNL     1       7.611 -18.321   8.351  1.00  0.00     0.017 A 
ATOM     13  C   UNL     1       4.881 -19.039   8.397  1.00  0.00     0.000 A 
ATOM     14  C   UNL     1       5.606 -19.125   7.209  1.00  0.00     0.001 A 
ATOM     15  C   UNL     1       5.506 -18.599   9.562  1.00  0.00     0.001 A 
ATOM     16  C   UNL     1       6.958 -18.771   7.179  1.00  0.00     0.012 A 
ATOM     17  C   UNL     1       6.858 -18.242   9.543  1.00  0.00     0.012 A 
ENDBRANCH   1  12
TORSDOF 1
ENDMDL
MODEL 6
REMARK VINA RESULT:    -4.217      1.284      6.215
REMARK INTER + INTRA:          -4.729
REMARK INTER:                  -4.476
REMARK INTRA:                  -0.253
REMARK UNBOUND:                -0.265
REMARK SMILES O=c1cc(-c2ccccc2)oc2ccccc12
REMARK SMILES IDX 4 1 3 2 2 3 1 4 17 5 16 6 15 7 14 8 13 9 12 10 11 11 5 12
REMARK SMILES IDX 8 13 7 14 9 15 6 16 10 17
REMARK H PARENT
REMARK Flexibility Score: inf
ROOT
ATOM      1  C   UNL     1      10.414 -16.507   7.794  1.00  0.00     0.138 A 
ATOM      2  C   UNL     1       9.654 -15.821   8.763  1.00  0.00     0.100 A 
ATOM      3  C   UNL     1       8.302 -16.132   8.925  1.00  0.00     0.193 A 
ATOM      4  O   UNL     1       7.621 -15.518   9.791  1.00  0.00    -0.289 OA
ATOM      5  C   UNL     1       7.721 -17.125   8.123  1.00  0.00     0.065 A 
ATOM      6  C   UNL     1       6.367 -17.488   8.235  1.00  0.00     0.016 A 
ATOM      7  C   UNL     1       5.839 -18.486   7.410  1.00  0.00     0.001 A 
ATOM      8  C   UNL     1       6.653 -19.125   6.470  1.00  0.00     0.004 A 
ATOM      9  C   UNL     1       8.000 -18.770   6.352  1.00  0.00     0.048 A 
ATOM     10  C   UNL     1       8.539 -17.774   7.173  1.00  0.00     0.138 A 
ATOM     11  O   UNL     1       9.821 -17.444   7.053  1.00  0.00    -0.456 OA
ENDROOT
BRANCH   1  12
ATOM     12  C   UNL     1      11.865 -16.234   7.556  1.00  0.00     0.017 A 
ATOM     13  C   UNL     1      14.588 -15.624   7.125  1.00  0.00     0.000 A 
ATOM     14  C   UNL     1      14.132 -16.933   6.970  1.00  0.00     0.001 A 
ATOM     15  C   UNL     1      13.696 -14.616   7.493  1.00  0.00     0.001 A 
ATOM     16  C   UNL     1      12.785 -17.241   7.182  1.00  0.00     0.012 A 
ATOM     17  C   UNL     1      12.348 -14.916   7.707  1.00  0.00     0.012 A 
ENDBRANCH   1  12
TORSDOF 1
ENDMDL
