MODEL 1
REMARK VINA RESULT:    -4.667      0.000      0.000
REMARK INTER + INTRA:          -7.596
REMARK INTER:                  -6.849
REMARK INTRA:                  -0.747
REMARK UNBOUND:                -0.747
REMARK SMILES CCCOC(=O)c1ccccc1C(=O)OCCC
REMARK SMILES IDX 7 1 8 2 9 3 10 4 11 5 12 6 5 7 6 8 4 9 3 10 2 11 1 12 13 13
REMARK SMILES IDX 14 14 15 15 16 16 17 17 18 18
REMARK H PARENT
REMARK Flexibility Score: inf
ROOT
ATOM      1  C   UNL     1      -6.956  30.290  57.682  1.00  0.00     0.074 A 
ATOM      2  C   UNL     1      -5.791  29.542  57.928  1.00  0.00     0.016 A 
ATOM      3  C   UNL     1      -4.876  29.944  58.901  1.00  0.00     0.001 A 
ATOM      4  C   UNL     1      -5.108  31.100  59.643  1.00  0.00     0.001 A 
ATOM      5  C   UNL     1      -6.269  31.845  59.432  1.00  0.00     0.016 A 
ATOM      6  C   UNL     1      -7.216  31.444  58.472  1.00  0.00     0.074 A 
ENDROOT
BRANCH   1   7
ATOM      7  C   UNL     1      -7.826  29.871  56.561  1.00  0.00     0.339 C 
ATOM      8  O   UNL     1      -7.774  30.477  55.455  1.00  0.00    -0.246 OA
BRANCH   7   9
ATOM      9  O   UNL     1      -8.664  28.760  56.717  1.00  0.00    -0.462 OA
BRANCH   9  10
ATOM     10  C   UNL     1      -8.791  27.729  55.740  1.00  0.00     0.233 C 
BRANCH  10  11
ATOM     11  C   UNL     1      -7.625  26.742  55.848  1.00  0.00     0.038 C 
ATOM     12  C   UNL     1      -6.532  27.065  54.833  1.00  0.00     0.007 C 
ENDBRANCH  10  11
ENDBRANCH   9  10
ENDBRANCH   7   9
ENDBRANCH   1   7
BRANCH   6  13
ATOM     13  C   UNL     1      -8.476  32.216  58.377  1.00  0.00     0.339 C 
ATOM     14  O   UNL     1      -8.579  33.164  57.552  1.00  0.00    -0.246 OA
BRANCH  13  15
ATOM     15  O   UNL     1      -9.570  31.848  59.169  1.00  0.00    -0.462 OA
BRANCH  15  16
ATOM     16  C   UNL     1     -10.725  32.666  59.341  1.00  0.00     0.233 C 
BRANCH  16  17
ATOM     17  C   UNL     1     -11.994  31.808  59.344  1.00  0.00     0.038 C 
ATOM     18  C   UNL     1     -13.194  32.597  59.858  1.00  0.00     0.007 C 
ENDBRANCH  16  17
ENDBRANCH  15  16
ENDBRANCH  13  15
ENDBRANCH   6  13
TORSDOF 8
ENDMDL
MODEL 2
REMARK VINA RESULT:    -4.657      0.152      5.262
REMARK INTER + INTRA:          -7.582
REMARK INTER:                  -6.805
REMARK INTRA:                  -0.777
REMARK UNBOUND:                -0.747
REMARK SMILES CCCOC(=O)c1ccccc1C(=O)OCCC
REMARK SMILES IDX 7 1 8 2 9 3 10 4 11 5 12 6 5 7 6 8 4 9 3 10 2 11 1 12 13 13
REMARK SMILES IDX 14 14 15 15 16 16 17 17 18 18
REMARK H PARENT
REMARK Flexibility Score: inf
ROOT
ATOM      1  C   UNL     1      -7.170  31.456  58.414  1.00  0.00     0.074 A 
ATOM      2  C   UNL     1      -6.222  31.837  59.380  1.00  0.00     0.016 A 
ATOM      3  C   UNL     1      -5.092  31.054  59.619  1.00  0.00     0.001 A 
ATOM      4  C   UNL     1      -4.891  29.879  58.898  1.00  0.00     0.001 A 
ATOM      5  C   UNL     1      -5.807  29.494  57.918  1.00  0.00     0.016 A 
ATOM      6  C   UNL     1      -6.941  30.282  57.645  1.00  0.00     0.074 A 
ENDROOT
BRANCH   1   7
ATOM      7  C   UNL     1      -8.400  32.270  58.291  1.00  0.00     0.339 C 
ATOM      8  O   UNL     1      -8.455  33.215  57.456  1.00  0.00    -0.246 OA
BRANCH   7   9
ATOM      9  O   UNL     1      -9.521  31.948  59.066  1.00  0.00    -0.462 OA
BRANCH   9  10
ATOM     10  C   UNL     1     -10.711  32.733  59.089  1.00  0.00     0.233 C 
BRANCH  10  11
ATOM     11  C   UNL     1     -11.926  31.854  59.400  1.00  0.00     0.038 C 
ATOM     12  C   UNL     1     -13.109  32.695  59.871  1.00  0.00     0.007 C 
ENDBRANCH  10  11
ENDBRANCH   9  10
ENDBRANCH   7   9
ENDBRANCH   1   7
BRANCH   6  13
ATOM     13  C   UNL     1      -7.811  29.875  56.519  1.00  0.00     0.339 C 
ATOM     14  O   UNL     1      -7.719  30.458  55.403  1.00  0.00    -0.246 OA
BRANCH  13  15
ATOM     15  O   UNL     1      -8.694  28.802  56.683  1.00  0.00    -0.462 OA
BRANCH  15  16
ATOM     16  C   UNL     1      -8.725  27.670  55.816  1.00  0.00     0.233 C 
BRANCH  16  17
ATOM     17  C   UNL     1      -7.402  26.901  55.892  1.00  0.00     0.038 C 
ATOM     18  C   UNL     1      -6.684  26.902  54.546  1.00  0.00     0.007 C 
ENDBRANCH  16  17
ENDBRANCH  15  16
ENDBRANCH  13  15
ENDBRANCH   6  13
TORSDOF 8
ENDMDL
MODEL 3
REMARK VINA RESULT:    -4.625      1.514      2.693
REMARK INTER + INTRA:          -7.536
REMARK INTER:                  -6.517
REMARK INTRA:                  -1.019
REMARK UNBOUND:                -0.747
REMARK SMILES CCCOC(=O)c1ccccc1C(=O)OCCC
REMARK SMILES IDX 7 1 8 2 9 3 10 4 11 5 12 6 5 7 6 8 4 9 3 10 2 11 1 12 13 13
REMARK SMILES IDX 14 14 15 15 16 16 17 17 18 18
REMARK H PARENT
REMARK Flexibility Score: inf
ROOT
ATOM      1  C   UNL     1      -7.047  30.253  57.712  1.00  0.00     0.074 A 
ATOM      2  C   UNL     1      -5.848  29.552  57.929  1.00  0.00     0.016 A 
ATOM      3  C   UNL     1      -4.928  29.989  58.883  1.00  0.00     0.001 A 
ATOM      4  C   UNL     1      -5.191  31.133  59.634  1.00  0.00     0.001 A 
ATOM      5  C   UNL     1      -6.386  31.830  59.451  1.00  0.00     0.016 A 
ATOM      6  C   UNL     1      -7.337  31.393  58.511  1.00  0.00     0.074 A 
ENDROOT
BRANCH   1   7
ATOM      7  C   UNL     1      -7.924  29.801  56.609  1.00  0.00     0.339 C 
ATOM      8  O   UNL     1      -7.901  30.394  55.495  1.00  0.00    -0.246 OA
BRANCH   7   9
ATOM      9  O   UNL     1      -8.736  28.674  56.791  1.00  0.00    -0.462 OA
BRANCH   9  10
ATOM     10  C   UNL     1      -8.808  27.599  55.857  1.00  0.00     0.233 C 
BRANCH  10  11
ATOM     11  C   UNL     1      -7.559  26.719  55.956  1.00  0.00     0.038 C 
ATOM     12  C   UNL     1      -6.648  26.915  54.748  1.00  0.00     0.007 C 
ENDBRANCH  10  11
ENDBRANCH   9  10
ENDBRANCH   7   9
ENDBRANCH   1   7
BRANCH   6  13
ATOM     13  C   UNL     1      -8.629  32.113  58.447  1.00  0.00     0.339 C 
ATOM     14  O   UNL     1      -9.476  31.980  59.373  1.00  0.00    -0.246 OA
BRANCH  13  15
ATOM     15  O   UNL     1      -8.879  32.985  57.381  1.00  0.00    -0.462 OA
BRANCH  15  16
ATOM     16  C   UNL     1      -8.045  34.097  57.064  1.00  0.00     0.233 C 
BRANCH  16  17
ATOM     17  C   UNL     1      -7.274  33.835  55.766  1.00  0.00     0.038 C 
ATOM     18  C   UNL     1      -7.266  35.069  54.869  1.00  0.00     0.007 C 
ENDBRANCH  16  17
ENDBRANCH  15  16
ENDBRANCH  13  15
ENDBRANCH   6  13
TORSDOF 8
ENDMDL
MODEL 4
REMARK VINA RESULT:    -4.592      1.509      5.012
REMARK INTER + INTRA:          -7.487
REMARK INTER:                  -6.365
REMARK INTRA:                  -1.122
REMARK UNBOUND:                -0.747
REMARK SMILES CCCOC(=O)c1ccccc1C(=O)OCCC
REMARK SMILES IDX 7 1 8 2 9 3 10 4 11 5 12 6 5 7 6 8 4 9 3 10 2 11 1 12 13 13
REMARK SMILES IDX 14 14 15 15 16 16 17 17 18 18
REMARK H PARENT
REMARK Flexibility Score: inf
ROOT
ATOM      1  C   UNL     1      -7.343  31.434  58.533  1.00  0.00     0.074 A 
ATOM      2  C   UNL     1      -6.424  31.866  59.506  1.00  0.00     0.016 A 
ATOM      3  C   UNL     1      -5.224  31.184  59.707  1.00  0.00     0.001 A 
ATOM      4  C   UNL     1      -4.922  30.060  58.942  1.00  0.00     0.001 A 
ATOM      5  C   UNL     1      -5.809  29.627  57.955  1.00  0.00     0.016 A 
ATOM      6  C   UNL     1      -7.014  30.314  57.720  1.00  0.00     0.074 A 
ENDROOT
BRANCH   1   7
ATOM      7  C   UNL     1      -8.644  32.134  58.450  1.00  0.00     0.339 C 
ATOM      8  O   UNL     1      -9.505  31.985  59.361  1.00  0.00    -0.246 OA
BRANCH   7   9
ATOM      9  O   UNL     1      -8.891  33.007  57.383  1.00  0.00    -0.462 OA
BRANCH   9  10
ATOM     10  C   UNL     1      -8.069  34.133  57.084  1.00  0.00     0.233 C 
BRANCH  10  11
ATOM     11  C   UNL     1      -7.338  33.925  55.754  1.00  0.00     0.038 C 
ATOM     12  C   UNL     1      -8.325  33.768  54.601  1.00  0.00     0.007 C 
ENDBRANCH  10  11
ENDBRANCH   9  10
ENDBRANCH   7   9
ENDBRANCH   1   7
BRANCH   6  13
ATOM     13  C   UNL     1      -7.855  29.869  56.586  1.00  0.00     0.339 C 
ATOM     14  O   UNL     1      -7.752  30.431  55.461  1.00  0.00    -0.246 OA
BRANCH  13  15
ATOM     15  O   UNL     1      -8.723  28.784  56.756  1.00  0.00    -0.462 OA
BRANCH  15  16
ATOM     16  C   UNL     1      -8.730  27.643  55.900  1.00  0.00     0.233 C 
BRANCH  16  17
ATOM     17  C   UNL     1      -7.390  26.905  55.980  1.00  0.00     0.038 C 
ATOM     18  C   UNL     1      -6.643  26.970  54.652  1.00  0.00     0.007 C 
ENDBRANCH  16  17
ENDBRANCH  15  16
ENDBRANCH  13  15
ENDBRANCH   6  13
TORSDOF 8
ENDMDL
MODEL 5
REMARK VINA RESULT:    -4.338      1.334      2.000
REMARK INTER + INTRA:          -7.114
REMARK INTER:                  -6.083
REMARK INTRA:                  -1.031
REMARK UNBOUND:                -0.747
REMARK SMILES CCCOC(=O)c1ccccc1C(=O)OCCC
REMARK SMILES IDX 7 1 8 2 9 3 10 4 11 5 12 6 5 7 6 8 4 9 3 10 2 11 1 12 13 13
REMARK SMILES IDX 14 14 15 15 16 16 17 17 18 18
REMARK H PARENT
REMARK Flexibility Score: inf
ROOT
ATOM      1  C   UNL     1      -7.146  30.430  57.597  1.00  0.00     0.074 A 
ATOM      2  C   UNL     1      -5.980  29.682  57.844  1.00  0.00     0.016 A 
ATOM      3  C   UNL     1      -5.109  30.037  58.874  1.00  0.00     0.001 A 
ATOM      4  C   UNL     1      -5.387  31.145  59.673  1.00  0.00     0.001 A 
ATOM      5  C   UNL     1      -6.549  31.887  59.461  1.00  0.00     0.016 A 
ATOM      6  C   UNL     1      -7.452  31.532  58.442  1.00  0.00     0.074 A 
ENDROOT
BRANCH   1   7
ATOM      7  C   UNL     1      -7.965  30.067  56.419  1.00  0.00     0.339 C 
ATOM      8  O   UNL     1      -7.661  30.503  55.275  1.00  0.00    -0.246 OA
BRANCH   7   9
ATOM      9  O   UNL     1      -9.046  29.189  56.575  1.00  0.00    -0.462 OA
BRANCH   9  10
ATOM     10  C   UNL     1     -10.177  29.175  55.708  1.00  0.00     0.233 C 
BRANCH  10  11
ATOM     11  C   UNL     1     -11.281  30.085  56.252  1.00  0.00     0.038 C 
ATOM     12  C   UNL     1     -11.231  31.464  55.601  1.00  0.00     0.007 C 
ENDBRANCH  10  11
ENDBRANCH   9  10
ENDBRANCH   7   9
ENDBRANCH   1   7
BRANCH   6  13
ATOM     13  C   UNL     1      -8.718  32.292  58.343  1.00  0.00     0.339 C 
ATOM     14  O   UNL     1      -8.812  33.269  57.550  1.00  0.00    -0.246 OA
BRANCH  13  15
ATOM     15  O   UNL     1      -9.828  31.884  59.093  1.00  0.00    -0.462 OA
BRANCH  15  16
ATOM     16  C   UNL     1     -10.973  32.705  59.311  1.00  0.00     0.233 C 
BRANCH  16  17
ATOM     17  C   UNL     1     -12.246  31.852  59.347  1.00  0.00     0.038 C 
ATOM     18  C   UNL     1     -13.402  32.610  59.989  1.00  0.00     0.007 C 
ENDBRANCH  16  17
ENDBRANCH  15  16
ENDBRANCH  13  15
ENDBRANCH   6  13
TORSDOF 8
ENDMDL
MODEL 6
REMARK VINA RESULT:    -4.229     14.982     16.343
REMARK INTER + INTRA:          -6.954
REMARK INTER:                  -6.064
REMARK INTRA:                  -0.890
REMARK UNBOUND:                -0.747
REMARK SMILES CCCOC(=O)c1ccccc1C(=O)OCCC
REMARK SMILES IDX 7 1 8 2 9 3 10 4 11 5 12 6 5 7 6 8 4 9 3 10 2 11 1 12 13 13
REMARK SMILES IDX 14 14 15 15 16 16 17 17 18 18
REMARK H PARENT
REMARK Flexibility Score: inf
ROOT
ATOM      1  C   UNL     1      -4.853  35.964  42.751  1.00  0.00     0.074 A 
ATOM      2  C   UNL     1      -4.325  34.951  41.931  1.00  0.00     0.016 A 
ATOM      3  C   UNL     1      -3.660  35.266  40.745  1.00  0.00     0.001 A 
ATOM      4  C   UNL     1      -3.512  36.597  40.360  1.00  0.00     0.001 A 
ATOM      5  C   UNL     1      -4.007  37.619  41.170  1.00  0.00     0.016 A 
ATOM      6  C   UNL     1      -4.660  37.324  42.381  1.00  0.00     0.074 A 
ENDROOT
BRANCH   1   7
ATOM      7  C   UNL     1      -5.643  35.556  43.933  1.00  0.00     0.339 C 
ATOM      8  O   UNL     1      -5.071  35.345  45.038  1.00  0.00    -0.246 OA
BRANCH   7   9
ATOM      9  O   UNL     1      -7.037  35.463  43.832  1.00  0.00    -0.462 OA
BRANCH   9  10
ATOM     10  C   UNL     1      -7.783  34.335  44.282  1.00  0.00     0.233 C 
BRANCH  10  11
ATOM     11  C   UNL     1      -7.539  33.131  43.368  1.00  0.00     0.038 C 
ATOM     12  C   UNL     1      -8.473  33.156  42.162  1.00  0.00     0.007 C 
ENDBRANCH  10  11
ENDBRANCH   9  10
ENDBRANCH   7   9
ENDBRANCH   1   7
BRANCH   6  13
ATOM     13  C   UNL     1      -5.061  38.456  43.245  1.00  0.00     0.339 C 
ATOM     14  O   UNL     1      -4.189  39.107  43.884  1.00  0.00    -0.246 OA
BRANCH  13  15
ATOM     15  O   UNL     1      -6.408  38.836  43.303  1.00  0.00    -0.462 OA
BRANCH  15  16
ATOM     16  C   UNL     1      -6.848  40.089  43.822  1.00  0.00     0.233 C 
BRANCH  16  17
ATOM     17  C   UNL     1      -7.559  39.893  45.165  1.00  0.00     0.038 C 
ATOM     18  C   UNL     1      -8.155  38.493  45.276  1.00  0.00     0.007 C 
ENDBRANCH  16  17
ENDBRANCH  15  16
ENDBRANCH  13  15
ENDBRANCH   6  13
TORSDOF 8
ENDMDL
MODEL 7
REMARK VINA RESULT:    -4.157      2.047      3.391
REMARK INTER + INTRA:          -6.849
REMARK INTER:                  -5.851
REMARK INTRA:                  -0.998
REMARK UNBOUND:                -0.747
REMARK SMILES CCCOC(=O)c1ccccc1C(=O)OCCC
REMARK SMILES IDX 7 1 8 2 9 3 10 4 11 5 12 6 5 7 6 8 4 9 3 10 2 11 1 12 13 13
REMARK SMILES IDX 14 14 15 15 16 16 17 17 18 18
REMARK H PARENT
REMARK Flexibility Score: inf
ROOT
ATOM      1  C   UNL     1      -6.879  30.149  57.658  1.00  0.00     0.074 A 
ATOM      2  C   UNL     1      -5.739  29.378  57.948  1.00  0.00     0.016 A 
ATOM      3  C   UNL     1      -4.803  29.813  58.887  1.00  0.00     0.001 A 
ATOM      4  C   UNL     1      -4.990  31.023  59.551  1.00  0.00     0.001 A 
ATOM      5  C   UNL     1      -6.126  31.793  59.296  1.00  0.00     0.016 A 
ATOM      6  C   UNL     1      -7.094  31.362  58.371  1.00  0.00     0.074 A 
ENDROOT
BRANCH   1   7
ATOM      7  C   UNL     1      -7.771  29.686  56.572  1.00  0.00     0.339 C 
ATOM      8  O   UNL     1      -8.559  28.719  56.766  1.00  0.00    -0.246 OA
BRANCH   7   9
ATOM      9  O   UNL     1      -7.776  30.365  55.347  1.00  0.00    -0.462 OA
BRANCH   9  10
ATOM     10  C   UNL     1      -8.893  30.377  54.461  1.00  0.00     0.233 C 
BRANCH  10  11
ATOM     11  C   UNL     1      -9.945  31.382  54.939  1.00  0.00     0.038 C 
ATOM     12  C   UNL     1     -10.043  32.572  53.988  1.00  0.00     0.007 C 
ENDBRANCH  10  11
ENDBRANCH   9  10
ENDBRANCH   7   9
ENDBRANCH   1   7
BRANCH   6  13
ATOM     13  C   UNL     1      -8.327  32.168  58.231  1.00  0.00     0.339 C 
ATOM     14  O   UNL     1      -9.398  31.791  58.780  1.00  0.00    -0.246 OA
BRANCH  13  15
ATOM     15  O   UNL     1      -8.281  33.382  57.534  1.00  0.00    -0.462 OA
BRANCH  15  16
ATOM     16  C   UNL     1      -7.430  33.611  56.412  1.00  0.00     0.233 C 
BRANCH  16  17
ATOM     17  C   UNL     1      -7.519  35.073  55.963  1.00  0.00     0.038 C 
ATOM     18  C   UNL     1      -8.327  35.908  56.952  1.00  0.00     0.007 C 
ENDBRANCH  16  17
ENDBRANCH  15  16
ENDBRANCH  13  15
ENDBRANCH   6  13
TORSDOF 8
ENDMDL
MODEL 8
REMARK VINA RESULT:    -4.150     14.917     16.836
REMARK INTER + INTRA:          -6.838
REMARK INTER:                  -6.218
REMARK INTRA:                  -0.621
REMARK UNBOUND:                -0.747
REMARK SMILES CCCOC(=O)c1ccccc1C(=O)OCCC
REMARK SMILES IDX 7 1 8 2 9 3 10 4 11 5 12 6 5 7 6 8 4 9 3 10 2 11 1 12 13 13
REMARK SMILES IDX 14 14 15 15 16 16 17 17 18 18
REMARK H PARENT
REMARK Flexibility Score: inf
ROOT
ATOM      1  C   UNL     1      -4.634  36.742  42.401  1.00  0.00     0.074 A 
ATOM      2  C   UNL     1      -4.124  37.768  41.584  1.00  0.00     0.016 A 
ATOM      3  C   UNL     1      -3.375  37.468  40.446  1.00  0.00     0.001 A 
ATOM      4  C   UNL     1      -3.123  36.141  40.105  1.00  0.00     0.001 A 
ATOM      5  C   UNL     1      -3.638  35.107  40.888  1.00  0.00     0.016 A 
ATOM      6  C   UNL     1      -4.415  35.387  42.027  1.00  0.00     0.074 A 
ENDROOT
BRANCH   1   7
ATOM      7  C   UNL     1      -5.321  37.130  43.652  1.00  0.00     0.339 C 
ATOM      8  O   UNL     1      -4.707  37.088  44.754  1.00  0.00    -0.246 OA
BRANCH   7   9
ATOM      9  O   UNL     1      -6.640  37.599  43.598  1.00  0.00    -0.462 OA
BRANCH   9  10
ATOM     10  C   UNL     1      -7.004  38.952  43.859  1.00  0.00     0.233 C 
BRANCH  10  11
ATOM     11  C   UNL     1      -7.760  39.058  45.186  1.00  0.00     0.038 C 
ATOM     12  C   UNL     1      -8.566  37.792  45.464  1.00  0.00     0.007 C 
ENDBRANCH  10  11
ENDBRANCH   9  10
ENDBRANCH   7   9
ENDBRANCH   1   7
BRANCH   6  13
ATOM     13  C   UNL     1      -5.024  34.246  42.747  1.00  0.00     0.339 C 
ATOM     14  O   UNL     1      -4.476  33.787  43.787  1.00  0.00    -0.246 OA
BRANCH  13  15
ATOM     15  O   UNL     1      -6.242  33.720  42.300  1.00  0.00    -0.462 OA
BRANCH  15  16
ATOM     16  C   UNL     1      -7.295  33.323  43.177  1.00  0.00     0.233 C 
BRANCH  16  17
ATOM     17  C   UNL     1      -8.559  32.989  42.378  1.00  0.00     0.038 C 
ATOM     18  C   UNL     1      -9.651  32.425  43.283  1.00  0.00     0.007 C 
ENDBRANCH  16  17
ENDBRANCH  15  16
ENDBRANCH  13  15
ENDBRANCH   6  13
TORSDOF 8
ENDMDL
MODEL 9
REMARK VINA RESULT:    -4.120      1.391      4.768
REMARK INTER + INTRA:          -6.795
REMARK INTER:                  -6.073
REMARK INTRA:                  -0.722
REMARK UNBOUND:                -0.747
REMARK SMILES CCCOC(=O)c1ccccc1C(=O)OCCC
REMARK SMILES IDX 7 1 8 2 9 3 10 4 11 5 12 6 5 7 6 8 4 9 3 10 2 11 1 12 13 13
REMARK SMILES IDX 14 14 15 15 16 16 17 17 18 18
REMARK H PARENT
REMARK Flexibility Score: inf
ROOT
ATOM      1  C   UNL     1      -7.170  31.469  58.529  1.00  0.00     0.074 A 
ATOM      2  C   UNL     1      -6.221  31.877  59.483  1.00  0.00     0.016 A 
ATOM      3  C   UNL     1      -5.066  31.127  59.706  1.00  0.00     0.001 A 
ATOM      4  C   UNL     1      -4.840  29.959  58.981  1.00  0.00     0.001 A 
ATOM      5  C   UNL     1      -5.757  29.548  58.013  1.00  0.00     0.016 A 
ATOM      6  C   UNL     1      -6.917  30.302  57.756  1.00  0.00     0.074 A 
ENDROOT
BRANCH   1   7
ATOM      7  C   UNL     1      -8.424  32.247  58.423  1.00  0.00     0.339 C 
ATOM      8  O   UNL     1      -8.523  33.182  57.581  1.00  0.00    -0.246 OA
BRANCH   7   9
ATOM      9  O   UNL     1      -9.520  31.901  59.223  1.00  0.00    -0.462 OA
BRANCH   9  10
ATOM     10  C   UNL     1     -10.686  32.712  59.351  1.00  0.00     0.233 C 
BRANCH  10  11
ATOM     11  C   UNL     1     -11.938  31.913  58.975  1.00  0.00     0.038 C 
ATOM     12  C   UNL     1     -13.152  32.385  59.769  1.00  0.00     0.007 C 
ENDBRANCH  10  11
ENDBRANCH   9  10
ENDBRANCH   7   9
ENDBRANCH   1   7
BRANCH   6  13
ATOM     13  C   UNL     1      -7.790  29.872  56.641  1.00  0.00     0.339 C 
ATOM     14  O   UNL     1      -8.561  28.883  56.783  1.00  0.00    -0.246 OA
BRANCH  13  15
ATOM     15  O   UNL     1      -7.795  30.604  55.448  1.00  0.00    -0.462 OA
BRANCH  15  16
ATOM     16  C   UNL     1      -8.841  30.524  54.482  1.00  0.00     0.233 C 
BRANCH  16  17
ATOM     17  C   UNL     1      -9.822  31.688  54.658  1.00  0.00     0.038 C 
ATOM     18  C   UNL     1      -9.250  32.984  54.091  1.00  0.00     0.007 C 
ENDBRANCH  16  17
ENDBRANCH  15  16
ENDBRANCH  13  15
ENDBRANCH   6  13
TORSDOF 8
ENDMDL
