MODEL 1
REMARK VINA RESULT:    -4.428      0.000      0.000
REMARK INTER + INTRA:          -5.125
REMARK INTER:                  -5.075
REMARK INTRA:                  -0.050
REMARK UNBOUND:                -0.050
REMARK SMILES COc1cc(C=O)ccc1O
REMARK SMILES IDX 3 1 10 2 9 3 8 4 5 5 4 6 2 7 1 8 11 9 6 11 7 12
REMARK H PARENT 11 10
REMARK Flexibility Score: inf
ROOT
ATOM      1  C   UNL     1      -5.670  -1.887  -0.191  1.00  0.00     0.161 A 
ATOM      2  C   UNL     1      -6.247  -1.909   1.091  1.00  0.00     0.157 A 
ATOM      3  C   UNL     1      -6.128  -3.049   1.893  1.00  0.00     0.051 A 
ATOM      4  C   UNL     1      -5.438  -4.171   1.430  1.00  0.00     0.015 A 
ATOM      5  C   UNL     1      -4.858  -4.167   0.155  1.00  0.00     0.018 A 
ATOM      6  C   UNL     1      -4.974  -3.024  -0.652  1.00  0.00     0.062 A 
ENDROOT
BRANCH   1   7
ATOM      7  O   UNL     1      -5.805  -0.729  -0.974  1.00  0.00    -0.493 OA
ATOM      8  C   UNL     1      -5.179  -0.529  -2.236  1.00  0.00     0.278 C 
ENDBRANCH   1   7
BRANCH   2   9
ATOM      9  O   UNL     1      -6.943  -0.807   1.589  1.00  0.00    -0.504 OA
ATOM     10  H   UNL     1      -7.020  -0.621   2.581  1.00  0.00     0.293 HD
ENDBRANCH   2   9
BRANCH   5  11
ATOM     11  C   UNL     1      -4.133  -5.364  -0.315  1.00  0.00     0.260 C 
ATOM     12  O   UNL     1      -2.877  -5.432  -0.246  1.00  0.00    -0.298 OA
ENDBRANCH   5  11
TORSDOF 3
ENDMDL
MODEL 2
REMARK VINA RESULT:    -4.386      2.675      4.224
REMARK INTER + INTRA:          -5.077
REMARK INTER:                  -5.023
REMARK INTRA:                  -0.054
REMARK UNBOUND:                -0.050
REMARK SMILES COc1cc(C=O)ccc1O
REMARK SMILES IDX 3 1 10 2 9 3 8 4 5 5 4 6 2 7 1 8 11 9 6 11 7 12
REMARK H PARENT 11 10
REMARK Flexibility Score: inf
ROOT
ATOM      1  C   UNL     1      -4.166  -1.682  -1.309  1.00  0.00     0.161 A 
ATOM      2  C   UNL     1      -4.481  -0.599  -2.149  1.00  0.00     0.157 A 
ATOM      3  C   UNL     1      -3.874  -0.487  -3.405  1.00  0.00     0.051 A 
ATOM      4  C   UNL     1      -2.952  -1.444  -3.833  1.00  0.00     0.015 A 
ATOM      5  C   UNL     1      -2.625  -2.529  -3.009  1.00  0.00     0.018 A 
ATOM      6  C   UNL     1      -3.234  -2.646  -1.749  1.00  0.00     0.062 A 
ENDROOT
BRANCH   1   7
ATOM      7  O   UNL     1      -4.791  -1.770  -0.055  1.00  0.00    -0.493 OA
ATOM      8  C   UNL     1      -5.057  -2.988   0.633  1.00  0.00     0.278 C 
ENDBRANCH   1   7
BRANCH   2   9
ATOM      9  O   UNL     1      -5.398   0.376  -1.756  1.00  0.00    -0.504 OA
ATOM     10  H   UNL     1      -6.069   0.776  -2.400  1.00  0.00     0.293 HD
ENDBRANCH   2   9
BRANCH   5  11
ATOM     11  C   UNL     1      -1.648  -3.529  -3.482  1.00  0.00     0.260 C 
ATOM     12  O   UNL     1      -0.439  -3.224  -3.658  1.00  0.00    -0.298 OA
ENDBRANCH   5  11
TORSDOF 3
ENDMDL
MODEL 3
REMARK VINA RESULT:    -4.334      1.414      2.985
REMARK INTER + INTRA:          -5.018
REMARK INTER:                  -4.967
REMARK INTRA:                  -0.051
REMARK UNBOUND:                -0.050
REMARK SMILES COc1cc(C=O)ccc1O
REMARK SMILES IDX 3 1 10 2 9 3 8 4 5 5 4 6 2 7 1 8 11 9 6 11 7 12
REMARK H PARENT 11 10
REMARK Flexibility Score: inf
ROOT
ATOM      1  C   UNL     1      -5.136  -1.775  -0.576  1.00  0.00     0.161 A 
ATOM      2  C   UNL     1      -4.446  -1.080  -1.584  1.00  0.00     0.157 A 
ATOM      3  C   UNL     1      -3.347  -1.671  -2.216  1.00  0.00     0.051 A 
ATOM      4  C   UNL     1      -2.926  -2.951  -1.853  1.00  0.00     0.015 A 
ATOM      5  C   UNL     1      -3.601  -3.659  -0.849  1.00  0.00     0.018 A 
ATOM      6  C   UNL     1      -4.706  -3.069  -0.213  1.00  0.00     0.062 A 
ENDROOT
BRANCH   1   7
ATOM      7  O   UNL     1      -6.237  -1.158   0.041  1.00  0.00    -0.493 OA
ATOM      8  C   UNL     1      -6.891  -1.648   1.207  1.00  0.00     0.278 C 
ENDBRANCH   1   7
BRANCH   2   9
ATOM      9  O   UNL     1      -4.838   0.201  -1.975  1.00  0.00    -0.504 OA
ATOM     10  H   UNL     1      -5.321   0.374  -2.848  1.00  0.00     0.293 HD
ENDBRANCH   2   9
BRANCH   5  11
ATOM     11  C   UNL     1      -3.139  -5.011  -0.481  1.00  0.00     0.260 C 
ATOM     12  O   UNL     1      -3.570  -6.031  -1.081  1.00  0.00    -0.298 OA
ENDBRANCH   5  11
TORSDOF 3
ENDMDL
MODEL 4
REMARK VINA RESULT:    -4.311      6.253      9.071
REMARK INTER + INTRA:          -4.992
REMARK INTER:                  -4.941
REMARK INTRA:                  -0.050
REMARK UNBOUND:                -0.050
REMARK SMILES COc1cc(C=O)ccc1O
REMARK SMILES IDX 3 1 10 2 9 3 8 4 5 5 4 6 2 7 1 8 11 9 6 11 7 12
REMARK H PARENT 11 10
REMARK Flexibility Score: inf
ROOT
ATOM      1  C   UNL     1      -0.794   2.292  -2.933  1.00  0.00     0.161 A 
ATOM      2  C   UNL     1       0.026   3.289  -2.376  1.00  0.00     0.157 A 
ATOM      3  C   UNL     1      -0.024   4.596  -2.872  1.00  0.00     0.051 A 
ATOM      4  C   UNL     1      -0.884   4.921  -3.922  1.00  0.00     0.015 A 
ATOM      5  C   UNL     1      -1.708   3.941  -4.491  1.00  0.00     0.018 A 
ATOM      6  C   UNL     1      -1.661   2.628  -3.994  1.00  0.00     0.062 A 
ENDROOT
BRANCH   1   7
ATOM      7  O   UNL     1      -0.724   0.989  -2.414  1.00  0.00    -0.493 OA
ATOM      8  C   UNL     1      -1.588  -0.079  -2.789  1.00  0.00     0.278 C 
ENDBRANCH   1   7
BRANCH   2   9
ATOM      9  O   UNL     1       0.898   3.002  -1.325  1.00  0.00    -0.504 OA
ATOM     10  H   UNL     1       0.578   2.914  -0.368  1.00  0.00     0.293 HD
ENDBRANCH   2   9
BRANCH   5  11
ATOM     11  C   UNL     1      -2.610   4.307  -5.601  1.00  0.00     0.260 C 
ATOM     12  O   UNL     1      -3.858   4.355  -5.435  1.00  0.00    -0.298 OA
ENDBRANCH   5  11
TORSDOF 3
ENDMDL
MODEL 5
REMARK VINA RESULT:    -4.272      2.010      4.205
REMARK INTER + INTRA:          -4.946
REMARK INTER:                  -4.894
REMARK INTRA:                  -0.052
REMARK UNBOUND:                -0.050
REMARK SMILES COc1cc(C=O)ccc1O
REMARK SMILES IDX 3 1 10 2 9 3 8 4 5 5 4 6 2 7 1 8 11 9 6 11 7 12
REMARK H PARENT 11 10
REMARK Flexibility Score: inf
ROOT
ATOM      1  C   UNL     1      -6.527  -3.098   2.554  1.00  0.00     0.161 A 
ATOM      2  C   UNL     1      -5.516  -4.065   2.413  1.00  0.00     0.157 A 
ATOM      3  C   UNL     1      -4.830  -4.188   1.200  1.00  0.00     0.051 A 
ATOM      4  C   UNL     1      -5.141  -3.356   0.123  1.00  0.00     0.015 A 
ATOM      5  C   UNL     1      -6.146  -2.388   0.245  1.00  0.00     0.018 A 
ATOM      6  C   UNL     1      -6.837  -2.260   1.462  1.00  0.00     0.062 A 
ENDROOT
BRANCH   1   7
ATOM      7  O   UNL     1      -7.199  -2.996   3.784  1.00  0.00    -0.493 OA
ATOM      8  C   UNL     1      -7.819  -1.811   4.271  1.00  0.00     0.278 C 
ENDBRANCH   1   7
BRANCH   2   9
ATOM      9  O   UNL     1      -5.176  -4.913   3.466  1.00  0.00    -0.504 OA
ATOM     10  H   UNL     1      -4.214  -5.133   3.693  1.00  0.00     0.293 HD
ENDBRANCH   2   9
BRANCH   5  11
ATOM     11  C   UNL     1      -6.460  -1.519  -0.906  1.00  0.00     0.260 C 
ATOM     12  O   UNL     1      -5.791  -0.476  -1.134  1.00  0.00    -0.298 OA
ENDBRANCH   5  11
TORSDOF 3
ENDMDL
MODEL 6
REMARK VINA RESULT:    -4.263      7.006      8.886
REMARK INTER + INTRA:          -4.936
REMARK INTER:                  -4.885
REMARK INTRA:                  -0.050
REMARK UNBOUND:                -0.050
REMARK SMILES COc1cc(C=O)ccc1O
REMARK SMILES IDX 3 1 10 2 9 3 8 4 5 5 4 6 2 7 1 8 11 9 6 11 7 12
REMARK H PARENT 11 10
REMARK Flexibility Score: inf
ROOT
ATOM      1  C   UNL     1       1.843  -1.426  -5.197  1.00  0.00     0.161 A 
ATOM      2  C   UNL     1       1.335  -2.647  -5.673  1.00  0.00     0.157 A 
ATOM      3  C   UNL     1       0.020  -3.022  -5.377  1.00  0.00     0.051 A 
ATOM      4  C   UNL     1      -0.797  -2.191  -4.608  1.00  0.00     0.015 A 
ATOM      5  C   UNL     1      -0.307  -0.971  -4.123  1.00  0.00     0.018 A 
ATOM      6  C   UNL     1       1.013  -0.590  -4.420  1.00  0.00     0.062 A 
ENDROOT
BRANCH   1   7
ATOM      7  O   UNL     1       3.166  -1.075  -5.510  1.00  0.00    -0.493 OA
ATOM      8  C   UNL     1       3.883  -0.002  -4.908  1.00  0.00     0.278 C 
ENDBRANCH   1   7
BRANCH   2   9
ATOM      9  O   UNL     1       2.120  -3.503  -6.445  1.00  0.00    -0.504 OA
ATOM     10  H   UNL     1       2.837  -4.091  -6.038  1.00  0.00     0.293 HD
ENDBRANCH   2   9
BRANCH   5  11
ATOM     11  C   UNL     1      -1.187  -0.107  -3.312  1.00  0.00     0.260 C 
ATOM     12  O   UNL     1      -1.084  -0.070  -2.057  1.00  0.00    -0.298 OA
ENDBRANCH   5  11
TORSDOF 3
ENDMDL
MODEL 7
REMARK VINA RESULT:    -4.248      2.049      4.748
REMARK INTER + INTRA:          -4.919
REMARK INTER:                  -4.867
REMARK INTRA:                  -0.052
REMARK UNBOUND:                -0.050
REMARK SMILES COc1cc(C=O)ccc1O
REMARK SMILES IDX 3 1 10 2 9 3 8 4 5 5 4 6 2 7 1 8 11 9 6 11 7 12
REMARK H PARENT 11 10
REMARK Flexibility Score: inf
ROOT
ATOM      1  C   UNL     1      -4.119  -4.290  -0.100  1.00  0.00     0.161 A 
ATOM      2  C   UNL     1      -3.194  -5.073  -0.813  1.00  0.00     0.157 A 
ATOM      3  C   UNL     1      -2.503  -4.525  -1.899  1.00  0.00     0.051 A 
ATOM      4  C   UNL     1      -2.725  -3.202  -2.284  1.00  0.00     0.015 A 
ATOM      5  C   UNL     1      -3.645  -2.408  -1.587  1.00  0.00     0.018 A 
ATOM      6  C   UNL     1      -4.340  -2.954  -0.495  1.00  0.00     0.062 A 
ENDROOT
BRANCH   1   7
ATOM      7  O   UNL     1      -4.798  -4.865   0.986  1.00  0.00    -0.493 OA
ATOM      8  C   UNL     1      -5.434  -4.129   2.025  1.00  0.00     0.278 C 
ENDBRANCH   1   7
BRANCH   2   9
ATOM      9  O   UNL     1      -2.944  -6.398  -0.456  1.00  0.00    -0.504 OA
ATOM     10  H   UNL     1      -3.687  -7.080  -0.360  1.00  0.00     0.293 HD
ENDBRANCH   2   9
BRANCH   5  11
ATOM     11  C   UNL     1      -3.865  -1.011  -2.012  1.00  0.00     0.260 C 
ATOM     12  O   UNL     1      -3.118  -0.083  -1.605  1.00  0.00    -0.298 OA
ENDBRANCH   5  11
TORSDOF 3
ENDMDL
MODEL 8
REMARK VINA RESULT:    -4.198      5.530      7.790
REMARK INTER + INTRA:          -4.862
REMARK INTER:                  -4.812
REMARK INTRA:                  -0.050
REMARK UNBOUND:                -0.050
REMARK SMILES COc1cc(C=O)ccc1O
REMARK SMILES IDX 3 1 10 2 9 3 8 4 5 5 4 6 2 7 1 8 11 9 6 11 7 12
REMARK H PARENT 11 10
REMARK Flexibility Score: inf
ROOT
ATOM      1  C   UNL     1      -1.494   1.714  -3.051  1.00  0.00     0.161 A 
ATOM      2  C   UNL     1      -2.297   0.599  -2.751  1.00  0.00     0.157 A 
ATOM      3  C   UNL     1      -3.525   0.426  -3.398  1.00  0.00     0.051 A 
ATOM      4  C   UNL     1      -3.963   1.355  -4.344  1.00  0.00     0.015 A 
ATOM      5  C   UNL     1      -3.177   2.472  -4.654  1.00  0.00     0.018 A 
ATOM      6  C   UNL     1      -1.943   2.649  -4.007  1.00  0.00     0.062 A 
ENDROOT
BRANCH   1   7
ATOM      7  O   UNL     1      -0.266   1.862  -2.386  1.00  0.00    -0.493 OA
ATOM      8  C   UNL     1       0.531   3.042  -2.410  1.00  0.00     0.278 C 
ENDBRANCH   1   7
BRANCH   2   9
ATOM      9  O   UNL     1      -1.892  -0.351  -1.813  1.00  0.00    -0.504 OA
ATOM     10  H   UNL     1      -1.243  -1.093  -2.043  1.00  0.00     0.293 HD
ENDBRANCH   2   9
BRANCH   5  11
ATOM     11  C   UNL     1      -3.659   3.442  -5.657  1.00  0.00     0.260 C 
ATOM     12  O   UNL     1      -3.905   4.636  -5.341  1.00  0.00    -0.298 OA
ENDBRANCH   5  11
TORSDOF 3
ENDMDL
MODEL 9
REMARK VINA RESULT:    -4.143      7.397      9.394
REMARK INTER + INTRA:          -4.798
REMARK INTER:                  -4.723
REMARK INTRA:                  -0.075
REMARK UNBOUND:                -0.050
REMARK SMILES COc1cc(C=O)ccc1O
REMARK SMILES IDX 3 1 10 2 9 3 8 4 5 5 4 6 2 7 1 8 11 9 6 11 7 12
REMARK H PARENT 11 10
REMARK Flexibility Score: inf
ROOT
ATOM      1  C   UNL     1       1.285  -0.712  -3.893  1.00  0.00     0.161 A 
ATOM      2  C   UNL     1       2.630  -0.464  -4.219  1.00  0.00     0.157 A 
ATOM      3  C   UNL     1       3.137   0.838  -4.159  1.00  0.00     0.051 A 
ATOM      4  C   UNL     1       2.315   1.900  -3.776  1.00  0.00     0.015 A 
ATOM      5  C   UNL     1       0.972   1.672  -3.449  1.00  0.00     0.018 A 
ATOM      6  C   UNL     1       0.460   0.365  -3.507  1.00  0.00     0.062 A 
ENDROOT
BRANCH   1   7
ATOM      7  O   UNL     1       0.804  -2.030  -3.961  1.00  0.00    -0.493 OA
ATOM      8  C   UNL     1       0.012  -2.548  -5.025  1.00  0.00     0.278 C 
ENDBRANCH   1   7
BRANCH   2   9
ATOM      9  O   UNL     1       3.482  -1.499  -4.604  1.00  0.00    -0.504 OA
ATOM     10  H   UNL     1       4.060  -1.998  -3.939  1.00  0.00     0.293 HD
ENDBRANCH   2   9
BRANCH   5  11
ATOM     11  C   UNL     1       0.120   2.809  -3.047  1.00  0.00     0.260 C 
ATOM     12  O   UNL     1      -0.917   2.632  -2.355  1.00  0.00    -0.298 OA
ENDBRANCH   5  11
TORSDOF 3
ENDMDL
