MODEL 1
REMARK VINA RESULT:    -6.809      0.000      0.000
REMARK INTER + INTRA:          -7.656
REMARK INTER:                  -7.605
REMARK INTRA:                  -0.050
REMARK UNBOUND:                -0.050
REMARK SMILES CC1(C)CC[C@@]2(CO)CC=C3[C@@](C)(CC[C@H]4[C@@]5(C)CC[C@H](O)C(C)(C)[C@H]5CC[C@]34C)[C@@H]2C1
REMARK SMILES IDX 1 1 2 2 4 3 5 4 6 5 9 6 10 7 11 8 29 9 28 10 27 11 26 12
REMARK SMILES IDX 23 13 21 14 20 15 19 16 17 17 16 18 15 19 14 20 12 21 31 22
REMARK SMILES IDX 32 23 13 24 18 25 24 26 25 27 30 28 3 29 7 30 8 31 22 33
REMARK H PARENT 8 32 22 34
REMARK Flexibility Score: inf
ROOT
ATOM      1  C   UNL     1     128.358 119.877 144.006  1.00  0.00     0.011 C 
ATOM      2  C   UNL     1     127.287 120.836 144.583  1.00  0.00    -0.035 C 
ATOM      3  C   UNL     1     127.704 121.346 145.985  1.00  0.00     0.007 C 
ATOM      4  C   UNL     1     128.873 122.340 145.942  1.00  0.00     0.010 C 
ATOM      5  C   UNL     1     128.613 123.573 145.024  1.00  0.00     0.001 C 
ATOM      6  C   UNL     1     129.956 124.314 144.864  1.00  0.00     0.037 C 
ATOM      7  C   UNL     1     129.963 125.330 143.753  1.00  0.00    -0.026 C 
ATOM      8  C   UNL     1     129.303 125.178 142.569  1.00  0.00    -0.062 C 
ATOM      9  C   UNL     1     129.649 126.099 141.348  1.00  0.00    -0.008 C 
ATOM     10  C   UNL     1     131.088 126.671 141.454  1.00  0.00     0.012 C 
ATOM     11  C   UNL     1     131.561 127.416 140.208  1.00  0.00     0.006 C 
ATOM     12  C   UNL     1     131.579 126.564 138.912  1.00  0.00     0.003 C 
ATOM     13  C   UNL     1     132.105 127.436 137.666  1.00  0.00    -0.006 C 
ATOM     14  C   UNL     1     130.944 128.303 137.078  1.00  0.00     0.120 C 
ATOM     15  C   UNL     1     129.676 127.490 136.788  1.00  0.00     0.033 C 
ATOM     16  C   UNL     1     129.154 126.789 138.045  1.00  0.00     0.010 C 
ATOM     17  C   UNL     1     130.188 125.823 138.688  1.00  0.00    -0.025 C 
ATOM     18  C   UNL     1     129.623 125.205 140.052  1.00  0.00     0.005 C 
ATOM     19  C   UNL     1     128.253 124.491 139.919  1.00  0.00     0.006 C 
ATOM     20  C   UNL     1     128.003 123.552 141.102  1.00  0.00     0.012 C 
ATOM     21  C   UNL     1     128.069 124.230 142.504  1.00  0.00    -0.008 C 
ATOM     22  C   UNL     1     128.199 123.078 143.593  1.00  0.00     0.008 C 
ATOM     23  C   UNL     1     127.037 122.032 143.621  1.00  0.00     0.011 C 
ATOM     24  C   UNL     1     126.766 125.068 142.701  1.00  0.00     0.016 C 
ATOM     25  C   UNL     1     130.412 124.614 137.718  1.00  0.00     0.012 C 
ATOM     26  C   UNL     1     132.744 126.539 136.555  1.00  0.00     0.014 C 
ATOM     27  C   UNL     1     133.243 128.411 138.098  1.00  0.00     0.014 C 
ATOM     28  C   UNL     1     128.645 127.290 141.365  1.00  0.00     0.016 C 
ATOM     29  C   UNL     1     125.974 120.036 144.726  1.00  0.00     0.011 C 
ENDROOT
BRANCH   5  30
ATOM     30  C   UNL     1     127.618 124.548 145.736  1.00  0.00     0.163 C 
BRANCH  30  31
ATOM     31  O   UNL     1     127.739 124.518 147.129  1.00  0.00    -0.396 OA
ATOM     32  H   UNL     1     127.186 125.266 147.474  1.00  0.00     0.210 HD
ENDBRANCH  30  31
ENDBRANCH   5  30
BRANCH  14  33
ATOM     33  O   UNL     1     131.347 128.934 135.886  1.00  0.00    -0.393 OA
ATOM     34  H   UNL     1     130.608 128.828 135.230  1.00  0.00     0.210 HD
ENDBRANCH  14  33
TORSDOF 3
ENDMDL
MODEL 2
REMARK VINA RESULT:    -6.561      3.085      4.792
REMARK INTER + INTRA:          -7.378
REMARK INTER:                  -7.264
REMARK INTRA:                  -0.115
REMARK UNBOUND:                -0.050
REMARK SMILES CC1(C)CC[C@@]2(CO)CC=C3[C@@](C)(CC[C@H]4[C@@]5(C)CC[C@H](O)C(C)(C)[C@H]5CC[C@]34C)[C@@H]2C1
REMARK SMILES IDX 1 1 2 2 4 3 5 4 6 5 9 6 10 7 11 8 29 9 28 10 27 11 26 12
REMARK SMILES IDX 23 13 21 14 20 15 19 16 17 17 16 18 15 19 14 20 12 21 31 22
REMARK SMILES IDX 32 23 13 24 18 25 24 26 25 27 30 28 3 29 7 30 8 31 22 33
REMARK H PARENT 8 32 22 34
REMARK Flexibility Score: inf
ROOT
ATOM      1  C   UNL     1     131.430 120.569 148.525  1.00  0.00     0.011 C 
ATOM      2  C   UNL     1     130.184 121.391 148.940  1.00  0.00    -0.035 C 
ATOM      3  C   UNL     1     130.592 122.808 149.416  1.00  0.00     0.007 C 
ATOM      4  C   UNL     1     131.069 123.714 148.272  1.00  0.00     0.010 C 
ATOM      5  C   UNL     1     130.032 123.860 147.116  1.00  0.00     0.001 C 
ATOM      6  C   UNL     1     130.754 124.550 145.940  1.00  0.00     0.037 C 
ATOM      7  C   UNL     1     130.007 124.472 144.636  1.00  0.00    -0.026 C 
ATOM      8  C   UNL     1     129.265 123.399 144.240  1.00  0.00    -0.062 C 
ATOM      9  C   UNL     1     128.824 123.254 142.741  1.00  0.00    -0.008 C 
ATOM     10  C   UNL     1     129.770 124.034 141.790  1.00  0.00     0.012 C 
ATOM     11  C   UNL     1     129.517 123.780 140.306  1.00  0.00     0.006 C 
ATOM     12  C   UNL     1     129.667 122.300 139.869  1.00  0.00     0.003 C 
ATOM     13  C   UNL     1     129.396 122.143 138.290  1.00  0.00    -0.006 C 
ATOM     14  C   UNL     1     127.860 122.071 138.004  1.00  0.00     0.120 C 
ATOM     15  C   UNL     1     127.137 121.035 138.874  1.00  0.00     0.033 C 
ATOM     16  C   UNL     1     127.329 121.316 140.366  1.00  0.00     0.010 C 
ATOM     17  C   UNL     1     128.819 121.331 140.806  1.00  0.00    -0.025 C 
ATOM     18  C   UNL     1     128.957 121.735 142.348  1.00  0.00     0.005 C 
ATOM     19  C   UNL     1     128.134 120.853 143.323  1.00  0.00     0.006 C 
ATOM     20  C   UNL     1     128.656 120.980 144.756  1.00  0.00     0.012 C 
ATOM     21  C   UNL     1     128.687 122.434 145.318  1.00  0.00    -0.008 C 
ATOM     22  C   UNL     1     129.612 122.434 146.612  1.00  0.00     0.008 C 
ATOM     23  C   UNL     1     129.165 121.484 147.769  1.00  0.00     0.011 C 
ATOM     24  C   UNL     1     127.222 122.857 145.654  1.00  0.00     0.016 C 
ATOM     25  C   UNL     1     129.392 119.879 140.679  1.00  0.00     0.012 C 
ATOM     26  C   UNL     1     130.130 120.897 137.693  1.00  0.00     0.014 C 
ATOM     27  C   UNL     1     129.961 123.361 137.496  1.00  0.00     0.014 C 
ATOM     28  C   UNL     1     127.393 123.859 142.617  1.00  0.00     0.016 C 
ATOM     29  C   UNL     1     129.513 120.655 150.121  1.00  0.00     0.011 C 
ENDROOT
BRANCH   5  30
ATOM     30  C   UNL     1     128.872 124.803 147.577  1.00  0.00     0.163 C 
BRANCH  30  31
ATOM     31  O   UNL     1     129.338 126.009 148.109  1.00  0.00    -0.396 OA
ATOM     32  H   UNL     1     129.082 126.010 149.068  1.00  0.00     0.210 HD
ENDBRANCH  30  31
ENDBRANCH   5  30
BRANCH  14  33
ATOM     33  O   UNL     1     127.618 121.760 136.653  1.00  0.00    -0.393 OA
ATOM     34  H   UNL     1     127.889 122.548 136.113  1.00  0.00     0.210 HD
ENDBRANCH  14  33
TORSDOF 3
ENDMDL
MODEL 3
REMARK VINA RESULT:    -6.492      9.248     11.939
REMARK INTER + INTRA:          -7.301
REMARK INTER:                  -7.182
REMARK INTRA:                  -0.120
REMARK UNBOUND:                -0.050
REMARK SMILES CC1(C)CC[C@@]2(CO)CC=C3[C@@](C)(CC[C@H]4[C@@]5(C)CC[C@H](O)C(C)(C)[C@H]5CC[C@]34C)[C@@H]2C1
REMARK SMILES IDX 1 1 2 2 4 3 5 4 6 5 9 6 10 7 11 8 29 9 28 10 27 11 26 12
REMARK SMILES IDX 23 13 21 14 20 15 19 16 17 17 16 18 15 19 14 20 12 21 31 22
REMARK SMILES IDX 32 23 13 24 18 25 24 26 25 27 30 28 3 29 7 30 8 31 22 33
REMARK H PARENT 8 32 22 34
REMARK Flexibility Score: inf
ROOT
ATOM      1  C   UNL     1     136.375 137.474 142.625  1.00  0.00     0.011 C 
ATOM      2  C   UNL     1     137.306 136.578 143.479  1.00  0.00    -0.035 C 
ATOM      3  C   UNL     1     136.536 135.966 144.675  1.00  0.00     0.007 C 
ATOM      4  C   UNL     1     135.532 134.883 144.255  1.00  0.00     0.010 C 
ATOM      5  C   UNL     1     136.171 133.723 143.432  1.00  0.00     0.001 C 
ATOM      6  C   UNL     1     135.014 132.883 142.853  1.00  0.00     0.037 C 
ATOM      7  C   UNL     1     135.438 131.927 141.770  1.00  0.00    -0.026 C 
ATOM      8  C   UNL     1     136.407 132.192 140.848  1.00  0.00    -0.062 C 
ATOM      9  C   UNL     1     136.532 131.308 139.558  1.00  0.00    -0.008 C 
ATOM     10  C   UNL     1     135.188 130.616 139.207  1.00  0.00     0.012 C 
ATOM     11  C   UNL     1     135.185 129.898 137.860  1.00  0.00     0.006 C 
ATOM     12  C   UNL     1     135.479 130.809 136.640  1.00  0.00     0.003 C 
ATOM     13  C   UNL     1     135.438 129.961 135.273  1.00  0.00    -0.006 C 
ATOM     14  C   UNL     1     136.798 129.222 135.048  1.00  0.00     0.120 C 
ATOM     15  C   UNL     1     138.012 130.151 135.177  1.00  0.00     0.033 C 
ATOM     16  C   UNL     1     138.062 130.828 136.548  1.00  0.00     0.010 C 
ATOM     17  C   UNL     1     136.798 131.673 136.868  1.00  0.00    -0.025 C 
ATOM     18  C   UNL     1     136.865 132.265 138.353  1.00  0.00     0.005 C 
ATOM     19  C   UNL     1     138.138 133.095 138.660  1.00  0.00     0.006 C 
ATOM     20  C   UNL     1     137.931 133.991 139.884  1.00  0.00     0.012 C 
ATOM     21  C   UNL     1     137.509 133.240 141.184  1.00  0.00    -0.008 C 
ATOM     22  C   UNL     1     136.949 134.322 142.207  1.00  0.00     0.008 C 
ATOM     23  C   UNL     1     137.945 135.456 142.612  1.00  0.00     0.011 C 
ATOM     24  C   UNL     1     138.764 132.503 141.749  1.00  0.00     0.016 C 
ATOM     25  C   UNL     1     136.764 132.906 135.903  1.00  0.00     0.012 C 
ATOM     26  C   UNL     1     135.082 130.857 134.041  1.00  0.00     0.014 C 
ATOM     27  C   UNL     1     134.319 128.875 135.316  1.00  0.00     0.014 C 
ATOM     28  C   UNL     1     137.592 130.204 139.854  1.00  0.00     0.016 C 
ATOM     29  C   UNL     1     138.434 137.476 144.033  1.00  0.00     0.011 C 
ENDROOT
BRANCH   5  30
ATOM     30  C   UNL     1     136.992 132.799 144.391  1.00  0.00     0.163 C 
BRANCH  30  31
ATOM     31  O   UNL     1     136.193 132.184 145.360  1.00  0.00    -0.396 OA
ATOM     32  H   UNL     1     135.252 132.385 145.117  1.00  0.00     0.210 HD
ENDBRANCH  30  31
ENDBRANCH   5  30
BRANCH  14  33
ATOM     33  O   UNL     1     136.834 128.622 133.775  1.00  0.00    -0.393 OA
ATOM     34  H   UNL     1     137.652 128.059 133.735  1.00  0.00     0.210 HD
ENDBRANCH  14  33
TORSDOF 3
ENDMDL
MODEL 4
REMARK VINA RESULT:    -6.332      3.405      5.670
REMARK INTER + INTRA:          -7.122
REMARK INTER:                  -7.089
REMARK INTRA:                  -0.033
REMARK UNBOUND:                -0.050
REMARK SMILES CC1(C)CC[C@@]2(CO)CC=C3[C@@](C)(CC[C@H]4[C@@]5(C)CC[C@H](O)C(C)(C)[C@H]5CC[C@]34C)[C@@H]2C1
REMARK SMILES IDX 1 1 2 2 4 3 5 4 6 5 9 6 10 7 11 8 29 9 28 10 27 11 26 12
REMARK SMILES IDX 23 13 21 14 20 15 19 16 17 17 16 18 15 19 14 20 12 21 31 22
REMARK SMILES IDX 32 23 13 24 18 25 24 26 25 27 30 28 3 29 7 30 8 31 22 33
REMARK H PARENT 8 32 22 34
REMARK Flexibility Score: inf
ROOT
ATOM      1  C   UNL     1     132.977 127.045 147.049  1.00  0.00     0.011 C 
ATOM      2  C   UNL     1     131.808 128.055 146.932  1.00  0.00    -0.035 C 
ATOM      3  C   UNL     1     132.333 129.465 146.562  1.00  0.00     0.007 C 
ATOM      4  C   UNL     1     132.838 129.560 145.115  1.00  0.00     0.010 C 
ATOM      5  C   UNL     1     131.778 129.132 144.054  1.00  0.00     0.001 C 
ATOM      6  C   UNL     1     132.510 129.011 142.702  1.00  0.00     0.037 C 
ATOM      7  C   UNL     1     131.718 128.293 141.642  1.00  0.00    -0.026 C 
ATOM      8  C   UNL     1     130.887 127.239 141.887  1.00  0.00    -0.062 C 
ATOM      9  C   UNL     1     130.389 126.336 140.705  1.00  0.00    -0.008 C 
ATOM     10  C   UNL     1     131.358 126.394 139.494  1.00  0.00     0.012 C 
ATOM     11  C   UNL     1     131.041 125.392 138.387  1.00  0.00     0.006 C 
ATOM     12  C   UNL     1     131.068 123.907 138.831  1.00  0.00     0.003 C 
ATOM     13  C   UNL     1     130.736 122.937 137.591  1.00  0.00    -0.006 C 
ATOM     14  C   UNL     1     129.190 122.841 137.371  1.00  0.00     0.120 C 
ATOM     15  C   UNL     1     128.422 122.507 138.656  1.00  0.00     0.033 C 
ATOM     16  C   UNL     1     128.682 123.541 139.754  1.00  0.00     0.010 C 
ATOM     17  C   UNL     1     130.182 123.676 140.134  1.00  0.00    -0.025 C 
ATOM     18  C   UNL     1     130.399 124.844 141.207  1.00  0.00     0.005 C 
ATOM     19  C   UNL     1     129.545 124.703 142.494  1.00  0.00     0.006 C 
ATOM     20  C   UNL     1     130.121 125.550 143.632  1.00  0.00     0.012 C 
ATOM     21  C   UNL     1     130.275 127.068 143.309  1.00  0.00    -0.008 C 
ATOM     22  C   UNL     1     131.239 127.701 144.405  1.00  0.00     0.008 C 
ATOM     23  C   UNL     1     130.761 127.574 145.887  1.00  0.00     0.011 C 
ATOM     24  C   UNL     1     128.856 127.719 143.340  1.00  0.00     0.016 C 
ATOM     25  C   UNL     1     130.644 122.350 140.828  1.00  0.00     0.012 C 
ATOM     26  C   UNL     1     131.358 121.514 137.780  1.00  0.00     0.014 C 
ATOM     27  C   UNL     1     131.362 123.475 136.268  1.00  0.00     0.014 C 
ATOM     28  C   UNL     1     129.003 126.885 140.252  1.00  0.00     0.016 C 
ATOM     29  C   UNL     1     131.123 128.137 148.314  1.00  0.00     0.011 C 
ENDROOT
BRANCH   5  30
ATOM     30  C   UNL     1     130.705 130.262 143.910  1.00  0.00     0.163 C 
BRANCH  30  31
ATOM     31  O   UNL     1     131.072 131.237 142.977  1.00  0.00    -0.396 OA
ATOM     32  H   UNL     1     132.034 131.424 143.130  1.00  0.00     0.210 HD
ENDBRANCH  30  31
ENDBRANCH   5  30
BRANCH  14  33
ATOM     33  O   UNL     1     128.883 121.864 136.406  1.00  0.00    -0.393 OA
ATOM     34  H   UNL     1     129.034 120.976 136.824  1.00  0.00     0.210 HD
ENDBRANCH  14  33
TORSDOF 3
ENDMDL
MODEL 5
REMARK VINA RESULT:    -6.280      3.803      5.200
REMARK INTER + INTRA:          -7.064
REMARK INTER:                  -6.944
REMARK INTRA:                  -0.120
REMARK UNBOUND:                -0.050
REMARK SMILES CC1(C)CC[C@@]2(CO)CC=C3[C@@](C)(CC[C@H]4[C@@]5(C)CC[C@H](O)C(C)(C)[C@H]5CC[C@]34C)[C@@H]2C1
REMARK SMILES IDX 1 1 2 2 4 3 5 4 6 5 9 6 10 7 11 8 29 9 28 10 27 11 26 12
REMARK SMILES IDX 23 13 21 14 20 15 19 16 17 17 16 18 15 19 14 20 12 21 31 22
REMARK SMILES IDX 32 23 13 24 18 25 24 26 25 27 30 28 3 29 7 30 8 31 22 33
REMARK H PARENT 8 32 22 34
REMARK Flexibility Score: inf
ROOT
ATOM      1  C   UNL     1     129.551 122.090 141.135  1.00  0.00     0.011 C 
ATOM      2  C   UNL     1     128.227 122.634 141.726  1.00  0.00    -0.035 C 
ATOM      3  C   UNL     1     127.892 121.930 143.065  1.00  0.00     0.007 C 
ATOM      4  C   UNL     1     128.821 122.346 144.214  1.00  0.00     0.010 C 
ATOM      5  C   UNL     1     128.859 123.886 144.461  1.00  0.00     0.001 C 
ATOM      6  C   UNL     1     130.025 124.163 145.432  1.00  0.00     0.037 C 
ATOM      7  C   UNL     1     130.414 125.615 145.518  1.00  0.00    -0.026 C 
ATOM      8  C   UNL     1     130.390 126.480 144.464  1.00  0.00    -0.062 C 
ATOM      9  C   UNL     1     131.140 127.855 144.555  1.00  0.00    -0.008 C 
ATOM     10  C   UNL     1     132.290 127.811 145.596  1.00  0.00     0.012 C 
ATOM     11  C   UNL     1     133.184 129.048 145.596  1.00  0.00     0.006 C 
ATOM     12  C   UNL     1     133.895 129.334 144.249  1.00  0.00     0.003 C 
ATOM     13  C   UNL     1     134.821 130.646 144.361  1.00  0.00    -0.006 C 
ATOM     14  C   UNL     1     133.959 131.939 144.179  1.00  0.00     0.120 C 
ATOM     15  C   UNL     1     133.074 131.897 142.927  1.00  0.00     0.033 C 
ATOM     16  C   UNL     1     132.126 130.695 142.945  1.00  0.00     0.010 C 
ATOM     17  C   UNL     1     132.862 129.329 143.037  1.00  0.00    -0.025 C 
ATOM     18  C   UNL     1     131.817 128.123 143.159  1.00  0.00     0.005 C 
ATOM     19  C   UNL     1     130.758 128.070 142.027  1.00  0.00     0.006 C 
ATOM     20  C   UNL     1     130.113 126.684 141.940  1.00  0.00     0.012 C 
ATOM     21  C   UNL     1     129.448 126.185 143.260  1.00  0.00    -0.008 C 
ATOM     22  C   UNL     1     129.207 124.619 143.117  1.00  0.00     0.008 C 
ATOM     23  C   UNL     1     128.299 124.174 141.926  1.00  0.00     0.011 C 
ATOM     24  C   UNL     1     128.107 126.962 143.452  1.00  0.00     0.016 C 
ATOM     25  C   UNL     1     133.650 129.095 141.704  1.00  0.00     0.012 C 
ATOM     26  C   UNL     1     136.001 130.616 143.334  1.00  0.00     0.014 C 
ATOM     27  C   UNL     1     135.507 130.736 145.758  1.00  0.00     0.014 C 
ATOM     28  C   UNL     1     130.101 128.921 145.015  1.00  0.00     0.016 C 
ATOM     29  C   UNL     1     127.102 122.320 140.715  1.00  0.00     0.011 C 
ENDROOT
BRANCH   5  30
ATOM     30  C   UNL     1     127.538 124.329 145.171  1.00  0.00     0.163 C 
BRANCH  30  31
ATOM     31  O   UNL     1     127.327 123.662 146.382  1.00  0.00    -0.396 OA
ATOM     32  H   UNL     1     126.777 122.864 146.170  1.00  0.00     0.210 HD
ENDBRANCH  30  31
ENDBRANCH   5  30
BRANCH  14  33
ATOM     33  O   UNL     1     134.781 133.079 144.101  1.00  0.00    -0.393 OA
ATOM     34  H   UNL     1     134.212 133.869 144.293  1.00  0.00     0.210 HD
ENDBRANCH  14  33
TORSDOF 3
ENDMDL
MODEL 6
REMARK VINA RESULT:    -6.267     11.634     14.595
REMARK INTER + INTRA:          -7.050
REMARK INTER:                  -6.931
REMARK INTRA:                  -0.119
REMARK UNBOUND:                -0.050
REMARK SMILES CC1(C)CC[C@@]2(CO)CC=C3[C@@](C)(CC[C@H]4[C@@]5(C)CC[C@H](O)C(C)(C)[C@H]5CC[C@]34C)[C@@H]2C1
REMARK SMILES IDX 1 1 2 2 4 3 5 4 6 5 9 6 10 7 11 8 29 9 28 10 27 11 26 12
REMARK SMILES IDX 23 13 21 14 20 15 19 16 17 17 16 18 15 19 14 20 12 21 31 22
REMARK SMILES IDX 32 23 13 24 18 25 24 26 25 27 30 28 3 29 7 30 8 31 22 33
REMARK H PARENT 8 32 22 34
REMARK Flexibility Score: inf
ROOT
ATOM      1  C   UNL     1     137.503 133.745 133.312  1.00  0.00     0.011 C 
ATOM      2  C   UNL     1     137.684 132.261 133.718  1.00  0.00    -0.035 C 
ATOM      3  C   UNL     1     139.148 131.804 133.497  1.00  0.00     0.007 C 
ATOM      4  C   UNL     1     140.130 132.418 134.504  1.00  0.00     0.010 C 
ATOM      5  C   UNL     1     139.748 132.151 135.992  1.00  0.00     0.001 C 
ATOM      6  C   UNL     1     140.649 133.051 136.863  1.00  0.00     0.037 C 
ATOM      7  C   UNL     1     140.193 133.168 138.293  1.00  0.00    -0.026 C 
ATOM      8  C   UNL     1     138.887 133.197 138.683  1.00  0.00    -0.062 C 
ATOM      9  C   UNL     1     138.505 133.675 140.127  1.00  0.00    -0.008 C 
ATOM     10  C   UNL     1     139.595 134.601 140.729  1.00  0.00     0.012 C 
ATOM     11  C   UNL     1     139.201 135.259 142.049  1.00  0.00     0.006 C 
ATOM     12  C   UNL     1     137.935 136.151 141.975  1.00  0.00     0.003 C 
ATOM     13  C   UNL     1     137.617 136.806 143.411  1.00  0.00    -0.006 C 
ATOM     14  C   UNL     1     136.845 135.790 144.315  1.00  0.00     0.120 C 
ATOM     15  C   UNL     1     135.626 135.174 143.618  1.00  0.00     0.033 C 
ATOM     16  C   UNL     1     136.016 134.455 142.325  1.00  0.00     0.010 C 
ATOM     17  C   UNL     1     136.722 135.379 141.293  1.00  0.00    -0.025 C 
ATOM     18  C   UNL     1     137.199 134.547 140.012  1.00  0.00     0.005 C 
ATOM     19  C   UNL     1     136.075 133.743 139.309  1.00  0.00     0.006 C 
ATOM     20  C   UNL     1     136.476 133.368 137.880  1.00  0.00     0.012 C 
ATOM     21  C   UNL     1     137.805 132.561 137.761  1.00  0.00    -0.008 C 
ATOM     22  C   UNL     1     138.271 132.616 136.241  1.00  0.00     0.008 C 
ATOM     23  C   UNL     1     137.263 132.035 135.198  1.00  0.00     0.011 C 
ATOM     24  C   UNL     1     137.528 131.096 138.229  1.00  0.00     0.016 C 
ATOM     25  C   UNL     1     135.684 136.431 140.773  1.00  0.00     0.012 C 
ATOM     26  C   UNL     1     136.819 138.146 143.277  1.00  0.00     0.014 C 
ATOM     27  C   UNL     1     138.929 137.193 144.159  1.00  0.00     0.014 C 
ATOM     28  C   UNL     1     138.389 132.405 141.021  1.00  0.00     0.016 C 
ATOM     29  C   UNL     1     136.766 131.414 132.809  1.00  0.00     0.011 C 
ENDROOT
BRANCH   5  30
ATOM     30  C   UNL     1     140.078 130.665 136.352  1.00  0.00     0.163 C 
BRANCH  30  31
ATOM     31  O   UNL     1     141.446 130.383 136.277  1.00  0.00    -0.396 OA
ATOM     32  H   UNL     1     141.916 131.253 136.358  1.00  0.00     0.210 HD
ENDBRANCH  30  31
ENDBRANCH   5  30
BRANCH  14  33
ATOM     33  O   UNL     1     136.410 136.409 145.502  1.00  0.00    -0.393 OA
ATOM     34  H   UNL     1     136.228 137.362 145.291  1.00  0.00     0.210 HD
ENDBRANCH  14  33
TORSDOF 3
ENDMDL
MODEL 7
REMARK VINA RESULT:    -6.243      4.631      9.493
REMARK INTER + INTRA:          -7.023
REMARK INTER:                  -6.904
REMARK INTRA:                  -0.119
REMARK UNBOUND:                -0.050
REMARK SMILES CC1(C)CC[C@@]2(CO)CC=C3[C@@](C)(CC[C@H]4[C@@]5(C)CC[C@H](O)C(C)(C)[C@H]5CC[C@]34C)[C@@H]2C1
REMARK SMILES IDX 1 1 2 2 4 3 5 4 6 5 9 6 10 7 11 8 29 9 28 10 27 11 26 12
REMARK SMILES IDX 23 13 21 14 20 15 19 16 17 17 16 18 15 19 14 20 12 21 31 22
REMARK SMILES IDX 32 23 13 24 18 25 24 26 25 27 30 28 3 29 7 30 8 31 22 33
REMARK H PARENT 8 32 22 34
REMARK Flexibility Score: inf
ROOT
ATOM      1  C   UNL     1     138.595 127.946 143.596  1.00  0.00     0.011 C 
ATOM      2  C   UNL     1     138.389 129.476 143.472  1.00  0.00    -0.035 C 
ATOM      3  C   UNL     1     138.604 129.944 142.011  1.00  0.00     0.007 C 
ATOM      4  C   UNL     1     137.477 129.505 141.066  1.00  0.00     0.010 C 
ATOM      5  C   UNL     1     136.059 129.960 141.528  1.00  0.00     0.001 C 
ATOM      6  C   UNL     1     135.032 129.216 140.651  1.00  0.00     0.037 C 
ATOM      7  C   UNL     1     133.622 129.282 141.174  1.00  0.00    -0.026 C 
ATOM      8  C   UNL     1     133.293 129.265 142.497  1.00  0.00    -0.062 C 
ATOM      9  C   UNL     1     131.816 128.977 142.940  1.00  0.00    -0.008 C 
ATOM     10  C   UNL     1     131.041 128.177 141.858  1.00  0.00     0.012 C 
ATOM     11  C   UNL     1     129.663 127.694 142.302  1.00  0.00     0.006 C 
ATOM     12  C   UNL     1     129.672 126.760 143.540  1.00  0.00     0.003 C 
ATOM     13  C   UNL     1     128.176 126.298 143.914  1.00  0.00    -0.006 C 
ATOM     14  C   UNL     1     127.457 127.404 144.755  1.00  0.00     0.120 C 
ATOM     15  C   UNL     1     128.288 127.880 145.952  1.00  0.00     0.033 C 
ATOM     16  C   UNL     1     129.649 128.427 145.515  1.00  0.00     0.010 C 
ATOM     17  C   UNL     1     130.510 127.394 144.737  1.00  0.00    -0.025 C 
ATOM     18  C   UNL     1     131.870 128.057 144.216  1.00  0.00     0.005 C 
ATOM     19  C   UNL     1     132.728 128.722 145.323  1.00  0.00     0.006 C 
ATOM     20  C   UNL     1     134.175 128.911 144.861  1.00  0.00     0.012 C 
ATOM     21  C   UNL     1     134.342 129.736 143.548  1.00  0.00    -0.008 C 
ATOM     22  C   UNL     1     135.817 129.487 143.005  1.00  0.00     0.008 C 
ATOM     23  C   UNL     1     136.977 129.889 143.973  1.00  0.00     0.011 C 
ATOM     24  C   UNL     1     134.095 131.241 143.883  1.00  0.00     0.016 C 
ATOM     25  C   UNL     1     130.927 126.249 145.720  1.00  0.00     0.012 C 
ATOM     26  C   UNL     1     128.161 124.929 144.670  1.00  0.00     0.014 C 
ATOM     27  C   UNL     1     127.321 126.058 142.631  1.00  0.00     0.014 C 
ATOM     28  C   UNL     1     131.112 130.354 143.131  1.00  0.00     0.016 C 
ATOM     29  C   UNL     1     139.448 130.162 144.364  1.00  0.00     0.011 C 
ENDROOT
BRANCH   5  30
ATOM     30  C   UNL     1     135.893 131.492 141.254  1.00  0.00     0.163 C 
BRANCH  30  31
ATOM     31  O   UNL     1     135.931 131.802 139.890  1.00  0.00    -0.396 OA
ATOM     32  H   UNL     1     134.992 131.968 139.615  1.00  0.00     0.210 HD
ENDBRANCH  30  31
ENDBRANCH   5  30
BRANCH  14  33
ATOM     33  O   UNL     1     126.217 126.940 145.233  1.00  0.00    -0.393 OA
ATOM     34  H   UNL     1     126.267 125.949 145.275  1.00  0.00     0.210 HD
ENDBRANCH  14  33
TORSDOF 3
ENDMDL
MODEL 8
REMARK VINA RESULT:    -6.219      2.838      3.824
REMARK INTER + INTRA:          -6.997
REMARK INTER:                  -6.879
REMARK INTRA:                  -0.118
REMARK UNBOUND:                -0.050
REMARK SMILES CC1(C)CC[C@@]2(CO)CC=C3[C@@](C)(CC[C@H]4[C@@]5(C)CC[C@H](O)C(C)(C)[C@H]5CC[C@]34C)[C@@H]2C1
REMARK SMILES IDX 1 1 2 2 4 3 5 4 6 5 9 6 10 7 11 8 29 9 28 10 27 11 26 12
REMARK SMILES IDX 23 13 21 14 20 15 19 16 17 17 16 18 15 19 14 20 12 21 31 22
REMARK SMILES IDX 32 23 13 24 18 25 24 26 25 27 30 28 3 29 7 30 8 31 22 33
REMARK H PARENT 8 32 22 34
REMARK Flexibility Score: inf
ROOT
ATOM      1  C   UNL     1     131.655 124.376 147.137  1.00  0.00     0.011 C 
ATOM      2  C   UNL     1     130.456 125.350 147.257  1.00  0.00    -0.035 C 
ATOM      3  C   UNL     1     130.928 126.750 147.723  1.00  0.00     0.007 C 
ATOM      4  C   UNL     1     131.710 127.513 146.645  1.00  0.00     0.010 C 
ATOM      5  C   UNL     1     130.931 127.675 145.304  1.00  0.00     0.001 C 
ATOM      6  C   UNL     1     131.933 128.197 144.254  1.00  0.00     0.037 C 
ATOM      7  C   UNL     1     131.438 128.096 142.836  1.00  0.00    -0.026 C 
ATOM      8  C   UNL     1     130.664 127.077 142.364  1.00  0.00    -0.062 C 
ATOM      9  C   UNL     1     130.497 126.865 140.818  1.00  0.00    -0.008 C 
ATOM     10  C   UNL     1     131.687 127.470 140.026  1.00  0.00     0.012 C 
ATOM     11  C   UNL     1     131.687 127.130 138.538  1.00  0.00     0.006 C 
ATOM     12  C   UNL     1     131.745 125.614 138.221  1.00  0.00     0.003 C 
ATOM     13  C   UNL     1     131.756 125.366 136.630  1.00  0.00    -0.006 C 
ATOM     14  C   UNL     1     130.302 125.429 136.058  1.00  0.00     0.120 C 
ATOM     15  C   UNL     1     129.316 124.542 136.827  1.00  0.00     0.033 C 
ATOM     16  C   UNL     1     129.258 124.915 138.310  1.00  0.00     0.010 C 
ATOM     17  C   UNL     1     130.632 124.811 139.029  1.00  0.00    -0.025 C 
ATOM     18  C   UNL     1     130.526 125.315 140.544  1.00  0.00     0.005 C 
ATOM     19  C   UNL     1     129.440 124.598 141.387  1.00  0.00     0.006 C 
ATOM     20  C   UNL     1     129.697 124.780 142.886  1.00  0.00     0.012 C 
ATOM     21  C   UNL     1     129.789 126.262 143.361  1.00  0.00    -0.008 C 
ATOM     22  C   UNL     1     130.451 126.266 144.808  1.00  0.00     0.008 C 
ATOM     23  C   UNL     1     129.690 125.457 145.908  1.00  0.00     0.011 C 
ATOM     24  C   UNL     1     128.345 126.857 143.384  1.00  0.00     0.016 C 
ATOM     25  C   UNL     1     131.048 123.302 139.095  1.00  0.00     0.012 C 
ATOM     26  C   UNL     1     132.441 124.010 136.256  1.00  0.00     0.014 C 
ATOM     27  C   UNL     1     132.595 126.455 135.895  1.00  0.00     0.014 C 
ATOM     28  C   UNL     1     129.193 127.601 140.387  1.00  0.00     0.016 C 
ATOM     29  C   UNL     1     129.497 124.778 148.324  1.00  0.00     0.011 C 
ENDROOT
BRANCH   5  30
ATOM     30  C   UNL     1     129.821 128.764 145.479  1.00  0.00     0.163 C 
BRANCH  30  31
ATOM     31  O   UNL     1     130.349 130.049 145.646  1.00  0.00    -0.396 OA
ATOM     32  H   UNL     1     129.573 130.658 145.754  1.00  0.00     0.210 HD
ENDBRANCH  30  31
ENDBRANCH   5  30
BRANCH  14  33
ATOM     33  O   UNL     1     130.282 125.043 134.704  1.00  0.00    -0.393 OA
ATOM     34  H   UNL     1     131.048 125.489 134.256  1.00  0.00     0.210 HD
ENDBRANCH  14  33
TORSDOF 3
ENDMDL
MODEL 9
REMARK VINA RESULT:    -6.194      1.892      8.455
REMARK INTER + INTRA:          -6.969
REMARK INTER:                  -6.874
REMARK INTRA:                  -0.095
REMARK UNBOUND:                -0.050
REMARK SMILES CC1(C)CC[C@@]2(CO)CC=C3[C@@](C)(CC[C@H]4[C@@]5(C)CC[C@H](O)C(C)(C)[C@H]5CC[C@]34C)[C@@H]2C1
REMARK SMILES IDX 1 1 2 2 4 3 5 4 6 5 9 6 10 7 11 8 29 9 28 10 27 11 26 12
REMARK SMILES IDX 23 13 21 14 20 15 19 16 17 17 16 18 15 19 14 20 12 21 31 22
REMARK SMILES IDX 32 23 13 24 18 25 24 26 25 27 30 28 3 29 7 30 8 31 22 33
REMARK H PARENT 8 32 22 34
REMARK Flexibility Score: inf
ROOT
ATOM      1  C   UNL     1     128.281 127.396 134.948  1.00  0.00     0.011 C 
ATOM      2  C   UNL     1     129.694 126.824 134.670  1.00  0.00    -0.035 C 
ATOM      3  C   UNL     1     130.782 127.899 134.912  1.00  0.00     0.007 C 
ATOM      4  C   UNL     1     130.980 128.231 136.398  1.00  0.00     0.010 C 
ATOM      5  C   UNL     1     131.309 126.987 137.278  1.00  0.00     0.001 C 
ATOM      6  C   UNL     1     131.199 127.429 138.752  1.00  0.00     0.037 C 
ATOM      7  C   UNL     1     131.158 126.286 139.730  1.00  0.00    -0.026 C 
ATOM      8  C   UNL     1     130.541 125.093 139.492  1.00  0.00    -0.062 C 
ATOM      9  C   UNL     1     130.240 124.110 140.676  1.00  0.00    -0.008 C 
ATOM     10  C   UNL     1     130.151 124.859 142.033  1.00  0.00     0.012 C 
ATOM     11  C   UNL     1     129.669 123.996 143.196  1.00  0.00     0.006 C 
ATOM     12  C   UNL     1     128.260 123.380 143.004  1.00  0.00     0.003 C 
ATOM     13  C   UNL     1     127.842 122.504 144.288  1.00  0.00    -0.006 C 
ATOM     14  C   UNL     1     128.477 121.077 144.206  1.00  0.00     0.120 C 
ATOM     15  C   UNL     1     128.221 120.385 142.862  1.00  0.00     0.033 C 
ATOM     16  C   UNL     1     128.757 121.210 141.690  1.00  0.00     0.010 C 
ATOM     17  C   UNL     1     128.141 122.634 141.602  1.00  0.00    -0.025 C 
ATOM     18  C   UNL     1     128.818 123.480 140.425  1.00  0.00     0.005 C 
ATOM     19  C   UNL     1     128.768 122.803 139.031  1.00  0.00     0.006 C 
ATOM     20  C   UNL     1     128.996 123.824 137.913  1.00  0.00     0.012 C 
ATOM     21  C   UNL     1     130.328 124.629 138.021  1.00  0.00    -0.008 C 
ATOM     22  C   UNL     1     130.212 125.888 137.055  1.00  0.00     0.008 C 
ATOM     23  C   UNL     1     129.966 125.568 135.545  1.00  0.00     0.011 C 
ATOM     24  C   UNL     1     131.501 123.685 137.604  1.00  0.00     0.016 C 
ATOM     25  C   UNL     1     126.625 122.500 141.231  1.00  0.00     0.012 C 
ATOM     26  C   UNL     1     126.289 122.413 144.452  1.00  0.00     0.014 C 
ATOM     27  C   UNL     1     128.347 123.163 145.609  1.00  0.00     0.014 C 
ATOM     28  C   UNL     1     131.421 123.096 140.750  1.00  0.00     0.016 C 
ATOM     29  C   UNL     1     129.742 126.408 133.183  1.00  0.00     0.011 C 
ENDROOT
BRANCH   5  30
ATOM     30  C   UNL     1     132.790 126.551 137.026  1.00  0.00     0.163 C 
BRANCH  30  31
ATOM     31  O   UNL     1     133.713 127.375 137.680  1.00  0.00    -0.396 OA
ATOM     32  H   UNL     1     134.576 127.260 137.205  1.00  0.00     0.210 HD
ENDBRANCH  30  31
ENDBRANCH   5  30
BRANCH  14  33
ATOM     33  O   UNL     1     127.978 120.250 145.231  1.00  0.00    -0.393 OA
ATOM     34  H   UNL     1     128.469 120.480 146.063  1.00  0.00     0.210 HD
ENDBRANCH  14  33
TORSDOF 3
ENDMDL
