MODEL 1
REMARK VINA RESULT:    -5.137      0.000      0.000
REMARK INTER + INTRA:          -5.793
REMARK INTER:                  -5.587
REMARK INTRA:                  -0.206
REMARK UNBOUND:                -0.206
REMARK SMILES CC(=O)c1cc(C)ccc1O
REMARK SMILES IDX 7 1 6 2 5 3 4 4 10 5 9 6 8 7 2 8 3 9 1 10 11 11
REMARK H PARENT 11 12
REMARK Flexibility Score: inf
ROOT
ATOM      1  C   UNL     1      44.125 -42.751  -6.652  1.00  0.00     0.044 C 
ATOM      2  C   UNL     1      43.076 -41.991  -5.893  1.00  0.00    -0.050 A 
ATOM      3  C   UNL     1      43.430 -41.239  -4.762  1.00  0.00     0.019 A 
ATOM      4  C   UNL     1      42.464 -40.492  -4.056  1.00  0.00     0.059 A 
ATOM      5  C   UNL     1      41.127 -40.500  -4.521  1.00  0.00     0.126 A 
ATOM      6  C   UNL     1      40.785 -41.242  -5.660  1.00  0.00     0.047 A 
ATOM      7  C   UNL     1      41.752 -41.975  -6.346  1.00  0.00     0.007 A 
ENDROOT
BRANCH   4   8
ATOM      8  C   UNL     1      42.855 -39.713  -2.846  1.00  0.00     0.163 C 
ATOM      9  O   UNL     1      43.032 -38.468  -2.925  1.00  0.00    -0.294 OA
ATOM     10  C   UNL     1      43.017 -40.367  -1.505  1.00  0.00     0.093 C 
ENDBRANCH   4   8
BRANCH   5  11
ATOM     11  O   UNL     1      40.140 -39.765  -3.863  1.00  0.00    -0.507 OA
ATOM     12  H   UNL     1      39.903 -38.821  -4.144  1.00  0.00     0.293 HD
ENDBRANCH   5  11
TORSDOF 2
ENDMDL
MODEL 2
REMARK VINA RESULT:    -4.987      1.214      3.213
REMARK INTER + INTRA:          -5.630
REMARK INTER:                  -5.367
REMARK INTRA:                  -0.264
REMARK UNBOUND:                -0.206
REMARK SMILES CC(=O)c1cc(C)ccc1O
REMARK SMILES IDX 7 1 6 2 5 3 4 4 10 5 9 6 8 7 2 8 3 9 1 10 11 11
REMARK H PARENT 11 12
REMARK Flexibility Score: inf
ROOT
ATOM      1  C   UNL     1      43.805 -42.724  -6.731  1.00  0.00     0.044 C 
ATOM      2  C   UNL     1      43.049 -41.849  -5.774  1.00  0.00    -0.050 A 
ATOM      3  C   UNL     1      41.672 -41.637  -5.951  1.00  0.00     0.019 A 
ATOM      4  C   UNL     1      40.939 -40.845  -5.042  1.00  0.00     0.059 A 
ATOM      5  C   UNL     1      41.614 -40.279  -3.936  1.00  0.00     0.126 A 
ATOM      6  C   UNL     1      42.986 -40.509  -3.759  1.00  0.00     0.047 A 
ATOM      7  C   UNL     1      43.696 -41.294  -4.666  1.00  0.00     0.007 A 
ENDROOT
BRANCH   4   8
ATOM      8  C   UNL     1      39.480 -40.615  -5.257  1.00  0.00     0.163 C 
ATOM      9  O   UNL     1      38.637 -41.147  -4.486  1.00  0.00    -0.294 OA
ATOM     10  C   UNL     1      38.974 -39.729  -6.356  1.00  0.00     0.093 C 
ENDBRANCH   4   8
BRANCH   5  11
ATOM     11  O   UNL     1      40.927 -39.500  -3.004  1.00  0.00    -0.507 OA
ATOM     12  H   UNL     1      41.312 -39.303  -2.087  1.00  0.00     0.293 HD
ENDBRANCH   5  11
TORSDOF 2
ENDMDL
MODEL 3
REMARK VINA RESULT:    -4.589      1.345      1.428
REMARK INTER + INTRA:          -5.197
REMARK INTER:                  -4.912
REMARK INTRA:                  -0.285
REMARK UNBOUND:                -0.206
REMARK SMILES CC(=O)c1cc(C)ccc1O
REMARK SMILES IDX 7 1 6 2 5 3 4 4 10 5 9 6 8 7 2 8 3 9 1 10 11 11
REMARK H PARENT 11 12
REMARK Flexibility Score: inf
ROOT
ATOM      1  C   UNL     1      43.899 -41.729  -6.026  1.00  0.00     0.044 C 
ATOM      2  C   UNL     1      42.670 -41.287  -5.285  1.00  0.00    -0.050 A 
ATOM      3  C   UNL     1      42.789 -40.628  -4.052  1.00  0.00     0.019 A 
ATOM      4  C   UNL     1      41.647 -40.176  -3.358  1.00  0.00     0.059 A 
ATOM      5  C   UNL     1      40.373 -40.385  -3.938  1.00  0.00     0.126 A 
ATOM      6  C   UNL     1      40.265 -41.030  -5.178  1.00  0.00     0.047 A 
ATOM      7  C   UNL     1      41.403 -41.471  -5.850  1.00  0.00     0.007 A 
ENDROOT
BRANCH   4   8
ATOM      8  C   UNL     1      41.792 -39.494  -2.040  1.00  0.00     0.163 C 
ATOM      9  O   UNL     1      40.940 -39.685  -1.131  1.00  0.00    -0.294 OA
ATOM     10  C   UNL     1      42.957 -38.598  -1.738  1.00  0.00     0.093 C 
ENDBRANCH   4   8
BRANCH   5  11
ATOM     11  O   UNL     1      39.217 -39.942  -3.296  1.00  0.00    -0.507 OA
ATOM     12  H   UNL     1      38.661 -39.180  -3.665  1.00  0.00     0.293 HD
ENDBRANCH   5  11
TORSDOF 2
ENDMDL
MODEL 4
REMARK VINA RESULT:    -4.294      1.922      3.111
REMARK INTER + INTRA:          -4.877
REMARK INTER:                  -4.591
REMARK INTRA:                  -0.286
REMARK UNBOUND:                -0.206
REMARK SMILES CC(=O)c1cc(C)ccc1O
REMARK SMILES IDX 7 1 6 2 5 3 4 4 10 5 9 6 8 7 2 8 3 9 1 10 11 11
REMARK H PARENT 11 12
REMARK Flexibility Score: inf
ROOT
ATOM      1  C   UNL     1      38.147 -40.773  -4.231  1.00  0.00     0.044 C 
ATOM      2  C   UNL     1      39.641 -40.777  -4.372  1.00  0.00    -0.050 A 
ATOM      3  C   UNL     1      40.451 -40.364  -3.303  1.00  0.00     0.019 A 
ATOM      4  C   UNL     1      41.858 -40.392  -3.406  1.00  0.00     0.059 A 
ATOM      5  C   UNL     1      42.441 -40.861  -4.607  1.00  0.00     0.126 A 
ATOM      6  C   UNL     1      41.625 -41.286  -5.664  1.00  0.00     0.047 A 
ATOM      7  C   UNL     1      40.236 -41.252  -5.546  1.00  0.00     0.007 A 
ENDROOT
BRANCH   4   8
ATOM      8  C   UNL     1      42.702 -39.932  -2.266  1.00  0.00     0.163 C 
ATOM      9  O   UNL     1      43.442 -40.751  -1.656  1.00  0.00    -0.294 OA
ATOM     10  C   UNL     1      42.729 -38.496  -1.832  1.00  0.00     0.093 C 
ENDBRANCH   4   8
BRANCH   5  11
ATOM     11  O   UNL     1      43.828 -40.921  -4.749  1.00  0.00    -0.507 OA
ATOM     12  H   UNL     1      44.428 -41.236  -3.997  1.00  0.00     0.293 HD
ENDBRANCH   5  11
TORSDOF 2
ENDMDL
MODEL 5
REMARK VINA RESULT:    -4.123      2.425      3.808
REMARK INTER + INTRA:          -4.691
REMARK INTER:                  -4.393
REMARK INTRA:                  -0.297
REMARK UNBOUND:                -0.206
REMARK SMILES CC(=O)c1cc(C)ccc1O
REMARK SMILES IDX 7 1 6 2 5 3 4 4 10 5 9 6 8 7 2 8 3 9 1 10 11 11
REMARK H PARENT 11 12
REMARK Flexibility Score: inf
ROOT
ATOM      1  C   UNL     1      38.359 -39.067  -7.690  1.00  0.00     0.044 C 
ATOM      2  C   UNL     1      38.589 -39.765  -6.381  1.00  0.00    -0.050 A 
ATOM      3  C   UNL     1      39.883 -39.848  -5.844  1.00  0.00     0.019 A 
ATOM      4  C   UNL     1      40.112 -40.471  -4.599  1.00  0.00     0.059 A 
ATOM      5  C   UNL     1      39.007 -40.998  -3.889  1.00  0.00     0.126 A 
ATOM      6  C   UNL     1      37.716 -40.897  -4.426  1.00  0.00     0.047 A 
ATOM      7  C   UNL     1      37.507 -40.279  -5.658  1.00  0.00     0.007 A 
ENDROOT
BRANCH   4   8
ATOM      8  C   UNL     1      41.497 -40.566  -4.052  1.00  0.00     0.163 C 
ATOM      9  O   UNL     1      41.712 -40.341  -2.831  1.00  0.00    -0.294 OA
ATOM     10  C   UNL     1      42.660 -40.961  -4.914  1.00  0.00     0.093 C 
ENDBRANCH   4   8
BRANCH   5  11
ATOM     11  O   UNL     1      39.184 -41.610  -2.648  1.00  0.00    -0.507 OA
ATOM     12  H   UNL     1      38.411 -42.031  -2.146  1.00  0.00     0.293 HD
ENDBRANCH   5  11
TORSDOF 2
ENDMDL
MODEL 6
REMARK VINA RESULT:    -3.971     18.922     19.559
REMARK INTER + INTRA:          -4.526
REMARK INTER:                  -4.255
REMARK INTRA:                  -0.271
REMARK UNBOUND:                -0.206
REMARK SMILES CC(=O)c1cc(C)ccc1O
REMARK SMILES IDX 7 1 6 2 5 3 4 4 10 5 9 6 8 7 2 8 3 9 1 10 11 11
REMARK H PARENT 11 12
REMARK Flexibility Score: inf
ROOT
ATOM      1  C   UNL     1      25.492 -32.474   4.135  1.00  0.00     0.044 C 
ATOM      2  C   UNL     1      26.684 -31.596   3.889  1.00  0.00    -0.050 A 
ATOM      3  C   UNL     1      27.572 -31.302   4.936  1.00  0.00     0.019 A 
ATOM      4  C   UNL     1      28.716 -30.507   4.715  1.00  0.00     0.059 A 
ATOM      5  C   UNL     1      28.963 -30.021   3.410  1.00  0.00     0.126 A 
ATOM      6  C   UNL     1      28.080 -30.332   2.366  1.00  0.00     0.047 A 
ATOM      7  C   UNL     1      26.954 -31.119   2.602  1.00  0.00     0.007 A 
ENDROOT
BRANCH   4   8
ATOM      8  C   UNL     1      29.638 -30.190   5.844  1.00  0.00     0.163 C 
ATOM      9  O   UNL     1      30.797 -30.683   5.871  1.00  0.00    -0.294 OA
ATOM     10  C   UNL     1      29.239 -29.261   6.952  1.00  0.00     0.093 C 
ENDBRANCH   4   8
BRANCH   5  11
ATOM     11  O   UNL     1      30.089 -29.242   3.141  1.00  0.00    -0.507 OA
ATOM     12  H   UNL     1      31.019 -29.644   3.105  1.00  0.00     0.293 HD
ENDBRANCH   5  11
TORSDOF 2
ENDMDL
MODEL 7
REMARK VINA RESULT:    -3.895      3.562      5.380
REMARK INTER + INTRA:          -4.443
REMARK INTER:                  -4.143
REMARK INTRA:                  -0.300
REMARK UNBOUND:                -0.206
REMARK SMILES CC(=O)c1cc(C)ccc1O
REMARK SMILES IDX 7 1 6 2 5 3 4 4 10 5 9 6 8 7 2 8 3 9 1 10 11 11
REMARK H PARENT 11 12
REMARK Flexibility Score: inf
ROOT
ATOM      1  C   UNL     1      41.166 -41.250  -5.631  1.00  0.00     0.044 C 
ATOM      2  C   UNL     1      39.831 -40.671  -5.262  1.00  0.00    -0.050 A 
ATOM      3  C   UNL     1      39.142 -39.852  -6.170  1.00  0.00     0.019 A 
ATOM      4  C   UNL     1      37.872 -39.326  -5.853  1.00  0.00     0.059 A 
ATOM      5  C   UNL     1      37.294 -39.655  -4.604  1.00  0.00     0.126 A 
ATOM      6  C   UNL     1      37.982 -40.486  -3.710  1.00  0.00     0.047 A 
ATOM      7  C   UNL     1      39.237 -40.997  -4.038  1.00  0.00     0.007 A 
ENDROOT
BRANCH   4   8
ATOM      8  C   UNL     1      37.163 -38.443  -6.824  1.00  0.00     0.163 C 
ATOM      9  O   UNL     1      36.585 -37.398  -6.421  1.00  0.00    -0.294 OA
ATOM     10  C   UNL     1      37.143 -38.740  -8.294  1.00  0.00     0.093 C 
ENDBRANCH   4   8
BRANCH   5  11
ATOM     11  O   UNL     1      36.033 -39.170  -4.253  1.00  0.00    -0.507 OA
ATOM     12  H   UNL     1      35.243 -39.236  -4.884  1.00  0.00     0.293 HD
ENDBRANCH   5  11
TORSDOF 2
ENDMDL
MODEL 8
REMARK VINA RESULT:    -3.787      2.125      4.611
REMARK INTER + INTRA:          -4.325
REMARK INTER:                  -4.019
REMARK INTRA:                  -0.306
REMARK UNBOUND:                -0.206
REMARK SMILES CC(=O)c1cc(C)ccc1O
REMARK SMILES IDX 7 1 6 2 5 3 4 4 10 5 9 6 8 7 2 8 3 9 1 10 11 11
REMARK H PARENT 11 12
REMARK Flexibility Score: inf
ROOT
ATOM      1  C   UNL     1      39.812 -40.416  -0.355  1.00  0.00     0.044 C 
ATOM      2  C   UNL     1      40.764 -40.418  -1.515  1.00  0.00    -0.050 A 
ATOM      3  C   UNL     1      40.284 -40.608  -2.821  1.00  0.00     0.019 A 
ATOM      4  C   UNL     1      41.160 -40.579  -3.926  1.00  0.00     0.059 A 
ATOM      5  C   UNL     1      42.535 -40.337  -3.697  1.00  0.00     0.126 A 
ATOM      6  C   UNL     1      43.003 -40.133  -2.391  1.00  0.00     0.047 A 
ATOM      7  C   UNL     1      42.124 -40.165  -1.310  1.00  0.00     0.007 A 
ENDROOT
BRANCH   4   8
ATOM      8  C   UNL     1      40.635 -40.801  -5.305  1.00  0.00     0.163 C 
ATOM      9  O   UNL     1      41.174 -41.657  -6.056  1.00  0.00    -0.294 OA
ATOM     10  C   UNL     1      39.444 -40.053  -5.826  1.00  0.00     0.093 C 
ENDBRANCH   4   8
BRANCH   5  11
ATOM     11  O   UNL     1      43.437 -40.285  -4.761  1.00  0.00    -0.507 OA
ATOM     12  H   UNL     1      43.227 -39.779  -5.613  1.00  0.00     0.293 HD
ENDBRANCH   5  11
TORSDOF 2
ENDMDL
MODEL 9
REMARK VINA RESULT:    -3.772     22.281     23.539
REMARK INTER + INTRA:          -4.309
REMARK INTER:                  -4.015
REMARK INTRA:                  -0.294
REMARK UNBOUND:                -0.206
REMARK SMILES CC(=O)c1cc(C)ccc1O
REMARK SMILES IDX 7 1 6 2 5 3 4 4 10 5 9 6 8 7 2 8 3 9 1 10 11 11
REMARK H PARENT 11 12
REMARK Flexibility Score: inf
ROOT
ATOM      1  C   UNL     1      24.204 -24.983 -10.279  1.00  0.00     0.044 C 
ATOM      2  C   UNL     1      24.733 -24.541  -8.945  1.00  0.00    -0.050 A 
ATOM      3  C   UNL     1      26.103 -24.649  -8.659  1.00  0.00     0.019 A 
ATOM      4  C   UNL     1      26.622 -24.209  -7.423  1.00  0.00     0.059 A 
ATOM      5  C   UNL     1      25.736 -23.638  -6.479  1.00  0.00     0.126 A 
ATOM      6  C   UNL     1      24.372 -23.520  -6.779  1.00  0.00     0.047 A 
ATOM      7  C   UNL     1      23.875 -23.960  -8.005  1.00  0.00     0.007 A 
ENDROOT
BRANCH   4   8
ATOM      8  C   UNL     1      28.078 -24.349  -7.130  1.00  0.00     0.163 C 
ATOM      9  O   UNL     1      28.696 -23.423  -6.539  1.00  0.00    -0.294 OA
ATOM     10  C   UNL     1      28.840 -25.590  -7.490  1.00  0.00     0.093 C 
ENDBRANCH   4   8
BRANCH   5  11
ATOM     11  O   UNL     1      26.207 -23.175  -5.250  1.00  0.00    -0.507 OA
ATOM     12  H   UNL     1      26.223 -23.767  -4.428  1.00  0.00     0.293 HD
ENDBRANCH   5  11
TORSDOF 2
ENDMDL
