MODEL 1
REMARK VINA RESULT:    -5.124      0.000      0.000
REMARK INTER + INTRA:          -6.340
REMARK INTER:                  -6.023
REMARK INTRA:                  -0.317
REMARK UNBOUND:                -0.317
REMARK SMILES O=c1c(O)c(-c2ccc(O)c(O)c2)oc2cc(O)ccc12
REMARK SMILES IDX 5 1 3 2 2 3 1 4 21 5 15 6 14 7 16 8 17 9 19 10 20 11 6 12
REMARK SMILES IDX 7 13 8 14 9 15 13 16 11 17 10 18 12 20 4 22 18 24
REMARK H PARENT 10 19 12 21 4 23 18 25
REMARK Flexibility Score: inf
ROOT
ATOM      1  C   UNL     1      41.771 -31.470  11.687  1.00  0.00     0.180 A 
ATOM      2  C   UNL     1      42.746 -30.455  11.597  1.00  0.00     0.208 A 
ATOM      3  C   UNL     1      44.085 -30.778  11.861  1.00  0.00     0.235 A 
ATOM      4  O   UNL     1      44.974 -29.883  11.797  1.00  0.00    -0.285 OA
ATOM      5  C   UNL     1      44.426 -32.099  12.187  1.00  0.00     0.069 A 
ATOM      6  C   UNL     1      43.396 -33.064  12.233  1.00  0.00     0.142 A 
ATOM      7  O   UNL     1      42.138 -32.716  11.985  1.00  0.00    -0.452 OA
ATOM      8  C   UNL     1      43.696 -34.394  12.544  1.00  0.00     0.094 A 
ATOM      9  C   UNL     1      45.017 -34.775  12.813  1.00  0.00     0.119 A 
ATOM     10  C   UNL     1      46.040 -33.821  12.769  1.00  0.00     0.047 A 
ATOM     11  C   UNL     1      45.750 -32.489  12.457  1.00  0.00     0.020 A 
ENDROOT
BRANCH   1  12
ATOM     12  C   UNL     1      40.335 -31.207  11.442  1.00  0.00     0.025 A 
ATOM     13  C   UNL     1      39.515 -30.809  12.509  1.00  0.00     0.016 A 
ATOM     14  C   UNL     1      38.161 -30.535  12.297  1.00  0.00     0.051 A 
ATOM     15  C   UNL     1      37.611 -30.641  11.013  1.00  0.00     0.157 A 
ATOM     16  C   UNL     1      39.784 -31.293  10.150  1.00  0.00     0.062 A 
ATOM     17  C   UNL     1      38.429 -31.017   9.934  1.00  0.00     0.158 A 
BRANCH  15  18
ATOM     18  O   UNL     1      36.260 -30.369  10.805  1.00  0.00    -0.504 OA
ATOM     19  H   UNL     1      35.958 -29.571  10.258  1.00  0.00     0.293 HD
ENDBRANCH  15  18
BRANCH  17  20
ATOM     20  O   UNL     1      37.915 -31.117   8.642  1.00  0.00    -0.504 OA
ATOM     21  H   UNL     1      37.790 -32.009   8.179  1.00  0.00     0.293 HD
ENDBRANCH  17  20
ENDBRANCH   1  12
BRANCH   2  22
ATOM     22  O   UNL     1      42.383 -29.158  11.222  1.00  0.00    -0.502 OA
ATOM     23  H   UNL     1      42.615 -28.774  10.314  1.00  0.00     0.293 HD
ENDBRANCH   2  22
BRANCH   9  24
ATOM     24  O   UNL     1      45.326 -36.098  13.125  1.00  0.00    -0.508 OA
ATOM     25  H   UNL     1      45.981 -36.633  12.567  1.00  0.00     0.293 HD
ENDBRANCH   9  24
TORSDOF 5
ENDMDL
MODEL 2
REMARK VINA RESULT:    -4.818      2.461      7.232
REMARK INTER + INTRA:          -5.980
REMARK INTER:                  -5.721
REMARK INTRA:                  -0.259
REMARK UNBOUND:                -0.317
REMARK SMILES O=c1c(O)c(-c2ccc(O)c(O)c2)oc2cc(O)ccc12
REMARK SMILES IDX 5 1 3 2 2 3 1 4 21 5 15 6 14 7 16 8 17 9 19 10 20 11 6 12
REMARK SMILES IDX 7 13 8 14 9 15 13 16 11 17 10 18 12 20 4 22 18 24
REMARK H PARENT 10 19 12 21 4 23 18 25
REMARK Flexibility Score: inf
ROOT
ATOM      1  C   UNL     1      40.120 -30.501  10.604  1.00  0.00     0.180 A 
ATOM      2  C   UNL     1      39.672 -30.015  11.851  1.00  0.00     0.208 A 
ATOM      3  C   UNL     1      38.308 -29.733  12.016  1.00  0.00     0.235 A 
ATOM      4  O   UNL     1      37.885 -29.288  13.120  1.00  0.00    -0.285 OA
ATOM      5  C   UNL     1      37.421 -29.959  10.952  1.00  0.00     0.069 A 
ATOM      6  C   UNL     1      37.943 -30.470   9.744  1.00  0.00     0.142 A 
ATOM      7  O   UNL     1      39.243 -30.715   9.624  1.00  0.00    -0.452 OA
ATOM      8  C   UNL     1      37.091 -30.718   8.663  1.00  0.00     0.094 A 
ATOM      9  C   UNL     1      35.718 -30.460   8.773  1.00  0.00     0.119 A 
ATOM     10  C   UNL     1      35.199 -29.953   9.969  1.00  0.00     0.047 A 
ATOM     11  C   UNL     1      36.042 -29.703  11.056  1.00  0.00     0.020 A 
ENDROOT
BRANCH   1  12
ATOM     12  C   UNL     1      41.545 -30.803  10.343  1.00  0.00     0.025 A 
ATOM     13  C   UNL     1      42.449 -29.748  10.143  1.00  0.00     0.016 A 
ATOM     14  C   UNL     1      43.802 -30.009   9.915  1.00  0.00     0.051 A 
ATOM     15  C   UNL     1      44.275 -31.328   9.899  1.00  0.00     0.157 A 
ATOM     16  C   UNL     1      42.026 -32.125  10.346  1.00  0.00     0.062 A 
ATOM     17  C   UNL     1      43.382 -32.390  10.120  1.00  0.00     0.158 A 
BRANCH  15  18
ATOM     18  O   UNL     1      45.626 -31.587   9.670  1.00  0.00    -0.504 OA
ATOM     19  H   UNL     1      46.218 -30.921   9.188  1.00  0.00     0.293 HD
ENDBRANCH  15  18
BRANCH  17  20
ATOM     20  O   UNL     1      43.824 -33.713  10.125  1.00  0.00    -0.504 OA
ATOM     21  H   UNL     1      43.183 -34.495  10.055  1.00  0.00     0.293 HD
ENDBRANCH  17  20
ENDBRANCH   1  12
BRANCH   2  22
ATOM     22  O   UNL     1      40.571 -29.847  12.907  1.00  0.00    -0.502 OA
ATOM     23  H   UNL     1      41.053 -28.972  13.073  1.00  0.00     0.293 HD
ENDBRANCH   2  22
BRANCH   9  24
ATOM     24  O   UNL     1      34.861 -30.703   7.701  1.00  0.00    -0.508 OA
ATOM     25  H   UNL     1      35.030 -31.462   7.052  1.00  0.00     0.293 HD
ENDBRANCH   9  24
TORSDOF 5
ENDMDL
MODEL 3
REMARK VINA RESULT:    -4.668      0.669      1.401
REMARK INTER + INTRA:          -5.804
REMARK INTER:                  -5.768
REMARK INTRA:                  -0.037
REMARK UNBOUND:                -0.317
REMARK SMILES O=c1c(O)c(-c2ccc(O)c(O)c2)oc2cc(O)ccc12
REMARK SMILES IDX 5 1 3 2 2 3 1 4 21 5 15 6 14 7 16 8 17 9 19 10 20 11 6 12
REMARK SMILES IDX 7 13 8 14 9 15 13 16 11 17 10 18 12 20 4 22 18 24
REMARK H PARENT 10 19 12 21 4 23 18 25
REMARK Flexibility Score: inf
ROOT
ATOM      1  C   UNL     1      41.743 -31.375  11.631  1.00  0.00     0.180 A 
ATOM      2  C   UNL     1      42.749 -30.388  11.576  1.00  0.00     0.208 A 
ATOM      3  C   UNL     1      44.071 -30.752  11.874  1.00  0.00     0.235 A 
ATOM      4  O   UNL     1      44.987 -29.883  11.841  1.00  0.00    -0.285 OA
ATOM      5  C   UNL     1      44.364 -32.085  12.197  1.00  0.00     0.069 A 
ATOM      6  C   UNL     1      43.306 -33.020  12.207  1.00  0.00     0.142 A 
ATOM      7  O   UNL     1      42.066 -32.633  11.929  1.00  0.00    -0.452 OA
ATOM      8  C   UNL     1      43.559 -34.360  12.515  1.00  0.00     0.094 A 
ATOM      9  C   UNL     1      44.861 -34.782  12.815  1.00  0.00     0.119 A 
ATOM     10  C   UNL     1      45.911 -33.858  12.807  1.00  0.00     0.047 A 
ATOM     11  C   UNL     1      45.669 -32.515  12.499  1.00  0.00     0.020 A 
ENDROOT
BRANCH   1  12
ATOM     12  C   UNL     1      40.322 -31.068  11.351  1.00  0.00     0.025 A 
ATOM     13  C   UNL     1      39.971 -30.493  10.120  1.00  0.00     0.016 A 
ATOM     14  C   UNL     1      38.634 -30.213   9.825  1.00  0.00     0.051 A 
ATOM     15  C   UNL     1      37.627 -30.518  10.750  1.00  0.00     0.157 A 
ATOM     16  C   UNL     1      39.307 -31.391  12.270  1.00  0.00     0.062 A 
ATOM     17  C   UNL     1      37.967 -31.114  11.977  1.00  0.00     0.158 A 
BRANCH  15  18
ATOM     18  O   UNL     1      36.294 -30.236  10.455  1.00  0.00    -0.504 OA
ATOM     19  H   UNL     1      35.539 -30.574  11.039  1.00  0.00     0.293 HD
ENDBRANCH  15  18
BRANCH  17  20
ATOM     20  O   UNL     1      36.986 -31.443  12.913  1.00  0.00    -0.504 OA
ATOM     21  H   UNL     1      36.651 -30.777  13.598  1.00  0.00     0.293 HD
ENDBRANCH  17  20
ENDBRANCH   1  12
BRANCH   2  22
ATOM     22  O   UNL     1      42.434 -29.079  11.203  1.00  0.00    -0.502 OA
ATOM     23  H   UNL     1      41.514 -28.681  11.350  1.00  0.00     0.293 HD
ENDBRANCH   2  22
BRANCH   9  24
ATOM     24  O   UNL     1      45.122 -36.116  13.124  1.00  0.00    -0.508 OA
ATOM     25  H   UNL     1      45.887 -36.618  12.689  1.00  0.00     0.293 HD
ENDBRANCH   9  24
TORSDOF 5
ENDMDL
MODEL 4
REMARK VINA RESULT:    -4.400      2.303      3.815
REMARK INTER + INTRA:          -5.489
REMARK INTER:                  -5.170
REMARK INTRA:                  -0.318
REMARK UNBOUND:                -0.317
REMARK SMILES O=c1c(O)c(-c2ccc(O)c(O)c2)oc2cc(O)ccc12
REMARK SMILES IDX 5 1 3 2 2 3 1 4 21 5 15 6 14 7 16 8 17 9 19 10 20 11 6 12
REMARK SMILES IDX 7 13 8 14 9 15 13 16 11 17 10 18 12 20 4 22 18 24
REMARK H PARENT 10 19 12 21 4 23 18 25
REMARK Flexibility Score: inf
ROOT
ATOM      1  C   UNL     1      39.996 -30.648  10.378  1.00  0.00     0.180 A 
ATOM      2  C   UNL     1      40.314 -31.689  11.276  1.00  0.00     0.208 A 
ATOM      3  C   UNL     1      41.663 -32.015  11.482  1.00  0.00     0.235 A 
ATOM      4  O   UNL     1      41.973 -32.950  12.273  1.00  0.00    -0.285 OA
ATOM      5  C   UNL     1      42.660 -31.290  10.812  1.00  0.00     0.069 A 
ATOM      6  C   UNL     1      42.262 -30.246   9.948  1.00  0.00     0.142 A 
ATOM      7  O   UNL     1      40.973 -29.975   9.773  1.00  0.00    -0.452 OA
ATOM      8  C   UNL     1      43.225 -29.493   9.269  1.00  0.00     0.094 A 
ATOM      9  C   UNL     1      44.588 -29.771   9.441  1.00  0.00     0.119 A 
ATOM     10  C   UNL     1      44.985 -30.805  10.295  1.00  0.00     0.047 A 
ATOM     11  C   UNL     1      44.030 -31.563  10.980  1.00  0.00     0.020 A 
ENDROOT
BRANCH   1  12
ATOM     12  C   UNL     1      38.598 -30.257  10.091  1.00  0.00     0.025 A 
ATOM     13  C   UNL     1      37.977 -29.282  10.887  1.00  0.00     0.016 A 
ATOM     14  C   UNL     1      36.665 -28.883  10.622  1.00  0.00     0.051 A 
ATOM     15  C   UNL     1      35.959 -29.441   9.548  1.00  0.00     0.157 A 
ATOM     16  C   UNL     1      37.893 -30.801   9.001  1.00  0.00     0.062 A 
ATOM     17  C   UNL     1      36.579 -30.402   8.732  1.00  0.00     0.158 A 
BRANCH  15  18
ATOM     18  O   UNL     1      34.649 -29.042   9.287  1.00  0.00    -0.504 OA
ATOM     19  H   UNL     1      34.400 -28.064   9.200  1.00  0.00     0.293 HD
ENDBRANCH  15  18
BRANCH  17  20
ATOM     20  O   UNL     1      35.909 -30.965   7.646  1.00  0.00    -0.504 OA
ATOM     21  H   UNL     1      36.076 -31.918   7.346  1.00  0.00     0.293 HD
ENDBRANCH  17  20
ENDBRANCH   1  12
BRANCH   2  22
ATOM     22  O   UNL     1      39.302 -32.360  11.967  1.00  0.00    -0.502 OA
ATOM     23  H   UNL     1      38.369 -31.978  12.065  1.00  0.00     0.293 HD
ENDBRANCH   2  22
BRANCH   9  24
ATOM     24  O   UNL     1      45.555 -29.027   8.768  1.00  0.00    -0.508 OA
ATOM     25  H   UNL     1      46.421 -28.756   9.218  1.00  0.00     0.293 HD
ENDBRANCH   9  24
TORSDOF 5
ENDMDL
MODEL 5
REMARK VINA RESULT:    -4.393      1.885      6.729
REMARK INTER + INTRA:          -5.481
REMARK INTER:                  -5.160
REMARK INTRA:                  -0.321
REMARK UNBOUND:                -0.317
REMARK SMILES O=c1c(O)c(-c2ccc(O)c(O)c2)oc2cc(O)ccc12
REMARK SMILES IDX 5 1 3 2 2 3 1 4 21 5 15 6 14 7 16 8 17 9 19 10 20 11 6 12
REMARK SMILES IDX 7 13 8 14 9 15 13 16 11 17 10 18 12 20 4 22 18 24
REMARK H PARENT 10 19 12 21 4 23 18 25
REMARK Flexibility Score: inf
ROOT
ATOM      1  C   UNL     1      40.785 -30.882  11.228  1.00  0.00     0.180 A 
ATOM      2  C   UNL     1      40.521 -29.996  10.162  1.00  0.00     0.208 A 
ATOM      3  C   UNL     1      39.189 -29.658   9.879  1.00  0.00     0.235 A 
ATOM      4  O   UNL     1      38.926 -28.875   8.923  1.00  0.00    -0.285 OA
ATOM      5  C   UNL     1      38.158 -30.188  10.669  1.00  0.00     0.069 A 
ATOM      6  C   UNL     1      38.506 -31.049  11.733  1.00  0.00     0.142 A 
ATOM      7  O   UNL     1      39.779 -31.352  11.963  1.00  0.00    -0.452 OA
ATOM      8  C   UNL     1      37.508 -31.591  12.550  1.00  0.00     0.094 A 
ATOM      9  C   UNL     1      36.161 -31.284  12.317  1.00  0.00     0.119 A 
ATOM     10  C   UNL     1      35.814 -30.433  11.263  1.00  0.00     0.047 A 
ATOM     11  C   UNL     1      36.804 -29.885  10.441  1.00  0.00     0.020 A 
ENDROOT
BRANCH   1  12
ATOM     12  C   UNL     1      42.160 -31.303  11.578  1.00  0.00     0.025 A 
ATOM     13  C   UNL     1      42.847 -30.633  12.603  1.00  0.00     0.016 A 
ATOM     14  C   UNL     1      44.138 -31.026  12.964  1.00  0.00     0.051 A 
ATOM     15  C   UNL     1      44.756 -32.104  12.317  1.00  0.00     0.157 A 
ATOM     16  C   UNL     1      42.776 -32.397  10.944  1.00  0.00     0.062 A 
ATOM     17  C   UNL     1      44.068 -32.795  11.304  1.00  0.00     0.158 A 
BRANCH  15  18
ATOM     18  O   UNL     1      46.045 -32.493  12.677  1.00  0.00    -0.504 OA
ATOM     19  H   UNL     1      46.421 -33.395  12.410  1.00  0.00     0.293 HD
ENDBRANCH  15  18
BRANCH  17  20
ATOM     20  O   UNL     1      44.650 -33.882  10.651  1.00  0.00    -0.504 OA
ATOM     21  H   UNL     1      44.147 -34.746  10.491  1.00  0.00     0.293 HD
ENDBRANCH  17  20
ENDBRANCH   1  12
BRANCH   2  22
ATOM     22  O   UNL     1      41.571 -29.444   9.424  1.00  0.00    -0.502 OA
ATOM     23  H   UNL     1      41.919 -28.508   9.595  1.00  0.00     0.293 HD
ENDBRANCH   2  22
BRANCH   9  24
ATOM     24  O   UNL     1      35.160 -31.820  13.125  1.00  0.00    -0.508 OA
ATOM     25  H   UNL     1      35.360 -32.159  14.059  1.00  0.00     0.293 HD
ENDBRANCH   9  24
TORSDOF 5
ENDMDL
MODEL 6
REMARK VINA RESULT:    -4.392      1.571      1.861
REMARK INTER + INTRA:          -5.480
REMARK INTER:                  -5.206
REMARK INTRA:                  -0.274
REMARK UNBOUND:                -0.317
REMARK SMILES O=c1c(O)c(-c2ccc(O)c(O)c2)oc2cc(O)ccc12
REMARK SMILES IDX 5 1 3 2 2 3 1 4 21 5 15 6 14 7 16 8 17 9 19 10 20 11 6 12
REMARK SMILES IDX 7 13 8 14 9 15 13 16 11 17 10 18 12 20 4 22 18 24
REMARK H PARENT 10 19 12 21 4 23 18 25
REMARK Flexibility Score: inf
ROOT
ATOM      1  C   UNL     1      40.736 -30.759  10.456  1.00  0.00     0.180 A 
ATOM      2  C   UNL     1      41.674 -29.977   9.750  1.00  0.00     0.208 A 
ATOM      3  C   UNL     1      43.028 -30.343   9.793  1.00  0.00     0.235 A 
ATOM      4  O   UNL     1      43.888 -29.653   9.177  1.00  0.00    -0.285 OA
ATOM      5  C   UNL     1      43.413 -31.484  10.514  1.00  0.00     0.069 A 
ATOM      6  C   UNL     1      42.410 -32.227  11.174  1.00  0.00     0.142 A 
ATOM      7  O   UNL     1      41.141 -31.842  11.117  1.00  0.00    -0.452 OA
ATOM      8  C   UNL     1      42.752 -33.376  11.895  1.00  0.00     0.094 A 
ATOM      9  C   UNL     1      44.088 -33.793  11.968  1.00  0.00     0.119 A 
ATOM     10  C   UNL     1      45.083 -33.057  11.315  1.00  0.00     0.047 A 
ATOM     11  C   UNL     1      44.751 -31.908  10.590  1.00  0.00     0.020 A 
ENDROOT
BRANCH   1  12
ATOM     12  C   UNL     1      39.293 -30.427  10.478  1.00  0.00     0.025 A 
ATOM     13  C   UNL     1      38.754 -29.761  11.589  1.00  0.00     0.016 A 
ATOM     14  C   UNL     1      37.400 -29.421  11.622  1.00  0.00     0.051 A 
ATOM     15  C   UNL     1      36.567 -29.728  10.539  1.00  0.00     0.157 A 
ATOM     16  C   UNL     1      38.458 -30.717   9.382  1.00  0.00     0.062 A 
ATOM     17  C   UNL     1      37.101 -30.375   9.411  1.00  0.00     0.158 A 
BRANCH  15  18
ATOM     18  O   UNL     1      35.215 -29.389  10.574  1.00  0.00    -0.504 OA
ATOM     19  H   UNL     1      34.729 -29.059   9.749  1.00  0.00     0.293 HD
ENDBRANCH  15  18
BRANCH  17  20
ATOM     20  O   UNL     1      36.302 -30.681   8.310  1.00  0.00    -0.504 OA
ATOM     21  H   UNL     1      36.207 -30.052   7.523  1.00  0.00     0.293 HD
ENDBRANCH  17  20
ENDBRANCH   1  12
BRANCH   2  22
ATOM     22  O   UNL     1      41.254 -28.875   9.000  1.00  0.00    -0.502 OA
ATOM     23  H   UNL     1      40.815 -28.067   9.425  1.00  0.00     0.293 HD
ENDBRANCH   2  22
BRANCH   9  24
ATOM     24  O   UNL     1      44.438 -34.935  12.685  1.00  0.00    -0.508 OA
ATOM     25  H   UNL     1      44.964 -34.876  13.549  1.00  0.00     0.293 HD
ENDBRANCH   9  24
TORSDOF 5
ENDMDL
MODEL 7
REMARK VINA RESULT:    -3.642      2.314      3.444
REMARK INTER + INTRA:          -4.598
REMARK INTER:                  -4.848
REMARK INTRA:                   0.250
REMARK UNBOUND:                -0.317
REMARK SMILES O=c1c(O)c(-c2ccc(O)c(O)c2)oc2cc(O)ccc12
REMARK SMILES IDX 5 1 3 2 2 3 1 4 21 5 15 6 14 7 16 8 17 9 19 10 20 11 6 12
REMARK SMILES IDX 7 13 8 14 9 15 13 16 11 17 10 18 12 20 4 22 18 24
REMARK H PARENT 10 19 12 21 4 23 18 25
REMARK Flexibility Score: inf
ROOT
ATOM      1  C   UNL     1      38.939 -30.708  10.589  1.00  0.00     0.180 A 
ATOM      2  C   UNL     1      39.296 -29.832  11.635  1.00  0.00     0.208 A 
ATOM      3  C   UNL     1      40.585 -29.919  12.181  1.00  0.00     0.235 A 
ATOM      4  O   UNL     1      40.924 -29.153  13.125  1.00  0.00    -0.285 OA
ATOM      5  C   UNL     1      41.493 -30.855  11.662  1.00  0.00     0.069 A 
ATOM      6  C   UNL     1      41.068 -31.681  10.598  1.00  0.00     0.142 A 
ATOM      7  O   UNL     1      39.835 -31.573  10.116  1.00  0.00    -0.452 OA
ATOM      8  C   UNL     1      41.946 -32.619  10.047  1.00  0.00     0.094 A 
ATOM      9  C   UNL     1      43.249 -32.747  10.548  1.00  0.00     0.119 A 
ATOM     10  C   UNL     1      43.671 -31.932  11.603  1.00  0.00     0.047 A 
ATOM     11  C   UNL     1      42.802 -30.989  12.160  1.00  0.00     0.020 A 
ENDROOT
BRANCH   1  12
ATOM     12  C   UNL     1      37.593 -30.693   9.974  1.00  0.00     0.025 A 
ATOM     13  C   UNL     1      36.475 -30.397  10.768  1.00  0.00     0.016 A 
ATOM     14  C   UNL     1      35.197 -30.356  10.205  1.00  0.00     0.051 A 
ATOM     15  C   UNL     1      35.019 -30.597   8.837  1.00  0.00     0.157 A 
ATOM     16  C   UNL     1      37.414 -30.915   8.596  1.00  0.00     0.062 A 
ATOM     17  C   UNL     1      36.135 -30.874   8.028  1.00  0.00     0.158 A 
BRANCH  15  18
ATOM     18  O   UNL     1      33.743 -30.559   8.277  1.00  0.00    -0.504 OA
ATOM     19  H   UNL     1      33.308 -29.684   8.009  1.00  0.00     0.293 HD
ENDBRANCH  15  18
BRANCH  17  20
ATOM     20  O   UNL     1      35.994 -31.103   6.660  1.00  0.00    -0.504 OA
ATOM     21  H   UNL     1      36.549 -31.793   6.170  1.00  0.00     0.293 HD
ENDBRANCH  17  20
ENDBRANCH   1  12
BRANCH   2  22
ATOM     22  O   UNL     1      38.387 -28.876  12.098  1.00  0.00    -0.502 OA
ATOM     23  H   UNL     1      38.339 -28.603  13.072  1.00  0.00     0.293 HD
ENDBRANCH   2  22
BRANCH   9  24
ATOM     24  O   UNL     1      44.130 -33.681  10.006  1.00  0.00    -0.508 OA
ATOM     25  H   UNL     1      44.030 -34.672  10.192  1.00  0.00     0.293 HD
ENDBRANCH   9  24
TORSDOF 5
ENDMDL
MODEL 8
REMARK VINA RESULT:    -3.070      2.056      3.428
REMARK INTER + INTRA:          -3.926
REMARK INTER:                  -4.143
REMARK INTRA:                   0.217
REMARK UNBOUND:                -0.317
REMARK SMILES O=c1c(O)c(-c2ccc(O)c(O)c2)oc2cc(O)ccc12
REMARK SMILES IDX 5 1 3 2 2 3 1 4 21 5 15 6 14 7 16 8 17 9 19 10 20 11 6 12
REMARK SMILES IDX 7 13 8 14 9 15 13 16 11 17 10 18 12 20 4 22 18 24
REMARK H PARENT 10 19 12 21 4 23 18 25
REMARK Flexibility Score: inf
ROOT
ATOM      1  C   UNL     1      38.868 -30.789  11.120  1.00  0.00     0.180 A 
ATOM      2  C   UNL     1      39.337 -29.820  10.209  1.00  0.00     0.208 A 
ATOM      3  C   UNL     1      40.714 -29.742   9.953  1.00  0.00     0.235 A 
ATOM      4  O   UNL     1      41.159 -28.875   9.149  1.00  0.00    -0.285 OA
ATOM      5  C   UNL     1      41.587 -30.638  10.588  1.00  0.00     0.069 A 
ATOM      6  C   UNL     1      41.038 -31.596  11.468  1.00  0.00     0.142 A 
ATOM      7  O   UNL     1      39.729 -31.631  11.691  1.00  0.00    -0.452 OA
ATOM      8  C   UNL     1      41.873 -32.514  12.114  1.00  0.00     0.094 A 
ATOM      9  C   UNL     1      43.256 -32.486  11.892  1.00  0.00     0.119 A 
ATOM     10  C   UNL     1      43.803 -31.537  11.021  1.00  0.00     0.047 A 
ATOM     11  C   UNL     1      42.976 -30.617  10.370  1.00  0.00     0.020 A 
ENDROOT
BRANCH   1  12
ATOM     12  C   UNL     1      37.434 -30.923  11.458  1.00  0.00     0.025 A 
ATOM     13  C   UNL     1      37.061 -31.229  12.776  1.00  0.00     0.016 A 
ATOM     14  C   UNL     1      35.712 -31.340  13.123  1.00  0.00     0.051 A 
ATOM     15  C   UNL     1      34.715 -31.131  12.160  1.00  0.00     0.157 A 
ATOM     16  C   UNL     1      36.430 -30.694  10.499  1.00  0.00     0.062 A 
ATOM     17  C   UNL     1      35.077 -30.802  10.843  1.00  0.00     0.158 A 
BRANCH  15  18
ATOM     18  O   UNL     1      33.370 -31.244  12.508  1.00  0.00    -0.504 OA
ATOM     19  H   UNL     1      32.718 -31.770  11.939  1.00  0.00     0.293 HD
ENDBRANCH  15  18
BRANCH  17  20
ATOM     20  O   UNL     1      34.109 -30.574   9.866  1.00  0.00    -0.504 OA
ATOM     21  H   UNL     1      34.025 -29.685   9.388  1.00  0.00     0.293 HD
ENDBRANCH  17  20
ENDBRANCH   1  12
BRANCH   2  22
ATOM     22  O   UNL     1      38.439 -28.973   9.553  1.00  0.00    -0.502 OA
ATOM     23  H   UNL     1      38.610 -27.980   9.447  1.00  0.00     0.293 HD
ENDBRANCH   2  22
BRANCH   9  24
ATOM     24  O   UNL     1      44.096 -33.396  12.531  1.00  0.00    -0.508 OA
ATOM     25  H   UNL     1      43.927 -34.394  12.486  1.00  0.00     0.293 HD
ENDBRANCH   9  24
TORSDOF 5
ENDMDL
MODEL 9
REMARK VINA RESULT:    -2.710     18.203     20.287
REMARK INTER + INTRA:          -3.502
REMARK INTER:                  -4.051
REMARK INTRA:                   0.549
REMARK UNBOUND:                -0.317
REMARK SMILES O=c1c(O)c(-c2ccc(O)c(O)c2)oc2cc(O)ccc12
REMARK SMILES IDX 5 1 3 2 2 3 1 4 21 5 15 6 14 7 16 8 17 9 19 10 20 11 6 12
REMARK SMILES IDX 7 13 8 14 9 15 13 16 11 17 10 18 12 20 4 22 18 24
REMARK H PARENT 10 19 12 21 4 23 18 25
REMARK Flexibility Score: inf
ROOT
ATOM      1  C   UNL     1      25.961 -40.126   3.969  1.00  0.00     0.180 A 
ATOM      2  C   UNL     1      25.921 -41.276   3.153  1.00  0.00     0.208 A 
ATOM      3  C   UNL     1      25.946 -41.117   1.759  1.00  0.00     0.235 A 
ATOM      4  O   UNL     1      25.900 -42.130   1.007  1.00  0.00    -0.285 OA
ATOM      5  C   UNL     1      26.030 -39.827   1.212  1.00  0.00     0.069 A 
ATOM      6  C   UNL     1      26.091 -38.728   2.097  1.00  0.00     0.142 A 
ATOM      7  O   UNL     1      26.056 -38.921   3.411  1.00  0.00    -0.452 OA
ATOM      8  C   UNL     1      26.186 -37.428   1.591  1.00  0.00     0.094 A 
ATOM      9  C   UNL     1      26.220 -37.209   0.208  1.00  0.00     0.119 A 
ATOM     10  C   UNL     1      26.158 -38.296  -0.671  1.00  0.00     0.047 A 
ATOM     11  C   UNL     1      26.065 -39.600  -0.175  1.00  0.00     0.020 A 
ENDROOT
BRANCH   1  12
ATOM     12  C   UNL     1      25.919 -40.209   5.446  1.00  0.00     0.025 A 
ATOM     13  C   UNL     1      25.906 -41.467   6.068  1.00  0.00     0.016 A 
ATOM     14  C   UNL     1      25.887 -41.569   7.461  1.00  0.00     0.051 A 
ATOM     15  C   UNL     1      25.896 -40.414   8.254  1.00  0.00     0.157 A 
ATOM     16  C   UNL     1      25.949 -39.051   6.246  1.00  0.00     0.062 A 
ATOM     17  C   UNL     1      25.932 -39.150   7.643  1.00  0.00     0.158 A 
BRANCH  15  18
ATOM     18  O   UNL     1      25.875 -40.518   9.644  1.00  0.00    -0.504 OA
ATOM     19  H   UNL     1      25.409 -41.287  10.112  1.00  0.00     0.293 HD
ENDBRANCH  15  18
BRANCH  17  20
ATOM     20  O   UNL     1      25.957 -37.982   8.404  1.00  0.00    -0.504 OA
ATOM     21  H   UNL     1      26.810 -37.461   8.562  1.00  0.00     0.293 HD
ENDBRANCH  17  20
ENDBRANCH   1  12
BRANCH   2  22
ATOM     22  O   UNL     1      25.887 -42.550   3.727  1.00  0.00    -0.502 OA
ATOM     23  H   UNL     1      26.711 -42.987   4.121  1.00  0.00     0.293 HD
ENDBRANCH   2  22
BRANCH   9  24
ATOM     24  O   UNL     1      26.313 -35.916  -0.305  1.00  0.00    -0.508 OA
ATOM     25  H   UNL     1      25.721 -35.168   0.037  1.00  0.00     0.293 HD
ENDBRANCH   9  24
TORSDOF 5
ENDMDL
