MODEL 1
REMARK VINA RESULT:     9.852      0.000      0.000
REMARK INTER + INTRA:          19.737
REMARK INTER:                  17.915
REMARK INTRA:                   1.822
REMARK UNBOUND:                 1.822
REMARK SMILES CCCCCC=CCC=CCCCCCCCC(=O)[O-]
REMARK SMILES IDX 11 1 12 2 13 3 14 4 15 5 16 6 17 7 18 8 19 9 20 10 10 11
REMARK SMILES IDX 9 12 8 13 7 14 6 15 5 16 4 17 3 18 2 19 1 20
REMARK H PARENT
REMARK Flexibility Score: inf
ROOT
ATOM      1  C   UNL     1      10.748  13.112  34.641  1.00  0.00     0.027 C 
ENDROOT
BRANCH   1   2
ATOM      2  C   UNL     1       9.831  12.065  33.990  1.00  0.00     0.004 C 
BRANCH   2   3
ATOM      3  C   UNL     1       8.463  11.955  34.696  1.00  0.00     0.000 C 
BRANCH   3   4
ATOM      4  C   UNL     1       7.748  10.610  34.469  1.00  0.00     0.000 C 
BRANCH   4   5
ATOM      5  C   UNL     1       6.237  10.619  34.753  1.00  0.00     0.000 C 
BRANCH   5   6
ATOM      6  C   UNL     1       5.729  11.981  35.247  1.00  0.00     0.006 C 
BRANCH   6   7
ATOM      7  C   UNL     1       4.500  11.814  36.144  1.00  0.00     0.053 C 
BRANCH   7   8
ATOM      8  C   UNL     1       3.795  10.531  35.836  1.00  0.00     0.041 C 
ATOM      9  O   UNL     1       3.539  10.221  34.643  1.00  0.00    -0.550 OA
ATOM     10  O   UNL     1       3.375   9.703  36.868  1.00  0.00    -0.550 OA
ENDBRANCH   7   8
ENDBRANCH   6   7
ENDBRANCH   5   6
ENDBRANCH   4   5
ENDBRANCH   3   4
ENDBRANCH   2   3
ENDBRANCH   1   2
BRANCH   1  11
ATOM     11  C   UNL     1      12.158  13.015  34.113  1.00  0.00    -0.031 C 
ATOM     12  C   UNL     1      13.265  12.872  34.866  1.00  0.00    -0.027 C 
BRANCH  12  13
ATOM     13  C   UNL     1      13.294  12.792  36.372  1.00  0.00     0.054 C 
BRANCH  13  14
ATOM     14  C   UNL     1      11.945  12.366  36.892  1.00  0.00    -0.027 C 
ATOM     15  C   UNL     1      11.603  12.330  38.194  1.00  0.00    -0.031 C 
BRANCH  15  16
ATOM     16  C   UNL     1      12.543  12.626  39.337  1.00  0.00     0.027 C 
BRANCH  16  17
ATOM     17  C   UNL     1      13.910  13.125  38.836  1.00  0.00     0.004 C 
BRANCH  17  18
ATOM     18  C   UNL     1      15.006  13.089  39.925  1.00  0.00     0.000 C 
BRANCH  18  19
ATOM     19  C   UNL     1      14.507  12.565  41.282  1.00  0.00    -0.003 C 
ATOM     20  C   UNL     1      15.063  11.187  41.630  1.00  0.00     0.004 C 
ENDBRANCH  18  19
ENDBRANCH  17  18
ENDBRANCH  16  17
ENDBRANCH  15  16
ENDBRANCH  13  14
ENDBRANCH  12  13
ENDBRANCH   1  11
TORSDOF 14
ENDMDL
