MODEL 1
REMARK VINA RESULT:    -3.243      0.000      0.000
REMARK INTER + INTRA:          -5.246
REMARK INTER:                  -4.570
REMARK INTRA:                  -0.676
REMARK UNBOUND:                -0.676
REMARK SMILES CCCCCCCCC(=O)[O-]
REMARK SMILES IDX 6 1 7 2 8 3 9 4 10 5 11 6 5 7 4 8 3 9 2 10 1 11
REMARK H PARENT
REMARK Flexibility Score: inf
ROOT
ATOM      1  C   UNL     1      35.429 -47.716   3.607  1.00  0.00     0.000 C 
ENDROOT
BRANCH   1   2
ATOM      2  C   UNL     1      35.329 -49.193   3.187  1.00  0.00     0.006 C 
BRANCH   2   3
ATOM      3  C   UNL     1      34.849 -49.352   1.738  1.00  0.00     0.053 C 
BRANCH   3   4
ATOM      4  C   UNL     1      33.604 -50.181   1.651  1.00  0.00     0.041 C 
ATOM      5  O   UNL     1      33.462 -51.192   2.389  1.00  0.00    -0.550 OA
ATOM      6  O   UNL     1      32.613 -49.856   0.733  1.00  0.00    -0.550 OA
ENDBRANCH   3   4
ENDBRANCH   2   3
ENDBRANCH   1   2
BRANCH   1   7
ATOM      7  C   UNL     1      36.436 -46.928   2.755  1.00  0.00     0.000 C 
BRANCH   7   8
ATOM      8  C   UNL     1      35.864 -45.599   2.236  1.00  0.00    -0.000 C 
BRANCH   8   9
ATOM      9  C   UNL     1      34.475 -45.330   2.834  1.00  0.00    -0.000 C 
BRANCH   9  10
ATOM     10  C   UNL     1      33.412 -45.054   1.759  1.00  0.00    -0.003 C 
ATOM     11  C   UNL     1      33.260 -46.209   0.769  1.00  0.00     0.004 C 
ENDBRANCH   9  10
ENDBRANCH   8   9
ENDBRANCH   7   8
ENDBRANCH   1   7
TORSDOF 7
ENDMDL
MODEL 2
REMARK VINA RESULT:    -3.234      2.608      4.009
REMARK INTER + INTRA:          -5.234
REMARK INTER:                  -4.675
REMARK INTRA:                  -0.559
REMARK UNBOUND:                -0.676
REMARK SMILES CCCCCCCCC(=O)[O-]
REMARK SMILES IDX 6 1 7 2 8 3 9 4 10 5 11 6 5 7 4 8 3 9 2 10 1 11
REMARK H PARENT
REMARK Flexibility Score: inf
ROOT
ATOM      1  C   UNL     1      36.963 -48.112   3.458  1.00  0.00     0.000 C 
ENDROOT
BRANCH   1   2
ATOM      2  C   UNL     1      37.633 -48.985   4.534  1.00  0.00     0.006 C 
BRANCH   2   3
ATOM      3  C   UNL     1      36.633 -49.920   5.226  1.00  0.00     0.053 C 
BRANCH   3   4
ATOM      4  C   UNL     1      36.899 -51.358   4.904  1.00  0.00     0.041 C 
ATOM      5  O   UNL     1      38.071 -51.815   4.959  1.00  0.00    -0.550 OA
ATOM      6  O   UNL     1      35.856 -52.189   4.512  1.00  0.00    -0.550 OA
ENDBRANCH   3   4
ENDBRANCH   2   3
ENDBRANCH   1   2
BRANCH   1   7
ATOM      7  C   UNL     1      35.480 -47.842   3.757  1.00  0.00     0.000 C 
BRANCH   7   8
ATOM      8  C   UNL     1      34.628 -47.729   2.483  1.00  0.00    -0.000 C 
BRANCH   8   9
ATOM      9  C   UNL     1      34.798 -48.973   1.598  1.00  0.00    -0.000 C 
BRANCH   9  10
ATOM     10  C   UNL     1      34.077 -50.206   2.168  1.00  0.00    -0.003 C 
ATOM     11  C   UNL     1      32.768 -50.512   1.442  1.00  0.00     0.004 C 
ENDBRANCH   9  10
ENDBRANCH   8   9
ENDBRANCH   7   8
ENDBRANCH   1   7
TORSDOF 7
ENDMDL
MODEL 3
REMARK VINA RESULT:    -3.197      1.979      4.113
REMARK INTER + INTRA:          -5.182
REMARK INTER:                  -4.740
REMARK INTRA:                  -0.441
REMARK UNBOUND:                -0.676
REMARK SMILES CCCCCCCCC(=O)[O-]
REMARK SMILES IDX 6 1 7 2 8 3 9 4 10 5 11 6 5 7 4 8 3 9 2 10 1 11
REMARK H PARENT
REMARK Flexibility Score: inf
ROOT
ATOM      1  C   UNL     1      35.405 -47.677   3.658  1.00  0.00     0.000 C 
ENDROOT
BRANCH   1   2
ATOM      2  C   UNL     1      34.572 -47.939   2.391  1.00  0.00     0.006 C 
BRANCH   2   3
ATOM      3  C   UNL     1      34.500 -49.432   2.045  1.00  0.00     0.053 C 
BRANCH   3   4
ATOM      4  C   UNL     1      33.458 -49.714   1.007  1.00  0.00     0.041 C 
ATOM      5  O   UNL     1      33.561 -49.221  -0.147  1.00  0.00    -0.550 OA
ATOM      6  O   UNL     1      32.355 -50.499   1.322  1.00  0.00    -0.550 OA
ENDBRANCH   3   4
ENDBRANCH   2   3
ENDBRANCH   1   2
BRANCH   1   7
ATOM      7  C   UNL     1      36.912 -47.603   3.369  1.00  0.00     0.000 C 
BRANCH   7   8
ATOM      8  C   UNL     1      37.727 -48.606   4.200  1.00  0.00    -0.000 C 
BRANCH   8   9
ATOM      9  C   UNL     1      36.806 -49.639   4.868  1.00  0.00    -0.000 C 
BRANCH   9  10
ATOM     10  C   UNL     1      37.457 -51.027   4.976  1.00  0.00    -0.003 C 
ATOM     11  C   UNL     1      36.432 -52.161   4.987  1.00  0.00     0.004 C 
ENDBRANCH   9  10
ENDBRANCH   8   9
ENDBRANCH   7   8
ENDBRANCH   1   7
TORSDOF 7
ENDMDL
MODEL 4
REMARK VINA RESULT:    -3.167      2.550      3.416
REMARK INTER + INTRA:          -5.139
REMARK INTER:                  -4.759
REMARK INTRA:                  -0.380
REMARK UNBOUND:                -0.676
REMARK SMILES CCCCCCCCC(=O)[O-]
REMARK SMILES IDX 6 1 7 2 8 3 9 4 10 5 11 6 5 7 4 8 3 9 2 10 1 11
REMARK H PARENT
REMARK Flexibility Score: inf
ROOT
ATOM      1  C   UNL     1      35.798 -49.522   3.221  1.00  0.00     0.000 C 
ENDROOT
BRANCH   1   2
ATOM      2  C   UNL     1      36.742 -49.274   4.411  1.00  0.00     0.006 C 
BRANCH   2   3
ATOM      3  C   UNL     1      36.560 -50.318   5.520  1.00  0.00     0.053 C 
BRANCH   3   4
ATOM      4  C   UNL     1      36.948 -51.691   5.063  1.00  0.00     0.041 C 
ATOM      5  O   UNL     1      38.091 -51.898   4.578  1.00  0.00    -0.550 OA
ATOM      6  O   UNL     1      36.036 -52.736   5.146  1.00  0.00    -0.550 OA
ENDBRANCH   3   4
ENDBRANCH   2   3
ENDBRANCH   1   2
BRANCH   1   7
ATOM      7  C   UNL     1      34.925 -48.300   2.895  1.00  0.00     0.000 C 
BRANCH   7   8
ATOM      8  C   UNL     1      35.427 -47.014   3.570  1.00  0.00    -0.000 C 
BRANCH   8   9
ATOM      9  C   UNL     1      34.811 -45.772   2.907  1.00  0.00    -0.000 C 
BRANCH   9  10
ATOM     10  C   UNL     1      33.812 -46.130   1.796  1.00  0.00    -0.003 C 
ATOM     11  C   UNL     1      32.918 -44.954   1.403  1.00  0.00     0.004 C 
ENDBRANCH   9  10
ENDBRANCH   8   9
ENDBRANCH   7   8
ENDBRANCH   1   7
TORSDOF 7
ENDMDL
MODEL 5
REMARK VINA RESULT:    -3.155     11.843     13.338
REMARK INTER + INTRA:          -5.122
REMARK INTER:                  -4.797
REMARK INTRA:                  -0.325
REMARK UNBOUND:                -0.676
REMARK SMILES CCCCCCCCC(=O)[O-]
REMARK SMILES IDX 6 1 7 2 8 3 9 4 10 5 11 6 5 7 4 8 3 9 2 10 1 11
REMARK H PARENT
REMARK Flexibility Score: inf
ROOT
ATOM      1  C   UNL     1      37.396 -55.840  -8.344  1.00  0.00     0.000 C 
ENDROOT
BRANCH   1   2
ATOM      2  C   UNL     1      38.067 -56.048  -6.975  1.00  0.00     0.006 C 
BRANCH   2   3
ATOM      3  C   UNL     1      37.257 -55.422  -5.832  1.00  0.00     0.053 C 
BRANCH   3   4
ATOM      4  C   UNL     1      37.950 -55.569  -4.512  1.00  0.00     0.041 C 
ATOM      5  O   UNL     1      37.814 -56.624  -3.838  1.00  0.00    -0.550 OA
ATOM      6  O   UNL     1      38.722 -54.528  -4.011  1.00  0.00    -0.550 OA
ENDBRANCH   3   4
ENDBRANCH   2   3
ENDBRANCH   1   2
BRANCH   1   7
ATOM      7  C   UNL     1      38.395 -55.423  -9.434  1.00  0.00     0.000 C 
BRANCH   7   8
ATOM      8  C   UNL     1      37.882 -54.260 -10.298  1.00  0.00    -0.000 C 
BRANCH   8   9
ATOM      9  C   UNL     1      36.942 -54.771 -11.401  1.00  0.00    -0.000 C 
BRANCH   9  10
ATOM     10  C   UNL     1      35.497 -54.282 -11.218  1.00  0.00    -0.003 C 
ATOM     11  C   UNL     1      34.579 -55.354 -10.632  1.00  0.00     0.004 C 
ENDBRANCH   9  10
ENDBRANCH   8   9
ENDBRANCH   7   8
ENDBRANCH   1   7
TORSDOF 7
ENDMDL
MODEL 6
REMARK VINA RESULT:    -3.142      1.020      1.461
REMARK INTER + INTRA:          -5.104
REMARK INTER:                  -4.594
REMARK INTRA:                  -0.510
REMARK UNBOUND:                -0.676
REMARK SMILES CCCCCCCCC(=O)[O-]
REMARK SMILES IDX 6 1 7 2 8 3 9 4 10 5 11 6 5 7 4 8 3 9 2 10 1 11
REMARK H PARENT
REMARK Flexibility Score: inf
ROOT
ATOM      1  C   UNL     1      36.398 -49.106   3.652  1.00  0.00     0.000 C 
ENDROOT
BRANCH   1   2
ATOM      2  C   UNL     1      35.918 -49.924   2.440  1.00  0.00     0.006 C 
BRANCH   2   3
ATOM      3  C   UNL     1      34.421 -50.250   2.518  1.00  0.00     0.053 C 
BRANCH   3   4
ATOM      4  C   UNL     1      33.709 -49.908   1.245  1.00  0.00     0.041 C 
ATOM      5  O   UNL     1      34.298 -49.256   0.344  1.00  0.00    -0.550 OA
ATOM      6  O   UNL     1      32.383 -50.285   1.066  1.00  0.00    -0.550 OA
ENDBRANCH   3   4
ENDBRANCH   2   3
ENDBRANCH   1   2
BRANCH   1   7
ATOM      7  C   UNL     1      35.565 -47.834   3.873  1.00  0.00     0.000 C 
BRANCH   7   8
ATOM      8  C   UNL     1      35.759 -46.795   2.758  1.00  0.00    -0.000 C 
BRANCH   8   9
ATOM      9  C   UNL     1      34.636 -45.747   2.784  1.00  0.00    -0.000 C 
BRANCH   9  10
ATOM     10  C   UNL     1      33.591 -45.974   1.680  1.00  0.00    -0.003 C 
ATOM     11  C   UNL     1      32.875 -44.687   1.271  1.00  0.00     0.004 C 
ENDBRANCH   9  10
ENDBRANCH   8   9
ENDBRANCH   7   8
ENDBRANCH   1   7
TORSDOF 7
ENDMDL
MODEL 7
REMARK VINA RESULT:    -3.068      2.270      3.028
REMARK INTER + INTRA:          -5.000
REMARK INTER:                  -4.620
REMARK INTRA:                  -0.381
REMARK UNBOUND:                -0.676
REMARK SMILES CCCCCCCCC(=O)[O-]
REMARK SMILES IDX 6 1 7 2 8 3 9 4 10 5 11 6 5 7 4 8 3 9 2 10 1 11
REMARK H PARENT
REMARK Flexibility Score: inf
ROOT
ATOM      1  C   UNL     1      35.176 -46.920   3.220  1.00  0.00     0.000 C 
ENDROOT
BRANCH   1   2
ATOM      2  C   UNL     1      35.894 -48.001   4.048  1.00  0.00     0.006 C 
BRANCH   2   3
ATOM      3  C   UNL     1      35.732 -49.400   3.438  1.00  0.00     0.053 C 
BRANCH   3   4
ATOM      4  C   UNL     1      36.176 -50.475   4.382  1.00  0.00     0.041 C 
ATOM      5  O   UNL     1      36.211 -51.675   4.005  1.00  0.00    -0.550 OA
ATOM      6  O   UNL     1      36.524 -50.154   5.688  1.00  0.00    -0.550 OA
ENDBRANCH   3   4
ENDBRANCH   2   3
ENDBRANCH   1   2
BRANCH   1   7
ATOM      7  C   UNL     1      34.343 -47.512   2.073  1.00  0.00     0.000 C 
BRANCH   7   8
ATOM      8  C   UNL     1      33.552 -46.445   1.301  1.00  0.00    -0.000 C 
BRANCH   8   9
ATOM      9  C   UNL     1      33.512 -45.122   2.081  1.00  0.00    -0.000 C 
BRANCH   9  10
ATOM     10  C   UNL     1      33.925 -43.917   1.220  1.00  0.00    -0.003 C 
ATOM     11  C   UNL     1      35.104 -43.145   1.812  1.00  0.00     0.004 C 
ENDBRANCH   9  10
ENDBRANCH   8   9
ENDBRANCH   7   8
ENDBRANCH   1   7
TORSDOF 7
ENDMDL
MODEL 8
REMARK VINA RESULT:    -3.063      2.022      2.777
REMARK INTER + INTRA:          -4.993
REMARK INTER:                  -4.331
REMARK INTRA:                  -0.662
REMARK UNBOUND:                -0.676
REMARK SMILES CCCCCCCCC(=O)[O-]
REMARK SMILES IDX 6 1 7 2 8 3 9 4 10 5 11 6 5 7 4 8 3 9 2 10 1 11
REMARK H PARENT
REMARK Flexibility Score: inf
ROOT
ATOM      1  C   UNL     1      36.249 -46.502   2.574  1.00  0.00     0.000 C 
ENDROOT
BRANCH   1   2
ATOM      2  C   UNL     1      35.490 -47.340   3.618  1.00  0.00     0.006 C 
BRANCH   2   3
ATOM      3  C   UNL     1      35.378 -48.814   3.206  1.00  0.00     0.053 C 
BRANCH   3   4
ATOM      4  C   UNL     1      36.098 -49.716   4.160  1.00  0.00     0.041 C 
ATOM      5  O   UNL     1      36.781 -49.230   5.100  1.00  0.00    -0.550 OA
ATOM      6  O   UNL     1      36.040 -51.095   3.995  1.00  0.00    -0.550 OA
ENDBRANCH   3   4
ENDBRANCH   2   3
ENDBRANCH   1   2
BRANCH   1   7
ATOM      7  C   UNL     1      35.522 -45.194   2.225  1.00  0.00     0.000 C 
BRANCH   7   8
ATOM      8  C   UNL     1      34.038 -45.213   2.625  1.00  0.00    -0.000 C 
BRANCH   8   9
ATOM      9  C   UNL     1      33.138 -45.022   1.395  1.00  0.00    -0.000 C 
BRANCH   9  10
ATOM     10  C   UNL     1      33.507 -45.967   0.240  1.00  0.00    -0.003 C 
ATOM     11  C   UNL     1      33.134 -47.422   0.524  1.00  0.00     0.004 C 
ENDBRANCH   9  10
ENDBRANCH   8   9
ENDBRANCH   7   8
ENDBRANCH   1   7
TORSDOF 7
ENDMDL
MODEL 9
REMARK VINA RESULT:    -3.036      2.493      3.594
REMARK INTER + INTRA:          -4.955
REMARK INTER:                  -4.529
REMARK INTRA:                  -0.426
REMARK UNBOUND:                -0.676
REMARK SMILES CCCCCCCCC(=O)[O-]
REMARK SMILES IDX 6 1 7 2 8 3 9 4 10 5 11 6 5 7 4 8 3 9 2 10 1 11
REMARK H PARENT
REMARK Flexibility Score: inf
ROOT
ATOM      1  C   UNL     1      33.743 -50.636   2.149  1.00  0.00     0.000 C 
ENDROOT
BRANCH   1   2
ATOM      2  C   UNL     1      34.894 -49.815   2.754  1.00  0.00     0.006 C 
BRANCH   2   3
ATOM      3  C   UNL     1      36.150 -50.665   2.993  1.00  0.00     0.053 C 
BRANCH   3   4
ATOM      4  C   UNL     1      36.183 -51.235   4.377  1.00  0.00     0.041 C 
ATOM      5  O   UNL     1      35.883 -52.442   4.574  1.00  0.00    -0.550 OA
ATOM      6  O   UNL     1      36.516 -50.425   5.456  1.00  0.00    -0.550 OA
ENDBRANCH   3   4
ENDBRANCH   2   3
ENDBRANCH   1   2
BRANCH   1   7
ATOM      7  C   UNL     1      32.994 -49.877   1.043  1.00  0.00     0.000 C 
BRANCH   7   8
ATOM      8  C   UNL     1      33.842 -48.765   0.405  1.00  0.00    -0.000 C 
BRANCH   8   9
ATOM      9  C   UNL     1      33.147 -47.401   0.540  1.00  0.00    -0.000 C 
BRANCH   9  10
ATOM     10  C   UNL     1      34.125 -46.275   0.911  1.00  0.00    -0.003 C 
ATOM     11  C   UNL     1      33.708 -45.523   2.175  1.00  0.00     0.004 C 
ENDBRANCH   9  10
ENDBRANCH   8   9
ENDBRANCH   7   8
ENDBRANCH   1   7
TORSDOF 7
ENDMDL
