MODEL 1
REMARK VINA RESULT:    13.156      0.000      0.000
REMARK INTER + INTRA:          23.182
REMARK INTER:                  23.923
REMARK INTRA:                  -0.741
REMARK UNBOUND:                -0.741
REMARK SMILES CCCCCCCCCCCCCCCC(=O)[O-]
REMARK SMILES IDX 9 1 10 2 11 3 12 4 13 5 14 6 15 7 16 8 17 9 18 10 8 11 7 12
REMARK SMILES IDX 6 13 5 14 4 15 3 16 2 17 1 18
REMARK H PARENT
REMARK Flexibility Score: inf
ROOT
ATOM      1  C   UNL     1      -6.112 -11.087  23.746  1.00  0.00     0.000 C 
ENDROOT
BRANCH   1   2
ATOM      2  C   UNL     1      -6.568 -12.510  24.115  1.00  0.00     0.000 C 
BRANCH   2   3
ATOM      3  C   UNL     1      -6.126 -12.932  25.523  1.00  0.00     0.000 C 
BRANCH   3   4
ATOM      4  C   UNL     1      -5.100 -14.070  25.460  1.00  0.00     0.000 C 
BRANCH   4   5
ATOM      5  C   UNL     1      -5.207 -14.977  26.694  1.00  0.00     0.000 C 
BRANCH   5   6
ATOM      6  C   UNL     1      -5.175 -16.475  26.340  1.00  0.00     0.006 C 
BRANCH   6   7
ATOM      7  C   UNL     1      -4.302 -16.818  25.123  1.00  0.00     0.053 C 
BRANCH   7   8
ATOM      8  C   UNL     1      -4.957 -17.824  24.225  1.00  0.00     0.041 C 
ATOM      9  O   UNL     1      -4.834 -17.733  22.976  1.00  0.00    -0.550 OA
ATOM     10  O   UNL     1      -5.676 -18.880  24.772  1.00  0.00    -0.550 OA
ENDBRANCH   7   8
ENDBRANCH   6   7
ENDBRANCH   5   6
ENDBRANCH   4   5
ENDBRANCH   3   4
ENDBRANCH   2   3
ENDBRANCH   1   2
BRANCH   1  11
ATOM     11  C   UNL     1      -5.838 -10.160  24.947  1.00  0.00     0.000 C 
BRANCH  11  12
ATOM     12  C   UNL     1      -5.136  -8.831  24.603  1.00  0.00    -0.000 C 
BRANCH  12  13
ATOM     13  C   UNL     1      -3.666  -8.733  25.049  1.00  0.00    -0.000 C 
BRANCH  13  14
ATOM     14  C   UNL     1      -2.724  -8.305  23.911  1.00  0.00    -0.000 C 
BRANCH  14  15
ATOM     15  C   UNL     1      -1.265  -8.163  24.375  1.00  0.00    -0.000 C 
BRANCH  15  16
ATOM     16  C   UNL     1      -0.932  -9.072  25.571  1.00  0.00    -0.000 C 
BRANCH  16  17
ATOM     17  C   UNL     1       0.191  -8.499  26.450  1.00  0.00    -0.003 C 
ATOM     18  C   UNL     1       0.525  -7.048  26.106  1.00  0.00     0.004 C 
ENDBRANCH  16  17
ENDBRANCH  15  16
ENDBRANCH  14  15
ENDBRANCH  13  14
ENDBRANCH  12  13
ENDBRANCH  11  12
ENDBRANCH   1  11
TORSDOF 14
ENDMDL
MODEL 2
REMARK VINA RESULT:    13.651      3.855      8.369
REMARK INTER + INTRA:          24.083
REMARK INTER:                  24.811
REMARK INTRA:                  -0.728
REMARK UNBOUND:                -0.741
REMARK SMILES CCCCCCCCCCCCCCCC(=O)[O-]
REMARK SMILES IDX 9 1 10 2 11 3 12 4 13 5 14 6 15 7 16 8 17 9 18 10 8 11 7 12
REMARK SMILES IDX 6 13 5 14 4 15 3 16 2 17 1 18
REMARK H PARENT
REMARK Flexibility Score: inf
ROOT
ATOM      1  C   UNL     1      -6.093 -11.347  23.736  1.00  0.00     0.000 C 
ENDROOT
BRANCH   1   2
ATOM      2  C   UNL     1      -5.942 -10.352  24.900  1.00  0.00     0.000 C 
BRANCH   2   3
ATOM      3  C   UNL     1      -5.400  -8.987  24.451  1.00  0.00     0.000 C 
BRANCH   3   4
ATOM      4  C   UNL     1      -3.958  -8.783  24.930  1.00  0.00     0.000 C 
BRANCH   4   5
ATOM      5  C   UNL     1      -3.132  -8.026  23.880  1.00  0.00     0.000 C 
BRANCH   5   6
ATOM      6  C   UNL     1      -1.614  -8.216  24.063  1.00  0.00     0.006 C 
BRANCH   6   7
ATOM      7  C   UNL     1      -1.226  -9.048  25.295  1.00  0.00     0.053 C 
BRANCH   7   8
ATOM      8  C   UNL     1      -0.091  -8.431  26.055  1.00  0.00     0.041 C 
ATOM      9  O   UNL     1       0.290  -7.263  25.785  1.00  0.00    -0.550 OA
ATOM     10  O   UNL     1       0.521  -9.135  27.085  1.00  0.00    -0.550 OA
ENDBRANCH   7   8
ENDBRANCH   6   7
ENDBRANCH   5   6
ENDBRANCH   4   5
ENDBRANCH   3   4
ENDBRANCH   2   3
ENDBRANCH   1   2
BRANCH   1  11
ATOM     11  C   UNL     1      -6.530 -12.768  24.147  1.00  0.00     0.000 C 
BRANCH  11  12
ATOM     12  C   UNL     1      -6.086 -13.208  25.557  1.00  0.00    -0.000 C 
BRANCH  12  13
ATOM     13  C   UNL     1      -5.061 -14.355  25.591  1.00  0.00    -0.000 C 
BRANCH  13  14
ATOM     14  C   UNL     1      -5.182 -15.227  26.853  1.00  0.00    -0.000 C 
BRANCH  14  15
ATOM     15  C   UNL     1      -5.022 -16.726  26.552  1.00  0.00    -0.000 C 
BRANCH  15  16
ATOM     16  C   UNL     1      -4.662 -17.001  25.081  1.00  0.00    -0.000 C 
BRANCH  16  17
ATOM     17  C   UNL     1      -5.405 -18.218  24.512  1.00  0.00    -0.003 C 
ATOM     18  C   UNL     1      -5.654 -18.105  23.007  1.00  0.00     0.004 C 
ENDBRANCH  16  17
ENDBRANCH  15  16
ENDBRANCH  14  15
ENDBRANCH  13  14
ENDBRANCH  12  13
ENDBRANCH  11  12
ENDBRANCH   1  11
TORSDOF 14
ENDMDL
MODEL 3
REMARK VINA RESULT:    14.571      1.483      2.635
REMARK INTER + INTRA:          25.755
REMARK INTER:                  26.517
REMARK INTRA:                  -0.761
REMARK UNBOUND:                -0.741
REMARK SMILES CCCCCCCCCCCCCCCC(=O)[O-]
REMARK SMILES IDX 9 1 10 2 11 3 12 4 13 5 14 6 15 7 16 8 17 9 18 10 8 11 7 12
REMARK SMILES IDX 6 13 5 14 4 15 3 16 2 17 1 18
REMARK H PARENT
REMARK Flexibility Score: inf
ROOT
ATOM      1  C   UNL     1      -5.883 -11.056  23.832  1.00  0.00     0.000 C 
ENDROOT
BRANCH   1   2
ATOM      2  C   UNL     1      -6.515 -12.442  24.053  1.00  0.00     0.000 C 
BRANCH   2   3
ATOM      3  C   UNL     1      -6.322 -12.964  25.484  1.00  0.00     0.000 C 
BRANCH   3   4
ATOM      4  C   UNL     1      -5.136 -13.934  25.559  1.00  0.00     0.000 C 
BRANCH   4   5
ATOM      5  C   UNL     1      -5.264 -14.867  26.772  1.00  0.00     0.000 C 
BRANCH   5   6
ATOM      6  C   UNL     1      -5.153 -16.356  26.396  1.00  0.00     0.006 C 
BRANCH   6   7
ATOM      7  C   UNL     1      -4.406 -16.621  25.079  1.00  0.00     0.053 C 
BRANCH   7   8
ATOM      8  C   UNL     1      -4.967 -17.798  24.341  1.00  0.00     0.041 C 
ATOM      9  O   UNL     1      -5.000 -17.799  23.083  1.00  0.00    -0.550 OA
ATOM     10  O   UNL     1      -5.421 -18.907  25.043  1.00  0.00    -0.550 OA
ENDBRANCH   7   8
ENDBRANCH   6   7
ENDBRANCH   5   6
ENDBRANCH   4   5
ENDBRANCH   3   4
ENDBRANCH   2   3
ENDBRANCH   1   2
BRANCH   1  11
ATOM     11  C   UNL     1      -6.174 -10.024  24.940  1.00  0.00     0.000 C 
BRANCH  11  12
ATOM     12  C   UNL     1      -4.945  -9.242  25.447  1.00  0.00    -0.000 C 
BRANCH  12  13
ATOM     13  C   UNL     1      -4.268  -8.337  24.402  1.00  0.00    -0.000 C 
BRANCH  13  14
ATOM     14  C   UNL     1      -2.769  -8.636  24.235  1.00  0.00    -0.000 C 
BRANCH  14  15
ATOM     15  C   UNL     1      -2.093  -7.708  23.212  1.00  0.00    -0.000 C 
BRANCH  15  16
ATOM     16  C   UNL     1      -3.084  -7.140  22.180  1.00  0.00    -0.000 C 
BRANCH  16  17
ATOM     17  C   UNL     1      -2.537  -7.200  20.746  1.00  0.00    -0.003 C 
ATOM     18  C   UNL     1      -3.645  -7.190  19.692  1.00  0.00     0.004 C 
ENDBRANCH  16  17
ENDBRANCH  15  16
ENDBRANCH  14  15
ENDBRANCH  13  14
ENDBRANCH  12  13
ENDBRANCH  11  12
ENDBRANCH   1  11
TORSDOF 14
ENDMDL
