MODEL 1
REMARK VINA RESULT:    -3.370      0.000      0.000
REMARK INTER + INTRA:          -3.773
REMARK INTER:                  -3.764
REMARK INTRA:                  -0.009
REMARK UNBOUND:                -0.009
REMARK SMILES CCCC(=O)[O-]
REMARK SMILES IDX 3 1 4 2 5 3 6 4 2 5 1 6
REMARK H PARENT
REMARK Flexibility Score: inf
ROOT
ATOM      1  C   UNL     1      -1.627  37.494  16.964  1.00  0.00     0.052 C 
ENDROOT
BRANCH   1   2
ATOM      2  C   UNL     1      -1.610  38.062  18.350  1.00  0.00     0.041 C 
ATOM      3  O   UNL     1      -2.691  38.286  18.956  1.00  0.00    -0.550 OA
ATOM      4  O   UNL     1      -0.400  38.312  18.984  1.00  0.00    -0.550 OA
ENDBRANCH   1   2
BRANCH   1   5
ATOM      5  C   UNL     1      -2.741  38.113  16.110  1.00  0.00     0.003 C 
ATOM      6  C   UNL     1      -2.827  37.480  14.721  1.00  0.00     0.004 C 
ENDBRANCH   1   5
TORSDOF 2
ENDMDL
MODEL 2
REMARK VINA RESULT:    -3.328      0.085      1.323
REMARK INTER + INTRA:          -3.726
REMARK INTER:                  -3.718
REMARK INTRA:                  -0.007
REMARK UNBOUND:                -0.009
REMARK SMILES CCCC(=O)[O-]
REMARK SMILES IDX 3 1 4 2 5 3 6 4 2 5 1 6
REMARK H PARENT
REMARK Flexibility Score: inf
ROOT
ATOM      1  C   UNL     1      -1.638  37.469  16.948  1.00  0.00     0.052 C 
ENDROOT
BRANCH   1   2
ATOM      2  C   UNL     1      -1.605  38.031  18.336  1.00  0.00     0.041 C 
ATOM      3  O   UNL     1      -0.505  38.326  18.875  1.00  0.00    -0.550 OA
ATOM      4  O   UNL     1      -2.791  38.260  19.021  1.00  0.00    -0.550 OA
ENDBRANCH   1   2
BRANCH   1   5
ATOM      5  C   UNL     1      -2.743  38.112  16.101  1.00  0.00     0.003 C 
ATOM      6  C   UNL     1      -2.881  37.453  14.729  1.00  0.00     0.004 C 
ENDBRANCH   1   5
TORSDOF 2
ENDMDL
MODEL 3
REMARK VINA RESULT:    -3.237      2.224      3.184
REMARK INTER + INTRA:          -3.624
REMARK INTER:                  -3.570
REMARK INTRA:                  -0.054
REMARK UNBOUND:                -0.009
REMARK SMILES CCCC(=O)[O-]
REMARK SMILES IDX 3 1 4 2 5 3 6 4 2 5 1 6
REMARK H PARENT
REMARK Flexibility Score: inf
ROOT
ATOM      1  C   UNL     1      -2.749  37.272  17.665  1.00  0.00     0.052 C 
ENDROOT
BRANCH   1   2
ATOM      2  C   UNL     1      -2.454  37.683  16.255  1.00  0.00     0.041 C 
ATOM      3  O   UNL     1      -3.136  38.587  15.702  1.00  0.00    -0.550 OA
ATOM      4  O   UNL     1      -1.406  37.091  15.564  1.00  0.00    -0.550 OA
ENDBRANCH   1   2
BRANCH   1   5
ATOM      5  C   UNL     1      -2.244  38.308  18.676  1.00  0.00     0.003 C 
ATOM      6  C   UNL     1      -0.721  38.293  18.812  1.00  0.00     0.004 C 
ENDBRANCH   1   5
TORSDOF 2
ENDMDL
MODEL 4
REMARK VINA RESULT:    -3.128      2.678      3.498
REMARK INTER + INTRA:          -3.503
REMARK INTER:                  -3.479
REMARK INTRA:                  -0.024
REMARK UNBOUND:                -0.009
REMARK SMILES CCCC(=O)[O-]
REMARK SMILES IDX 3 1 4 2 5 3 6 4 2 5 1 6
REMARK H PARENT
REMARK Flexibility Score: inf
ROOT
ATOM      1  C   UNL     1      -2.985  37.288  17.983  1.00  0.00     0.052 C 
ENDROOT
BRANCH   1   2
ATOM      2  C   UNL     1      -3.860  36.313  18.708  1.00  0.00     0.041 C 
ATOM      3  O   UNL     1      -4.116  36.477  19.931  1.00  0.00    -0.550 OA
ATOM      4  O   UNL     1      -4.421  35.242  18.026  1.00  0.00    -0.550 OA
ENDBRANCH   1   2
BRANCH   1   5
ATOM      5  C   UNL     1      -2.277  38.244  18.951  1.00  0.00     0.003 C 
ATOM      6  C   UNL     1      -0.760  38.248  18.758  1.00  0.00     0.004 C 
ENDBRANCH   1   5
TORSDOF 2
ENDMDL
MODEL 5
REMARK VINA RESULT:    -3.124      2.062      2.257
REMARK INTER + INTRA:          -3.498
REMARK INTER:                  -3.492
REMARK INTRA:                  -0.006
REMARK UNBOUND:                -0.009
REMARK SMILES CCCC(=O)[O-]
REMARK SMILES IDX 3 1 4 2 5 3 6 4 2 5 1 6
REMARK H PARENT
REMARK Flexibility Score: inf
ROOT
ATOM      1  C   UNL     1      -2.729  37.942  18.011  1.00  0.00     0.052 C 
ENDROOT
BRANCH   1   2
ATOM      2  C   UNL     1      -3.699  37.576  19.092  1.00  0.00     0.041 C 
ATOM      3  O   UNL     1      -4.588  38.394  19.451  1.00  0.00    -0.550 OA
ATOM      4  O   UNL     1      -3.643  36.319  19.679  1.00  0.00    -0.550 OA
ENDBRANCH   1   2
BRANCH   1   5
ATOM      5  C   UNL     1      -2.741  36.921  16.867  1.00  0.00     0.003 C 
ATOM      6  C   UNL     1      -1.809  37.320  15.723  1.00  0.00     0.004 C 
ENDBRANCH   1   5
TORSDOF 2
ENDMDL
MODEL 6
REMARK VINA RESULT:    -3.096      2.387      3.253
REMARK INTER + INTRA:          -3.467
REMARK INTER:                  -3.402
REMARK INTRA:                  -0.065
REMARK UNBOUND:                -0.009
REMARK SMILES CCCC(=O)[O-]
REMARK SMILES IDX 3 1 4 2 5 3 6 4 2 5 1 6
REMARK H PARENT
REMARK Flexibility Score: inf
ROOT
ATOM      1  C   UNL     1      -2.156  38.014  18.139  1.00  0.00     0.052 C 
ENDROOT
BRANCH   1   2
ATOM      2  C   UNL     1      -2.257  37.593  16.705  1.00  0.00     0.041 C 
ATOM      3  O   UNL     1      -1.581  36.619  16.281  1.00  0.00    -0.550 OA
ATOM      4  O   UNL     1      -3.124  38.257  15.846  1.00  0.00    -0.550 OA
ENDBRANCH   1   2
BRANCH   1   5
ATOM      5  C   UNL     1      -3.502  37.885  18.865  1.00  0.00     0.003 C 
ATOM      6  C   UNL     1      -3.887  36.427  19.119  1.00  0.00     0.004 C 
ENDBRANCH   1   5
TORSDOF 2
ENDMDL
MODEL 7
REMARK VINA RESULT:    -3.042      2.227      2.758
REMARK INTER + INTRA:          -3.407
REMARK INTER:                  -3.374
REMARK INTRA:                  -0.033
REMARK UNBOUND:                -0.009
REMARK SMILES CCCC(=O)[O-]
REMARK SMILES IDX 3 1 4 2 5 3 6 4 2 5 1 6
REMARK H PARENT
REMARK Flexibility Score: inf
ROOT
ATOM      1  C   UNL     1      -3.458  37.972  18.721  1.00  0.00     0.052 C 
ENDROOT
BRANCH   1   2
ATOM      2  C   UNL     1      -2.023  38.070  18.302  1.00  0.00     0.041 C 
ATOM      3  O   UNL     1      -1.646  37.569  17.210  1.00  0.00    -0.550 OA
ATOM      4  O   UNL     1      -1.110  38.744  19.102  1.00  0.00    -0.550 OA
ENDBRANCH   1   2
BRANCH   1   5
ATOM      5  C   UNL     1      -3.761  36.630  19.399  1.00  0.00     0.003 C 
ATOM      6  C   UNL     1      -4.300  35.592  18.416  1.00  0.00     0.004 C 
ENDBRANCH   1   5
TORSDOF 2
ENDMDL
MODEL 8
REMARK VINA RESULT:    -2.995      2.951      3.839
REMARK INTER + INTRA:          -3.354
REMARK INTER:                  -3.315
REMARK INTRA:                  -0.038
REMARK UNBOUND:                -0.009
REMARK SMILES CCCC(=O)[O-]
REMARK SMILES IDX 3 1 4 2 5 3 6 4 2 5 1 6
REMARK H PARENT
REMARK Flexibility Score: inf
ROOT
ATOM      1  C   UNL     1      -3.736  36.821  19.280  1.00  0.00     0.052 C 
ENDROOT
BRANCH   1   2
ATOM      2  C   UNL     1      -4.878  37.431  20.033  1.00  0.00     0.041 C 
ATOM      3  O   UNL     1      -5.121  38.663  19.929  1.00  0.00    -0.550 OA
ATOM      4  O   UNL     1      -5.695  36.633  20.823  1.00  0.00    -0.550 OA
ENDBRANCH   1   2
BRANCH   1   5
ATOM      5  C   UNL     1      -3.105  37.818  18.299  1.00  0.00     0.003 C 
ATOM      6  C   UNL     1      -1.709  38.259  18.738  1.00  0.00     0.004 C 
ENDBRANCH   1   5
TORSDOF 2
ENDMDL
MODEL 9
REMARK VINA RESULT:    -2.842      3.756      4.986
REMARK INTER + INTRA:          -3.182
REMARK INTER:                  -3.152
REMARK INTRA:                  -0.030
REMARK UNBOUND:                -0.009
REMARK SMILES CCCC(=O)[O-]
REMARK SMILES IDX 3 1 4 2 5 3 6 4 2 5 1 6
REMARK H PARENT
REMARK Flexibility Score: inf
ROOT
ATOM      1  C   UNL     1      -4.865  37.958  20.363  1.00  0.00     0.052 C 
ENDROOT
BRANCH   1   2
ATOM      2  C   UNL     1      -4.001  37.388  19.281  1.00  0.00     0.041 C 
ATOM      3  O   UNL     1      -3.874  36.141  19.161  1.00  0.00    -0.550 OA
ATOM      4  O   UNL     1      -3.362  38.234  18.384  1.00  0.00    -0.550 OA
ENDBRANCH   1   2
BRANCH   1   5
ATOM      5  C   UNL     1      -5.408  36.864  21.291  1.00  0.00     0.003 C 
ATOM      6  C   UNL     1      -4.976  37.067  22.743  1.00  0.00     0.004 C 
ENDBRANCH   1   5
TORSDOF 2
ENDMDL
