MODEL 1
REMARK VINA RESULT:    -3.878      0.000      0.000
REMARK INTER + INTRA:          -6.437
REMARK INTER:                  -5.918
REMARK INTRA:                  -0.519
REMARK UNBOUND:                -0.519
REMARK SMILES CCCCCCCCCC=CC(=O)[O-]
REMARK SMILES IDX 7 1 8 2 9 3 10 4 11 5 12 6 13 7 14 8 6 9 5 10 4 11 3 12 2 13
REMARK SMILES IDX 1 14
REMARK H PARENT
REMARK Flexibility Score: inf
ROOT
ATOM      1  C   UNL     1      15.198  14.084  37.957  1.00  0.00     0.000 C 
ENDROOT
BRANCH   1   2
ATOM      2  C   UNL     1      15.606  14.098  39.442  1.00  0.00     0.004 C 
BRANCH   2   3
ATOM      3  C   UNL     1      16.607  12.990  39.799  1.00  0.00     0.027 C 
BRANCH   3   4
ATOM      4  C   UNL     1      17.113  13.149  41.203  1.00  0.00    -0.025 C 
ATOM      5  C   UNL     1      18.404  12.974  41.505  1.00  0.00     0.020 C 
BRANCH   5   6
ATOM      6  C   UNL     1      18.920  13.111  42.875  1.00  0.00     0.064 C 
ATOM      7  O   UNL     1      18.498  12.374  43.807  1.00  0.00    -0.545 OA
ATOM      8  O   UNL     1      19.887  14.069  43.148  1.00  0.00    -0.545 OA
ENDBRANCH   5   6
ENDBRANCH   3   4
ENDBRANCH   2   3
ENDBRANCH   1   2
BRANCH   1   9
ATOM      9  C   UNL     1      14.054  13.114  37.608  1.00  0.00     0.000 C 
BRANCH   9  10
ATOM     10  C   UNL     1      14.515  11.925  36.753  1.00  0.00     0.000 C 
BRANCH  10  11
ATOM     11  C   UNL     1      13.638  11.772  35.505  1.00  0.00    -0.000 C 
BRANCH  11  12
ATOM     12  C   UNL     1      14.353  12.305  34.259  1.00  0.00    -0.000 C 
BRANCH  12  13
ATOM     13  C   UNL     1      14.012  13.779  34.016  1.00  0.00    -0.003 C 
ATOM     14  C   UNL     1      12.516  13.967  33.779  1.00  0.00     0.004 C 
ENDBRANCH  12  13
ENDBRANCH  11  12
ENDBRANCH  10  11
ENDBRANCH   9  10
ENDBRANCH   1   9
TORSDOF 9
ENDMDL
MODEL 2
REMARK VINA RESULT:    -3.753      1.135      1.671
REMARK INTER + INTRA:          -6.247
REMARK INTER:                  -5.798
REMARK INTRA:                  -0.449
REMARK UNBOUND:                -0.519
REMARK SMILES CCCCCCCCCC=CC(=O)[O-]
REMARK SMILES IDX 7 1 8 2 9 3 10 4 11 5 12 6 13 7 14 8 6 9 5 10 4 11 3 12 2 13
REMARK SMILES IDX 1 14
REMARK H PARENT
REMARK Flexibility Score: inf
ROOT
ATOM      1  C   UNL     1      15.663  13.001  37.950  1.00  0.00     0.000 C 
ENDROOT
BRANCH   1   2
ATOM      2  C   UNL     1      14.481  13.786  38.546  1.00  0.00     0.004 C 
BRANCH   2   3
ATOM      3  C   UNL     1      14.676  14.125  40.031  1.00  0.00     0.027 C 
BRANCH   3   4
ATOM      4  C   UNL     1      16.130  14.111  40.403  1.00  0.00    -0.025 C 
ATOM      5  C   UNL     1      16.664  13.099  41.096  1.00  0.00     0.020 C 
BRANCH   5   6
ATOM      6  C   UNL     1      18.083  13.071  41.484  1.00  0.00     0.064 C 
ATOM      7  O   UNL     1      18.863  14.008  41.169  1.00  0.00    -0.545 OA
ATOM      8  O   UNL     1      18.571  11.991  42.209  1.00  0.00    -0.545 OA
ENDBRANCH   5   6
ENDBRANCH   3   4
ENDBRANCH   2   3
ENDBRANCH   1   2
BRANCH   1   9
ATOM      9  C   UNL     1      15.352  12.257  36.637  1.00  0.00     0.000 C 
BRANCH   9  10
ATOM     10  C   UNL     1      13.871  11.877  36.500  1.00  0.00     0.000 C 
BRANCH  10  11
ATOM     11  C   UNL     1      13.345  12.206  35.098  1.00  0.00    -0.000 C 
BRANCH  11  12
ATOM     12  C   UNL     1      14.419  12.904  34.256  1.00  0.00    -0.000 C 
BRANCH  12  13
ATOM     13  C   UNL     1      13.788  13.891  33.268  1.00  0.00    -0.003 C 
ATOM     14  C   UNL     1      12.288  14.035  33.515  1.00  0.00     0.004 C 
ENDBRANCH  12  13
ENDBRANCH  11  12
ENDBRANCH  10  11
ENDBRANCH   9  10
ENDBRANCH   1   9
TORSDOF 9
ENDMDL
MODEL 3
REMARK VINA RESULT:    -3.577      1.067      1.775
REMARK INTER + INTRA:          -5.979
REMARK INTER:                  -5.402
REMARK INTRA:                  -0.577
REMARK UNBOUND:                -0.519
REMARK SMILES CCCCCCCCCC=CC(=O)[O-]
REMARK SMILES IDX 7 1 8 2 9 3 10 4 11 5 12 6 13 7 14 8 6 9 5 10 4 11 3 12 2 13
REMARK SMILES IDX 1 14
REMARK H PARENT
REMARK Flexibility Score: inf
ROOT
ATOM      1  C   UNL     1      16.330  12.872  38.161  1.00  0.00     0.000 C 
ENDROOT
BRANCH   1   2
ATOM      2  C   UNL     1      16.557  12.720  39.676  1.00  0.00     0.004 C 
BRANCH   2   3
ATOM      3  C   UNL     1      16.382  14.038  40.444  1.00  0.00     0.027 C 
BRANCH   3   4
ATOM      4  C   UNL     1      17.198  14.042  41.704  1.00  0.00    -0.025 C 
ATOM      5  C   UNL     1      18.362  13.389  41.785  1.00  0.00     0.020 C 
BRANCH   5   6
ATOM      6  C   UNL     1      19.172  13.368  43.013  1.00  0.00     0.064 C 
ATOM      7  O   UNL     1      20.170  14.125  43.149  1.00  0.00    -0.545 OA
ATOM      8  O   UNL     1      18.830  12.499  44.041  1.00  0.00    -0.545 OA
ENDBRANCH   5   6
ENDBRANCH   3   4
ENDBRANCH   2   3
ENDBRANCH   1   2
BRANCH   1   9
ATOM      9  C   UNL     1      15.518  14.115  37.749  1.00  0.00     0.000 C 
BRANCH   9  10
ATOM     10  C   UNL     1      14.529  13.835  36.609  1.00  0.00     0.000 C 
BRANCH  10  11
ATOM     11  C   UNL     1      13.662  12.610  36.922  1.00  0.00    -0.000 C 
BRANCH  11  12
ATOM     12  C   UNL     1      13.828  11.528  35.849  1.00  0.00    -0.000 C 
BRANCH  12  13
ATOM     13  C   UNL     1      13.243  11.987  34.509  1.00  0.00    -0.003 C 
ATOM     14  C   UNL     1      14.256  11.822  33.379  1.00  0.00     0.004 C 
ENDBRANCH  12  13
ENDBRANCH  11  12
ENDBRANCH  10  11
ENDBRANCH   9  10
ENDBRANCH   1   9
TORSDOF 9
ENDMDL
MODEL 4
REMARK VINA RESULT:    -2.975      4.720      8.328
REMARK INTER + INTRA:          -5.060
REMARK INTER:                  -4.692
REMARK INTRA:                  -0.368
REMARK UNBOUND:                -0.519
REMARK SMILES CCCCCCCCCC=CC(=O)[O-]
REMARK SMILES IDX 7 1 8 2 9 3 10 4 11 5 12 6 13 7 14 8 6 9 5 10 4 11 3 12 2 13
REMARK SMILES IDX 1 14
REMARK H PARENT
REMARK Flexibility Score: inf
ROOT
ATOM      1  C   UNL     1      15.010  14.050  38.540  1.00  0.00     0.000 C 
ENDROOT
BRANCH   1   2
ATOM      2  C   UNL     1      15.605  12.877  37.738  1.00  0.00     0.004 C 
BRANCH   2   3
ATOM      3  C   UNL     1      14.592  12.233  36.781  1.00  0.00     0.027 C 
BRANCH   3   4
ATOM      4  C   UNL     1      14.382  13.084  35.562  1.00  0.00    -0.025 C 
ATOM      5  C   UNL     1      13.303  12.938  34.785  1.00  0.00     0.020 C 
BRANCH   5   6
ATOM      6  C   UNL     1      13.084  13.750  33.579  1.00  0.00     0.064 C 
ATOM      7  O   UNL     1      14.050  14.125  32.861  1.00  0.00    -0.545 OA
ATOM      8  O   UNL     1      11.791  14.111  33.224  1.00  0.00    -0.545 OA
ENDBRANCH   5   6
ENDBRANCH   3   4
ENDBRANCH   2   3
ENDBRANCH   1   2
BRANCH   1   9
ATOM      9  C   UNL     1      15.231  13.971  40.063  1.00  0.00     0.000 C 
BRANCH   9  10
ATOM     10  C   UNL     1      16.705  14.123  40.464  1.00  0.00     0.000 C 
BRANCH  10  11
ATOM     11  C   UNL     1      17.197  12.888  41.228  1.00  0.00    -0.000 C 
BRANCH  11  12
ATOM     12  C   UNL     1      18.602  13.115  41.797  1.00  0.00    -0.000 C 
BRANCH  12  13
ATOM     13  C   UNL     1      18.550  13.355  43.310  1.00  0.00    -0.003 C 
ATOM     14  C   UNL     1      19.809  14.067  43.799  1.00  0.00     0.004 C 
ENDBRANCH  12  13
ENDBRANCH  11  12
ENDBRANCH  10  11
ENDBRANCH   9  10
ENDBRANCH   1   9
TORSDOF 9
ENDMDL
MODEL 5
REMARK VINA RESULT:    -2.004      1.175      1.801
REMARK INTER + INTRA:          -3.578
REMARK INTER:                  -3.272
REMARK INTRA:                  -0.306
REMARK UNBOUND:                -0.519
REMARK SMILES CCCCCCCCCC=CC(=O)[O-]
REMARK SMILES IDX 7 1 8 2 9 3 10 4 11 5 12 6 13 7 14 8 6 9 5 10 4 11 3 12 2 13
REMARK SMILES IDX 1 14
REMARK H PARENT
REMARK Flexibility Score: inf
ROOT
ATOM      1  C   UNL     1      14.500  12.749  37.397  1.00  0.00     0.000 C 
ENDROOT
BRANCH   1   2
ATOM      2  C   UNL     1      15.811  12.669  38.201  1.00  0.00     0.004 C 
BRANCH   2   3
ATOM      3  C   UNL     1      15.833  13.621  39.406  1.00  0.00     0.027 C 
BRANCH   3   4
ATOM      4  C   UNL     1      17.135  13.524  40.147  1.00  0.00    -0.025 C 
ATOM      5  C   UNL     1      17.213  13.775  41.459  1.00  0.00     0.020 C 
BRANCH   5   6
ATOM      6  C   UNL     1      18.480  13.701  42.202  1.00  0.00     0.064 C 
ATOM      7  O   UNL     1      18.518  13.260  43.382  1.00  0.00    -0.545 OA
ATOM      8  O   UNL     1      19.654  14.125  41.595  1.00  0.00    -0.545 OA
ENDBRANCH   5   6
ENDBRANCH   3   4
ENDBRANCH   2   3
ENDBRANCH   1   2
BRANCH   1   9
ATOM      9  C   UNL     1      14.479  13.827  36.297  1.00  0.00     0.000 C 
BRANCH   9  10
ATOM     10  C   UNL     1      13.066  14.125  35.776  1.00  0.00     0.000 C 
BRANCH  10  11
ATOM     11  C   UNL     1      12.927  13.722  34.303  1.00  0.00    -0.000 C 
BRANCH  11  12
ATOM     12  C   UNL     1      14.293  13.394  33.689  1.00  0.00    -0.000 C 
BRANCH  12  13
ATOM     13  C   UNL     1      14.536  11.882  33.666  1.00  0.00    -0.003 C 
ATOM     14  C   UNL     1      13.253  11.111  33.966  1.00  0.00     0.004 C 
ENDBRANCH  12  13
ENDBRANCH  11  12
ENDBRANCH  10  11
ENDBRANCH   9  10
ENDBRANCH   1   9
TORSDOF 9
ENDMDL
