MODEL 1
REMARK VINA RESULT:    -5.392      0.000      0.000
REMARK INTER + INTRA:          -7.971
REMARK INTER:                  -7.284
REMARK INTRA:                  -0.688
REMARK UNBOUND:                -0.688
REMARK SMILES COc1ccc(-c2cc(=O)c3c(OC)c(OC)c(OC)c(OC)c3o2)cc1
REMARK SMILES IDX 7 1 8 2 9 3 10 4 11 5 24 6 25 7 21 8 18 9 15 10 12 11 6 12
REMARK SMILES IDX 3 13 4 14 27 15 5 16 26 17 2 18 1 19 22 20 23 21 13 22 14 23
REMARK SMILES IDX 19 24 20 25 16 26 17 27
REMARK H PARENT
REMARK Flexibility Score: inf
ROOT
ATOM      1  C   UNL     1     130.696 100.475  91.570  1.00  0.00     0.138 A 
ATOM      2  C   UNL     1     129.658 101.381  91.328  1.00  0.00     0.100 A 
ATOM      3  C   UNL     1     129.806 102.709  91.720  1.00  0.00     0.197 A 
ATOM      4  O   UNL     1     128.875 103.520  91.468  1.00  0.00    -0.289 OA
ATOM      5  C   UNL     1     130.992 103.120  92.368  1.00  0.00     0.115 A 
ATOM      6  C   UNL     1     132.010 102.155  92.556  1.00  0.00     0.188 A 
ATOM      7  O   UNL     1     131.814 100.900  92.152  1.00  0.00    -0.452 OA
ATOM      8  C   UNL     1     133.225 102.520  93.179  1.00  0.00     0.209 A 
ATOM      9  C   UNL     1     133.436 103.846  93.588  1.00  0.00     0.211 A 
ATOM     10  C   UNL     1     132.433 104.826  93.380  1.00  0.00     0.208 A 
ATOM     11  C   UNL     1     131.189 104.441  92.830  1.00  0.00     0.179 A 
ENDROOT
BRANCH   1  12
ATOM     12  C   UNL     1     130.583  99.047  91.182  1.00  0.00     0.018 A 
ATOM     13  C   UNL     1     130.409  96.316  90.483  1.00  0.00     0.118 A 
ATOM     14  C   UNL     1     129.248  97.106  90.559  1.00  0.00     0.047 A 
ATOM     15  C   UNL     1     131.649  96.899  90.763  1.00  0.00     0.047 A 
ATOM     16  C   UNL     1     129.334  98.457  90.909  1.00  0.00     0.016 A 
ATOM     17  C   UNL     1     131.737  98.250  91.112  1.00  0.00     0.016 A 
BRANCH  13  18
ATOM     18  O   UNL     1     130.374  94.958  90.138  1.00  0.00    -0.497 OA
ATOM     19  C   UNL     1     129.664  93.960  90.865  1.00  0.00     0.278 C 
ENDBRANCH  13  18
ENDBRANCH   1  12
BRANCH   8  20
ATOM     20  O   UNL     1     134.277 101.615  93.425  1.00  0.00    -0.490 OA
ATOM     21  C   UNL     1     135.218 101.126  92.476  1.00  0.00     0.278 C 
ENDBRANCH   8  20
BRANCH  11  22
ATOM     22  O   UNL     1     130.138 105.360  92.783  1.00  0.00    -0.492 OA
ATOM     23  C   UNL     1     129.433 105.728  93.963  1.00  0.00     0.278 C 
ENDBRANCH  11  22
BRANCH   9  24
ATOM     24  O   UNL     1     134.682 104.121  94.186  1.00  0.00    -0.490 OA
ATOM     25  C   UNL     1     134.954 104.265  95.576  1.00  0.00     0.279 C 
ENDBRANCH   9  24
BRANCH  10  26
ATOM     26  O   UNL     1     132.704 106.159  93.733  1.00  0.00    -0.490 OA
ATOM     27  C   UNL     1     133.225 107.162  92.866  1.00  0.00     0.278 C 
ENDBRANCH  10  26
TORSDOF 6
ENDMDL
MODEL 2
REMARK VINA RESULT:    -5.285      3.258      7.382
REMARK INTER + INTRA:          -7.827
REMARK INTER:                  -7.195
REMARK INTRA:                  -0.632
REMARK UNBOUND:                -0.688
REMARK SMILES COc1ccc(-c2cc(=O)c3c(OC)c(OC)c(OC)c(OC)c3o2)cc1
REMARK SMILES IDX 7 1 8 2 9 3 10 4 11 5 24 6 25 7 21 8 18 9 15 10 12 11 6 12
REMARK SMILES IDX 3 13 4 14 27 15 5 16 26 17 2 18 1 19 22 20 23 21 13 22 14 23
REMARK SMILES IDX 19 24 20 25 16 26 17 27
REMARK H PARENT
REMARK Flexibility Score: inf
ROOT
ATOM      1  C   UNL     1     135.926 102.393  94.461  1.00  0.00     0.138 A 
ATOM      2  C   UNL     1     135.304 103.101  95.495  1.00  0.00     0.100 A 
ATOM      3  C   UNL     1     133.922 103.267  95.473  1.00  0.00     0.197 A 
ATOM      4  O   UNL     1     133.374 103.881  96.428  1.00  0.00    -0.289 OA
ATOM      5  C   UNL     1     133.169 102.735  94.403  1.00  0.00     0.115 A 
ATOM      6  C   UNL     1     133.861 102.007  93.407  1.00  0.00     0.188 A 
ATOM      7  O   UNL     1     135.185 101.874  93.485  1.00  0.00    -0.452 OA
ATOM      8  C   UNL     1     133.152 101.435  92.326  1.00  0.00     0.209 A 
ATOM      9  C   UNL     1     131.756 101.562  92.255  1.00  0.00     0.211 A 
ATOM     10  C   UNL     1     131.050 102.266  93.263  1.00  0.00     0.208 A 
ATOM     11  C   UNL     1     131.770 102.905  94.298  1.00  0.00     0.179 A 
ENDROOT
BRANCH   1  12
ATOM     12  C   UNL     1     137.397 102.197  94.431  1.00  0.00     0.018 A 
ATOM     13  C   UNL     1     140.202 101.881  94.381  1.00  0.00     0.118 A 
ATOM     14  C   UNL     1     139.392 100.941  95.045  1.00  0.00     0.047 A 
ATOM     15  C   UNL     1     139.601 102.975  93.752  1.00  0.00     0.047 A 
ATOM     16  C   UNL     1     138.004 101.100  95.073  1.00  0.00     0.016 A 
ATOM     17  C   UNL     1     138.212 103.135  93.777  1.00  0.00     0.016 A 
BRANCH  13  18
ATOM     18  O   UNL     1     141.599 101.765  94.327  1.00  0.00    -0.497 OA
ATOM     19  C   UNL     1     142.507 102.740  94.831  1.00  0.00     0.278 C 
ENDBRANCH  13  18
ENDBRANCH   1  12
BRANCH   8  20
ATOM     20  O   UNL     1     133.768 100.719  91.282  1.00  0.00    -0.490 OA
ATOM     21  C   UNL     1     134.272  99.389  91.342  1.00  0.00     0.278 C 
ENDBRANCH   8  20
BRANCH  11  22
ATOM     22  O   UNL     1     131.100 103.741  95.194  1.00  0.00    -0.492 OA
ATOM     23  C   UNL     1     130.743 105.070  94.829  1.00  0.00     0.278 C 
ENDBRANCH  11  22
BRANCH   9  24
ATOM     24  O   UNL     1     131.131 100.947  91.152  1.00  0.00    -0.490 OA
ATOM     25  C   UNL     1     130.469  99.687  91.131  1.00  0.00     0.279 C 
ENDBRANCH   9  24
BRANCH  10  26
ATOM     26  O   UNL     1     129.646 102.312  93.203  1.00  0.00    -0.490 OA
ATOM     27  C   UNL     1     128.875 103.165  92.362  1.00  0.00     0.278 C 
ENDBRANCH  10  26
TORSDOF 6
ENDMDL
MODEL 3
REMARK VINA RESULT:    -5.256      3.487      5.925
REMARK INTER + INTRA:          -7.787
REMARK INTER:                  -7.076
REMARK INTRA:                  -0.711
REMARK UNBOUND:                -0.688
REMARK SMILES COc1ccc(-c2cc(=O)c3c(OC)c(OC)c(OC)c(OC)c3o2)cc1
REMARK SMILES IDX 7 1 8 2 9 3 10 4 11 5 24 6 25 7 21 8 18 9 15 10 12 11 6 12
REMARK SMILES IDX 3 13 4 14 27 15 5 16 26 17 2 18 1 19 22 20 23 21 13 22 14 23
REMARK SMILES IDX 19 24 20 25 16 26 17 27
REMARK H PARENT
REMARK Flexibility Score: inf
ROOT
ATOM      1  C   UNL     1     134.686  98.197  91.119  1.00  0.00     0.138 A 
ATOM      2  C   UNL     1     135.714  97.902  90.216  1.00  0.00     0.100 A 
ATOM      3  C   UNL     1     136.912  98.606  90.293  1.00  0.00     0.197 A 
ATOM      4  O   UNL     1     137.839  98.307  89.493  1.00  0.00    -0.289 OA
ATOM      5  C   UNL     1     137.071  99.616  91.268  1.00  0.00     0.115 A 
ATOM      6  C   UNL     1     136.000  99.841  92.165  1.00  0.00     0.188 A 
ATOM      7  O   UNL     1     134.879  99.130  92.048  1.00  0.00    -0.452 OA
ATOM      8  C   UNL     1     136.116 100.825  93.173  1.00  0.00     0.209 A 
ATOM      9  C   UNL     1     137.304 101.560  93.306  1.00  0.00     0.211 A 
ATOM     10  C   UNL     1     138.393 101.323  92.429  1.00  0.00     0.208 A 
ATOM     11  C   UNL     1     138.245 100.396  91.373  1.00  0.00     0.179 A 
ENDROOT
BRANCH   1  12
ATOM     12  C   UNL     1     133.385  97.485  91.072  1.00  0.00     0.018 A 
ATOM     13  C   UNL     1     130.931  96.089  91.020  1.00  0.00     0.118 A 
ATOM     14  C   UNL     1     130.949  97.496  91.028  1.00  0.00     0.047 A 
ATOM     15  C   UNL     1     132.143  95.392  91.044  1.00  0.00     0.047 A 
ATOM     16  C   UNL     1     132.164  98.186  91.057  1.00  0.00     0.016 A 
ATOM     17  C   UNL     1     133.359  96.080  91.073  1.00  0.00     0.016 A 
BRANCH  13  18
ATOM     18  O   UNL     1     129.738  95.352  90.991  1.00  0.00    -0.497 OA
ATOM     19  C   UNL     1     129.653  93.973  90.648  1.00  0.00     0.278 C 
ENDBRANCH  13  18
ENDBRANCH   1  12
BRANCH   8  20
ATOM     20  O   UNL     1     135.088 101.128  94.088  1.00  0.00    -0.490 OA
ATOM     21  C   UNL     1     133.971 101.980  93.863  1.00  0.00     0.278 C 
ENDBRANCH   8  20
BRANCH  11  22
ATOM     22  O   UNL     1     139.246 100.283  90.405  1.00  0.00    -0.492 OA
ATOM     23  C   UNL     1     139.418 101.285  89.409  1.00  0.00     0.278 C 
ENDBRANCH  11  22
BRANCH   9  24
ATOM     24  O   UNL     1     137.336 102.509  94.347  1.00  0.00    -0.490 OA
ATOM     25  C   UNL     1     137.180 103.919  94.230  1.00  0.00     0.279 C 
ENDBRANCH   9  24
BRANCH  10  26
ATOM     26  O   UNL     1     139.594 102.023  92.635  1.00  0.00    -0.490 OA
ATOM     27  C   UNL     1     140.681 101.594  93.450  1.00  0.00     0.278 C 
ENDBRANCH  10  26
TORSDOF 6
ENDMDL
MODEL 4
REMARK VINA RESULT:    -5.169      1.912      3.445
REMARK INTER + INTRA:          -7.670
REMARK INTER:                  -6.964
REMARK INTRA:                  -0.706
REMARK UNBOUND:                -0.688
REMARK SMILES COc1ccc(-c2cc(=O)c3c(OC)c(OC)c(OC)c(OC)c3o2)cc1
REMARK SMILES IDX 7 1 8 2 9 3 10 4 11 5 24 6 25 7 21 8 18 9 15 10 12 11 6 12
REMARK SMILES IDX 3 13 4 14 27 15 5 16 26 17 2 18 1 19 22 20 23 21 13 22 14 23
REMARK SMILES IDX 19 24 20 25 16 26 17 27
REMARK H PARENT
REMARK Flexibility Score: inf
ROOT
ATOM      1  C   UNL     1     132.221  99.116  91.115  1.00  0.00     0.138 A 
ATOM      2  C   UNL     1     133.453  99.365  90.499  1.00  0.00     0.100 A 
ATOM      3  C   UNL     1     134.015 100.635  90.589  1.00  0.00     0.197 A 
ATOM      4  O   UNL     1     135.139 100.836  90.055  1.00  0.00    -0.289 OA
ATOM      5  C   UNL     1     133.332 101.657  91.287  1.00  0.00     0.115 A 
ATOM      6  C   UNL     1     132.105 101.325  91.908  1.00  0.00     0.188 A 
ATOM      7  O   UNL     1     131.620 100.089  91.793  1.00  0.00    -0.452 OA
ATOM      8  C   UNL     1     131.393 102.305  92.636  1.00  0.00     0.209 A 
ATOM      9  C   UNL     1     131.915 103.600  92.770  1.00  0.00     0.211 A 
ATOM     10  C   UNL     1     133.157 103.935  92.174  1.00  0.00     0.208 A 
ATOM     11  C   UNL     1     133.827 102.977  91.380  1.00  0.00     0.179 A 
ENDROOT
BRANCH   1  12
ATOM     12  C   UNL     1     131.573  97.783  91.039  1.00  0.00     0.018 A 
ATOM     13  C   UNL     1     130.381  95.226  90.928  1.00  0.00     0.118 A 
ATOM     14  C   UNL     1     129.581  96.380  91.021  1.00  0.00     0.047 A 
ATOM     15  C   UNL     1     131.772  95.361  90.897  1.00  0.00     0.047 A 
ATOM     16  C   UNL     1     130.172  97.645  91.079  1.00  0.00     0.016 A 
ATOM     17  C   UNL     1     132.365  96.626  90.954  1.00  0.00     0.016 A 
BRANCH  13  18
ATOM     18  O   UNL     1     129.836  93.935  90.867  1.00  0.00    -0.497 OA
ATOM     19  C   UNL     1     130.570  92.767  90.514  1.00  0.00     0.278 C 
ENDBRANCH  13  18
ENDBRANCH   1  12
BRANCH   8  20
ATOM     20  O   UNL     1     130.154 102.062  93.262  1.00  0.00    -0.490 OA
ATOM     21  C   UNL     1     128.875 102.036  92.638  1.00  0.00     0.278 C 
ENDBRANCH   8  20
BRANCH  11  22
ATOM     22  O   UNL     1     134.958 103.351  90.651  1.00  0.00    -0.492 OA
ATOM     23  C   UNL     1     134.842 104.141  89.472  1.00  0.00     0.278 C 
ENDBRANCH  11  22
BRANCH   9  24
ATOM     24  O   UNL     1     131.144 104.506  93.525  1.00  0.00    -0.490 OA
ATOM     25  C   UNL     1     131.276 104.798  94.912  1.00  0.00     0.279 C 
ENDBRANCH   9  24
BRANCH  10  26
ATOM     26  O   UNL     1     133.688 105.219  92.388  1.00  0.00    -0.490 OA
ATOM     27  C   UNL     1     134.631 105.574  93.395  1.00  0.00     0.278 C 
ENDBRANCH  10  26
TORSDOF 6
ENDMDL
MODEL 5
REMARK VINA RESULT:    -5.123      2.602      4.022
REMARK INTER + INTRA:          -7.608
REMARK INTER:                  -6.889
REMARK INTRA:                  -0.719
REMARK UNBOUND:                -0.688
REMARK SMILES COc1ccc(-c2cc(=O)c3c(OC)c(OC)c(OC)c(OC)c3o2)cc1
REMARK SMILES IDX 7 1 8 2 9 3 10 4 11 5 24 6 25 7 21 8 18 9 15 10 12 11 6 12
REMARK SMILES IDX 3 13 4 14 27 15 5 16 26 17 2 18 1 19 22 20 23 21 13 22 14 23
REMARK SMILES IDX 19 24 20 25 16 26 17 27
REMARK H PARENT
REMARK Flexibility Score: inf
ROOT
ATOM      1  C   UNL     1     133.699  99.201  91.591  1.00  0.00     0.138 A 
ATOM      2  C   UNL     1     133.007 100.414  91.508  1.00  0.00     0.100 A 
ATOM      3  C   UNL     1     133.614 101.579  91.969  1.00  0.00     0.197 A 
ATOM      4  O   UNL     1     132.990 102.668  91.859  1.00  0.00    -0.289 OA
ATOM      5  C   UNL     1     134.911 101.521  92.526  1.00  0.00     0.115 A 
ATOM      6  C   UNL     1     135.561 100.264  92.553  1.00  0.00     0.188 A 
ATOM      7  O   UNL     1     134.933  99.185  92.090  1.00  0.00    -0.452 OA
ATOM      8  C   UNL     1     136.868 100.156  93.080  1.00  0.00     0.209 A 
ATOM      9  C   UNL     1     137.535 101.297  93.551  1.00  0.00     0.211 A 
ATOM     10  C   UNL     1     136.902 102.565  93.504  1.00  0.00     0.208 A 
ATOM     11  C   UNL     1     135.567 102.658  93.051  1.00  0.00     0.179 A 
ENDROOT
BRANCH   1  12
ATOM     12  C   UNL     1     133.093  97.930  91.125  1.00  0.00     0.018 A 
ATOM     13  C   UNL     1     131.976  95.481  90.271  1.00  0.00     0.118 A 
ATOM     14  C   UNL     1     131.147  96.586  90.537  1.00  0.00     0.047 A 
ATOM     15  C   UNL     1     133.358  95.609  90.440  1.00  0.00     0.047 A 
ATOM     16  C   UNL     1     131.700  97.797  90.963  1.00  0.00     0.016 A 
ATOM     17  C   UNL     1     133.913  96.819  90.866  1.00  0.00     0.016 A 
BRANCH  13  18
ATOM     18  O   UNL     1     131.470  94.245  89.842  1.00  0.00    -0.497 OA
ATOM     19  C   UNL     1     130.941  93.248  90.710  1.00  0.00     0.278 C 
ENDBRANCH  13  18
ENDBRANCH   1  12
BRANCH   8  20
ATOM     20  O   UNL     1     137.575  98.939  93.166  1.00  0.00    -0.490 OA
ATOM     21  C   UNL     1     137.390  97.914  94.135  1.00  0.00     0.278 C 
ENDBRANCH   8  20
BRANCH  11  22
ATOM     22  O   UNL     1     134.880 103.869  93.163  1.00  0.00    -0.492 OA
ATOM     23  C   UNL     1     134.434 104.344  94.428  1.00  0.00     0.278 C 
ENDBRANCH  11  22
BRANCH   9  24
ATOM     24  O   UNL     1     138.840 101.096  94.045  1.00  0.00    -0.490 OA
ATOM     25  C   UNL     1     139.234 100.982  95.407  1.00  0.00     0.279 C 
ENDBRANCH   9  24
BRANCH  10  26
ATOM     26  O   UNL     1     137.623 103.699  93.914  1.00  0.00    -0.490 OA
ATOM     27  C   UNL     1     138.411 104.536  93.072  1.00  0.00     0.278 C 
ENDBRANCH  10  26
TORSDOF 6
ENDMDL
MODEL 6
REMARK VINA RESULT:    -5.090      4.862      6.527
REMARK INTER + INTRA:          -7.563
REMARK INTER:                  -6.903
REMARK INTRA:                  -0.660
REMARK UNBOUND:                -0.688
REMARK SMILES COc1ccc(-c2cc(=O)c3c(OC)c(OC)c(OC)c(OC)c3o2)cc1
REMARK SMILES IDX 7 1 8 2 9 3 10 4 11 5 24 6 25 7 21 8 18 9 15 10 12 11 6 12
REMARK SMILES IDX 3 13 4 14 27 15 5 16 26 17 2 18 1 19 22 20 23 21 13 22 14 23
REMARK SMILES IDX 19 24 20 25 16 26 17 27
REMARK H PARENT
REMARK Flexibility Score: inf
ROOT
ATOM      1  C   UNL     1     135.477 104.088  93.654  1.00  0.00     0.138 A 
ATOM      2  C   UNL     1     136.207 105.191  93.195  1.00  0.00     0.100 A 
ATOM      3  C   UNL     1     135.530 106.345  92.812  1.00  0.00     0.197 A 
ATOM      4  O   UNL     1     136.202 107.340  92.430  1.00  0.00    -0.289 OA
ATOM      5  C   UNL     1     134.119 106.385  92.878  1.00  0.00     0.115 A 
ATOM      6  C   UNL     1     133.449 105.243  93.378  1.00  0.00     0.188 A 
ATOM      7  O   UNL     1     134.152 104.169  93.736  1.00  0.00    -0.452 OA
ATOM      8  C   UNL     1     132.040 105.239  93.485  1.00  0.00     0.209 A 
ATOM      9  C   UNL     1     131.304 106.378  93.123  1.00  0.00     0.211 A 
ATOM     10  C   UNL     1     131.967 107.537  92.646  1.00  0.00     0.208 A 
ATOM     11  C   UNL     1     133.369 107.509  92.465  1.00  0.00     0.179 A 
ENDROOT
BRANCH   1  12
ATOM     12  C   UNL     1     136.150 102.830  94.063  1.00  0.00     0.018 A 
ATOM     13  C   UNL     1     137.398 100.408  94.802  1.00  0.00     0.118 A 
ATOM     14  C   UNL     1     138.144 101.599  94.729  1.00  0.00     0.047 A 
ATOM     15  C   UNL     1     136.034 100.438  94.498  1.00  0.00     0.047 A 
ATOM     16  C   UNL     1     137.526 102.797  94.360  1.00  0.00     0.016 A 
ATOM     17  C   UNL     1     135.414 101.635  94.129  1.00  0.00     0.016 A 
BRANCH  13  18
ATOM     18  O   UNL     1     137.973  99.181  95.166  1.00  0.00    -0.497 OA
ATOM     19  C   UNL     1     137.851  97.980  94.412  1.00  0.00     0.278 C 
ENDBRANCH  13  18
ENDBRANCH   1  12
BRANCH   8  20
ATOM     20  O   UNL     1     131.297 104.135  93.948  1.00  0.00    -0.490 OA
ATOM     21  C   UNL     1     131.131 103.728  95.302  1.00  0.00     0.278 C 
ENDBRANCH   8  20
BRANCH  11  22
ATOM     22  O   UNL     1     134.007 108.580  91.836  1.00  0.00    -0.492 OA
ATOM     23  C   UNL     1     133.985 108.717  90.419  1.00  0.00     0.278 C 
ENDBRANCH  11  22
BRANCH   9  24
ATOM     24  O   UNL     1     129.906 106.289  93.276  1.00  0.00    -0.490 OA
ATOM     25  C   UNL     1     129.126 106.790  94.357  1.00  0.00     0.279 C 
ENDBRANCH   9  24
BRANCH  10  26
ATOM     26  O   UNL     1     131.208 108.685  92.363  1.00  0.00    -0.490 OA
ATOM     27  C   UNL     1     130.429 108.901  91.190  1.00  0.00     0.278 C 
ENDBRANCH  10  26
TORSDOF 6
ENDMDL
MODEL 7
REMARK VINA RESULT:    -5.086      4.566      6.428
REMARK INTER + INTRA:          -7.558
REMARK INTER:                  -7.139
REMARK INTRA:                  -0.419
REMARK UNBOUND:                -0.688
REMARK SMILES COc1ccc(-c2cc(=O)c3c(OC)c(OC)c(OC)c(OC)c3o2)cc1
REMARK SMILES IDX 7 1 8 2 9 3 10 4 11 5 24 6 25 7 21 8 18 9 15 10 12 11 6 12
REMARK SMILES IDX 3 13 4 14 27 15 5 16 26 17 2 18 1 19 22 20 23 21 13 22 14 23
REMARK SMILES IDX 19 24 20 25 16 26 17 27
REMARK H PARENT
REMARK Flexibility Score: inf
ROOT
ATOM      1  C   UNL     1     134.686 103.014  94.182  1.00  0.00     0.138 A 
ATOM      2  C   UNL     1     133.515 102.381  94.613  1.00  0.00     0.100 A 
ATOM      3  C   UNL     1     132.306 103.067  94.548  1.00  0.00     0.197 A 
ATOM      4  O   UNL     1     131.255 102.473  94.911  1.00  0.00    -0.289 OA
ATOM      5  C   UNL     1     132.277 104.394  94.064  1.00  0.00     0.115 A 
ATOM      6  C   UNL     1     133.496 104.961  93.619  1.00  0.00     0.188 A 
ATOM      7  O   UNL     1     134.621 104.252  93.699  1.00  0.00    -0.452 OA
ATOM      8  C   UNL     1     133.518 106.277  93.105  1.00  0.00     0.209 A 
ATOM      9  C   UNL     1     132.328 107.015  93.007  1.00  0.00     0.211 A 
ATOM     10  C   UNL     1     131.098 106.447  93.424  1.00  0.00     0.208 A 
ATOM     11  C   UNL     1     131.091 105.161  94.012  1.00  0.00     0.179 A 
ENDROOT
BRANCH   1  12
ATOM     12  C   UNL     1     136.003 102.331  94.240  1.00  0.00     0.018 A 
ATOM     13  C   UNL     1     138.529 101.077  94.379  1.00  0.00     0.118 A 
ATOM     14  C   UNL     1     137.353 100.331  94.577  1.00  0.00     0.047 A 
ATOM     15  C   UNL     1     138.430 102.447  94.118  1.00  0.00     0.047 A 
ATOM     16  C   UNL     1     136.102 100.953  94.512  1.00  0.00     0.016 A 
ATOM     17  C   UNL     1     137.181 103.071  94.052  1.00  0.00     0.016 A 
BRANCH  13  18
ATOM     18  O   UNL     1     139.805 100.499  94.435  1.00  0.00    -0.497 OA
ATOM     19  C   UNL     1     141.014 101.187  94.128  1.00  0.00     0.278 C 
ENDBRANCH  13  18
ENDBRANCH   1  12
BRANCH   8  20
ATOM     20  O   UNL     1     134.692 106.922  92.666  1.00  0.00    -0.490 OA
ATOM     21  C   UNL     1     135.399 106.672  91.457  1.00  0.00     0.278 C 
ENDBRANCH   8  20
BRANCH  11  22
ATOM     22  O   UNL     1     129.916 104.666  94.581  1.00  0.00    -0.492 OA
ATOM     23  C   UNL     1     128.876 104.133  93.769  1.00  0.00     0.278 C 
ENDBRANCH  11  22
BRANCH   9  24
ATOM     24  O   UNL     1     132.444 108.312  92.469  1.00  0.00    -0.490 OA
ATOM     25  C   UNL     1     132.317 108.690  91.102  1.00  0.00     0.279 C 
ENDBRANCH   9  24
BRANCH  10  26
ATOM     26  O   UNL     1     129.915 107.183  93.244  1.00  0.00    -0.490 OA
ATOM     27  C   UNL     1     129.138 107.234  92.052  1.00  0.00     0.278 C 
ENDBRANCH  10  26
TORSDOF 6
ENDMDL
MODEL 8
REMARK VINA RESULT:    -5.031      4.975      8.212
REMARK INTER + INTRA:          -7.483
REMARK INTER:                  -7.014
REMARK INTRA:                  -0.469
REMARK UNBOUND:                -0.688
REMARK SMILES COc1ccc(-c2cc(=O)c3c(OC)c(OC)c(OC)c(OC)c3o2)cc1
REMARK SMILES IDX 7 1 8 2 9 3 10 4 11 5 24 6 25 7 21 8 18 9 15 10 12 11 6 12
REMARK SMILES IDX 3 13 4 14 27 15 5 16 26 17 2 18 1 19 22 20 23 21 13 22 14 23
REMARK SMILES IDX 19 24 20 25 16 26 17 27
REMARK H PARENT
REMARK Flexibility Score: inf
ROOT
ATOM      1  C   UNL     1     134.789 103.202  94.413  1.00  0.00     0.138 A 
ATOM      2  C   UNL     1     134.890 101.822  94.618  1.00  0.00     0.100 A 
ATOM      3  C   UNL     1     136.138 101.209  94.541  1.00  0.00     0.197 A 
ATOM      4  O   UNL     1     136.215  99.971  94.758  1.00  0.00    -0.289 OA
ATOM      5  C   UNL     1     137.281 101.984  94.245  1.00  0.00     0.115 A 
ATOM      6  C   UNL     1     137.108 103.378  94.077  1.00  0.00     0.188 A 
ATOM      7  O   UNL     1     135.890 103.909  94.170  1.00  0.00    -0.452 OA
ATOM      8  C   UNL     1     138.224 104.201  93.801  1.00  0.00     0.209 A 
ATOM      9  C   UNL     1     139.509 103.642  93.721  1.00  0.00     0.211 A 
ATOM     10  C   UNL     1     139.696 102.251  93.914  1.00  0.00     0.208 A 
ATOM     11  C   UNL     1     138.570 101.419  94.111  1.00  0.00     0.179 A 
ENDROOT
BRANCH   1  12
ATOM     12  C   UNL     1     133.482 103.901  94.473  1.00  0.00     0.018 A 
ATOM     13  C   UNL     1     130.988 105.215  94.640  1.00  0.00     0.118 A 
ATOM     14  C   UNL     1     132.054 105.801  93.934  1.00  0.00     0.047 A 
ATOM     15  C   UNL     1     131.181 103.978  95.261  1.00  0.00     0.047 A 
ATOM     16  C   UNL     1     133.290 105.152  93.854  1.00  0.00     0.016 A 
ATOM     17  C   UNL     1     132.415 103.327  95.182  1.00  0.00     0.016 A 
BRANCH  13  18
ATOM     18  O   UNL     1     129.731 105.827  94.749  1.00  0.00    -0.497 OA
ATOM     19  C   UNL     1     129.357 107.024  94.073  1.00  0.00     0.278 C 
ENDBRANCH  13  18
ENDBRANCH   1  12
BRANCH   8  20
ATOM     20  O   UNL     1     138.134 105.593  93.596  1.00  0.00    -0.490 OA
ATOM     21  C   UNL     1     138.128 106.602  94.599  1.00  0.00     0.278 C 
ENDBRANCH   8  20
BRANCH  11  22
ATOM     22  O   UNL     1     138.728 100.031  94.129  1.00  0.00    -0.492 OA
ATOM     23  C   UNL     1     139.228  99.366  95.284  1.00  0.00     0.278 C 
ENDBRANCH  11  22
BRANCH   9  24
ATOM     24  O   UNL     1     140.562 104.540  93.457  1.00  0.00    -0.490 OA
ATOM     25  C   UNL     1     141.510 105.050  94.388  1.00  0.00     0.279 C 
ENDBRANCH   9  24
BRANCH  10  26
ATOM     26  O   UNL     1     141.003 101.733  93.902  1.00  0.00    -0.490 OA
ATOM     27  C   UNL     1     141.766 101.424  92.740  1.00  0.00     0.278 C 
ENDBRANCH  10  26
TORSDOF 6
ENDMDL
MODEL 9
REMARK VINA RESULT:    -4.976      1.459      2.012
REMARK INTER + INTRA:          -7.409
REMARK INTER:                  -6.683
REMARK INTRA:                  -0.726
REMARK UNBOUND:                -0.688
REMARK SMILES COc1ccc(-c2cc(=O)c3c(OC)c(OC)c(OC)c(OC)c3o2)cc1
REMARK SMILES IDX 7 1 8 2 9 3 10 4 11 5 24 6 25 7 21 8 18 9 15 10 12 11 6 12
REMARK SMILES IDX 3 13 4 14 27 15 5 16 26 17 2 18 1 19 22 20 23 21 13 22 14 23
REMARK SMILES IDX 19 24 20 25 16 26 17 27
REMARK H PARENT
REMARK Flexibility Score: inf
ROOT
ATOM      1  C   UNL     1     131.541  99.995  91.514  1.00  0.00     0.138 A 
ATOM      2  C   UNL     1     130.626 101.039  91.694  1.00  0.00     0.100 A 
ATOM      3  C   UNL     1     131.093 102.301  92.049  1.00  0.00     0.197 A 
ATOM      4  O   UNL     1     130.260 103.238  92.177  1.00  0.00    -0.289 OA
ATOM      5  C   UNL     1     132.478 102.510  92.235  1.00  0.00     0.115 A 
ATOM      6  C   UNL     1     133.346 101.415  92.010  1.00  0.00     0.188 A 
ATOM      7  O   UNL     1     132.841 100.232  91.665  1.00  0.00    -0.452 OA
ATOM      8  C   UNL     1     134.742 101.577  92.162  1.00  0.00     0.209 A 
ATOM      9  C   UNL     1     135.272 102.829  92.508  1.00  0.00     0.211 A 
ATOM     10  C   UNL     1     134.413 103.938  92.711  1.00  0.00     0.208 A 
ATOM     11  C   UNL     1     133.013 103.755  92.636  1.00  0.00     0.179 A 
ENDROOT
BRANCH   1  12
ATOM     12  C   UNL     1     131.094  98.628  91.148  1.00  0.00     0.018 A 
ATOM     13  C   UNL     1     130.205  96.050  90.416  1.00  0.00     0.118 A 
ATOM     14  C   UNL     1     131.577  96.303  90.600  1.00  0.00     0.047 A 
ATOM     15  C   UNL     1     129.290  97.091  90.595  1.00  0.00     0.047 A 
ATOM     16  C   UNL     1     132.017  97.581  90.959  1.00  0.00     0.016 A 
ATOM     17  C   UNL     1     129.727  98.369  90.954  1.00  0.00     0.016 A 
BRANCH  13  18
ATOM     18  O   UNL     1     129.715  94.786  90.055  1.00  0.00    -0.497 OA
ATOM     19  C   UNL     1     130.311  93.552  90.442  1.00  0.00     0.278 C 
ENDBRANCH  13  18
ENDBRANCH   1  12
BRANCH   8  20
ATOM     20  O   UNL     1     135.671 100.533  91.980  1.00  0.00    -0.490 OA
ATOM     21  C   UNL     1     136.032  99.539  92.933  1.00  0.00     0.278 C 
ENDBRANCH   8  20
BRANCH  11  22
ATOM     22  O   UNL     1     132.158 104.796  93.003  1.00  0.00    -0.492 OA
ATOM     23  C   UNL     1     131.985 105.156  94.369  1.00  0.00     0.278 C 
ENDBRANCH  11  22
BRANCH   9  24
ATOM     24  O   UNL     1     136.675 102.900  92.623  1.00  0.00    -0.490 OA
ATOM     25  C   UNL     1     137.438 102.928  93.824  1.00  0.00     0.279 C 
ENDBRANCH   9  24
BRANCH  10  26
ATOM     26  O   UNL     1     134.980 105.195  92.984  1.00  0.00    -0.490 OA
ATOM     27  C   UNL     1     135.273 106.204  92.023  1.00  0.00     0.278 C 
ENDBRANCH  10  26
TORSDOF 6
ENDMDL
