MODEL 1
REMARK VINA RESULT:    -8.872      0.000      0.000
REMARK INTER + INTRA:         -10.485
REMARK INTER:                 -10.169
REMARK INTRA:                  -0.316
REMARK UNBOUND:                -0.316
REMARK SMILES CC1(C)CC[C@]23CO[C@@]4(C=C[C@@H]5[C@@]6(C)CC[C@H](O)[C@@](C)(CO)[C@H]6CC[C@@]5(C)[C@]4(C)C[C@H]2O)[C@H]3C1
REMARK SMILES IDX 1 1 2 2 4 3 5 4 6 5 7 6 8 7 9 8 33 9 34 10 10 11 11 12 12 13
REMARK SMILES IDX 13 14 15 15 16 16 17 17 19 18 23 19 24 20 25 21 26 22 28 23
REMARK SMILES IDX 30 24 31 25 29 26 27 27 20 28 14 29 3 30 32 31 21 33 22 34
REMARK SMILES IDX 18 36
REMARK H PARENT 32 32 22 35 18 37
REMARK Flexibility Score: inf
ROOT
ATOM      1  C   UNL     1      24.725 -12.372 -13.141  1.00  0.00     0.011 C 
ATOM      2  C   UNL     1      23.202 -12.628 -13.245  1.00  0.00    -0.035 C 
ATOM      3  C   UNL     1      22.902 -13.848 -14.144  1.00  0.00     0.007 C 
ATOM      4  C   UNL     1      23.250 -13.604 -15.620  1.00  0.00     0.013 C 
ATOM      5  C   UNL     1      22.682 -12.279 -16.205  1.00  0.00     0.026 C 
ATOM      6  C   UNL     1      21.163 -12.312 -16.388  1.00  0.00     0.171 C 
ATOM      7  O   UNL     1      20.688 -10.984 -16.284  1.00  0.00    -0.369 OA
ATOM      8  C   UNL     1      21.790 -10.138 -15.985  1.00  0.00     0.096 C 
ATOM      9  C   UNL     1      22.821 -11.068 -15.286  1.00  0.00     0.037 C 
ATOM     10  C   UNL     1      22.466 -11.388 -13.804  1.00  0.00     0.014 C 
ATOM     11  C   UNL     1      21.261  -9.006 -15.101  1.00  0.00     0.005 C 
ATOM     12  C   UNL     1      20.879  -7.800 -15.576  1.00  0.00    -0.024 C 
ATOM     13  C   UNL     1      21.209  -7.305 -16.983  1.00  0.00     0.024 C 
ATOM     14  C   UNL     1      20.380  -6.044 -17.447  1.00  0.00    -0.022 C 
ATOM     15  C   UNL     1      20.557  -4.905 -16.375  1.00  0.00     0.010 C 
ATOM     16  C   UNL     1      20.711  -3.519 -16.984  1.00  0.00     0.033 C 
ATOM     17  C   UNL     1      22.019  -3.490 -17.775  1.00  0.00     0.123 C 
ATOM     18  C   UNL     1      22.009  -4.468 -19.014  1.00  0.00     0.020 C 
ATOM     19  C   UNL     1      20.851  -5.575 -18.896  1.00  0.00     0.006 C 
ATOM     20  C   UNL     1      20.989  -6.769 -19.893  1.00  0.00     0.005 C 
ATOM     21  C   UNL     1      21.782  -7.990 -19.377  1.00  0.00     0.008 C 
ATOM     22  C   UNL     1      21.327  -8.514 -17.981  1.00  0.00    -0.017 C 
ATOM     23  C   UNL     1      22.399  -9.546 -17.335  1.00  0.00     0.009 C 
ATOM     24  C   UNL     1      22.761 -10.728 -18.306  1.00  0.00     0.043 C 
ATOM     25  C   UNL     1      23.354 -11.984 -17.591  1.00  0.00     0.124 C 
ATOM     26  C   UNL     1      23.762  -8.816 -17.004  1.00  0.00     0.015 C 
ATOM     27  C   UNL     1      19.924  -9.198 -18.184  1.00  0.00     0.013 C 
ATOM     28  C   UNL     1      21.756  -3.648 -20.319  1.00  0.00     0.017 C 
ATOM     29  C   UNL     1      18.850  -6.343 -17.486  1.00  0.00     0.012 C 
ATOM     30  C   UNL     1      22.672 -12.920 -11.824  1.00  0.00     0.011 C 
ENDROOT
BRANCH  25  31
ATOM     31  O   UNL     1      24.745 -11.851 -17.438  1.00  0.00    -0.392 OA
ATOM     32  H   UNL     1      25.043 -12.583 -16.835  1.00  0.00     0.210 HD
ENDBRANCH  25  31
BRANCH  18  33
ATOM     33  C   UNL     1      23.426  -5.102 -19.142  1.00  0.00     0.165 C 
BRANCH  33  34
ATOM     34  O   UNL     1      24.309  -4.574 -18.181  1.00  0.00    -0.396 OA
ATOM     35  H   UNL     1      24.559  -5.312 -17.567  1.00  0.00     0.210 HD
ENDBRANCH  33  34
ENDBRANCH  18  33
BRANCH  17  36
ATOM     36  O   UNL     1      22.372  -2.168 -18.117  1.00  0.00    -0.392 OA
ATOM     37  H   UNL     1      22.909  -1.786 -17.374  1.00  0.00     0.210 HD
ENDBRANCH  17  36
TORSDOF 4
ENDMDL
MODEL 2
REMARK VINA RESULT:    -8.728      8.082     13.364
REMARK INTER + INTRA:         -10.319
REMARK INTER:                 -10.002
REMARK INTRA:                  -0.318
REMARK UNBOUND:                -0.316
REMARK SMILES CC1(C)CC[C@]23CO[C@@]4(C=C[C@@H]5[C@@]6(C)CC[C@H](O)[C@@](C)(CO)[C@H]6CC[C@@]5(C)[C@]4(C)C[C@H]2O)[C@H]3C1
REMARK SMILES IDX 1 1 2 2 4 3 5 4 6 5 7 6 8 7 9 8 33 9 34 10 10 11 11 12 12 13
REMARK SMILES IDX 13 14 15 15 16 16 17 17 19 18 23 19 24 20 25 21 26 22 28 23
REMARK SMILES IDX 30 24 31 25 29 26 27 27 20 28 14 29 3 30 32 31 21 33 22 34
REMARK SMILES IDX 18 36
REMARK H PARENT 32 32 22 35 18 37
REMARK Flexibility Score: inf
ROOT
ATOM      1  C   UNL     1      10.760   2.971 -18.415  1.00  0.00     0.011 C 
ATOM      2  C   UNL     1      12.291   3.179 -18.332  1.00  0.00    -0.035 C 
ATOM      3  C   UNL     1      12.827   3.884 -19.599  1.00  0.00     0.007 C 
ATOM      4  C   UNL     1      12.727   3.009 -20.857  1.00  0.00     0.013 C 
ATOM      5  C   UNL     1      13.296   1.572 -20.690  1.00  0.00     0.026 C 
ATOM      6  C   UNL     1      14.823   1.545 -20.581  1.00  0.00     0.171 C 
ATOM      7  O   UNL     1      15.180   0.407 -19.822  1.00  0.00    -0.369 OA
ATOM      8  C   UNL     1      13.988  -0.239 -19.398  1.00  0.00     0.096 C 
ATOM      9  C   UNL     1      12.917   0.887 -19.380  1.00  0.00     0.037 C 
ATOM     10  C   UNL     1      13.027   1.832 -18.148  1.00  0.00     0.014 C 
ATOM     11  C   UNL     1      14.276  -0.858 -18.027  1.00  0.00     0.005 C 
ATOM     12  C   UNL     1      14.652  -2.143 -17.849  1.00  0.00    -0.024 C 
ATOM     13  C   UNL     1      14.540  -3.213 -18.935  1.00  0.00     0.024 C 
ATOM     14  C   UNL     1      15.349  -4.536 -18.639  1.00  0.00    -0.022 C 
ATOM     15  C   UNL     1      14.910  -5.089 -17.232  1.00  0.00     0.010 C 
ATOM     16  C   UNL     1      14.771  -6.604 -17.194  1.00  0.00     0.033 C 
ATOM     17  C   UNL     1      13.623  -7.000 -18.124  1.00  0.00     0.123 C 
ATOM     18  C   UNL     1      13.916  -6.667 -19.639  1.00  0.00     0.020 C 
ATOM     19  C   UNL     1      15.108  -5.602 -19.799  1.00  0.00     0.006 C 
ATOM     20  C   UNL     1      15.229  -4.972 -21.223  1.00  0.00     0.005 C 
ATOM     21  C   UNL     1      14.443  -3.661 -21.449  1.00  0.00     0.008 C 
ATOM     22  C   UNL     1      14.682  -2.568 -20.362  1.00  0.00    -0.017 C 
ATOM     23  C   UNL     1      13.586  -1.375 -20.443  1.00  0.00     0.009 C 
ATOM     24  C   UNL     1      13.482  -0.747 -21.880  1.00  0.00     0.043 C 
ATOM     25  C   UNL     1      12.860   0.686 -21.908  1.00  0.00     0.124 C 
ATOM     26  C   UNL     1      12.140  -1.907 -20.089  1.00  0.00     0.015 C 
ATOM     27  C   UNL     1      16.141  -2.022 -20.576  1.00  0.00     0.013 C 
ATOM     28  C   UNL     1      14.337  -7.973 -20.383  1.00  0.00     0.017 C 
ATOM     29  C   UNL     1      16.879  -4.260 -18.517  1.00  0.00     0.012 C 
ATOM     30  C   UNL     1      12.584   4.076 -17.109  1.00  0.00     0.011 C 
ENDROOT
BRANCH  25  31
ATOM     31  O   UNL     1      11.457   0.612 -21.976  1.00  0.00    -0.392 OA
ATOM     32  H   UNL     1      11.200   0.819 -22.912  1.00  0.00     0.210 HD
ENDBRANCH  25  31
BRANCH  18  33
ATOM     33  C   UNL     1      12.590  -6.176 -20.292  1.00  0.00     0.165 C 
BRANCH  33  34
ATOM     34  O   UNL     1      11.559  -6.077 -19.340  1.00  0.00    -0.396 OA
ATOM     35  H   UNL     1      11.734  -6.756 -18.637  1.00  0.00     0.210 HD
ENDBRANCH  33  34
ENDBRANCH  18  33
BRANCH  17  36
ATOM     36  O   UNL     1      13.246  -8.343 -17.915  1.00  0.00    -0.392 OA
ATOM     37  H   UNL     1      13.446  -8.580 -16.972  1.00  0.00     0.210 HD
ENDBRANCH  17  36
TORSDOF 4
ENDMDL
MODEL 3
REMARK VINA RESULT:    -8.721      6.070     11.924
REMARK INTER + INTRA:         -10.312
REMARK INTER:                  -9.991
REMARK INTRA:                  -0.320
REMARK UNBOUND:                -0.316
REMARK SMILES CC1(C)CC[C@]23CO[C@@]4(C=C[C@@H]5[C@@]6(C)CC[C@H](O)[C@@](C)(CO)[C@H]6CC[C@@]5(C)[C@]4(C)C[C@H]2O)[C@H]3C1
REMARK SMILES IDX 1 1 2 2 4 3 5 4 6 5 7 6 8 7 9 8 33 9 34 10 10 11 11 12 12 13
REMARK SMILES IDX 13 14 15 15 16 16 17 17 19 18 23 19 24 20 25 21 26 22 28 23
REMARK SMILES IDX 30 24 31 25 29 26 27 27 20 28 14 29 3 30 32 31 21 33 22 34
REMARK SMILES IDX 18 36
REMARK H PARENT 32 32 22 35 18 37
REMARK Flexibility Score: inf
ROOT
ATOM      1  C   UNL     1      23.853   3.976 -16.833  1.00  0.00     0.011 C 
ATOM      2  C   UNL     1      22.329   3.956 -17.101  1.00  0.00    -0.035 C 
ATOM      3  C   UNL     1      21.615   5.099 -16.344  1.00  0.00     0.007 C 
ATOM      4  C   UNL     1      21.639   4.913 -14.819  1.00  0.00     0.013 C 
ATOM      5  C   UNL     1      21.187   3.506 -14.335  1.00  0.00     0.026 C 
ATOM      6  C   UNL     1      19.686   3.267 -14.516  1.00  0.00     0.171 C 
ATOM      7  O   UNL     1      19.488   1.877 -14.679  1.00  0.00    -0.369 OA
ATOM      8  C   UNL     1      20.759   1.241 -14.678  1.00  0.00     0.096 C 
ATOM      9  C   UNL     1      21.749   2.343 -15.150  1.00  0.00     0.037 C 
ATOM     10  C   UNL     1      21.708   2.602 -16.684  1.00  0.00     0.014 C 
ATOM     11  C   UNL     1      20.661   0.037 -15.619  1.00  0.00     0.005 C 
ATOM     12  C   UNL     1      20.392  -1.219 -15.203  1.00  0.00    -0.024 C 
ATOM     13  C   UNL     1      20.458  -1.655 -13.739  1.00  0.00     0.024 C 
ATOM     14  C   UNL     1      19.775  -3.046 -13.437  1.00  0.00    -0.022 C 
ATOM     15  C   UNL     1      20.398  -4.130 -14.394  1.00  0.00     0.010 C 
ATOM     16  C   UNL     1      20.640  -5.469 -13.714  1.00  0.00     0.033 C 
ATOM     17  C   UNL     1      21.707  -5.270 -12.636  1.00  0.00     0.123 C 
ATOM     18  C   UNL     1      21.232  -4.315 -11.472  1.00  0.00     0.020 C 
ATOM     19  C   UNL     1      19.961  -3.431 -11.901  1.00  0.00     0.006 C 
ATOM     20  C   UNL     1      19.648  -2.237 -10.945  1.00  0.00     0.005 C 
ATOM     21  C   UNL     1      20.316  -0.891 -11.305  1.00  0.00     0.008 C 
ATOM     22  C   UNL     1      20.123  -0.449 -12.788  1.00  0.00    -0.017 C 
ATOM     23  C   UNL     1      21.122   0.760 -13.201  1.00  0.00     0.009 C 
ATOM     24  C   UNL     1      21.031   1.982 -12.218  1.00  0.00     0.043 C 
ATOM     25  C   UNL     1      21.550   3.328 -12.820  1.00  0.00     0.124 C 
ATOM     26  C   UNL     1      22.630   0.285 -13.175  1.00  0.00     0.015 C 
ATOM     27  C   UNL     1      18.616  -0.027 -12.946  1.00  0.00     0.013 C 
ATOM     28  C   UNL     1      20.822  -5.173 -10.234  1.00  0.00     0.017 C 
ATOM     29  C   UNL     1      18.251  -3.024 -13.770  1.00  0.00     0.012 C 
ATOM     30  C   UNL     1      22.109   4.156 -18.616  1.00  0.00     0.011 C 
ENDROOT
BRANCH  25  31
ATOM     31  O   UNL     1      22.939   3.445 -12.636  1.00  0.00    -0.392 OA
ATOM     32  H   UNL     1      23.302   2.522 -12.571  1.00  0.00     0.210 HD
ENDBRANCH  25  31
BRANCH  18  33
ATOM     33  C   UNL     1      22.445  -3.440 -11.039  1.00  0.00     0.165 C 
BRANCH  33  34
ATOM     34  O   UNL     1      23.270  -3.133 -12.137  1.00  0.00    -0.396 OA
ATOM     35  H   UNL     1      23.914  -2.438 -11.842  1.00  0.00     0.210 HD
ENDBRANCH  33  34
ENDBRANCH  18  33
BRANCH  17  36
ATOM     36  O   UNL     1      22.192  -6.510 -12.172  1.00  0.00    -0.392 OA
ATOM     37  H   UNL     1      21.532  -7.213 -12.410  1.00  0.00     0.210 HD
ENDBRANCH  17  36
TORSDOF 4
ENDMDL
MODEL 4
REMARK VINA RESULT:    -8.692     10.596     14.433
REMARK INTER + INTRA:         -10.279
REMARK INTER:                  -9.979
REMARK INTRA:                  -0.300
REMARK UNBOUND:                -0.316
REMARK SMILES CC1(C)CC[C@]23CO[C@@]4(C=C[C@@H]5[C@@]6(C)CC[C@H](O)[C@@](C)(CO)[C@H]6CC[C@@]5(C)[C@]4(C)C[C@H]2O)[C@H]3C1
REMARK SMILES IDX 1 1 2 2 4 3 5 4 6 5 7 6 8 7 9 8 33 9 34 10 10 11 11 12 12 13
REMARK SMILES IDX 13 14 15 15 16 16 17 17 19 18 23 19 24 20 25 21 26 22 28 23
REMARK SMILES IDX 30 24 31 25 29 26 27 27 20 28 14 29 3 30 32 31 21 33 22 34
REMARK SMILES IDX 18 36
REMARK H PARENT 32 32 22 35 18 37
REMARK Flexibility Score: inf
ROOT
ATOM      1  C   UNL     1      12.852   2.094 -21.747  1.00  0.00     0.011 C 
ATOM      2  C   UNL     1      13.021   3.289 -20.778  1.00  0.00    -0.035 C 
ATOM      3  C   UNL     1      14.442   3.888 -20.875  1.00  0.00     0.007 C 
ATOM      4  C   UNL     1      15.529   2.939 -20.349  1.00  0.00     0.013 C 
ATOM      5  C   UNL     1      15.233   2.335 -18.947  1.00  0.00     0.026 C 
ATOM      6  C   UNL     1      15.340   3.365 -17.819  1.00  0.00     0.171 C 
ATOM      7  O   UNL     1      14.480   2.953 -16.776  1.00  0.00    -0.369 OA
ATOM      8  C   UNL     1      13.797   1.780 -17.197  1.00  0.00     0.096 C 
ATOM      9  C   UNL     1      13.794   1.864 -18.749  1.00  0.00     0.037 C 
ATOM     10  C   UNL     1      12.745   2.864 -19.317  1.00  0.00     0.014 C 
ATOM     11  C   UNL     1      12.405   1.817 -16.561  1.00  0.00     0.005 C 
ATOM     12  C   UNL     1      12.093   1.193 -15.404  1.00  0.00    -0.024 C 
ATOM     13  C   UNL     1      12.980   0.133 -14.752  1.00  0.00     0.024 C 
ATOM     14  C   UNL     1      12.609  -0.202 -13.254  1.00  0.00    -0.022 C 
ATOM     15  C   UNL     1      11.088  -0.601 -13.190  1.00  0.00     0.010 C 
ATOM     16  C   UNL     1      10.805  -1.762 -12.250  1.00  0.00     0.033 C 
ATOM     17  C   UNL     1      11.491  -3.008 -12.813  1.00  0.00     0.123 C 
ATOM     18  C   UNL     1      13.065  -2.887 -12.831  1.00  0.00     0.020 C 
ATOM     19  C   UNL     1      13.551  -1.362 -12.698  1.00  0.00     0.006 C 
ATOM     20  C   UNL     1      15.055  -1.126 -13.045  1.00  0.00     0.005 C 
ATOM     21  C   UNL     1      15.359  -0.769 -14.518  1.00  0.00     0.008 C 
ATOM     22  C   UNL     1      14.493   0.391 -15.094  1.00  0.00    -0.017 C 
ATOM     23  C   UNL     1      14.593   0.486 -16.710  1.00  0.00     0.009 C 
ATOM     24  C   UNL     1      16.078   0.565 -17.220  1.00  0.00     0.043 C 
ATOM     25  C   UNL     1      16.230   1.160 -18.657  1.00  0.00     0.124 C 
ATOM     26  C   UNL     1      13.961  -0.791 -17.394  1.00  0.00     0.015 C 
ATOM     27  C   UNL     1      14.992   1.717 -14.410  1.00  0.00     0.013 C 
ATOM     28  C   UNL     1      13.659  -3.686 -11.629  1.00  0.00     0.017 C 
ATOM     29  C   UNL     1      12.750   1.048 -12.332  1.00  0.00     0.012 C 
ATOM     30  C   UNL     1      12.000   4.375 -21.180  1.00  0.00     0.011 C 
ENDROOT
BRANCH  25  31
ATOM     31  O   UNL     1      16.084   0.150 -19.624  1.00  0.00    -0.392 OA
ATOM     32  H   UNL     1      16.955  -0.324 -19.683  1.00  0.00     0.210 HD
ENDBRANCH  25  31
BRANCH  18  33
ATOM     33  C   UNL     1      13.588  -3.565 -14.132  1.00  0.00     0.165 C 
BRANCH  33  34
ATOM     34  O   UNL     1      12.750  -4.625 -14.527  1.00  0.00    -0.396 OA
ATOM     35  H   UNL     1      12.883  -5.367 -13.882  1.00  0.00     0.210 HD
ENDBRANCH  33  34
ENDBRANCH  18  33
BRANCH  17  36
ATOM     36  O   UNL     1      11.033  -4.173 -12.164  1.00  0.00    -0.392 OA
ATOM     37  H   UNL     1      11.340  -4.962 -12.683  1.00  0.00     0.210 HD
ENDBRANCH  17  36
TORSDOF 4
ENDMDL
MODEL 5
REMARK VINA RESULT:    -8.599      3.719      5.681
REMARK INTER + INTRA:         -10.172
REMARK INTER:                  -9.898
REMARK INTRA:                  -0.274
REMARK UNBOUND:                -0.316
REMARK SMILES CC1(C)CC[C@]23CO[C@@]4(C=C[C@@H]5[C@@]6(C)CC[C@H](O)[C@@](C)(CO)[C@H]6CC[C@@]5(C)[C@]4(C)C[C@H]2O)[C@H]3C1
REMARK SMILES IDX 1 1 2 2 4 3 5 4 6 5 7 6 8 7 9 8 33 9 34 10 10 11 11 12 12 13
REMARK SMILES IDX 13 14 15 15 16 16 17 17 19 18 23 19 24 20 25 21 26 22 28 23
REMARK SMILES IDX 30 24 31 25 29 26 27 27 20 28 14 29 3 30 32 31 21 33 22 34
REMARK SMILES IDX 18 36
REMARK H PARENT 32 32 22 35 18 37
REMARK Flexibility Score: inf
ROOT
ATOM      1  C   UNL     1      23.320 -13.146 -16.962  1.00  0.00     0.011 C 
ATOM      2  C   UNL     1      22.877 -13.806 -15.635  1.00  0.00    -0.035 C 
ATOM      3  C   UNL     1      21.495 -14.481 -15.782  1.00  0.00     0.007 C 
ATOM      4  C   UNL     1      20.356 -13.471 -15.991  1.00  0.00     0.013 C 
ATOM      5  C   UNL     1      20.340 -12.298 -14.970  1.00  0.00     0.026 C 
ATOM      6  C   UNL     1      19.927 -12.738 -13.562  1.00  0.00     0.171 C 
ATOM      7  O   UNL     1      20.535 -11.856 -12.640  1.00  0.00    -0.369 OA
ATOM      8  C   UNL     1      21.346 -10.942 -13.364  1.00  0.00     0.096 C 
ATOM      9  C   UNL     1      21.711 -11.694 -14.675  1.00  0.00     0.037 C 
ATOM     10  C   UNL     1      22.820 -12.770 -14.488  1.00  0.00     0.014 C 
ATOM     11  C   UNL     1      22.547 -10.605 -12.476  1.00  0.00     0.005 C 
ATOM     12  C   UNL     1      22.605  -9.520 -11.673  1.00  0.00    -0.024 C 
ATOM     13  C   UNL     1      21.635  -8.343 -11.775  1.00  0.00     0.024 C 
ATOM     14  C   UNL     1      21.657  -7.365 -10.536  1.00  0.00    -0.022 C 
ATOM     15  C   UNL     1      23.137  -6.879 -10.307  1.00  0.00     0.010 C 
ATOM     16  C   UNL     1      23.240  -5.407  -9.935  1.00  0.00     0.033 C 
ATOM     17  C   UNL     1      22.759  -4.581 -11.129  1.00  0.00     0.123 C 
ATOM     18  C   UNL     1      21.230  -4.801 -11.453  1.00  0.00     0.020 C 
ATOM     19  C   UNL     1      20.662  -6.144 -10.778  1.00  0.00     0.006 C 
ATOM     20  C   UNL     1      19.273  -6.607 -11.322  1.00  0.00     0.005 C 
ATOM     21  C   UNL     1      19.308  -7.589 -12.514  1.00  0.00     0.008 C 
ATOM     22  C   UNL     1      20.235  -8.825 -12.307  1.00  0.00    -0.017 C 
ATOM     23  C   UNL     1      20.514  -9.622 -13.692  1.00  0.00     0.009 C 
ATOM     24  C   UNL     1      19.189 -10.013 -14.440  1.00  0.00     0.043 C 
ATOM     25  C   UNL     1      19.353 -11.183 -15.462  1.00  0.00     0.124 C 
ATOM     26  C   UNL     1      21.343  -8.731 -14.702  1.00  0.00     0.015 C 
ATOM     27  C   UNL     1      19.533  -9.750 -11.245  1.00  0.00     0.013 C 
ATOM     28  C   UNL     1      20.404  -3.599 -10.895  1.00  0.00     0.017 C 
ATOM     29  C   UNL     1      21.251  -8.094  -9.219  1.00  0.00     0.012 C 
ATOM     30  C   UNL     1      23.917 -14.889 -15.272  1.00  0.00     0.011 C 
ENDROOT
BRANCH  25  31
ATOM     31  O   UNL     1      19.765 -10.690 -16.713  1.00  0.00    -0.392 OA
ATOM     32  H   UNL     1      18.943 -10.521 -17.244  1.00  0.00     0.210 HD
ENDBRANCH  25  31
BRANCH  18  33
ATOM     33  C   UNL     1      21.057  -4.795 -13.000  1.00  0.00     0.165 C 
BRANCH  33  34
ATOM     34  O   UNL     1      21.510  -3.585 -13.559  1.00  0.00    -0.396 OA
ATOM     35  H   UNL     1      20.929  -3.380 -14.338  1.00  0.00     0.210 HD
ENDBRANCH  33  34
ENDBRANCH  18  33
BRANCH  17  36
ATOM     36  O   UNL     1      23.101  -3.222 -10.971  1.00  0.00    -0.392 OA
ATOM     37  H   UNL     1      22.378  -2.775 -10.456  1.00  0.00     0.210 HD
ENDBRANCH  17  36
TORSDOF 4
ENDMDL
MODEL 6
REMARK VINA RESULT:    -8.571      8.321     10.321
REMARK INTER + INTRA:         -10.140
REMARK INTER:                  -9.825
REMARK INTRA:                  -0.315
REMARK UNBOUND:                -0.316
REMARK SMILES CC1(C)CC[C@]23CO[C@@]4(C=C[C@@H]5[C@@]6(C)CC[C@H](O)[C@@](C)(CO)[C@H]6CC[C@@]5(C)[C@]4(C)C[C@H]2O)[C@H]3C1
REMARK SMILES IDX 1 1 2 2 4 3 5 4 6 5 7 6 8 7 9 8 33 9 34 10 10 11 11 12 12 13
REMARK SMILES IDX 13 14 15 15 16 16 17 17 19 18 23 19 24 20 25 21 26 22 28 23
REMARK SMILES IDX 30 24 31 25 29 26 27 27 20 28 14 29 3 30 32 31 21 33 22 34
REMARK SMILES IDX 18 36
REMARK H PARENT 32 32 22 35 18 37
REMARK Flexibility Score: inf
ROOT
ATOM      1  C   UNL     1      11.317 -13.222 -14.811  1.00  0.00     0.011 C 
ATOM      2  C   UNL     1      12.850 -13.225 -14.601  1.00  0.00    -0.035 C 
ATOM      3  C   UNL     1      13.229 -13.904 -13.266  1.00  0.00     0.007 C 
ATOM      4  C   UNL     1      12.776 -13.102 -12.037  1.00  0.00     0.013 C 
ATOM      5  C   UNL     1      13.167 -11.596 -12.071  1.00  0.00     0.026 C 
ATOM      6  C   UNL     1      14.669 -11.366 -11.885  1.00  0.00     0.171 C 
ATOM      7  O   UNL     1      15.004 -10.161 -12.544  1.00  0.00    -0.369 OA
ATOM      8  C   UNL     1      13.836  -9.660 -13.180  1.00  0.00     0.096 C 
ATOM      9  C   UNL     1      12.951 -10.914 -13.420  1.00  0.00     0.037 C 
ATOM     10  C   UNL     1      13.418 -11.786 -14.621  1.00  0.00     0.014 C 
ATOM     11  C   UNL     1      14.290  -8.954 -14.461  1.00  0.00     0.005 C 
ATOM     12  C   UNL     1      14.514  -7.624 -14.544  1.00  0.00    -0.024 C 
ATOM     13  C   UNL     1      14.056  -6.623 -13.484  1.00  0.00     0.024 C 
ATOM     14  C   UNL     1      14.719  -5.195 -13.600  1.00  0.00    -0.022 C 
ATOM     15  C   UNL     1      14.481  -4.647 -15.056  1.00  0.00     0.010 C 
ATOM     16  C   UNL     1      14.148  -3.164 -15.097  1.00  0.00     0.033 C 
ATOM     17  C   UNL     1      12.802  -2.959 -14.400  1.00  0.00     0.123 C 
ATOM     18  C   UNL     1      12.848  -3.311 -12.862  1.00  0.00     0.020 C 
ATOM     19  C   UNL     1      14.122  -4.217 -12.492  1.00  0.00     0.006 C 
ATOM     20  C   UNL     1      14.057  -4.884 -11.081  1.00  0.00     0.005 C 
ATOM     21  C   UNL     1      13.429  -6.294 -11.029  1.00  0.00     0.008 C 
ATOM     22  C   UNL     1      14.013  -7.301 -12.066  1.00  0.00    -0.017 C 
ATOM     23  C   UNL     1      13.094  -8.630 -12.214  1.00  0.00     0.009 C 
ATOM     24  C   UNL     1      12.808  -9.323 -10.834  1.00  0.00     0.043 C 
ATOM     25  C   UNL     1      12.392 -10.825 -10.946  1.00  0.00     0.124 C 
ATOM     26  C   UNL     1      11.682  -8.277 -12.831  1.00  0.00     0.015 C 
ATOM     27  C   UNL     1      15.467  -7.661 -11.584  1.00  0.00     0.013 C 
ATOM     28  C   UNL     1      12.940  -1.993 -12.031  1.00  0.00     0.017 C 
ATOM     29  C   UNL     1      16.268  -5.264 -13.430  1.00  0.00     0.012 C 
ATOM     30  C   UNL     1      13.487 -14.025 -15.759  1.00  0.00     0.011 C 
ENDROOT
BRANCH  25  31
ATOM     31  O   UNL     1      11.006 -10.937 -11.148  1.00  0.00    -0.392 OA
ATOM     32  H   UNL     1      10.581 -10.954 -10.250  1.00  0.00     0.210 HD
ENDBRANCH  25  31
BRANCH  18  33
ATOM     33  C   UNL     1      11.502  -3.997 -12.482  1.00  0.00     0.165 C 
BRANCH  33  34
ATOM     34  O   UNL     1      10.569  -3.904 -13.532  1.00  0.00    -0.396 OA
ATOM     35  H   UNL     1       9.947  -4.673 -13.448  1.00  0.00     0.210 HD
ENDBRANCH  33  34
ENDBRANCH  18  33
BRANCH  17  36
ATOM     36  O   UNL     1      12.292  -1.669 -14.657  1.00  0.00    -0.392 OA
ATOM     37  H   UNL     1      12.927  -1.002 -14.284  1.00  0.00     0.210 HD
ENDBRANCH  17  36
TORSDOF 4
ENDMDL
MODEL 7
REMARK VINA RESULT:    -8.492      6.768      8.459
REMARK INTER + INTRA:         -10.050
REMARK INTER:                  -9.795
REMARK INTRA:                  -0.255
REMARK UNBOUND:                -0.316
REMARK SMILES CC1(C)CC[C@]23CO[C@@]4(C=C[C@@H]5[C@@]6(C)CC[C@H](O)[C@@](C)(CO)[C@H]6CC[C@@]5(C)[C@]4(C)C[C@H]2O)[C@H]3C1
REMARK SMILES IDX 1 1 2 2 4 3 5 4 6 5 7 6 8 7 9 8 33 9 34 10 10 11 11 12 12 13
REMARK SMILES IDX 13 14 15 15 16 16 17 17 19 18 23 19 24 20 25 21 26 22 28 23
REMARK SMILES IDX 30 24 31 25 29 26 27 27 20 28 14 29 3 30 32 31 21 33 22 34
REMARK SMILES IDX 18 36
REMARK H PARENT 32 32 22 35 18 37
REMARK Flexibility Score: inf
ROOT
ATOM      1  C   UNL     1      12.854 -12.275 -10.862  1.00  0.00     0.011 C 
ATOM      2  C   UNL     1      13.373 -13.397 -11.792  1.00  0.00    -0.035 C 
ATOM      3  C   UNL     1      14.819 -13.801 -11.426  1.00  0.00     0.007 C 
ATOM      4  C   UNL     1      15.842 -12.694 -11.718  1.00  0.00     0.013 C 
ATOM      5  C   UNL     1      15.739 -12.081 -13.144  1.00  0.00     0.026 C 
ATOM      6  C   UNL     1      16.206 -13.042 -14.240  1.00  0.00     0.171 C 
ATOM      7  O   UNL     1      15.513 -12.711 -15.427  1.00  0.00    -0.369 OA
ATOM      8  C   UNL     1      14.604 -11.659 -15.134  1.00  0.00     0.096 C 
ATOM      9  C   UNL     1      14.314 -11.802 -13.614  1.00  0.00     0.037 C 
ATOM     10  C   UNL     1      13.327 -12.957 -13.274  1.00  0.00     0.014 C 
ATOM     11  C   UNL     1      13.379 -11.859 -16.031  1.00  0.00     0.005 C 
ATOM     12  C   UNL     1      13.211 -11.239 -17.219  1.00  0.00    -0.024 C 
ATOM     13  C   UNL     1      14.049 -10.044 -17.673  1.00  0.00     0.024 C 
ATOM     14  C   UNL     1      13.930  -9.704 -19.210  1.00  0.00    -0.022 C 
ATOM     15  C   UNL     1      12.409  -9.514 -19.566  1.00  0.00     0.010 C 
ATOM     16  C   UNL     1      12.152  -8.365 -20.530  1.00  0.00     0.033 C 
ATOM     17  C   UNL     1      12.534  -7.061 -19.829  1.00  0.00     0.123 C 
ATOM     18  C   UNL     1      14.077  -6.968 -19.504  1.00  0.00     0.020 C 
ATOM     19  C   UNL     1      14.789  -8.407 -19.558  1.00  0.00     0.006 C 
ATOM     20  C   UNL     1      16.216  -8.449 -18.924  1.00  0.00     0.005 C 
ATOM     21  C   UNL     1      16.278  -8.818 -17.425  1.00  0.00     0.008 C 
ATOM     22  C   UNL     1      15.489 -10.108 -17.044  1.00  0.00    -0.017 C 
ATOM     23  C   UNL     1      15.289 -10.251 -15.440  1.00  0.00     0.009 C 
ATOM     24  C   UNL     1      16.643 -10.148 -14.651  1.00  0.00     0.043 C 
ATOM     25  C   UNL     1      16.598 -10.772 -13.219  1.00  0.00     0.124 C 
ATOM     26  C   UNL     1      14.363  -9.099 -14.879  1.00  0.00     0.015 C 
ATOM     27  C   UNL     1      16.292 -11.326 -17.632  1.00  0.00     0.013 C 
ATOM     28  C   UNL     1      14.773  -6.049 -20.557  1.00  0.00     0.017 C 
ATOM     29  C   UNL     1      14.420 -10.887 -20.101  1.00  0.00     0.012 C 
ATOM     30  C   UNL     1      12.457 -14.627 -11.611  1.00  0.00     0.011 C 
ENDROOT
BRANCH  25  31
ATOM     31  O   UNL     1      16.128  -9.829 -12.287  1.00  0.00    -0.392 OA
ATOM     32  H   UNL     1      15.203 -10.097 -12.044  1.00  0.00     0.210 HD
ENDBRANCH  25  31
BRANCH  18  33
ATOM     33  C   UNL     1      14.238  -6.276 -18.118  1.00  0.00     0.165 C 
BRANCH  33  34
ATOM     34  O   UNL     1      13.833  -4.929 -18.170  1.00  0.00    -0.396 OA
ATOM     35  H   UNL     1      12.844  -4.911 -18.091  1.00  0.00     0.210 HD
ENDBRANCH  33  34
ENDBRANCH  18  33
BRANCH  17  36
ATOM     36  O   UNL     1      12.051  -5.945 -20.542  1.00  0.00    -0.392 OA
ATOM     37  H   UNL     1      11.162  -6.177 -20.921  1.00  0.00     0.210 HD
ENDBRANCH  17  36
TORSDOF 4
ENDMDL
MODEL 8
REMARK VINA RESULT:    -8.373      2.110      7.733
REMARK INTER + INTRA:          -9.913
REMARK INTER:                  -9.595
REMARK INTRA:                  -0.317
REMARK UNBOUND:                -0.316
REMARK SMILES CC1(C)CC[C@]23CO[C@@]4(C=C[C@@H]5[C@@]6(C)CC[C@H](O)[C@@](C)(CO)[C@H]6CC[C@@]5(C)[C@]4(C)C[C@H]2O)[C@H]3C1
REMARK SMILES IDX 1 1 2 2 4 3 5 4 6 5 7 6 8 7 9 8 33 9 34 10 10 11 11 12 12 13
REMARK SMILES IDX 13 14 15 15 16 16 17 17 19 18 23 19 24 20 25 21 26 22 28 23
REMARK SMILES IDX 30 24 31 25 29 26 27 27 20 28 14 29 3 30 32 31 21 33 22 34
REMARK SMILES IDX 18 36
REMARK H PARENT 32 32 22 35 18 37
REMARK Flexibility Score: inf
ROOT
ATOM      1  C   UNL     1      21.120  -3.404 -18.119  1.00  0.00     0.011 C 
ATOM      2  C   UNL     1      21.570  -4.309 -19.290  1.00  0.00    -0.035 C 
ATOM      3  C   UNL     1      20.362  -4.769 -20.136  1.00  0.00     0.007 C 
ATOM      4  C   UNL     1      19.432  -5.727 -19.378  1.00  0.00     0.013 C 
ATOM      5  C   UNL     1      20.157  -6.914 -18.682  1.00  0.00     0.026 C 
ATOM      6  C   UNL     1      20.698  -7.947 -19.675  1.00  0.00     0.171 C 
ATOM      7  O   UNL     1      21.819  -8.569 -19.080  1.00  0.00    -0.369 OA
ATOM      8  C   UNL     1      22.054  -7.957 -17.819  1.00  0.00     0.096 C 
ATOM      9  C   UNL     1      21.444  -6.533 -17.955  1.00  0.00     0.037 C 
ATOM     10  C   UNL     1      22.333  -5.551 -18.772  1.00  0.00     0.014 C 
ATOM     11  C   UNL     1      23.566  -7.976 -17.585  1.00  0.00     0.005 C 
ATOM     12  C   UNL     1      24.203  -8.933 -16.875  1.00  0.00    -0.024 C 
ATOM     13  C   UNL     1      23.483  -9.930 -15.969  1.00  0.00     0.024 C 
ATOM     14  C   UNL     1      24.361 -11.163 -15.521  1.00  0.00    -0.022 C 
ATOM     15  C   UNL     1      25.682 -10.623 -14.856  1.00  0.00     0.010 C 
ATOM     16  C   UNL     1      26.110 -11.417 -13.630  1.00  0.00     0.033 C 
ATOM     17  C   UNL     1      25.046 -11.229 -12.547  1.00  0.00     0.123 C 
ATOM     18  C   UNL     1      23.648 -11.843 -12.947  1.00  0.00     0.020 C 
ATOM     19  C   UNL     1      23.536 -12.099 -14.529  1.00  0.00     0.006 C 
ATOM     20  C   UNL     1      22.087 -12.378 -15.041  1.00  0.00     0.005 C 
ATOM     21  C   UNL     1      21.282 -11.140 -15.498  1.00  0.00     0.008 C 
ATOM     22  C   UNL     1      22.033 -10.217 -16.505  1.00  0.00    -0.017 C 
ATOM     23  C   UNL     1      21.306  -8.776 -16.673  1.00  0.00     0.009 C 
ATOM     24  C   UNL     1      19.783  -8.906 -17.033  1.00  0.00     0.043 C 
ATOM     25  C   UNL     1      19.171  -7.629 -17.695  1.00  0.00     0.124 C 
ATOM     26  C   UNL     1      21.372  -7.947 -15.327  1.00  0.00     0.015 C 
ATOM     27  C   UNL     1      22.096 -10.989 -17.874  1.00  0.00     0.013 C 
ATOM     28  C   UNL     1      23.459 -13.214 -12.226  1.00  0.00     0.017 C 
ATOM     29  C   UNL     1      24.829 -12.012 -16.743  1.00  0.00     0.012 C 
ATOM     30  C   UNL     1      22.517  -3.486 -20.190  1.00  0.00     0.011 C 
ENDROOT
BRANCH  25  31
ATOM     31  O   UNL     1      18.732  -6.727 -16.710  1.00  0.00    -0.392 OA
ATOM     32  H   UNL     1      19.526  -6.483 -16.164  1.00  0.00     0.210 HD
ENDBRANCH  25  31
BRANCH  18  33
ATOM     33  C   UNL     1      22.533 -10.892 -12.419  1.00  0.00     0.165 C 
BRANCH  33  34
ATOM     34  O   UNL     1      23.073  -9.671 -11.972  1.00  0.00    -0.396 OA
ATOM     35  H   UNL     1      23.849  -9.457 -12.554  1.00  0.00     0.210 HD
ENDBRANCH  33  34
ENDBRANCH  18  33
BRANCH  17  36
ATOM     36  O   UNL     1      25.513 -11.686 -11.297  1.00  0.00    -0.392 OA
ATOM     37  H   UNL     1      24.733 -11.793 -10.692  1.00  0.00     0.210 HD
ENDBRANCH  17  36
TORSDOF 4
ENDMDL
MODEL 9
REMARK VINA RESULT:    -8.264     10.454     13.366
REMARK INTER + INTRA:          -9.788
REMARK INTER:                  -9.479
REMARK INTRA:                  -0.309
REMARK UNBOUND:                -0.316
REMARK SMILES CC1(C)CC[C@]23CO[C@@]4(C=C[C@@H]5[C@@]6(C)CC[C@H](O)[C@@](C)(CO)[C@H]6CC[C@@]5(C)[C@]4(C)C[C@H]2O)[C@H]3C1
REMARK SMILES IDX 1 1 2 2 4 3 5 4 6 5 7 6 8 7 9 8 33 9 34 10 10 11 11 12 12 13
REMARK SMILES IDX 13 14 15 15 16 16 17 17 19 18 23 19 24 20 25 21 26 22 28 23
REMARK SMILES IDX 30 24 31 25 29 26 27 27 20 28 14 29 3 30 32 31 21 33 22 34
REMARK SMILES IDX 18 36
REMARK H PARENT 32 32 22 35 18 37
REMARK Flexibility Score: inf
ROOT
ATOM      1  C   UNL     1      11.404  -3.713 -13.346  1.00  0.00     0.011 C 
ATOM      2  C   UNL     1      12.944  -3.603 -13.455  1.00  0.00    -0.035 C 
ATOM      3  C   UNL     1      13.532  -2.814 -12.264  1.00  0.00     0.007 C 
ATOM      4  C   UNL     1      13.139  -1.330 -12.277  1.00  0.00     0.013 C 
ATOM      5  C   UNL     1      13.373  -0.613 -13.638  1.00  0.00     0.026 C 
ATOM      6  C   UNL     1      14.857  -0.404 -13.954  1.00  0.00     0.171 C 
ATOM      7  O   UNL     1      14.997  -0.376 -15.360  1.00  0.00    -0.369 OA
ATOM      8  C   UNL     1      13.723  -0.617 -15.941  1.00  0.00     0.096 C 
ATOM      9  C   UNL     1      12.945  -1.420 -14.861  1.00  0.00     0.037 C 
ATOM     10  C   UNL     1      13.361  -2.917 -14.777  1.00  0.00     0.014 C 
ATOM     11  C   UNL     1      13.962  -1.383 -17.246  1.00  0.00     0.005 C 
ATOM     12  C   UNL     1      14.043  -0.791 -18.457  1.00  0.00    -0.024 C 
ATOM     13  C   UNL     1      13.608   0.649 -18.724  1.00  0.00     0.024 C 
ATOM     14  C   UNL     1      14.110   1.243 -20.098  1.00  0.00    -0.022 C 
ATOM     15  C   UNL     1      13.661   0.277 -21.257  1.00  0.00     0.010 C 
ATOM     16  C   UNL     1      13.180   1.008 -22.501  1.00  0.00     0.033 C 
ATOM     17  C   UNL     1      11.905   1.773 -22.141  1.00  0.00     0.123 C 
ATOM     18  C   UNL     1      12.154   2.917 -21.082  1.00  0.00     0.020 C 
ATOM     19  C   UNL     1      13.544   2.719 -20.301  1.00  0.00     0.006 C 
ATOM     20  C   UNL     1      13.701   3.600 -19.021  1.00  0.00     0.005 C 
ATOM     21  C   UNL     1      13.224   2.958 -17.699  1.00  0.00     0.008 C 
ATOM     22  C   UNL     1      13.787   1.529 -17.433  1.00  0.00    -0.017 C 
ATOM     23  C   UNL     1      12.994   0.769 -16.240  1.00  0.00     0.009 C 
ATOM     24  C   UNL     1      12.930   1.620 -14.920  1.00  0.00     0.043 C 
ATOM     25  C   UNL     1      12.655   0.780 -13.631  1.00  0.00     0.124 C 
ATOM     26  C   UNL     1      11.494   0.480 -16.650  1.00  0.00     0.015 C 
ATOM     27  C   UNL     1      15.314   1.696 -17.090  1.00  0.00     0.013 C 
ATOM     28  C   UNL     1      12.206   4.296 -21.811  1.00  0.00     0.017 C 
ATOM     29  C   UNL     1      15.667   1.285 -20.173  1.00  0.00     0.012 C 
ATOM     30  C   UNL     1      13.525  -5.033 -13.434  1.00  0.00     0.011 C 
ENDROOT
BRANCH  25  31
ATOM     31  O   UNL     1      11.272   0.612 -13.440  1.00  0.00    -0.392 OA
ATOM     32  H   UNL     1      10.891   1.512 -13.260  1.00  0.00     0.210 HD
ENDBRANCH  25  31
BRANCH  18  33
ATOM     33  C   UNL     1      10.932   2.957 -20.117  1.00  0.00     0.165 C 
BRANCH  33  34
ATOM     34  O   UNL     1      10.146   1.796 -20.242  1.00  0.00    -0.396 OA
ATOM     35  H   UNL     1      10.644   1.050 -19.817  1.00  0.00     0.210 HD
ENDBRANCH  33  34
ENDBRANCH  18  33
BRANCH  17  36
ATOM     36  O   UNL     1      11.246   2.228 -23.302  1.00  0.00    -0.392 OA
ATOM     37  H   UNL     1      11.701   3.052 -23.618  1.00  0.00     0.210 HD
ENDBRANCH  17  36
TORSDOF 4
ENDMDL
