MODEL 1
REMARK VINA RESULT:    -4.417      0.000      0.000
REMARK INTER + INTRA:          -7.764
REMARK INTER:                  -7.515
REMARK INTRA:                  -0.249
REMARK UNBOUND:                -0.249
REMARK SMILES CCCCCCCCCCCCCC(=O)[O-]
REMARK SMILES IDX 8 1 9 2 10 3 11 4 12 5 13 6 14 7 15 8 16 9 7 10 6 11 5 12
REMARK SMILES IDX 4 13 3 14 2 15 1 16
REMARK H PARENT
REMARK Flexibility Score: inf
ROOT
ATOM      1  C   UNL     1     -29.938 -18.531  13.990  1.00  0.00     0.000 C 
ENDROOT
BRANCH   1   2
ATOM      2  C   UNL     1     -30.574 -19.813  13.430  1.00  0.00     0.000 C 
BRANCH   2   3
ATOM      3  C   UNL     1     -31.113 -20.736  14.538  1.00  0.00     0.000 C 
BRANCH   3   4
ATOM      4  C   UNL     1     -31.059 -22.221  14.149  1.00  0.00     0.000 C 
BRANCH   4   5
ATOM      5  C   UNL     1     -30.894 -23.146  15.368  1.00  0.00     0.006 C 
BRANCH   5   6
ATOM      6  C   UNL     1     -30.348 -24.525  14.979  1.00  0.00     0.053 C 
BRANCH   6   7
ATOM      7  C   UNL     1     -29.972 -25.336  16.182  1.00  0.00     0.041 C 
ATOM      8  O   UNL     1     -29.612 -24.764  17.245  1.00  0.00    -0.550 OA
ATOM      9  O   UNL     1     -30.049 -26.722  16.137  1.00  0.00    -0.550 OA
ENDBRANCH   6   7
ENDBRANCH   5   6
ENDBRANCH   4   5
ENDBRANCH   3   4
ENDBRANCH   2   3
ENDBRANCH   1   2
BRANCH   1  10
ATOM     10  C   UNL     1     -30.962 -17.399  14.182  1.00  0.00     0.000 C 
BRANCH  10  11
ATOM     11  C   UNL     1     -30.781 -16.262  13.165  1.00  0.00    -0.000 C 
BRANCH  11  12
ATOM     12  C   UNL     1     -31.115 -14.881  13.757  1.00  0.00    -0.000 C 
BRANCH  12  13
ATOM     13  C   UNL     1     -30.842 -13.735  12.771  1.00  0.00    -0.000 C 
BRANCH  13  14
ATOM     14  C   UNL     1     -30.426 -12.434  13.478  1.00  0.00    -0.000 C 
BRANCH  14  15
ATOM     15  C   UNL     1     -30.810 -11.180  12.679  1.00  0.00    -0.003 C 
ATOM     16  C   UNL     1     -29.599 -10.484  12.056  1.00  0.00     0.004 C 
ENDBRANCH  14  15
ENDBRANCH  13  14
ENDBRANCH  12  13
ENDBRANCH  11  12
ENDBRANCH  10  11
ENDBRANCH   1  10
TORSDOF 12
ENDMDL
MODEL 2
REMARK VINA RESULT:    -4.129      5.613     10.769
REMARK INTER + INTRA:          -7.275
REMARK INTER:                  -6.992
REMARK INTRA:                  -0.283
REMARK UNBOUND:                -0.249
REMARK SMILES CCCCCCCCCCCCCC(=O)[O-]
REMARK SMILES IDX 8 1 9 2 10 3 11 4 12 5 13 6 14 7 15 8 16 9 7 10 6 11 5 12
REMARK SMILES IDX 4 13 3 14 2 15 1 16
REMARK H PARENT
REMARK Flexibility Score: inf
ROOT
ATOM      1  C   UNL     1     -29.821 -17.399  13.209  1.00  0.00     0.000 C 
ENDROOT
BRANCH   1   2
ATOM      2  C   UNL     1     -30.222 -15.960  12.847  1.00  0.00     0.000 C 
BRANCH   2   3
ATOM      3  C   UNL     1     -30.199 -15.019  14.066  1.00  0.00     0.000 C 
BRANCH   3   4
ATOM      4  C   UNL     1     -31.125 -13.806  13.892  1.00  0.00     0.000 C 
BRANCH   4   5
ATOM      5  C   UNL     1     -30.686 -12.888  12.737  1.00  0.00     0.006 C 
BRANCH   5   6
ATOM      6  C   UNL     1     -30.935 -11.406  13.049  1.00  0.00     0.053 C 
BRANCH   6   7
ATOM      7  C   UNL     1     -30.176 -10.507  12.120  1.00  0.00     0.041 C 
ATOM      8  O   UNL     1     -29.059 -10.865  11.662  1.00  0.00    -0.550 OA
ATOM      9  O   UNL     1     -30.720  -9.288  11.738  1.00  0.00    -0.550 OA
ENDBRANCH   6   7
ENDBRANCH   5   6
ENDBRANCH   4   5
ENDBRANCH   3   4
ENDBRANCH   2   3
ENDBRANCH   1   2
BRANCH   1  10
ATOM     10  C   UNL     1     -31.039 -18.318  13.411  1.00  0.00     0.000 C 
BRANCH  10  11
ATOM     11  C   UNL     1     -30.717 -19.794  13.131  1.00  0.00    -0.000 C 
BRANCH  11  12
ATOM     12  C   UNL     1     -31.069 -20.711  14.315  1.00  0.00    -0.000 C 
BRANCH  12  13
ATOM     13  C   UNL     1     -30.764 -22.189  14.027  1.00  0.00    -0.000 C 
BRANCH  13  14
ATOM     14  C   UNL     1     -30.809 -23.059  15.295  1.00  0.00    -0.000 C 
BRANCH  14  15
ATOM     15  C   UNL     1     -30.536 -24.542  15.002  1.00  0.00    -0.003 C 
ATOM     16  C   UNL     1     -30.206 -25.341  16.263  1.00  0.00     0.004 C 
ENDBRANCH  14  15
ENDBRANCH  13  14
ENDBRANCH  12  13
ENDBRANCH  11  12
ENDBRANCH  10  11
ENDBRANCH   1  10
TORSDOF 12
ENDMDL
MODEL 3
REMARK VINA RESULT:    -3.913     14.085     16.824
REMARK INTER + INTRA:          -6.908
REMARK INTER:                  -6.479
REMARK INTRA:                  -0.429
REMARK UNBOUND:                -0.249
REMARK SMILES CCCCCCCCCCCCCC(=O)[O-]
REMARK SMILES IDX 8 1 9 2 10 3 11 4 12 5 13 6 14 7 15 8 16 9 7 10 6 11 5 12
REMARK SMILES IDX 4 13 3 14 2 15 1 16
REMARK H PARENT
REMARK Flexibility Score: inf
ROOT
ATOM      1  C   UNL     1     -18.823 -27.061  12.314  1.00  0.00     0.000 C 
ENDROOT
BRANCH   1   2
ATOM      2  C   UNL     1     -18.126 -28.061  11.377  1.00  0.00     0.000 C 
BRANCH   2   3
ATOM      3  C   UNL     1     -16.598 -28.077  11.565  1.00  0.00     0.000 C 
BRANCH   3   4
ATOM      4  C   UNL     1     -16.017 -26.673  11.793  1.00  0.00     0.000 C 
BRANCH   4   5
ATOM      5  C   UNL     1     -14.498 -26.696  12.044  1.00  0.00     0.006 C 
BRANCH   5   6
ATOM      6  C   UNL     1     -14.040 -28.003  12.702  1.00  0.00     0.053 C 
BRANCH   6   7
ATOM      7  C   UNL     1     -12.869 -27.789  13.612  1.00  0.00     0.041 C 
ATOM      8  O   UNL     1     -11.738 -27.505  13.135  1.00  0.00    -0.550 OA
ATOM      9  O   UNL     1     -13.035 -27.873  14.988  1.00  0.00    -0.550 OA
ENDBRANCH   6   7
ENDBRANCH   5   6
ENDBRANCH   4   5
ENDBRANCH   3   4
ENDBRANCH   2   3
ENDBRANCH   1   2
BRANCH   1  10
ATOM     10  C   UNL     1     -20.211 -27.547  12.769  1.00  0.00     0.000 C 
BRANCH  10  11
ATOM     11  C   UNL     1     -20.275 -27.816  14.280  1.00  0.00    -0.000 C 
BRANCH  11  12
ATOM     12  C   UNL     1     -21.385 -27.008  14.977  1.00  0.00    -0.000 C 
BRANCH  12  13
ATOM     13  C   UNL     1     -22.156 -27.839  16.014  1.00  0.00    -0.000 C 
BRANCH  13  14
ATOM     14  C   UNL     1     -22.455 -27.048  17.299  1.00  0.00    -0.000 C 
BRANCH  14  15
ATOM     15  C   UNL     1     -21.843 -27.700  18.548  1.00  0.00    -0.003 C 
ATOM     16  C   UNL     1     -22.250 -26.992  19.841  1.00  0.00     0.004 C 
ENDBRANCH  14  15
ENDBRANCH  13  14
ENDBRANCH  12  13
ENDBRANCH  11  12
ENDBRANCH  10  11
ENDBRANCH   1  10
TORSDOF 12
ENDMDL
MODEL 4
REMARK VINA RESULT:    -3.899     13.675     15.867
REMARK INTER + INTRA:          -6.883
REMARK INTER:                  -6.385
REMARK INTRA:                  -0.498
REMARK UNBOUND:                -0.249
REMARK SMILES CCCCCCCCCCCCCC(=O)[O-]
REMARK SMILES IDX 8 1 9 2 10 3 11 4 12 5 13 6 14 7 15 8 16 9 7 10 6 11 5 12
REMARK SMILES IDX 4 13 3 14 2 15 1 16
REMARK H PARENT
REMARK Flexibility Score: inf
ROOT
ATOM      1  C   UNL     1     -20.974 -27.102  14.637  1.00  0.00     0.000 C 
ENDROOT
BRANCH   1   2
ATOM      2  C   UNL     1     -19.867 -27.860  13.887  1.00  0.00     0.000 C 
BRANCH   2   3
ATOM      3  C   UNL     1     -19.758 -27.435  12.412  1.00  0.00     0.000 C 
BRANCH   3   4
ATOM      4  C   UNL     1     -18.498 -27.989  11.728  1.00  0.00     0.000 C 
BRANCH   4   5
ATOM      5  C   UNL     1     -17.554 -26.876  11.239  1.00  0.00     0.006 C 
BRANCH   5   6
ATOM      6  C   UNL     1     -16.106 -27.365  11.103  1.00  0.00     0.053 C 
BRANCH   6   7
ATOM      7  C   UNL     1     -15.218 -26.777  12.157  1.00  0.00     0.041 C 
ATOM      8  O   UNL     1     -15.718 -26.250  13.186  1.00  0.00    -0.550 OA
ATOM      9  O   UNL     1     -13.838 -26.841  12.017  1.00  0.00    -0.550 OA
ENDBRANCH   6   7
ENDBRANCH   5   6
ENDBRANCH   4   5
ENDBRANCH   3   4
ENDBRANCH   2   3
ENDBRANCH   1   2
BRANCH   1  10
ATOM     10  C   UNL     1     -21.761 -28.008  15.600  1.00  0.00     0.000 C 
BRANCH  10  11
ATOM     11  C   UNL     1     -22.532 -27.210  16.663  1.00  0.00    -0.000 C 
BRANCH  11  12
ATOM     12  C   UNL     1     -22.480 -27.871  18.051  1.00  0.00    -0.000 C 
BRANCH  12  13
ATOM     13  C   UNL     1     -21.042 -28.125  18.530  1.00  0.00    -0.000 C 
BRANCH  13  14
ATOM     14  C   UNL     1     -20.878 -27.910  20.045  1.00  0.00    -0.000 C 
BRANCH  14  15
ATOM     15  C   UNL     1     -21.172 -26.463  20.469  1.00  0.00    -0.003 C 
ATOM     16  C   UNL     1     -19.900 -25.645  20.696  1.00  0.00     0.004 C 
ENDBRANCH  14  15
ENDBRANCH  13  14
ENDBRANCH  12  13
ENDBRANCH  11  12
ENDBRANCH  10  11
ENDBRANCH   1  10
TORSDOF 12
ENDMDL
MODEL 5
REMARK VINA RESULT:    -3.818     17.718     18.748
REMARK INTER + INTRA:          -6.745
REMARK INTER:                  -5.541
REMARK INTRA:                  -1.204
REMARK UNBOUND:                -0.249
REMARK SMILES CCCCCCCCCCCCCC(=O)[O-]
REMARK SMILES IDX 8 1 9 2 10 3 11 4 12 5 13 6 14 7 15 8 16 9 7 10 6 11 5 12
REMARK SMILES IDX 4 13 3 14 2 15 1 16
REMARK H PARENT
REMARK Flexibility Score: inf
ROOT
ATOM      1  C   UNL     1     -13.802 -21.623  21.957  1.00  0.00     0.000 C 
ENDROOT
BRANCH   1   2
ATOM      2  C   UNL     1     -13.617 -21.338  23.456  1.00  0.00     0.000 C 
BRANCH   2   3
ATOM      3  C   UNL     1     -14.555 -22.184  24.336  1.00  0.00     0.000 C 
BRANCH   3   4
ATOM      4  C   UNL     1     -15.339 -23.230  23.528  1.00  0.00     0.000 C 
BRANCH   4   5
ATOM      5  C   UNL     1     -16.845 -23.219  23.851  1.00  0.00     0.006 C 
BRANCH   5   6
ATOM      6  C   UNL     1     -17.155 -22.447  25.140  1.00  0.00     0.053 C 
BRANCH   6   7
ATOM      7  C   UNL     1     -17.742 -23.336  26.194  1.00  0.00     0.041 C 
ATOM      8  O   UNL     1     -17.008 -23.826  27.092  1.00  0.00    -0.550 OA
ATOM      9  O   UNL     1     -19.107 -23.597  26.200  1.00  0.00    -0.550 OA
ENDBRANCH   6   7
ENDBRANCH   5   6
ENDBRANCH   4   5
ENDBRANCH   3   4
ENDBRANCH   2   3
ENDBRANCH   1   2
BRANCH   1  10
ATOM     10  C   UNL     1     -12.585 -22.329  21.335  1.00  0.00     0.000 C 
BRANCH  10  11
ATOM     11  C   UNL     1     -12.858 -22.829  19.908  1.00  0.00    -0.000 C 
BRANCH  11  12
ATOM     12  C   UNL     1     -13.429 -21.729  18.996  1.00  0.00    -0.000 C 
BRANCH  12  13
ATOM     13  C   UNL     1     -12.352 -21.072  18.120  1.00  0.00    -0.000 C 
BRANCH  13  14
ATOM     14  C   UNL     1     -11.854 -19.736  18.699  1.00  0.00    -0.000 C 
BRANCH  14  15
ATOM     15  C   UNL     1     -12.998 -18.866  19.240  1.00  0.00    -0.003 C 
ATOM     16  C   UNL     1     -12.714 -18.324  20.642  1.00  0.00     0.004 C 
ENDBRANCH  14  15
ENDBRANCH  13  14
ENDBRANCH  12  13
ENDBRANCH  11  12
ENDBRANCH  10  11
ENDBRANCH   1  10
TORSDOF 12
ENDMDL
MODEL 6
REMARK VINA RESULT:    -3.728     18.636     19.229
REMARK INTER + INTRA:          -6.592
REMARK INTER:                  -5.591
REMARK INTRA:                  -1.001
REMARK UNBOUND:                -0.249
REMARK SMILES CCCCCCCCCCCCCC(=O)[O-]
REMARK SMILES IDX 8 1 9 2 10 3 11 4 12 5 13 6 14 7 15 8 16 9 7 10 6 11 5 12
REMARK SMILES IDX 4 13 3 14 2 15 1 16
REMARK H PARENT
REMARK Flexibility Score: inf
ROOT
ATOM      1  C   UNL     1     -12.096 -16.357  14.997  1.00  0.00     0.000 C 
ENDROOT
BRANCH   1   2
ATOM      2  C   UNL     1     -11.281 -16.563  16.283  1.00  0.00     0.000 C 
BRANCH   2   3
ATOM      3  C   UNL     1     -11.129 -18.050  16.652  1.00  0.00     0.000 C 
BRANCH   3   4
ATOM      4  C   UNL     1     -11.245 -18.299  18.164  1.00  0.00     0.000 C 
BRANCH   4   5
ATOM      5  C   UNL     1     -12.705 -18.296  18.653  1.00  0.00     0.006 C 
BRANCH   5   6
ATOM      6  C   UNL     1     -12.971 -19.399  19.685  1.00  0.00     0.053 C 
BRANCH   6   7
ATOM      7  C   UNL     1     -12.709 -18.929  21.083  1.00  0.00     0.041 C 
ATOM      8  O   UNL     1     -12.804 -17.706  21.370  1.00  0.00    -0.550 OA
ATOM      9  O   UNL     1     -12.388 -19.847  22.075  1.00  0.00    -0.550 OA
ENDBRANCH   6   7
ENDBRANCH   5   6
ENDBRANCH   4   5
ENDBRANCH   3   4
ENDBRANCH   2   3
ENDBRANCH   1   2
BRANCH   1  10
ATOM     10  C   UNL     1     -11.356 -16.859  13.743  1.00  0.00     0.000 C 
BRANCH  10  11
ATOM     11  C   UNL     1     -11.439 -15.867  12.573  1.00  0.00    -0.000 C 
BRANCH  11  12
ATOM     12  C   UNL     1     -12.381 -14.685  12.866  1.00  0.00    -0.000 C 
BRANCH  12  13
ATOM     13  C   UNL     1     -11.869 -13.363  12.273  1.00  0.00    -0.000 C 
BRANCH  13  14
ATOM     14  C   UNL     1     -11.709 -12.262  13.336  1.00  0.00    -0.000 C 
BRANCH  14  15
ATOM     15  C   UNL     1     -12.138 -12.728  14.735  1.00  0.00    -0.003 C 
ATOM     16  C   UNL     1     -10.961 -12.843  15.705  1.00  0.00     0.004 C 
ENDBRANCH  14  15
ENDBRANCH  13  14
ENDBRANCH  12  13
ENDBRANCH  11  12
ENDBRANCH  10  11
ENDBRANCH   1  10
TORSDOF 12
ENDMDL
MODEL 7
REMARK VINA RESULT:    -3.717     18.660     20.657
REMARK INTER + INTRA:          -6.574
REMARK INTER:                  -5.689
REMARK INTRA:                  -0.885
REMARK UNBOUND:                -0.249
REMARK SMILES CCCCCCCCCCCCCC(=O)[O-]
REMARK SMILES IDX 8 1 9 2 10 3 11 4 12 5 13 6 14 7 15 8 16 9 7 10 6 11 5 12
REMARK SMILES IDX 4 13 3 14 2 15 1 16
REMARK H PARENT
REMARK Flexibility Score: inf
ROOT
ATOM      1  C   UNL     1     -12.391 -18.529  18.757  1.00  0.00     0.000 C 
ENDROOT
BRANCH   1   2
ATOM      2  C   UNL     1     -11.643 -17.380  18.062  1.00  0.00     0.000 C 
BRANCH   2   3
ATOM      3  C   UNL     1     -11.512 -17.597  16.544  1.00  0.00     0.000 C 
BRANCH   3   4
ATOM      4  C   UNL     1     -11.330 -16.280  15.773  1.00  0.00     0.000 C 
BRANCH   4   5
ATOM      5  C   UNL     1     -12.303 -16.150  14.587  1.00  0.00     0.006 C 
BRANCH   5   6
ATOM      6  C   UNL     1     -12.429 -14.702  14.097  1.00  0.00     0.053 C 
BRANCH   6   7
ATOM      7  C   UNL     1     -11.968 -14.551  12.679  1.00  0.00     0.041 C 
ATOM      8  O   UNL     1     -11.517 -15.544  12.049  1.00  0.00    -0.550 OA
ATOM      9  O   UNL     1     -12.066 -13.319  12.046  1.00  0.00    -0.550 OA
ENDBRANCH   6   7
ENDBRANCH   5   6
ENDBRANCH   4   5
ENDBRANCH   3   4
ENDBRANCH   2   3
ENDBRANCH   1   2
BRANCH   1  10
ATOM     10  C   UNL     1     -11.578 -19.836  18.777  1.00  0.00     0.000 C 
BRANCH  10  11
ATOM     11  C   UNL     1     -12.281 -20.979  18.029  1.00  0.00    -0.000 C 
BRANCH  11  12
ATOM     12  C   UNL     1     -13.256 -21.761  18.926  1.00  0.00    -0.000 C 
BRANCH  12  13
ATOM     13  C   UNL     1     -12.552 -22.434  20.115  1.00  0.00    -0.000 C 
BRANCH  13  14
ATOM     14  C   UNL     1     -13.412 -22.425  21.391  1.00  0.00    -0.000 C 
BRANCH  14  15
ATOM     15  C   UNL     1     -13.783 -21.005  21.842  1.00  0.00    -0.003 C 
ATOM     16  C   UNL     1     -12.571 -20.203  22.319  1.00  0.00     0.004 C 
ENDBRANCH  14  15
ENDBRANCH  13  14
ENDBRANCH  12  13
ENDBRANCH  11  12
ENDBRANCH  10  11
ENDBRANCH   1  10
TORSDOF 12
ENDMDL
MODEL 8
REMARK VINA RESULT:    -3.692     17.706     18.408
REMARK INTER + INTRA:          -6.531
REMARK INTER:                  -5.814
REMARK INTRA:                  -0.717
REMARK UNBOUND:                -0.249
REMARK SMILES CCCCCCCCCCCCCC(=O)[O-]
REMARK SMILES IDX 8 1 9 2 10 3 11 4 12 5 13 6 14 7 15 8 16 9 7 10 6 11 5 12
REMARK SMILES IDX 4 13 3 14 2 15 1 16
REMARK H PARENT
REMARK Flexibility Score: inf
ROOT
ATOM      1  C   UNL     1     -13.521 -21.111  22.144  1.00  0.00     0.000 C 
ENDROOT
BRANCH   1   2
ATOM      2  C   UNL     1     -13.521 -22.626  21.887  1.00  0.00     0.000 C 
BRANCH   2   3
ATOM      3  C   UNL     1     -14.395 -23.394  22.895  1.00  0.00     0.000 C 
BRANCH   3   4
ATOM      4  C   UNL     1     -15.098 -22.464  23.897  1.00  0.00     0.000 C 
BRANCH   4   5
ATOM      5  C   UNL     1     -16.565 -22.860  24.143  1.00  0.00     0.006 C 
BRANCH   5   6
ATOM      6  C   UNL     1     -16.836 -23.187  25.616  1.00  0.00     0.053 C 
BRANCH   6   7
ATOM      7  C   UNL     1     -18.284 -23.020  25.967  1.00  0.00     0.041 C 
ATOM      8  O   UNL     1     -18.654 -22.063  26.696  1.00  0.00    -0.550 OA
ATOM      9  O   UNL     1     -19.226 -23.906  25.461  1.00  0.00    -0.550 OA
ENDBRANCH   6   7
ENDBRANCH   5   6
ENDBRANCH   4   5
ENDBRANCH   3   4
ENDBRANCH   2   3
ENDBRANCH   1   2
BRANCH   1  10
ATOM     10  C   UNL     1     -13.926 -20.302  20.899  1.00  0.00     0.000 C 
BRANCH  10  11
ATOM     11  C   UNL     1     -13.497 -20.981  19.589  1.00  0.00    -0.000 C 
BRANCH  11  12
ATOM     12  C   UNL     1     -12.520 -20.119  18.770  1.00  0.00    -0.000 C 
BRANCH  12  13
ATOM     13  C   UNL     1     -12.097 -18.841  19.511  1.00  0.00    -0.000 C 
BRANCH  13  14
ATOM     14  C   UNL     1     -11.744 -17.692  18.551  1.00  0.00    -0.000 C 
BRANCH  14  15
ATOM     15  C   UNL     1     -11.403 -18.188  17.139  1.00  0.00    -0.003 C 
ATOM     16  C   UNL     1     -11.700 -17.146  16.060  1.00  0.00     0.004 C 
ENDBRANCH  14  15
ENDBRANCH  13  14
ENDBRANCH  12  13
ENDBRANCH  11  12
ENDBRANCH  10  11
ENDBRANCH   1  10
TORSDOF 12
ENDMDL
MODEL 9
REMARK VINA RESULT:    -3.618     17.980     19.943
REMARK INTER + INTRA:          -6.406
REMARK INTER:                  -4.529
REMARK INTRA:                  -1.877
REMARK UNBOUND:                -0.249
REMARK SMILES CCCCCCCCCCCCCC(=O)[O-]
REMARK SMILES IDX 8 1 9 2 10 3 11 4 12 5 13 6 14 7 15 8 16 9 7 10 6 11 5 12
REMARK SMILES IDX 4 13 3 14 2 15 1 16
REMARK H PARENT
REMARK Flexibility Score: inf
ROOT
ATOM      1  C   UNL     1     -17.184 -23.635  24.027  1.00  0.00     0.000 C 
ENDROOT
BRANCH   1   2
ATOM      2  C   UNL     1     -15.993 -24.598  24.147  1.00  0.00     0.000 C 
BRANCH   2   3
ATOM      3  C   UNL     1     -14.683 -23.982  23.623  1.00  0.00     0.000 C 
BRANCH   3   4
ATOM      4  C   UNL     1     -14.831 -22.495  23.265  1.00  0.00     0.000 C 
BRANCH   4   5
ATOM      5  C   UNL     1     -13.564 -21.681  23.584  1.00  0.00     0.006 C 
BRANCH   5   6
ATOM      6  C   UNL     1     -12.808 -21.267  22.316  1.00  0.00     0.053 C 
BRANCH   6   7
ATOM      7  C   UNL     1     -13.348 -19.995  21.735  1.00  0.00     0.041 C 
ATOM      8  O   UNL     1     -14.071 -20.025  20.704  1.00  0.00    -0.550 OA
ATOM      9  O   UNL     1     -13.077 -18.781  22.352  1.00  0.00    -0.550 OA
ENDBRANCH   6   7
ENDBRANCH   5   6
ENDBRANCH   4   5
ENDBRANCH   3   4
ENDBRANCH   2   3
ENDBRANCH   1   2
BRANCH   1  10
ATOM     10  C   UNL     1     -18.435 -24.149  24.760  1.00  0.00     0.000 C 
BRANCH  10  11
ATOM     11  C   UNL     1     -18.606 -23.516  26.149  1.00  0.00    -0.000 C 
BRANCH  11  12
ATOM     12  C   UNL     1     -18.001 -22.104  26.233  1.00  0.00    -0.000 C 
BRANCH  12  13
ATOM     13  C   UNL     1     -16.951 -21.977  27.348  1.00  0.00    -0.000 C 
BRANCH  13  14
ATOM     14  C   UNL     1     -15.537 -21.719  26.800  1.00  0.00    -0.000 C 
BRANCH  14  15
ATOM     15  C   UNL     1     -14.537 -22.810  27.211  1.00  0.00    -0.003 C 
ATOM     16  C   UNL     1     -15.224 -24.067  27.746  1.00  0.00     0.004 C 
ENDBRANCH  14  15
ENDBRANCH  13  14
ENDBRANCH  12  13
ENDBRANCH  11  12
ENDBRANCH  10  11
ENDBRANCH   1  10
TORSDOF 12
ENDMDL
