MODEL 1
REMARK VINA RESULT:    -5.491      0.000      0.000
REMARK INTER + INTRA:          -6.739
REMARK INTER:                  -6.454
REMARK INTRA:                  -0.285
REMARK UNBOUND:                -0.285
REMARK SMILES Oc1ccc(-c2[o+]c3cc(O)cc(O)c3cc2O)cc1
REMARK SMILES IDX 6 1 7 2 8 3 9 4 10 5 12 6 13 7 15 8 16 9 17 10 5 11 4 12
REMARK SMILES IDX 3 13 2 14 19 15 20 16 1 17 18 19 11 21 14 23
REMARK H PARENT 1 18 18 20 11 22 14 24
REMARK Flexibility Score: inf
ROOT
ATOM      1  C   UNL     1      -0.841 -25.690 -45.822  1.00  0.00     0.401 A 
ATOM      2  O   UNL     1      -1.680 -25.396 -44.832  1.00  0.00    -0.202 OA
ATOM      3  C   UNL     1      -2.993 -25.584 -44.907  1.00  0.00     0.368 A 
ATOM      4  C   UNL     1      -3.792 -25.242 -43.814  1.00  0.00     0.162 A 
ATOM      5  C   UNL     1      -5.177 -25.426 -43.868  1.00  0.00     0.128 A 
ATOM      6  C   UNL     1      -5.764 -25.954 -45.019  1.00  0.00     0.093 A 
ATOM      7  C   UNL     1      -4.984 -26.306 -46.129  1.00  0.00     0.136 A 
ATOM      8  C   UNL     1      -3.578 -26.123 -46.079  1.00  0.00     0.125 A 
ATOM      9  C   UNL     1      -2.717 -26.459 -47.136  1.00  0.00     0.078 A 
ATOM     10  C   UNL     1      -1.340 -26.255 -47.011  1.00  0.00     0.223 A 
ENDROOT
BRANCH   1  11
ATOM     11  C   UNL     1       0.602 -25.425 -45.620  1.00  0.00     0.084 A 
ATOM     12  C   UNL     1       1.416 -26.311 -44.891  1.00  0.00     0.022 A 
ATOM     13  C   UNL     1       2.781 -26.049 -44.735  1.00  0.00     0.047 A 
ATOM     14  C   UNL     1       3.352 -24.909 -45.316  1.00  0.00     0.115 A 
ATOM     15  C   UNL     1       1.186 -24.295 -46.217  1.00  0.00     0.022 A 
ATOM     16  C   UNL     1       2.551 -24.036 -46.059  1.00  0.00     0.047 A 
BRANCH  14  17
ATOM     17  O   UNL     1       4.710 -24.639 -45.166  1.00  0.00    -0.508 OA
ATOM     18  H   UNL     1       5.190 -23.988 -45.776  1.00  0.00     0.293 HD
ENDBRANCH  14  17
ENDBRANCH   1  11
BRANCH  10  19
ATOM     19  O   UNL     1      -0.480 -26.634 -48.042  1.00  0.00    -0.500 OA
ATOM     20  H   UNL     1      -0.786 -26.663 -49.007  1.00  0.00     0.294 HD
ENDBRANCH  10  19
BRANCH   5  21
ATOM     21  O   UNL     1      -5.981 -25.086 -42.782  1.00  0.00    -0.507 OA
ATOM     22  H   UNL     1      -5.590 -24.680 -41.939  1.00  0.00     0.293 HD
ENDBRANCH   5  21
BRANCH   7  23
ATOM     23  O   UNL     1      -5.649 -26.825 -47.244  1.00  0.00    -0.507 OA
ATOM     24  H   UNL     1      -5.205 -27.033 -48.127  1.00  0.00     0.293 HD
ENDBRANCH   7  23
TORSDOF 5
ENDMDL
MODEL 2
REMARK VINA RESULT:    -5.383      3.603      5.719
REMARK INTER + INTRA:          -6.612
REMARK INTER:                  -6.314
REMARK INTRA:                  -0.298
REMARK UNBOUND:                -0.285
REMARK SMILES Oc1ccc(-c2[o+]c3cc(O)cc(O)c3cc2O)cc1
REMARK SMILES IDX 6 1 7 2 8 3 9 4 10 5 12 6 13 7 15 8 16 9 17 10 5 11 4 12
REMARK SMILES IDX 3 13 2 14 19 15 20 16 1 17 18 19 11 21 14 23
REMARK H PARENT 1 18 18 20 11 22 14 24
REMARK Flexibility Score: inf
ROOT
ATOM      1  C   UNL     1       0.084 -23.225 -44.310  1.00  0.00     0.401 A 
ATOM      2  O   UNL     1      -0.823 -23.777 -45.111  1.00  0.00    -0.202 OA
ATOM      3  C   UNL     1      -0.565 -24.810 -45.905  1.00  0.00     0.368 A 
ATOM      4  C   UNL     1      -1.585 -25.319 -46.713  1.00  0.00     0.162 A 
ATOM      5  C   UNL     1      -1.338 -26.403 -47.560  1.00  0.00     0.128 A 
ATOM      6  C   UNL     1      -0.068 -26.982 -47.599  1.00  0.00     0.093 A 
ATOM      7  C   UNL     1       0.971 -26.491 -46.797  1.00  0.00     0.136 A 
ATOM      8  C   UNL     1       0.727 -25.391 -45.935  1.00  0.00     0.125 A 
ATOM      9  C   UNL     1       1.703 -24.841 -45.088  1.00  0.00     0.078 A 
ATOM     10  C   UNL     1       1.385 -23.761 -44.261  1.00  0.00     0.223 A 
ENDROOT
BRANCH   1  11
ATOM     11  C   UNL     1      -0.324 -22.069 -43.479  1.00  0.00     0.084 A 
ATOM     12  C   UNL     1      -0.992 -22.245 -42.253  1.00  0.00     0.022 A 
ATOM     13  C   UNL     1      -1.346 -21.137 -41.476  1.00  0.00     0.047 A 
ATOM     14  C   UNL     1      -1.025 -19.843 -41.907  1.00  0.00     0.115 A 
ATOM     15  C   UNL     1       0.011 -20.769 -43.893  1.00  0.00     0.022 A 
ATOM     16  C   UNL     1      -0.344 -19.663 -43.114  1.00  0.00     0.047 A 
BRANCH  14  17
ATOM     17  O   UNL     1      -1.374 -18.733 -41.141  1.00  0.00    -0.508 OA
ATOM     18  H   UNL     1      -1.449 -18.789 -40.132  1.00  0.00     0.293 HD
ENDBRANCH  14  17
ENDBRANCH   1  11
BRANCH  10  19
ATOM     19  O   UNL     1       2.341 -23.246 -43.384  1.00  0.00    -0.500 OA
ATOM     20  H   UNL     1       2.244 -22.326 -42.971  1.00  0.00     0.294 HD
ENDBRANCH  10  19
BRANCH   5  21
ATOM     21  O   UNL     1      -2.351 -26.916 -48.369  1.00  0.00    -0.507 OA
ATOM     22  H   UNL     1      -3.174 -26.370 -48.597  1.00  0.00     0.293 HD
ENDBRANCH   5  21
BRANCH   7  23
ATOM     23  O   UNL     1       2.215 -27.122 -46.898  1.00  0.00    -0.507 OA
ATOM     24  H   UNL     1       2.974 -26.994 -46.246  1.00  0.00     0.293 HD
ENDBRANCH   7  23
TORSDOF 5
ENDMDL
MODEL 3
REMARK VINA RESULT:    -5.268      3.117      3.993
REMARK INTER + INTRA:          -6.478
REMARK INTER:                  -6.192
REMARK INTRA:                  -0.286
REMARK UNBOUND:                -0.285
REMARK SMILES Oc1ccc(-c2[o+]c3cc(O)cc(O)c3cc2O)cc1
REMARK SMILES IDX 6 1 7 2 8 3 9 4 10 5 12 6 13 7 15 8 16 9 17 10 5 11 4 12
REMARK SMILES IDX 3 13 2 14 19 15 20 16 1 17 18 19 11 21 14 23
REMARK H PARENT 1 18 18 20 11 22 14 24
REMARK Flexibility Score: inf
ROOT
ATOM      1  C   UNL     1      -0.237 -23.591 -44.769  1.00  0.00     0.401 A 
ATOM      2  O   UNL     1      -1.494 -24.002 -44.629  1.00  0.00    -0.202 OA
ATOM      3  C   UNL     1      -2.054 -24.917 -45.413  1.00  0.00     0.368 A 
ATOM      4  C   UNL     1      -3.384 -25.283 -45.189  1.00  0.00     0.162 A 
ATOM      5  C   UNL     1      -3.998 -26.240 -46.002  1.00  0.00     0.128 A 
ATOM      6  C   UNL     1      -3.280 -26.835 -47.042  1.00  0.00     0.093 A 
ATOM      7  C   UNL     1      -1.945 -26.486 -47.286  1.00  0.00     0.136 A 
ATOM      8  C   UNL     1      -1.316 -25.516 -46.463  1.00  0.00     0.125 A 
ATOM      9  C   UNL     1       0.020 -25.114 -46.626  1.00  0.00     0.078 A 
ATOM     10  C   UNL     1       0.573 -24.156 -45.772  1.00  0.00     0.223 A 
ENDROOT
BRANCH   1  11
ATOM     11  C   UNL     1       0.270 -22.557 -43.838  1.00  0.00     0.084 A 
ATOM     12  C   UNL     1      -0.042 -21.195 -44.013  1.00  0.00     0.022 A 
ATOM     13  C   UNL     1       0.430 -20.241 -43.106  1.00  0.00     0.047 A 
ATOM     14  C   UNL     1       1.205 -20.634 -42.008  1.00  0.00     0.115 A 
ATOM     15  C   UNL     1       1.031 -22.944 -42.722  1.00  0.00     0.022 A 
ATOM     16  C   UNL     1       1.501 -21.987 -41.817  1.00  0.00     0.047 A 
BRANCH  14  17
ATOM     17  O   UNL     1       1.681 -19.691 -41.099  1.00  0.00    -0.508 OA
ATOM     18  H   UNL     1       1.504 -18.701 -41.223  1.00  0.00     0.293 HD
ENDBRANCH  14  17
ENDBRANCH   1  11
BRANCH  10  19
ATOM     19  O   UNL     1       1.914 -23.793 -45.902  1.00  0.00    -0.500 OA
ATOM     20  H   UNL     1       2.323 -23.580 -46.805  1.00  0.00     0.294 HD
ENDBRANCH  10  19
BRANCH   5  21
ATOM     21  O   UNL     1      -5.324 -26.609 -45.785  1.00  0.00    -0.507 OA
ATOM     22  H   UNL     1      -6.071 -26.278 -46.385  1.00  0.00     0.293 HD
ENDBRANCH   5  21
BRANCH   7  23
ATOM     23  O   UNL     1      -1.298 -27.124 -48.349  1.00  0.00    -0.507 OA
ATOM     24  H   UNL     1      -1.224 -26.745 -49.281  1.00  0.00     0.293 HD
ENDBRANCH   7  23
TORSDOF 5
ENDMDL
MODEL 4
REMARK VINA RESULT:    -5.103     15.765     17.573
REMARK INTER + INTRA:          -6.284
REMARK INTER:                  -5.978
REMARK INTRA:                  -0.306
REMARK UNBOUND:                -0.285
REMARK SMILES Oc1ccc(-c2[o+]c3cc(O)cc(O)c3cc2O)cc1
REMARK SMILES IDX 6 1 7 2 8 3 9 4 10 5 12 6 13 7 15 8 16 9 17 10 5 11 4 12
REMARK SMILES IDX 3 13 2 14 19 15 20 16 1 17 18 19 11 21 14 23
REMARK H PARENT 1 18 18 20 11 22 14 24
REMARK Flexibility Score: inf
ROOT
ATOM      1  C   UNL     1      -3.814  -9.389 -43.107  1.00  0.00     0.401 A 
ATOM      2  O   UNL     1      -2.855 -10.311 -43.091  1.00  0.00    -0.202 OA
ATOM      3  C   UNL     1      -1.837 -10.290 -42.237  1.00  0.00     0.368 A 
ATOM      4  C   UNL     1      -0.876 -11.302 -42.300  1.00  0.00     0.162 A 
ATOM      5  C   UNL     1       0.208 -11.301 -41.416  1.00  0.00     0.128 A 
ATOM      6  C   UNL     1       0.330 -10.286 -40.466  1.00  0.00     0.093 A 
ATOM      7  C   UNL     1      -0.621  -9.260 -40.382  1.00  0.00     0.136 A 
ATOM      8  C   UNL     1      -1.723  -9.256 -41.276  1.00  0.00     0.125 A 
ATOM      9  C   UNL     1      -2.729  -8.277 -41.257  1.00  0.00     0.078 A 
ATOM     10  C   UNL     1      -3.789  -8.343 -42.166  1.00  0.00     0.223 A 
ENDROOT
BRANCH   1  11
ATOM     11  C   UNL     1      -4.892  -9.517 -44.115  1.00  0.00     0.084 A 
ATOM     12  C   UNL     1      -4.888  -8.750 -45.295  1.00  0.00     0.022 A 
ATOM     13  C   UNL     1      -5.905  -8.906 -46.241  1.00  0.00     0.047 A 
ATOM     14  C   UNL     1      -6.929  -9.839 -46.029  1.00  0.00     0.115 A 
ATOM     15  C   UNL     1      -5.911 -10.464 -43.920  1.00  0.00     0.022 A 
ATOM     16  C   UNL     1      -6.927 -10.618 -44.869  1.00  0.00     0.047 A 
BRANCH  14  17
ATOM     17  O   UNL     1      -7.947 -10.001 -46.966  1.00  0.00    -0.508 OA
ATOM     18  H   UNL     1      -7.779 -10.454 -47.857  1.00  0.00     0.293 HD
ENDBRANCH  14  17
ENDBRANCH   1  11
BRANCH  10  19
ATOM     19  O   UNL     1      -4.815  -7.398 -42.115  1.00  0.00    -0.500 OA
ATOM     20  H   UNL     1      -5.767  -7.658 -41.883  1.00  0.00     0.294 HD
ENDBRANCH  10  19
BRANCH   5  21
ATOM     21  O   UNL     1       1.170 -12.307 -41.473  1.00  0.00    -0.507 OA
ATOM     22  H   UNL     1       2.132 -12.137 -41.201  1.00  0.00     0.293 HD
ENDBRANCH   5  21
BRANCH   7  23
ATOM     23  O   UNL     1      -0.424  -8.278 -39.406  1.00  0.00    -0.507 OA
ATOM     24  H   UNL     1      -0.781  -8.331 -38.463  1.00  0.00     0.293 HD
ENDBRANCH   7  23
TORSDOF 5
ENDMDL
MODEL 5
REMARK VINA RESULT:    -5.056     17.077     17.871
REMARK INTER + INTRA:          -6.228
REMARK INTER:                  -6.012
REMARK INTRA:                  -0.216
REMARK UNBOUND:                -0.285
REMARK SMILES Oc1ccc(-c2[o+]c3cc(O)cc(O)c3cc2O)cc1
REMARK SMILES IDX 6 1 7 2 8 3 9 4 10 5 12 6 13 7 15 8 16 9 17 10 5 11 4 12
REMARK SMILES IDX 3 13 2 14 19 15 20 16 1 17 18 19 11 21 14 23
REMARK H PARENT 1 18 18 20 11 22 14 24
REMARK Flexibility Score: inf
ROOT
ATOM      1  C   UNL     1      -0.936 -11.588 -35.112  1.00  0.00     0.401 A 
ATOM      2  O   UNL     1      -2.124 -12.069 -34.757  1.00  0.00    -0.202 OA
ATOM      3  C   UNL     1      -2.278 -13.094 -33.925  1.00  0.00     0.368 A 
ATOM      4  C   UNL     1      -3.569 -13.530 -33.615  1.00  0.00     0.162 A 
ATOM      5  C   UNL     1      -3.758 -14.608 -32.745  1.00  0.00     0.128 A 
ATOM      6  C   UNL     1      -2.654 -15.252 -32.184  1.00  0.00     0.093 A 
ATOM      7  C   UNL     1      -1.350 -14.834 -32.479  1.00  0.00     0.136 A 
ATOM      8  C   UNL     1      -1.151 -13.739 -33.360  1.00  0.00     0.125 A 
ATOM      9  C   UNL     1       0.117 -13.244 -33.703  1.00  0.00     0.078 A 
ATOM     10  C   UNL     1       0.233 -12.156 -34.573  1.00  0.00     0.223 A 
ENDROOT
BRANCH   1  11
ATOM     11  C   UNL     1      -0.896 -10.447 -36.056  1.00  0.00     0.084 A 
ATOM     12  C   UNL     1      -0.504  -9.162 -35.638  1.00  0.00     0.022 A 
ATOM     13  C   UNL     1      -0.452  -8.107 -36.554  1.00  0.00     0.047 A 
ATOM     14  C   UNL     1      -0.775  -8.325 -37.900  1.00  0.00     0.115 A 
ATOM     15  C   UNL     1      -1.199 -10.661 -37.411  1.00  0.00     0.022 A 
ATOM     16  C   UNL     1      -1.146  -9.604 -38.325  1.00  0.00     0.047 A 
BRANCH  14  17
ATOM     17  O   UNL     1      -0.728  -7.280 -38.820  1.00  0.00    -0.508 OA
ATOM     18  H   UNL     1      -0.953  -7.426 -39.797  1.00  0.00     0.293 HD
ENDBRANCH  14  17
ENDBRANCH   1  11
BRANCH  10  19
ATOM     19  O   UNL     1       1.491 -11.632 -34.875  1.00  0.00    -0.500 OA
ATOM     20  H   UNL     1       1.601 -10.820 -35.470  1.00  0.00     0.294 HD
ENDBRANCH  10  19
BRANCH   5  21
ATOM     21  O   UNL     1      -5.042 -15.048 -32.431  1.00  0.00    -0.507 OA
ATOM     22  H   UNL     1      -5.304 -15.286 -31.480  1.00  0.00     0.293 HD
ENDBRANCH   5  21
BRANCH   7  23
ATOM     23  O   UNL     1      -0.298 -15.534 -31.880  1.00  0.00    -0.507 OA
ATOM     24  H   UNL     1      -0.207 -16.540 -31.885  1.00  0.00     0.293 HD
ENDBRANCH   7  23
TORSDOF 5
ENDMDL
MODEL 6
REMARK VINA RESULT:    -4.919     16.303     18.071
REMARK INTER + INTRA:          -6.067
REMARK INTER:                  -5.749
REMARK INTRA:                  -0.318
REMARK UNBOUND:                -0.285
REMARK SMILES Oc1ccc(-c2[o+]c3cc(O)cc(O)c3cc2O)cc1
REMARK SMILES IDX 6 1 7 2 8 3 9 4 10 5 12 6 13 7 15 8 16 9 17 10 5 11 4 12
REMARK SMILES IDX 3 13 2 14 19 15 20 16 1 17 18 19 11 21 14 23
REMARK H PARENT 1 18 18 20 11 22 14 24
REMARK Flexibility Score: inf
ROOT
ATOM      1  C   UNL     1      -1.848 -11.727 -35.397  1.00  0.00     0.401 A 
ATOM      2  O   UNL     1      -2.059 -11.783 -36.709  1.00  0.00    -0.202 OA
ATOM      3  C   UNL     1      -1.632 -10.855 -37.557  1.00  0.00     0.368 A 
ATOM      4  C   UNL     1      -1.906 -11.001 -38.920  1.00  0.00     0.162 A 
ATOM      5  C   UNL     1      -1.471 -10.037 -39.834  1.00  0.00     0.128 A 
ATOM      6  C   UNL     1      -0.760  -8.923 -39.384  1.00  0.00     0.093 A 
ATOM      7  C   UNL     1      -0.472  -8.753 -38.023  1.00  0.00     0.136 A 
ATOM      8  C   UNL     1      -0.910  -9.730 -37.091  1.00  0.00     0.125 A 
ATOM      9  C   UNL     1      -0.657  -9.649 -35.712  1.00  0.00     0.078 A 
ATOM     10  C   UNL     1      -1.115 -10.654 -34.856  1.00  0.00     0.223 A 
ENDROOT
BRANCH   1  11
ATOM     11  C   UNL     1      -2.384 -12.820 -34.553  1.00  0.00     0.084 A 
ATOM     12  C   UNL     1      -1.622 -13.967 -34.265  1.00  0.00     0.022 A 
ATOM     13  C   UNL     1      -2.143 -14.974 -33.446  1.00  0.00     0.047 A 
ATOM     14  C   UNL     1      -3.423 -14.842 -32.894  1.00  0.00     0.115 A 
ATOM     15  C   UNL     1      -3.660 -12.686 -33.979  1.00  0.00     0.022 A 
ATOM     16  C   UNL     1      -4.178 -13.695 -33.160  1.00  0.00     0.047 A 
BRANCH  14  17
ATOM     17  O   UNL     1      -3.952 -15.839 -32.078  1.00  0.00    -0.508 OA
ATOM     18  H   UNL     1      -3.578 -16.020 -31.154  1.00  0.00     0.293 HD
ENDBRANCH  14  17
ENDBRANCH   1  11
BRANCH  10  19
ATOM     19  O   UNL     1      -0.821 -10.600 -33.493  1.00  0.00    -0.500 OA
ATOM     20  H   UNL     1      -0.949 -11.403 -32.888  1.00  0.00     0.294 HD
ENDBRANCH  10  19
BRANCH   5  21
ATOM     21  O   UNL     1      -1.740 -10.176 -41.193  1.00  0.00    -0.507 OA
ATOM     22  H   UNL     1      -2.009  -9.382 -41.765  1.00  0.00     0.293 HD
ENDBRANCH   5  21
BRANCH   7  23
ATOM     23  O   UNL     1       0.241  -7.608 -37.654  1.00  0.00    -0.507 OA
ATOM     24  H   UNL     1       1.196  -7.420 -37.924  1.00  0.00     0.293 HD
ENDBRANCH   7  23
TORSDOF 5
ENDMDL
MODEL 7
REMARK VINA RESULT:    -4.909     14.541     16.824
REMARK INTER + INTRA:          -6.056
REMARK INTER:                  -5.745
REMARK INTRA:                  -0.311
REMARK UNBOUND:                -0.285
REMARK SMILES Oc1ccc(-c2[o+]c3cc(O)cc(O)c3cc2O)cc1
REMARK SMILES IDX 6 1 7 2 8 3 9 4 10 5 12 6 13 7 15 8 16 9 17 10 5 11 4 12
REMARK SMILES IDX 3 13 2 14 19 15 20 16 1 17 18 19 11 21 14 23
REMARK H PARENT 1 18 18 20 11 22 14 24
REMARK Flexibility Score: inf
ROOT
ATOM      1  C   UNL     1      -2.671 -10.627 -41.612  1.00  0.00     0.401 A 
ATOM      2  O   UNL     1      -1.577 -11.316 -41.298  1.00  0.00    -0.202 OA
ATOM      3  C   UNL     1      -0.352 -10.942 -41.651  1.00  0.00     0.368 A 
ATOM      4  C   UNL     1       0.736 -11.734 -41.275  1.00  0.00     0.162 A 
ATOM      5  C   UNL     1       2.035 -11.364 -41.636  1.00  0.00     0.128 A 
ATOM      6  C   UNL     1       2.247 -10.199 -42.376  1.00  0.00     0.093 A 
ATOM      7  C   UNL     1       1.173  -9.387 -42.764  1.00  0.00     0.136 A 
ATOM      8  C   UNL     1      -0.147  -9.756 -42.399  1.00  0.00     0.125 A 
ATOM      9  C   UNL     1      -1.282  -8.999 -42.733  1.00  0.00     0.078 A 
ATOM     10  C   UNL     1      -2.551  -9.423 -42.332  1.00  0.00     0.223 A 
ENDROOT
BRANCH   1  11
ATOM     11  C   UNL     1      -3.982 -11.154 -41.170  1.00  0.00     0.084 A 
ATOM     12  C   UNL     1      -4.814 -11.879 -42.043  1.00  0.00     0.022 A 
ATOM     13  C   UNL     1      -6.038 -12.386 -41.593  1.00  0.00     0.047 A 
ATOM     14  C   UNL     1      -6.438 -12.188 -40.265  1.00  0.00     0.115 A 
ATOM     15  C   UNL     1      -4.382 -10.977 -39.835  1.00  0.00     0.022 A 
ATOM     16  C   UNL     1      -5.606 -11.486 -39.388  1.00  0.00     0.047 A 
BRANCH  14  17
ATOM     17  O   UNL     1      -7.655 -12.688 -39.808  1.00  0.00    -0.508 OA
ATOM     18  H   UNL     1      -8.532 -12.234 -40.034  1.00  0.00     0.293 HD
ENDBRANCH  14  17
ENDBRANCH   1  11
BRANCH  10  19
ATOM     19  O   UNL     1      -3.673  -8.645 -42.621  1.00  0.00    -0.500 OA
ATOM     20  H   UNL     1      -3.937  -7.856 -42.042  1.00  0.00     0.294 HD
ENDBRANCH  10  19
BRANCH   5  21
ATOM     21  O   UNL     1       3.125 -12.149 -41.266  1.00  0.00    -0.507 OA
ATOM     22  H   UNL     1       4.008 -12.098 -41.761  1.00  0.00     0.293 HD
ENDBRANCH   5  21
BRANCH   7  23
ATOM     23  O   UNL     1       1.469  -8.240 -43.506  1.00  0.00    -0.507 OA
ATOM     24  H   UNL     1       1.437  -8.188 -44.514  1.00  0.00     0.293 HD
ENDBRANCH   7  23
TORSDOF 5
ENDMDL
MODEL 8
REMARK VINA RESULT:    -4.886     16.410     17.768
REMARK INTER + INTRA:          -6.028
REMARK INTER:                  -5.746
REMARK INTRA:                  -0.282
REMARK UNBOUND:                -0.285
REMARK SMILES Oc1ccc(-c2[o+]c3cc(O)cc(O)c3cc2O)cc1
REMARK SMILES IDX 6 1 7 2 8 3 9 4 10 5 12 6 13 7 15 8 16 9 17 10 5 11 4 12
REMARK SMILES IDX 3 13 2 14 19 15 20 16 1 17 18 19 11 21 14 23
REMARK H PARENT 1 18 18 20 11 22 14 24
REMARK Flexibility Score: inf
ROOT
ATOM      1  C   UNL     1      -1.224 -10.248 -37.563  1.00  0.00     0.401 A 
ATOM      2  O   UNL     1      -1.835 -11.379 -37.221  1.00  0.00    -0.202 OA
ATOM      3  C   UNL     1      -1.883 -11.835 -35.974  1.00  0.00     0.368 A 
ATOM      4  C   UNL     1      -2.548 -13.036 -35.714  1.00  0.00     0.162 A 
ATOM      5  C   UNL     1      -2.610 -13.539 -34.411  1.00  0.00     0.128 A 
ATOM      6  C   UNL     1      -2.007 -12.839 -33.365  1.00  0.00     0.093 A 
ATOM      7  C   UNL     1      -1.335 -11.632 -33.599  1.00  0.00     0.136 A 
ATOM      8  C   UNL     1      -1.270 -11.115 -34.919  1.00  0.00     0.125 A 
ATOM      9  C   UNL     1      -0.630  -9.909 -35.246  1.00  0.00     0.078 A 
ATOM     10  C   UNL     1      -0.613  -9.460 -36.569  1.00  0.00     0.223 A 
ENDROOT
BRANCH   1  11
ATOM     11  C   UNL     1      -1.230  -9.851 -38.989  1.00  0.00     0.084 A 
ATOM     12  C   UNL     1      -0.363 -10.450 -39.922  1.00  0.00     0.022 A 
ATOM     13  C   UNL     1      -0.405 -10.074 -41.268  1.00  0.00     0.047 A 
ATOM     14  C   UNL     1      -1.321  -9.108 -41.702  1.00  0.00     0.115 A 
ATOM     15  C   UNL     1      -2.160  -8.897 -39.437  1.00  0.00     0.022 A 
ATOM     16  C   UNL     1      -2.199  -8.524 -40.784  1.00  0.00     0.047 A 
BRANCH  14  17
ATOM     17  O   UNL     1      -1.371  -8.725 -43.041  1.00  0.00    -0.508 OA
ATOM     18  H   UNL     1      -0.565  -8.819 -43.647  1.00  0.00     0.293 HD
ENDBRANCH  14  17
ENDBRANCH   1  11
BRANCH  10  19
ATOM     19  O   UNL     1      -0.020  -8.237 -36.886  1.00  0.00    -0.500 OA
ATOM     20  H   UNL     1      -0.156  -7.798 -37.789  1.00  0.00     0.294 HD
ENDBRANCH  10  19
BRANCH   5  21
ATOM     21  O   UNL     1      -3.271 -14.737 -34.145  1.00  0.00    -0.507 OA
ATOM     22  H   UNL     1      -3.473 -15.031 -33.196  1.00  0.00     0.293 HD
ENDBRANCH   5  21
BRANCH   7  23
ATOM     23  O   UNL     1      -0.754 -10.995 -32.498  1.00  0.00    -0.507 OA
ATOM     24  H   UNL     1       0.212 -11.098 -32.224  1.00  0.00     0.293 HD
ENDBRANCH   7  23
TORSDOF 5
ENDMDL
MODEL 9
REMARK VINA RESULT:    -3.264     16.627     17.454
REMARK INTER + INTRA:          -4.122
REMARK INTER:                  -3.846
REMARK INTRA:                  -0.276
REMARK UNBOUND:                -0.285
REMARK SMILES Oc1ccc(-c2[o+]c3cc(O)cc(O)c3cc2O)cc1
REMARK SMILES IDX 6 1 7 2 8 3 9 4 10 5 12 6 13 7 15 8 16 9 17 10 5 11 4 12
REMARK SMILES IDX 3 13 2 14 19 15 20 16 1 17 18 19 11 21 14 23
REMARK H PARENT 1 18 18 20 11 22 14 24
REMARK Flexibility Score: inf
ROOT
ATOM      1  C   UNL     1      -3.825  -9.100 -43.516  1.00  0.00     0.401 A 
ATOM      2  O   UNL     1      -3.642  -8.344 -44.596  1.00  0.00    -0.202 OA
ATOM      3  C   UNL     1      -4.381  -8.451 -45.695  1.00  0.00     0.368 A 
ATOM      4  C   UNL     1      -4.110  -7.613 -46.780  1.00  0.00     0.162 A 
ATOM      5  C   UNL     1      -4.870  -7.707 -47.950  1.00  0.00     0.128 A 
ATOM      6  C   UNL     1      -5.904  -8.641 -48.035  1.00  0.00     0.093 A 
ATOM      7  C   UNL     1      -6.195  -9.492 -46.960  1.00  0.00     0.136 A 
ATOM      8  C   UNL     1      -5.429  -9.400 -45.770  1.00  0.00     0.125 A 
ATOM      9  C   UNL     1      -5.657 -10.202 -44.640  1.00  0.00     0.078 A 
ATOM     10  C   UNL     1      -4.863 -10.050 -43.500  1.00  0.00     0.223 A 
ENDROOT
BRANCH   1  11
ATOM     11  C   UNL     1      -2.928  -8.892 -42.356  1.00  0.00     0.084 A 
ATOM     12  C   UNL     1      -3.348  -8.169 -41.224  1.00  0.00     0.022 A 
ATOM     13  C   UNL     1      -2.490  -8.008 -40.131  1.00  0.00     0.047 A 
ATOM     14  C   UNL     1      -1.210  -8.577 -40.149  1.00  0.00     0.115 A 
ATOM     15  C   UNL     1      -1.651  -9.477 -42.357  1.00  0.00     0.022 A 
ATOM     16  C   UNL     1      -0.795  -9.314 -41.263  1.00  0.00     0.047 A 
BRANCH  14  17
ATOM     17  O   UNL     1      -0.347  -8.421 -39.067  1.00  0.00    -0.508 OA
ATOM     18  H   UNL     1       0.085  -9.219 -38.616  1.00  0.00     0.293 HD
ENDBRANCH  14  17
ENDBRANCH   1  11
BRANCH  10  19
ATOM     19  O   UNL     1      -5.122 -10.812 -42.360  1.00  0.00    -0.500 OA
ATOM     20  H   UNL     1      -5.848 -10.555 -41.701  1.00  0.00     0.294 HD
ENDBRANCH  10  19
BRANCH   5  21
ATOM     21  O   UNL     1      -4.605  -6.875 -49.036  1.00  0.00    -0.507 OA
ATOM     22  H   UNL     1      -4.414  -5.887 -48.912  1.00  0.00     0.293 HD
ENDBRANCH   5  21
BRANCH   7  23
ATOM     23  O   UNL     1      -7.243 -10.403 -47.127  1.00  0.00    -0.507 OA
ATOM     24  H   UNL     1      -8.216 -10.144 -47.204  1.00  0.00     0.293 HD
ENDBRANCH   7  23
TORSDOF 5
ENDMDL
