MODEL 1
REMARK VINA RESULT:    -4.860      0.000      0.000
REMARK INTER + INTRA:         -10.628
REMARK INTER:                  -9.121
REMARK INTRA:                  -1.506
REMARK UNBOUND:                -1.506
REMARK SMILES O=C([O-])CCCCCCCCCCCCCCC(=O)[O-]
REMARK SMILES IDX 10 1 9 2 8 3 7 4 6 5 5 6 4 7 2 8 1 9 3 10 11 11 12 12 13 13
REMARK SMILES IDX 14 14 15 15 16 16 17 17 18 18 19 19 20 20
REMARK H PARENT
REMARK Flexibility Score: inf
ROOT
ATOM      1  C   UNL     1      10.652 -16.300  12.388  1.00  0.00     0.000 C 
ENDROOT
BRANCH   1   2
ATOM      2  C   UNL     1      10.467 -15.437  11.131  1.00  0.00     0.000 C 
BRANCH   2   3
ATOM      3  C   UNL     1      11.504 -15.806  10.058  1.00  0.00     0.000 C 
BRANCH   3   4
ATOM      4  C   UNL     1      12.181 -17.159  10.325  1.00  0.00     0.000 C 
BRANCH   4   5
ATOM      5  C   UNL     1      13.698 -17.026  10.553  1.00  0.00     0.000 C 
BRANCH   5   6
ATOM      6  C   UNL     1      14.117 -17.430  11.976  1.00  0.00     0.006 C 
BRANCH   6   7
ATOM      7  C   UNL     1      15.556 -17.015  12.309  1.00  0.00     0.053 C 
BRANCH   7   8
ATOM      8  C   UNL     1      15.712 -16.810  13.782  1.00  0.00     0.041 C 
ATOM      9  O   UNL     1      15.851 -17.799  14.549  1.00  0.00    -0.550 OA
ATOM     10  O   UNL     1      15.655 -15.529  14.316  1.00  0.00    -0.550 OA
ENDBRANCH   7   8
ENDBRANCH   6   7
ENDBRANCH   5   6
ENDBRANCH   4   5
ENDBRANCH   3   4
ENDBRANCH   2   3
ENDBRANCH   1   2
BRANCH   1  11
ATOM     11  C   UNL     1      11.087 -15.480  13.614  1.00  0.00     0.000 C 
BRANCH  11  12
ATOM     12  C   UNL     1      12.019 -16.269  14.550  1.00  0.00     0.000 C 
BRANCH  12  13
ATOM     13  C   UNL     1      12.366 -15.499  15.839  1.00  0.00     0.000 C 
BRANCH  13  14
ATOM     14  C   UNL     1      11.232 -14.620  16.397  1.00  0.00     0.000 C 
BRANCH  14  15
ATOM     15  C   UNL     1      11.646 -13.148  16.569  1.00  0.00     0.000 C 
BRANCH  15  16
ATOM     16  C   UNL     1      11.805 -12.419  15.226  1.00  0.00     0.006 C 
BRANCH  16  17
ATOM     17  C   UNL     1      13.225 -11.875  15.016  1.00  0.00     0.053 C 
BRANCH  17  18
ATOM     18  C   UNL     1      13.198 -10.386  14.880  1.00  0.00     0.041 C 
ATOM     19  O   UNL     1      14.162  -9.780  14.342  1.00  0.00    -0.550 OA
ATOM     20  O   UNL     1      12.086  -9.669  15.304  1.00  0.00    -0.550 OA
ENDBRANCH  17  18
ENDBRANCH  16  17
ENDBRANCH  15  16
ENDBRANCH  14  15
ENDBRANCH  13  14
ENDBRANCH  12  13
ENDBRANCH  11  12
ENDBRANCH   1  11
TORSDOF 15
ENDMDL
MODEL 2
REMARK VINA RESULT:    -4.733      2.269      6.057
REMARK INTER + INTRA:         -10.390
REMARK INTER:                  -8.668
REMARK INTRA:                  -1.722
REMARK UNBOUND:                -1.506
REMARK SMILES O=C([O-])CCCCCCCCCCCCCCC(=O)[O-]
REMARK SMILES IDX 10 1 9 2 8 3 7 4 6 5 5 6 4 7 2 8 1 9 3 10 11 11 12 12 13 13
REMARK SMILES IDX 14 14 15 15 16 16 17 17 18 18 19 19 20 20
REMARK H PARENT
REMARK Flexibility Score: inf
ROOT
ATOM      1  C   UNL     1      15.366 -15.648  12.597  1.00  0.00     0.000 C 
ENDROOT
BRANCH   1   2
ATOM      2  C   UNL     1      16.421 -14.804  13.328  1.00  0.00     0.000 C 
BRANCH   2   3
ATOM      3  C   UNL     1      15.769 -13.599  14.025  1.00  0.00     0.000 C 
BRANCH   3   4
ATOM      4  C   UNL     1      15.713 -12.352  13.128  1.00  0.00     0.000 C 
BRANCH   4   5
ATOM      5  C   UNL     1      14.838 -11.234  13.724  1.00  0.00     0.000 C 
BRANCH   5   6
ATOM      6  C   UNL     1      14.157 -11.655  15.036  1.00  0.00     0.006 C 
BRANCH   6   7
ATOM      7  C   UNL     1      12.630 -11.512  14.983  1.00  0.00     0.053 C 
BRANCH   7   8
ATOM      8  C   UNL     1      12.234 -10.080  15.159  1.00  0.00     0.041 C 
ATOM      9  O   UNL     1      13.116  -9.186  15.257  1.00  0.00    -0.550 OA
ATOM     10  O   UNL     1      10.892  -9.737  15.265  1.00  0.00    -0.550 OA
ENDBRANCH   7   8
ENDBRANCH   6   7
ENDBRANCH   5   6
ENDBRANCH   4   5
ENDBRANCH   3   4
ENDBRANCH   2   3
ENDBRANCH   1   2
BRANCH   1  11
ATOM     11  C   UNL     1      15.496 -17.151  12.896  1.00  0.00     0.000 C 
BRANCH  11  12
ATOM     12  C   UNL     1      15.791 -17.433  14.379  1.00  0.00     0.000 C 
BRANCH  12  13
ATOM     13  C   UNL     1      14.513 -17.580  15.227  1.00  0.00     0.000 C 
BRANCH  13  14
ATOM     14  C   UNL     1      14.150 -16.349  16.077  1.00  0.00     0.000 C 
BRANCH  14  15
ATOM     15  C   UNL     1      12.984 -15.537  15.485  1.00  0.00     0.000 C 
BRANCH  15  16
ATOM     16  C   UNL     1      12.075 -16.383  14.580  1.00  0.00     0.006 C 
BRANCH  16  17
ATOM     17  C   UNL     1      11.041 -15.535  13.826  1.00  0.00     0.053 C 
BRANCH  17  18
ATOM     18  C   UNL     1      11.129 -15.794  12.356  1.00  0.00     0.041 C 
ATOM     19  O   UNL     1      10.337 -15.220  11.562  1.00  0.00    -0.550 OA
ATOM     20  O   UNL     1      12.117 -16.632  11.854  1.00  0.00    -0.550 OA
ENDBRANCH  17  18
ENDBRANCH  16  17
ENDBRANCH  15  16
ENDBRANCH  14  15
ENDBRANCH  13  14
ENDBRANCH  12  13
ENDBRANCH  11  12
ENDBRANCH   1  11
TORSDOF 15
ENDMDL
MODEL 3
REMARK VINA RESULT:    -4.707      2.218      6.463
REMARK INTER + INTRA:         -10.341
REMARK INTER:                  -9.098
REMARK INTRA:                  -1.243
REMARK UNBOUND:                -1.506
REMARK SMILES O=C([O-])CCCCCCCCCCCCCCC(=O)[O-]
REMARK SMILES IDX 10 1 9 2 8 3 7 4 6 5 5 6 4 7 2 8 1 9 3 10 11 11 12 12 13 13
REMARK SMILES IDX 14 14 15 15 16 16 17 17 18 18 19 19 20 20
REMARK H PARENT
REMARK Flexibility Score: inf
ROOT
ATOM      1  C   UNL     1      11.278 -11.997  15.832  1.00  0.00     0.000 C 
ENDROOT
BRANCH   1   2
ATOM      2  C   UNL     1      11.484 -10.594  15.242  1.00  0.00     0.000 C 
BRANCH   2   3
ATOM      3  C   UNL     1      12.979 -10.297  15.047  1.00  0.00     0.000 C 
BRANCH   3   4
ATOM      4  C   UNL     1      13.323  -8.813  15.255  1.00  0.00     0.000 C 
BRANCH   4   5
ATOM      5  C   UNL     1      14.751  -8.468  14.796  1.00  0.00     0.000 C 
BRANCH   5   6
ATOM      6  C   UNL     1      15.407  -9.608  14.002  1.00  0.00     0.006 C 
BRANCH   6   7
ATOM      7  C   UNL     1      15.415  -9.349  12.490  1.00  0.00     0.053 C 
BRANCH   7   8
ATOM      8  C   UNL     1      16.235 -10.383  11.787  1.00  0.00     0.041 C 
ATOM      9  O   UNL     1      15.917 -11.600  11.859  1.00  0.00    -0.550 OA
ATOM     10  O   UNL     1      17.379 -10.011  11.094  1.00  0.00    -0.550 OA
ENDBRANCH   7   8
ENDBRANCH   6   7
ENDBRANCH   5   6
ENDBRANCH   4   5
ENDBRANCH   3   4
ENDBRANCH   2   3
ENDBRANCH   1   2
BRANCH   1  11
ATOM     11  C   UNL     1      12.475 -12.929  15.584  1.00  0.00     0.000 C 
BRANCH  11  12
ATOM     12  C   UNL     1      12.303 -14.301  16.257  1.00  0.00     0.000 C 
BRANCH  12  13
ATOM     13  C   UNL     1      11.204 -15.158  15.599  1.00  0.00     0.000 C 
BRANCH  13  14
ATOM     14  C   UNL     1      11.207 -15.151  14.060  1.00  0.00     0.000 C 
BRANCH  14  15
ATOM     15  C   UNL     1      11.708 -16.475  13.457  1.00  0.00     0.000 C 
BRANCH  15  16
ATOM     16  C   UNL     1      13.118 -16.354  12.857  1.00  0.00     0.006 C 
BRANCH  16  17
ATOM     17  C   UNL     1      14.091 -17.397  13.425  1.00  0.00     0.053 C 
BRANCH  17  18
ATOM     18  C   UNL     1      14.667 -16.919  14.720  1.00  0.00     0.041 C 
ATOM     19  O   UNL     1      15.142 -15.756  14.812  1.00  0.00    -0.550 OA
ATOM     20  O   UNL     1      14.638 -17.741  15.840  1.00  0.00    -0.550 OA
ENDBRANCH  17  18
ENDBRANCH  16  17
ENDBRANCH  15  16
ENDBRANCH  14  15
ENDBRANCH  13  14
ENDBRANCH  12  13
ENDBRANCH  11  12
ENDBRANCH   1  11
TORSDOF 15
ENDMDL
MODEL 4
REMARK VINA RESULT:    -4.667      3.765      5.239
REMARK INTER + INTRA:         -10.266
REMARK INTER:                  -8.844
REMARK INTRA:                  -1.422
REMARK UNBOUND:                -1.506
REMARK SMILES O=C([O-])CCCCCCCCCCCCCCC(=O)[O-]
REMARK SMILES IDX 10 1 9 2 8 3 7 4 6 5 5 6 4 7 2 8 1 9 3 10 11 11 12 12 13 13
REMARK SMILES IDX 14 14 15 15 16 16 17 17 18 18 19 19 20 20
REMARK H PARENT
REMARK Flexibility Score: inf
ROOT
ATOM      1  C   UNL     1      15.271 -17.252  12.126  1.00  0.00     0.000 C 
ENDROOT
BRANCH   1   2
ATOM      2  C   UNL     1      13.802 -17.455  11.726  1.00  0.00     0.000 C 
BRANCH   2   3
ATOM      3  C   UNL     1      13.151 -16.118  11.340  1.00  0.00     0.000 C 
BRANCH   3   4
ATOM      4  C   UNL     1      11.718 -16.286  10.809  1.00  0.00     0.000 C 
BRANCH   4   5
ATOM      5  C   UNL     1      11.615 -16.028   9.295  1.00  0.00     0.000 C 
BRANCH   5   6
ATOM      6  C   UNL     1      10.957 -17.195   8.541  1.00  0.00     0.006 C 
BRANCH   6   7
ATOM      7  C   UNL     1       9.826 -16.737   7.611  1.00  0.00     0.053 C 
BRANCH   7   8
ATOM      8  C   UNL     1       9.054 -17.916   7.110  1.00  0.00     0.041 C 
ATOM      9  O   UNL     1       8.343 -17.814   6.075  1.00  0.00    -0.550 OA
ATOM     10  O   UNL     1       9.078 -19.114   7.813  1.00  0.00    -0.550 OA
ENDBRANCH   7   8
ENDBRANCH   6   7
ENDBRANCH   5   6
ENDBRANCH   4   5
ENDBRANCH   3   4
ENDBRANCH   2   3
ENDBRANCH   1   2
BRANCH   1  11
ATOM     11  C   UNL     1      15.427 -16.600  13.510  1.00  0.00     0.000 C 
BRANCH  11  12
ATOM     12  C   UNL     1      15.456 -17.635  14.648  1.00  0.00     0.000 C 
BRANCH  12  13
ATOM     13  C   UNL     1      14.108 -17.755  15.384  1.00  0.00     0.000 C 
BRANCH  13  14
ATOM     14  C   UNL     1      13.311 -16.443  15.502  1.00  0.00     0.000 C 
BRANCH  14  15
ATOM     15  C   UNL     1      11.954 -16.500  14.778  1.00  0.00     0.000 C 
BRANCH  15  16
ATOM     16  C   UNL     1      11.393 -15.104  14.465  1.00  0.00     0.006 C 
BRANCH  16  17
ATOM     17  C   UNL     1      11.428 -14.170  15.682  1.00  0.00     0.053 C 
BRANCH  17  18
ATOM     18  C   UNL     1      12.094 -12.878  15.327  1.00  0.00     0.041 C 
ATOM     19  O   UNL     1      13.322 -12.852  15.050  1.00  0.00    -0.550 OA
ATOM     20  O   UNL     1      11.348 -11.708  15.254  1.00  0.00    -0.550 OA
ENDBRANCH  17  18
ENDBRANCH  16  17
ENDBRANCH  15  16
ENDBRANCH  14  15
ENDBRANCH  13  14
ENDBRANCH  12  13
ENDBRANCH  11  12
ENDBRANCH   1  11
TORSDOF 15
ENDMDL
MODEL 5
REMARK VINA RESULT:    -4.661      2.565      4.351
REMARK INTER + INTRA:         -10.254
REMARK INTER:                  -8.481
REMARK INTRA:                  -1.773
REMARK UNBOUND:                -1.506
REMARK SMILES O=C([O-])CCCCCCCCCCCCCCC(=O)[O-]
REMARK SMILES IDX 10 1 9 2 8 3 7 4 6 5 5 6 4 7 2 8 1 9 3 10 11 11 12 12 13 13
REMARK SMILES IDX 14 14 15 15 16 16 17 17 18 18 19 19 20 20
REMARK H PARENT
REMARK Flexibility Score: inf
ROOT
ATOM      1  C   UNL     1      13.315 -17.392  15.073  1.00  0.00     0.000 C 
ENDROOT
BRANCH   1   2
ATOM      2  C   UNL     1      12.839 -16.014  15.557  1.00  0.00     0.000 C 
BRANCH   2   3
ATOM      3  C   UNL     1      11.432 -15.702  15.024  1.00  0.00     0.000 C 
BRANCH   3   4
ATOM      4  C   UNL     1      11.451 -15.109  13.606  1.00  0.00     0.000 C 
BRANCH   4   5
ATOM      5  C   UNL     1      10.609 -15.928  12.612  1.00  0.00     0.000 C 
BRANCH   5   6
ATOM      6  C   UNL     1      11.081 -15.758  11.159  1.00  0.00     0.006 C 
BRANCH   6   7
ATOM      7  C   UNL     1      12.301 -16.627  10.827  1.00  0.00     0.053 C 
BRANCH   7   8
ATOM      8  C   UNL     1      12.006 -17.513   9.658  1.00  0.00     0.041 C 
ATOM      9  O   UNL     1      12.518 -18.662   9.589  1.00  0.00    -0.550 OA
ATOM     10  O   UNL     1      11.208 -17.052   8.619  1.00  0.00    -0.550 OA
ENDBRANCH   7   8
ENDBRANCH   6   7
ENDBRANCH   5   6
ENDBRANCH   4   5
ENDBRANCH   3   4
ENDBRANCH   2   3
ENDBRANCH   1   2
BRANCH   1  11
ATOM     11  C   UNL     1      14.755 -17.710  15.505  1.00  0.00     0.000 C 
BRANCH  11  12
ATOM     12  C   UNL     1      15.737 -17.717  14.321  1.00  0.00     0.000 C 
BRANCH  12  13
ATOM     13  C   UNL     1      15.405 -16.650  13.260  1.00  0.00     0.000 C 
BRANCH  13  14
ATOM     14  C   UNL     1      16.044 -15.271  13.502  1.00  0.00     0.000 C 
BRANCH  14  15
ATOM     15  C   UNL     1      15.046 -14.111  13.330  1.00  0.00     0.000 C 
BRANCH  15  16
ATOM     16  C   UNL     1      15.124 -13.091  14.476  1.00  0.00     0.006 C 
BRANCH  16  17
ATOM     17  C   UNL     1      14.629 -11.699  14.059  1.00  0.00     0.053 C 
BRANCH  17  18
ATOM     18  C   UNL     1      13.441 -11.302  14.876  1.00  0.00     0.041 C 
ATOM     19  O   UNL     1      13.225 -10.088  15.133  1.00  0.00    -0.550 OA
ATOM     20  O   UNL     1      12.544 -12.268  15.315  1.00  0.00    -0.550 OA
ENDBRANCH  17  18
ENDBRANCH  16  17
ENDBRANCH  15  16
ENDBRANCH  14  15
ENDBRANCH  13  14
ENDBRANCH  12  13
ENDBRANCH  11  12
ENDBRANCH   1  11
TORSDOF 15
ENDMDL
MODEL 6
REMARK VINA RESULT:    -4.657      1.665      6.091
REMARK INTER + INTRA:         -10.248
REMARK INTER:                  -8.915
REMARK INTRA:                  -1.333
REMARK UNBOUND:                -1.506
REMARK SMILES O=C([O-])CCCCCCCCCCCCCCC(=O)[O-]
REMARK SMILES IDX 10 1 9 2 8 3 7 4 6 5 5 6 4 7 2 8 1 9 3 10 11 11 12 12 13 13
REMARK SMILES IDX 14 14 15 15 16 16 17 17 18 18 19 19 20 20
REMARK H PARENT
REMARK Flexibility Score: inf
ROOT
ATOM      1  C   UNL     1      11.388 -15.098  15.964  1.00  0.00     0.000 C 
ENDROOT
BRANCH   1   2
ATOM      2  C   UNL     1      11.763 -13.693  16.459  1.00  0.00     0.000 C 
BRANCH   2   3
ATOM      3  C   UNL     1      11.837 -12.702  15.288  1.00  0.00     0.000 C 
BRANCH   3   4
ATOM      4  C   UNL     1      13.229 -12.069  15.129  1.00  0.00     0.000 C 
BRANCH   4   5
ATOM      5  C   UNL     1      13.166 -10.544  14.932  1.00  0.00     0.000 C 
BRANCH   5   6
ATOM      6  C   UNL     1      14.548  -9.879  15.037  1.00  0.00     0.006 C 
BRANCH   6   7
ATOM      7  C   UNL     1      14.968  -9.179  13.738  1.00  0.00     0.053 C 
BRANCH   7   8
ATOM      8  C   UNL     1      15.619 -10.153  12.809  1.00  0.00     0.041 C 
ATOM      9  O   UNL     1      15.573  -9.969  11.564  1.00  0.00    -0.550 OA
ATOM     10  O   UNL     1      16.235 -11.291  13.313  1.00  0.00    -0.550 OA
ENDBRANCH   7   8
ENDBRANCH   6   7
ENDBRANCH   5   6
ENDBRANCH   4   5
ENDBRANCH   3   4
ENDBRANCH   2   3
ENDBRANCH   1   2
BRANCH   1  11
ATOM     11  C   UNL     1      11.021 -15.124  14.471  1.00  0.00     0.000 C 
BRANCH  11  12
ATOM     12  C   UNL     1      11.561 -16.373  13.754  1.00  0.00     0.000 C 
BRANCH  12  13
ATOM     13  C   UNL     1      11.532 -16.242  12.219  1.00  0.00     0.000 C 
BRANCH  13  14
ATOM     14  C   UNL     1      12.909 -16.313  11.534  1.00  0.00     0.000 C 
BRANCH  14  15
ATOM     15  C   UNL     1      13.779 -17.470  12.058  1.00  0.00     0.000 C 
BRANCH  15  16
ATOM     16  C   UNL     1      15.233 -17.045  12.315  1.00  0.00     0.006 C 
BRANCH  16  17
ATOM     17  C   UNL     1      15.625 -17.156  13.795  1.00  0.00     0.053 C 
BRANCH  17  18
ATOM     18  C   UNL     1      15.259 -15.904  14.526  1.00  0.00     0.041 C 
ATOM     19  O   UNL     1      14.562 -15.961  15.574  1.00  0.00    -0.550 OA
ATOM     20  O   UNL     1      15.727 -14.674  14.079  1.00  0.00    -0.550 OA
ENDBRANCH  17  18
ENDBRANCH  16  17
ENDBRANCH  15  16
ENDBRANCH  14  15
ENDBRANCH  13  14
ENDBRANCH  12  13
ENDBRANCH  11  12
ENDBRANCH   1  11
TORSDOF 15
ENDMDL
MODEL 7
REMARK VINA RESULT:    -4.648      1.779      3.706
REMARK INTER + INTRA:         -10.229
REMARK INTER:                  -8.042
REMARK INTRA:                  -2.188
REMARK UNBOUND:                -1.506
REMARK SMILES O=C([O-])CCCCCCCCCCCCCCC(=O)[O-]
REMARK SMILES IDX 10 1 9 2 8 3 7 4 6 5 5 6 4 7 2 8 1 9 3 10 11 11 12 12 13 13
REMARK SMILES IDX 14 14 15 15 16 16 17 17 18 18 19 19 20 20
REMARK H PARENT
REMARK Flexibility Score: inf
ROOT
ATOM      1  C   UNL     1      12.822 -16.421  12.424  1.00  0.00     0.000 C 
ENDROOT
BRANCH   1   2
ATOM      2  C   UNL     1      11.391 -15.891  12.593  1.00  0.00     0.000 C 
BRANCH   2   3
ATOM      3  C   UNL     1      11.088 -15.594  14.070  1.00  0.00     0.000 C 
BRANCH   3   4
ATOM      4  C   UNL     1      11.649 -14.240  14.532  1.00  0.00     0.000 C 
BRANCH   4   5
ATOM      5  C   UNL     1      12.638 -14.378  15.703  1.00  0.00     0.000 C 
BRANCH   5   6
ATOM      6  C   UNL     1      12.763 -15.826  16.202  1.00  0.00     0.006 C 
BRANCH   6   7
ATOM      7  C   UNL     1      14.219 -16.300  16.288  1.00  0.00     0.053 C 
BRANCH   7   8
ATOM      8  C   UNL     1      14.434 -17.490  15.407  1.00  0.00     0.041 C 
ATOM      9  O   UNL     1      13.496 -18.304  15.203  1.00  0.00    -0.550 OA
ATOM     10  O   UNL     1      15.684 -17.727  14.851  1.00  0.00    -0.550 OA
ENDBRANCH   7   8
ENDBRANCH   6   7
ENDBRANCH   5   6
ENDBRANCH   4   5
ENDBRANCH   3   4
ENDBRANCH   2   3
ENDBRANCH   1   2
BRANCH   1  11
ATOM     11  C   UNL     1      13.512 -15.880  11.161  1.00  0.00     0.000 C 
BRANCH  11  12
ATOM     12  C   UNL     1      14.762 -15.043  11.485  1.00  0.00     0.000 C 
BRANCH  12  13
ATOM     13  C   UNL     1      14.946 -14.802  12.996  1.00  0.00     0.000 C 
BRANCH  13  14
ATOM     14  C   UNL     1      16.226 -14.040  13.382  1.00  0.00     0.000 C 
BRANCH  14  15
ATOM     15  C   UNL     1      15.952 -12.843  14.311  1.00  0.00     0.000 C 
BRANCH  15  16
ATOM     16  C   UNL     1      14.992 -11.819  13.687  1.00  0.00     0.006 C 
BRANCH  16  17
ATOM     17  C   UNL     1      14.061 -11.177  14.724  1.00  0.00     0.053 C 
BRANCH  17  18
ATOM     18  C   UNL     1      14.027  -9.692  14.545  1.00  0.00     0.041 C 
ATOM     19  O   UNL     1      13.081  -9.016  15.029  1.00  0.00    -0.550 OA
ATOM     20  O   UNL     1      15.065  -9.047  13.884  1.00  0.00    -0.550 OA
ENDBRANCH  17  18
ENDBRANCH  16  17
ENDBRANCH  15  16
ENDBRANCH  14  15
ENDBRANCH  13  14
ENDBRANCH  12  13
ENDBRANCH  11  12
ENDBRANCH   1  11
TORSDOF 15
ENDMDL
MODEL 8
REMARK VINA RESULT:    -4.644      2.473      6.256
REMARK INTER + INTRA:         -10.222
REMARK INTER:                  -8.531
REMARK INTRA:                  -1.691
REMARK UNBOUND:                -1.506
REMARK SMILES O=C([O-])CCCCCCCCCCCCCCC(=O)[O-]
REMARK SMILES IDX 10 1 9 2 8 3 7 4 6 5 5 6 4 7 2 8 1 9 3 10 11 11 12 12 13 13
REMARK SMILES IDX 14 14 15 15 16 16 17 17 18 18 19 19 20 20
REMARK H PARENT
REMARK Flexibility Score: inf
ROOT
ATOM      1  C   UNL     1      13.393 -16.247  15.473  1.00  0.00     0.000 C 
ENDROOT
BRANCH   1   2
ATOM      2  C   UNL     1      12.018 -16.207  14.790  1.00  0.00     0.000 C 
BRANCH   2   3
ATOM      3  C   UNL     1      11.079 -15.226  15.509  1.00  0.00     0.000 C 
BRANCH   3   4
ATOM      4  C   UNL     1      11.832 -14.072  16.191  1.00  0.00     0.000 C 
BRANCH   4   5
ATOM      5  C   UNL     1      11.372 -12.691  15.693  1.00  0.00     0.000 C 
BRANCH   5   6
ATOM      6  C   UNL     1      12.538 -11.832  15.177  1.00  0.00     0.006 C 
BRANCH   6   7
ATOM      7  C   UNL     1      13.760 -12.669  14.779  1.00  0.00     0.053 C 
BRANCH   7   8
ATOM      8  C   UNL     1      14.712 -11.850  13.967  1.00  0.00     0.041 C 
ATOM      9  O   UNL     1      15.676 -12.401  13.374  1.00  0.00    -0.550 OA
ATOM     10  O   UNL     1      14.564 -10.470  13.905  1.00  0.00    -0.550 OA
ENDBRANCH   7   8
ENDBRANCH   6   7
ENDBRANCH   5   6
ENDBRANCH   4   5
ENDBRANCH   3   4
ENDBRANCH   2   3
ENDBRANCH   1   2
BRANCH   1  11
ATOM     11  C   UNL     1      14.011 -17.655  15.485  1.00  0.00     0.000 C 
BRANCH  11  12
ATOM     12  C   UNL     1      15.290 -17.744  14.635  1.00  0.00     0.000 C 
BRANCH  12  13
ATOM     13  C   UNL     1      15.691 -16.393  14.012  1.00  0.00     0.000 C 
BRANCH  13  14
ATOM     14  C   UNL     1      15.705 -16.363  12.473  1.00  0.00     0.000 C 
BRANCH  14  15
ATOM     15  C   UNL     1      14.318 -16.081  11.868  1.00  0.00     0.000 C 
BRANCH  15  16
ATOM     16  C   UNL     1      13.583 -17.365  11.452  1.00  0.00     0.006 C 
BRANCH  16  17
ATOM     17  C   UNL     1      13.175 -17.356   9.972  1.00  0.00     0.053 C 
BRANCH  17  18
ATOM     18  C   UNL     1      11.695 -17.185   9.841  1.00  0.00     0.041 C 
ATOM     19  O   UNL     1      11.148 -16.104  10.186  1.00  0.00    -0.550 OA
ATOM     20  O   UNL     1      10.923 -18.202   9.293  1.00  0.00    -0.550 OA
ENDBRANCH  17  18
ENDBRANCH  16  17
ENDBRANCH  15  16
ENDBRANCH  14  15
ENDBRANCH  13  14
ENDBRANCH  12  13
ENDBRANCH  11  12
ENDBRANCH   1  11
TORSDOF 15
ENDMDL
MODEL 9
REMARK VINA RESULT:    -4.547      4.333      7.302
REMARK INTER + INTRA:         -10.041
REMARK INTER:                  -8.920
REMARK INTRA:                  -1.122
REMARK UNBOUND:                -1.506
REMARK SMILES O=C([O-])CCCCCCCCCCCCCCC(=O)[O-]
REMARK SMILES IDX 10 1 9 2 8 3 7 4 6 5 5 6 4 7 2 8 1 9 3 10 11 11 12 12 13 13
REMARK SMILES IDX 14 14 15 15 16 16 17 17 18 18 19 19 20 20
REMARK H PARENT
REMARK Flexibility Score: inf
ROOT
ATOM      1  C   UNL     1      12.466 -16.639  11.689  1.00  0.00     0.000 C 
ENDROOT
BRANCH   1   2
ATOM      2  C   UNL     1      11.066 -16.007  11.672  1.00  0.00     0.000 C 
BRANCH   2   3
ATOM      3  C   UNL     1      10.671 -15.514  13.073  1.00  0.00     0.000 C 
BRANCH   3   4
ATOM      4  C   UNL     1      11.405 -16.264  14.196  1.00  0.00     0.000 C 
BRANCH   4   5
ATOM      5  C   UNL     1      11.914 -15.322  15.301  1.00  0.00     0.000 C 
BRANCH   5   6
ATOM      6  C   UNL     1      13.091 -15.919  16.089  1.00  0.00     0.006 C 
BRANCH   6   7
ATOM      7  C   UNL     1      13.692 -17.156  15.409  1.00  0.00     0.053 C 
BRANCH   7   8
ATOM      8  C   UNL     1      15.000 -16.815  14.768  1.00  0.00     0.041 C 
ATOM      9  O   UNL     1      15.297 -15.614  14.537  1.00  0.00    -0.550 OA
ATOM     10  O   UNL     1      15.869 -17.826  14.381  1.00  0.00    -0.550 OA
ENDBRANCH   7   8
ENDBRANCH   6   7
ENDBRANCH   5   6
ENDBRANCH   4   5
ENDBRANCH   3   4
ENDBRANCH   2   3
ENDBRANCH   1   2
BRANCH   1  11
ATOM     11  C   UNL     1      12.854 -17.262  10.338  1.00  0.00     0.000 C 
BRANCH  11  12
ATOM     12  C   UNL     1      11.660 -17.367   9.373  1.00  0.00     0.000 C 
BRANCH  12  13
ATOM     13  C   UNL     1      11.533 -18.760   8.727  1.00  0.00     0.000 C 
BRANCH  13  14
ATOM     14  C   UNL     1      10.089 -19.229   8.471  1.00  0.00     0.000 C 
BRANCH  14  15
ATOM     15  C   UNL     1       9.644 -19.026   7.012  1.00  0.00     0.000 C 
BRANCH  15  16
ATOM     16  C   UNL     1       8.431 -18.091   6.890  1.00  0.00     0.006 C 
BRANCH  16  17
ATOM     17  C   UNL     1       8.794 -16.620   7.141  1.00  0.00     0.053 C 
BRANCH  17  18
ATOM     18  C   UNL     1       8.891 -15.880   5.846  1.00  0.00     0.041 C 
ATOM     19  O   UNL     1       9.629 -14.864   5.749  1.00  0.00    -0.550 OA
ATOM     20  O   UNL     1       8.202 -16.337   4.729  1.00  0.00    -0.550 OA
ENDBRANCH  17  18
ENDBRANCH  16  17
ENDBRANCH  15  16
ENDBRANCH  14  15
ENDBRANCH  13  14
ENDBRANCH  12  13
ENDBRANCH  11  12
ENDBRANCH   1  11
TORSDOF 15
ENDMDL
