MODEL 1
REMARK VINA RESULT:    -2.438      0.000      0.000
REMARK INTER + INTRA:          -2.438
REMARK INTER:                  -2.438
REMARK INTRA:                   0.000
REMARK UNBOUND:                 0.000
REMARK SMILES CC(=O)[O-]
REMARK SMILES IDX 1 1 2 2 3 3 4 4
REMARK H PARENT
REMARK Flexibility Score: inf
ROOT
ATOM      1  C   UNL     1      62.876  70.448  31.581  1.00  0.00     0.063 C 
ATOM      2  C   UNL     1      63.382  70.988  32.876  1.00  0.00     0.038 C 
ATOM      3  O   UNL     1      64.468  70.567  33.355  1.00  0.00    -0.550 OA
ATOM      4  O   UNL     1      62.629  71.915  33.585  1.00  0.00    -0.550 OA
ENDROOT
TORSDOF 0
ENDMDL
MODEL 2
REMARK VINA RESULT:    -2.352      1.354      1.763
REMARK INTER + INTRA:          -2.352
REMARK INTER:                  -2.352
REMARK INTRA:                   0.000
REMARK UNBOUND:                 0.000
REMARK SMILES CC(=O)[O-]
REMARK SMILES IDX 1 1 2 2 3 3 4 4
REMARK H PARENT
REMARK Flexibility Score: inf
ROOT
ATOM      1  C   UNL     1      62.515  71.925  33.533  1.00  0.00     0.063 C 
ATOM      2  C   UNL     1      63.382  70.935  32.831  1.00  0.00     0.038 C 
ATOM      3  O   UNL     1      64.478  70.583  33.339  1.00  0.00    -0.550 OA
ATOM      4  O   UNL     1      63.007  70.440  31.588  1.00  0.00    -0.550 OA
ENDROOT
TORSDOF 0
ENDMDL
MODEL 3
REMARK VINA RESULT:    -2.133     14.987     15.383
REMARK INTER + INTRA:          -2.133
REMARK INTER:                  -2.133
REMARK INTRA:                   0.000
REMARK UNBOUND:                 0.000
REMARK SMILES CC(=O)[O-]
REMARK SMILES IDX 1 1 2 2 3 3 4 4
REMARK H PARENT
REMARK Flexibility Score: inf
ROOT
ATOM      1  C   UNL     1      64.944  67.767  48.740  1.00  0.00     0.063 C 
ATOM      2  C   UNL     1      63.914  68.350  47.832  1.00  0.00     0.038 C 
ATOM      3  O   UNL     1      62.802  68.718  48.291  1.00  0.00    -0.550 OA
ATOM      4  O   UNL     1      64.160  68.436  46.467  1.00  0.00    -0.550 OA
ENDROOT
TORSDOF 0
ENDMDL
MODEL 4
REMARK VINA RESULT:    -2.096      2.425      2.643
REMARK INTER + INTRA:          -2.096
REMARK INTER:                  -2.096
REMARK INTRA:                   0.000
REMARK UNBOUND:                 0.000
REMARK SMILES CC(=O)[O-]
REMARK SMILES IDX 1 1 2 2 3 3 4 4
REMARK H PARENT
REMARK Flexibility Score: inf
ROOT
ATOM      1  C   UNL     1      63.247  70.898  32.446  1.00  0.00     0.063 C 
ATOM      2  C   UNL     1      62.681  70.513  31.120  1.00  0.00     0.038 C 
ATOM      3  O   UNL     1      62.653  69.304  30.773  1.00  0.00    -0.550 OA
ATOM      4  O   UNL     1      62.234  71.494  30.243  1.00  0.00    -0.550 OA
ENDROOT
TORSDOF 0
ENDMDL
MODEL 5
REMARK VINA RESULT:    -2.077     16.156     16.741
REMARK INTER + INTRA:          -2.077
REMARK INTER:                  -2.077
REMARK INTRA:                   0.000
REMARK UNBOUND:                 0.000
REMARK SMILES CC(=O)[O-]
REMARK SMILES IDX 1 1 2 2 3 3 4 4
REMARK H PARENT
REMARK Flexibility Score: inf
ROOT
ATOM      1  C   UNL     1      57.886  74.819  49.123  1.00  0.00     0.063 C 
ATOM      2  C   UNL     1      57.917  73.602  48.262  1.00  0.00     0.038 C 
ATOM      3  O   UNL     1      57.494  73.655  47.078  1.00  0.00    -0.550 OA
ATOM      4  O   UNL     1      58.361  72.392  48.782  1.00  0.00    -0.550 OA
ENDROOT
TORSDOF 0
ENDMDL
MODEL 6
REMARK VINA RESULT:    -2.028     14.730     15.138
REMARK INTER + INTRA:          -2.028
REMARK INTER:                  -2.028
REMARK INTRA:                   0.000
REMARK UNBOUND:                 0.000
REMARK SMILES CC(=O)[O-]
REMARK SMILES IDX 1 1 2 2 3 3 4 4
REMARK H PARENT
REMARK Flexibility Score: inf
ROOT
ATOM      1  C   UNL     1      63.044  68.565  48.240  1.00  0.00     0.063 C 
ATOM      2  C   UNL     1      64.305  68.206  47.529  1.00  0.00     0.038 C 
ATOM      3  O   UNL     1      64.422  68.433  46.297  1.00  0.00    -0.550 OA
ATOM      4  O   UNL     1      65.332  67.568  48.214  1.00  0.00    -0.550 OA
ENDROOT
TORSDOF 0
ENDMDL
MODEL 7
REMARK VINA RESULT:    -1.896     14.418     14.953
REMARK INTER + INTRA:          -1.896
REMARK INTER:                  -1.896
REMARK INTRA:                   0.000
REMARK UNBOUND:                 0.000
REMARK SMILES CC(=O)[O-]
REMARK SMILES IDX 1 1 2 2 3 3 4 4
REMARK H PARENT
REMARK Flexibility Score: inf
ROOT
ATOM      1  C   UNL     1      55.096  84.996  32.483  1.00  0.00     0.063 C 
ATOM      2  C   UNL     1      55.979  83.823  32.223  1.00  0.00     0.038 C 
ATOM      3  O   UNL     1      56.952  83.928  31.433  1.00  0.00    -0.550 OA
ATOM      4  O   UNL     1      55.696  82.595  32.809  1.00  0.00    -0.550 OA
ENDROOT
TORSDOF 0
ENDMDL
MODEL 8
REMARK VINA RESULT:    -1.805     14.322     14.933
REMARK INTER + INTRA:          -1.805
REMARK INTER:                  -1.805
REMARK INTRA:                   0.000
REMARK UNBOUND:                 0.000
REMARK SMILES CC(=O)[O-]
REMARK SMILES IDX 1 1 2 2 3 3 4 4
REMARK H PARENT
REMARK Flexibility Score: inf
ROOT
ATOM      1  C   UNL     1      56.857  83.998  31.061  1.00  0.00     0.063 C 
ATOM      2  C   UNL     1      55.914  83.844  32.206  1.00  0.00     0.038 C 
ATOM      3  O   UNL     1      55.327  84.850  32.681  1.00  0.00    -0.550 OA
ATOM      4  O   UNL     1      55.723  82.596  32.787  1.00  0.00    -0.550 OA
ENDROOT
TORSDOF 0
ENDMDL
MODEL 9
REMARK VINA RESULT:    -1.719     13.935     14.509
REMARK INTER + INTRA:          -1.719
REMARK INTER:                  -1.719
REMARK INTRA:                   0.000
REMARK UNBOUND:                 0.000
REMARK SMILES CC(=O)[O-]
REMARK SMILES IDX 1 1 2 2 3 3 4 4
REMARK H PARENT
REMARK Flexibility Score: inf
ROOT
ATOM      1  C   UNL     1      56.140  83.723  32.548  1.00  0.00     0.063 C 
ATOM      2  C   UNL     1      55.058  82.732  32.282  1.00  0.00     0.038 C 
ATOM      3  O   UNL     1      55.279  81.501  32.430  1.00  0.00    -0.550 OA
ATOM      4  O   UNL     1      53.821  83.159  31.818  1.00  0.00    -0.550 OA
ENDROOT
TORSDOF 0
ENDMDL
