MODEL 1
REMARK VINA RESULT:    -4.679      0.000      0.000
REMARK INTER + INTRA:         -13.539
REMARK INTER:                 -10.150
REMARK INTRA:                  -3.389
REMARK UNBOUND:                -3.389
REMARK SMILES CCCCCCCCCCCCCCCCCCCCCC(=O)[O-]
REMARK SMILES IDX 12 1 11 2 10 3 9 4 8 5 7 6 6 7 5 8 4 9 3 10 2 11 1 12 13 13
REMARK SMILES IDX 14 14 15 15 16 16 17 17 18 18 19 19 20 20 21 21 22 22 23 23
REMARK SMILES IDX 24 24
REMARK H PARENT
REMARK Flexibility Score: inf
ROOT
ATOM      1  C   UNL     1      32.768   3.459  10.218  1.00  0.00     0.000 C 
ENDROOT
BRANCH   1   2
ATOM      2  C   UNL     1      32.067   2.342   9.414  1.00  0.00     0.000 C 
BRANCH   2   3
ATOM      3  C   UNL     1      32.045   2.639   7.904  1.00  0.00     0.000 C 
BRANCH   3   4
ATOM      4  C   UNL     1      31.905   4.138   7.585  1.00  0.00    -0.000 C 
BRANCH   4   5
ATOM      5  C   UNL     1      32.632   4.612   6.313  1.00  0.00    -0.000 C 
BRANCH   5   6
ATOM      6  C   UNL     1      33.877   5.463   6.612  1.00  0.00    -0.000 C 
BRANCH   6   7
ATOM      7  C   UNL     1      33.623   6.529   7.692  1.00  0.00    -0.000 C 
BRANCH   7   8
ATOM      8  C   UNL     1      34.650   6.499   8.844  1.00  0.00    -0.000 C 
BRANCH   8   9
ATOM      9  C   UNL     1      35.536   5.243   8.799  1.00  0.00    -0.000 C 
BRANCH   9  10
ATOM     10  C   UNL     1      36.510   5.216   9.985  1.00  0.00    -0.000 C 
BRANCH  10  11
ATOM     11  C   UNL     1      37.101   6.601  10.296  1.00  0.00    -0.003 C 
ATOM     12  C   UNL     1      38.409   6.522  11.081  1.00  0.00     0.004 C 
ENDBRANCH  10  11
ENDBRANCH   9  10
ENDBRANCH   8   9
ENDBRANCH   7   8
ENDBRANCH   6   7
ENDBRANCH   5   6
ENDBRANCH   4   5
ENDBRANCH   3   4
ENDBRANCH   2   3
ENDBRANCH   1   2
BRANCH   1  13
ATOM     13  C   UNL     1      33.780   2.940  11.254  1.00  0.00     0.000 C 
BRANCH  13  14
ATOM     14  C   UNL     1      33.134   2.037  12.316  1.00  0.00     0.000 C 
BRANCH  14  15
ATOM     15  C   UNL     1      33.302   2.577  13.747  1.00  0.00     0.000 C 
BRANCH  15  16
ATOM     16  C   UNL     1      33.320   4.114  13.877  1.00  0.00     0.000 C 
BRANCH  16  17
ATOM     17  C   UNL     1      34.678   4.723  14.268  1.00  0.00     0.000 C 
BRANCH  17  18
ATOM     18  C   UNL     1      35.089   5.893  13.363  1.00  0.00     0.000 C 
BRANCH  18  19
ATOM     19  C   UNL     1      33.914   6.345  12.485  1.00  0.00     0.000 C 
BRANCH  19  20
ATOM     20  C   UNL     1      34.013   7.824  12.067  1.00  0.00     0.006 C 
BRANCH  20  21
ATOM     21  C   UNL     1      32.742   8.378  11.403  1.00  0.00     0.053 C 
BRANCH  21  22
ATOM     22  C   UNL     1      31.880   9.123  12.375  1.00  0.00     0.041 C 
ATOM     23  O   UNL     1      31.732   8.692  13.550  1.00  0.00    -0.550 OA
ATOM     24  O   UNL     1      31.209  10.270  11.975  1.00  0.00    -0.550 OA
ENDBRANCH  21  22
ENDBRANCH  20  21
ENDBRANCH  19  20
ENDBRANCH  18  19
ENDBRANCH  17  18
ENDBRANCH  16  17
ENDBRANCH  15  16
ENDBRANCH  14  15
ENDBRANCH  13  14
ENDBRANCH   1  13
TORSDOF 20
ENDMDL
MODEL 2
REMARK VINA RESULT:    -4.675      2.899      5.176
REMARK INTER + INTRA:         -13.531
REMARK INTER:                 -10.759
REMARK INTRA:                  -2.772
REMARK UNBOUND:                -3.389
REMARK SMILES CCCCCCCCCCCCCCCCCCCCCC(=O)[O-]
REMARK SMILES IDX 12 1 11 2 10 3 9 4 8 5 7 6 6 7 5 8 4 9 3 10 2 11 1 12 13 13
REMARK SMILES IDX 14 14 15 15 16 16 17 17 18 18 19 19 20 20 21 21 22 22 23 23
REMARK SMILES IDX 24 24
REMARK H PARENT
REMARK Flexibility Score: inf
ROOT
ATOM      1  C   UNL     1      33.497   4.410  13.635  1.00  0.00     0.000 C 
ENDROOT
BRANCH   1   2
ATOM      2  C   UNL     1      32.044   4.868  13.387  1.00  0.00     0.000 C 
BRANCH   2   3
ATOM      3  C   UNL     1      31.869   5.527  12.006  1.00  0.00     0.000 C 
BRANCH   3   4
ATOM      4  C   UNL     1      31.051   6.830  12.057  1.00  0.00    -0.000 C 
BRANCH   4   5
ATOM      5  C   UNL     1      31.826   8.078  12.517  1.00  0.00    -0.000 C 
BRANCH   5   6
ATOM      6  C   UNL     1      32.953   8.477  11.551  1.00  0.00    -0.000 C 
BRANCH   6   7
ATOM      7  C   UNL     1      34.353   8.170  12.112  1.00  0.00    -0.000 C 
BRANCH   7   8
ATOM      8  C   UNL     1      35.314   7.556  11.072  1.00  0.00    -0.000 C 
BRANCH   8   9
ATOM      9  C   UNL     1      35.898   6.214  11.543  1.00  0.00    -0.000 C 
BRANCH   9  10
ATOM     10  C   UNL     1      37.034   5.756  10.618  1.00  0.00    -0.000 C 
BRANCH  10  11
ATOM     11  C   UNL     1      38.119   6.830  10.436  1.00  0.00    -0.003 C 
ATOM     12  C   UNL     1      39.213   6.750  11.500  1.00  0.00     0.004 C 
ENDBRANCH  10  11
ENDBRANCH   9  10
ENDBRANCH   8   9
ENDBRANCH   7   8
ENDBRANCH   6   7
ENDBRANCH   5   6
ENDBRANCH   4   5
ENDBRANCH   3   4
ENDBRANCH   2   3
ENDBRANCH   1   2
BRANCH   1  13
ATOM     13  C   UNL     1      33.621   2.937  14.062  1.00  0.00     0.000 C 
BRANCH  13  14
ATOM     14  C   UNL     1      33.071   1.964  13.007  1.00  0.00     0.000 C 
BRANCH  14  15
ATOM     15  C   UNL     1      33.697   2.168  11.616  1.00  0.00     0.000 C 
BRANCH  15  16
ATOM     16  C   UNL     1      32.764   1.881  10.422  1.00  0.00     0.000 C 
BRANCH  16  17
ATOM     17  C   UNL     1      32.616   3.034   9.415  1.00  0.00     0.000 C 
BRANCH  17  18
ATOM     18  C   UNL     1      33.837   3.964   9.389  1.00  0.00     0.000 C 
BRANCH  18  19
ATOM     19  C   UNL     1      33.766   4.928   8.196  1.00  0.00     0.000 C 
BRANCH  19  20
ATOM     20  C   UNL     1      32.498   4.734   7.344  1.00  0.00     0.006 C 
BRANCH  20  21
ATOM     21  C   UNL     1      32.646   5.178   5.880  1.00  0.00     0.053 C 
BRANCH  21  22
ATOM     22  C   UNL     1      31.396   4.936   5.091  1.00  0.00     0.041 C 
ATOM     23  O   UNL     1      31.375   5.162   3.852  1.00  0.00    -0.550 OA
ATOM     24  O   UNL     1      30.243   4.499   5.729  1.00  0.00    -0.550 OA
ENDBRANCH  21  22
ENDBRANCH  20  21
ENDBRANCH  19  20
ENDBRANCH  18  19
ENDBRANCH  17  18
ENDBRANCH  16  17
ENDBRANCH  15  16
ENDBRANCH  14  15
ENDBRANCH  13  14
ENDBRANCH   1  13
TORSDOF 20
ENDMDL
MODEL 3
REMARK VINA RESULT:    -4.601      2.591      4.904
REMARK INTER + INTRA:         -13.369
REMARK INTER:                 -10.353
REMARK INTRA:                  -3.016
REMARK UNBOUND:                -3.389
REMARK SMILES CCCCCCCCCCCCCCCCCCCCCC(=O)[O-]
REMARK SMILES IDX 12 1 11 2 10 3 9 4 8 5 7 6 6 7 5 8 4 9 3 10 2 11 1 12 13 13
REMARK SMILES IDX 14 14 15 15 16 16 17 17 18 18 19 19 20 20 21 21 22 22 23 23
REMARK SMILES IDX 24 24
REMARK H PARENT
REMARK Flexibility Score: inf
ROOT
ATOM      1  C   UNL     1      32.993   2.027  13.136  1.00  0.00     0.000 C 
ENDROOT
BRANCH   1   2
ATOM      2  C   UNL     1      33.687   1.881  11.765  1.00  0.00     0.000 C 
BRANCH   2   3
ATOM      3  C   UNL     1      32.687   1.941  10.597  1.00  0.00     0.000 C 
BRANCH   3   4
ATOM      4  C   UNL     1      32.813   3.225   9.758  1.00  0.00    -0.000 C 
BRANCH   4   5
ATOM      5  C   UNL     1      34.156   3.966   9.884  1.00  0.00    -0.000 C 
BRANCH   5   6
ATOM      6  C   UNL     1      34.595   4.645   8.577  1.00  0.00    -0.000 C 
BRANCH   6   7
ATOM      7  C   UNL     1      33.501   5.547   7.979  1.00  0.00    -0.000 C 
BRANCH   7   8
ATOM      8  C   UNL     1      33.106   5.166   6.536  1.00  0.00    -0.000 C 
BRANCH   8   9
ATOM      9  C   UNL     1      31.724   4.496   6.470  1.00  0.00    -0.000 C 
BRANCH   9  10
ATOM     10  C   UNL     1      31.859   2.971   6.352  1.00  0.00    -0.000 C 
BRANCH  10  11
ATOM     11  C   UNL     1      31.174   2.412   5.095  1.00  0.00    -0.003 C 
ATOM     12  C   UNL     1      29.662   2.271   5.261  1.00  0.00     0.004 C 
ENDBRANCH  10  11
ENDBRANCH   9  10
ENDBRANCH   8   9
ENDBRANCH   7   8
ENDBRANCH   6   7
ENDBRANCH   5   6
ENDBRANCH   4   5
ENDBRANCH   3   4
ENDBRANCH   2   3
ENDBRANCH   1   2
BRANCH   1  13
ATOM     13  C   UNL     1      33.666   3.049  14.069  1.00  0.00     0.000 C 
BRANCH  13  14
ATOM     14  C   UNL     1      33.493   4.498  13.588  1.00  0.00     0.000 C 
BRANCH  14  15
ATOM     15  C   UNL     1      32.081   4.788  13.048  1.00  0.00     0.000 C 
BRANCH  15  16
ATOM     16  C   UNL     1      31.957   6.043  12.160  1.00  0.00     0.000 C 
BRANCH  16  17
ATOM     17  C   UNL     1      32.234   7.379  12.872  1.00  0.00     0.000 C 
BRANCH  17  18
ATOM     18  C   UNL     1      33.059   8.351  12.017  1.00  0.00     0.000 C 
BRANCH  18  19
ATOM     19  C   UNL     1      33.954   7.587  11.031  1.00  0.00     0.000 C 
BRANCH  19  20
ATOM     20  C   UNL     1      35.298   7.160  11.648  1.00  0.00     0.006 C 
BRANCH  20  21
ATOM     21  C   UNL     1      36.531   7.579  10.830  1.00  0.00     0.053 C 
BRANCH  21  22
ATOM     22  C   UNL     1      37.633   6.570  10.919  1.00  0.00     0.041 C 
ATOM     23  O   UNL     1      37.492   5.430  10.402  1.00  0.00    -0.550 OA
ATOM     24  O   UNL     1      38.801   6.872  11.607  1.00  0.00    -0.550 OA
ENDBRANCH  21  22
ENDBRANCH  20  21
ENDBRANCH  19  20
ENDBRANCH  18  19
ENDBRANCH  17  18
ENDBRANCH  16  17
ENDBRANCH  15  16
ENDBRANCH  14  15
ENDBRANCH  13  14
ENDBRANCH   1  13
TORSDOF 20
ENDMDL
MODEL 4
REMARK VINA RESULT:    -4.590      2.068      5.870
REMARK INTER + INTRA:         -13.346
REMARK INTER:                 -10.612
REMARK INTRA:                  -2.734
REMARK UNBOUND:                -3.389
REMARK SMILES CCCCCCCCCCCCCCCCCCCCCC(=O)[O-]
REMARK SMILES IDX 12 1 11 2 10 3 9 4 8 5 7 6 6 7 5 8 4 9 3 10 2 11 1 12 13 13
REMARK SMILES IDX 14 14 15 15 16 16 17 17 18 18 19 19 20 20 21 21 22 22 23 23
REMARK SMILES IDX 24 24
REMARK H PARENT
REMARK Flexibility Score: inf
ROOT
ATOM      1  C   UNL     1      32.622   3.145  10.245  1.00  0.00     0.000 C 
ENDROOT
BRANCH   1   2
ATOM      2  C   UNL     1      33.640   2.573  11.255  1.00  0.00     0.000 C 
BRANCH   2   3
ATOM      3  C   UNL     1      33.041   2.426  12.665  1.00  0.00     0.000 C 
BRANCH   3   4
ATOM      4  C   UNL     1      32.703   3.776  13.322  1.00  0.00    -0.000 C 
BRANCH   4   5
ATOM      5  C   UNL     1      33.905   4.551  13.893  1.00  0.00    -0.000 C 
BRANCH   5   6
ATOM      6  C   UNL     1      34.288   5.777  13.049  1.00  0.00    -0.000 C 
BRANCH   6   7
ATOM      7  C   UNL     1      33.195   6.169  12.040  1.00  0.00    -0.000 C 
BRANCH   7   8
ATOM      8  C   UNL     1      33.188   7.673  11.690  1.00  0.00    -0.000 C 
BRANCH   8   9
ATOM      9  C   UNL     1      32.510   8.519  12.780  1.00  0.00    -0.000 C 
BRANCH   9  10
ATOM     10  C   UNL     1      31.191   9.117  12.269  1.00  0.00    -0.000 C 
BRANCH  10  11
ATOM     11  C   UNL     1      31.312  10.611  11.930  1.00  0.00    -0.003 C 
ATOM     12  C   UNL     1      30.025  11.386  12.211  1.00  0.00     0.004 C 
ENDBRANCH  10  11
ENDBRANCH   9  10
ENDBRANCH   8   9
ENDBRANCH   7   8
ENDBRANCH   6   7
ENDBRANCH   5   6
ENDBRANCH   4   5
ENDBRANCH   3   4
ENDBRANCH   2   3
ENDBRANCH   1   2
BRANCH   1  13
ATOM     13  C   UNL     1      32.091   2.107   9.242  1.00  0.00     0.000 C 
BRANCH  13  14
ATOM     14  C   UNL     1      32.161   2.595   7.786  1.00  0.00     0.000 C 
BRANCH  14  15
ATOM     15  C   UNL     1      31.921   4.109   7.648  1.00  0.00     0.000 C 
BRANCH  15  16
ATOM     16  C   UNL     1      32.844   4.837   6.651  1.00  0.00     0.000 C 
BRANCH  16  17
ATOM     17  C   UNL     1      33.518   6.111   7.191  1.00  0.00     0.000 C 
BRANCH  17  18
ATOM     18  C   UNL     1      34.091   5.929   8.604  1.00  0.00     0.000 C 
BRANCH  18  19
ATOM     19  C   UNL     1      35.300   4.982   8.586  1.00  0.00     0.000 C 
BRANCH  19  20
ATOM     20  C   UNL     1      36.077   4.978   9.915  1.00  0.00     0.006 C 
BRANCH  20  21
ATOM     21  C   UNL     1      37.394   5.770   9.880  1.00  0.00     0.053 C 
BRANCH  21  22
ATOM     22  C   UNL     1      37.429   6.847  10.919  1.00  0.00     0.041 C 
ATOM     23  O   UNL     1      36.465   7.650  11.032  1.00  0.00    -0.550 OA
ATOM     24  O   UNL     1      38.541   6.991  11.737  1.00  0.00    -0.550 OA
ENDBRANCH  21  22
ENDBRANCH  20  21
ENDBRANCH  19  20
ENDBRANCH  18  19
ENDBRANCH  17  18
ENDBRANCH  16  17
ENDBRANCH  15  16
ENDBRANCH  14  15
ENDBRANCH  13  14
ENDBRANCH   1  13
TORSDOF 20
ENDMDL
MODEL 5
REMARK VINA RESULT:    -4.522      3.180      6.786
REMARK INTER + INTRA:         -13.198
REMARK INTER:                 -10.150
REMARK INTRA:                  -3.048
REMARK UNBOUND:                -3.389
REMARK SMILES CCCCCCCCCCCCCCCCCCCCCC(=O)[O-]
REMARK SMILES IDX 12 1 11 2 10 3 9 4 8 5 7 6 6 7 5 8 4 9 3 10 2 11 1 12 13 13
REMARK SMILES IDX 14 14 15 15 16 16 17 17 18 18 19 19 20 20 21 21 22 22 23 23
REMARK SMILES IDX 24 24
REMARK H PARENT
REMARK Flexibility Score: inf
ROOT
ATOM      1  C   UNL     1      34.709   7.580  10.323  1.00  0.00     0.000 C 
ENDROOT
BRANCH   1   2
ATOM      2  C   UNL     1      36.123   7.070  10.678  1.00  0.00     0.000 C 
BRANCH   2   3
ATOM      3  C   UNL     1      36.101   6.044  11.825  1.00  0.00     0.000 C 
BRANCH   3   4
ATOM      4  C   UNL     1      35.165   6.447  12.978  1.00  0.00    -0.000 C 
BRANCH   4   5
ATOM      5  C   UNL     1      34.681   5.290  13.871  1.00  0.00    -0.000 C 
BRANCH   5   6
ATOM      6  C   UNL     1      33.626   4.404  13.191  1.00  0.00    -0.000 C 
BRANCH   6   7
ATOM      7  C   UNL     1      32.224   5.039  13.196  1.00  0.00    -0.000 C 
BRANCH   7   8
ATOM      8  C   UNL     1      31.934   5.906  11.952  1.00  0.00    -0.000 C 
BRANCH   8   9
ATOM      9  C   UNL     1      31.191   7.204  12.310  1.00  0.00    -0.000 C 
BRANCH   9  10
ATOM     10  C   UNL     1      32.156   8.243  12.900  1.00  0.00    -0.000 C 
BRANCH  10  11
ATOM     11  C   UNL     1      32.203   9.540  12.077  1.00  0.00    -0.003 C 
ATOM     12  C   UNL     1      30.898  10.332  12.149  1.00  0.00     0.004 C 
ENDBRANCH  10  11
ENDBRANCH   9  10
ENDBRANCH   8   9
ENDBRANCH   7   8
ENDBRANCH   6   7
ENDBRANCH   5   6
ENDBRANCH   4   5
ENDBRANCH   3   4
ENDBRANCH   2   3
ENDBRANCH   1   2
BRANCH   1  13
ATOM     13  C   UNL     1      34.089   6.893   9.094  1.00  0.00     0.000 C 
BRANCH  13  14
ATOM     14  C   UNL     1      35.092   6.006   8.340  1.00  0.00     0.000 C 
BRANCH  14  15
ATOM     15  C   UNL     1      34.639   4.538   8.239  1.00  0.00     0.000 C 
BRANCH  15  16
ATOM     16  C   UNL     1      33.984   3.959   9.509  1.00  0.00     0.000 C 
BRANCH  16  17
ATOM     17  C   UNL     1      32.483   3.640   9.384  1.00  0.00     0.000 C 
BRANCH  17  18
ATOM     18  C   UNL     1      32.213   2.176   9.007  1.00  0.00     0.000 C 
BRANCH  18  19
ATOM     19  C   UNL     1      31.622   2.076   7.593  1.00  0.00     0.000 C 
BRANCH  19  20
ATOM     20  C   UNL     1      31.283   3.450   6.987  1.00  0.00     0.006 C 
BRANCH  20  21
ATOM     21  C   UNL     1      31.864   3.681   5.582  1.00  0.00     0.053 C 
BRANCH  21  22
ATOM     22  C   UNL     1      30.884   4.360   4.675  1.00  0.00     0.041 C 
ATOM     23  O   UNL     1      29.654   4.105   4.767  1.00  0.00    -0.550 OA
ATOM     24  O   UNL     1      31.331   5.244   3.703  1.00  0.00    -0.550 OA
ENDBRANCH  21  22
ENDBRANCH  20  21
ENDBRANCH  19  20
ENDBRANCH  18  19
ENDBRANCH  17  18
ENDBRANCH  16  17
ENDBRANCH  15  16
ENDBRANCH  14  15
ENDBRANCH  13  14
ENDBRANCH   1  13
TORSDOF 20
ENDMDL
MODEL 6
REMARK VINA RESULT:    -4.520      3.179      6.741
REMARK INTER + INTRA:         -13.194
REMARK INTER:                 -10.365
REMARK INTRA:                  -2.829
REMARK UNBOUND:                -3.389
REMARK SMILES CCCCCCCCCCCCCCCCCCCCCC(=O)[O-]
REMARK SMILES IDX 12 1 11 2 10 3 9 4 8 5 7 6 6 7 5 8 4 9 3 10 2 11 1 12 13 13
REMARK SMILES IDX 14 14 15 15 16 16 17 17 18 18 19 19 20 20 21 21 22 22 23 23
REMARK SMILES IDX 24 24
REMARK H PARENT
REMARK Flexibility Score: inf
ROOT
ATOM      1  C   UNL     1      36.136   6.255   9.920  1.00  0.00     0.000 C 
ENDROOT
BRANCH   1   2
ATOM      2  C   UNL     1      35.929   6.478  11.434  1.00  0.00     0.000 C 
BRANCH   2   3
ATOM      3  C   UNL     1      35.062   7.716  11.727  1.00  0.00     0.000 C 
BRANCH   3   4
ATOM      4  C   UNL     1      33.735   7.722  10.947  1.00  0.00    -0.000 C 
BRANCH   4   5
ATOM      5  C   UNL     1      32.461   7.703  11.811  1.00  0.00    -0.000 C 
BRANCH   5   6
ATOM      6  C   UNL     1      32.077   6.292  12.287  1.00  0.00    -0.000 C 
BRANCH   6   7
ATOM      7  C   UNL     1      32.593   5.187  11.349  1.00  0.00    -0.000 C 
BRANCH   7   8
ATOM      8  C   UNL     1      32.960   3.878  12.080  1.00  0.00    -0.000 C 
BRANCH   8   9
ATOM      9  C   UNL     1      32.736   3.978  13.597  1.00  0.00    -0.000 C 
BRANCH   9  10
ATOM     10  C   UNL     1      34.058   3.804  14.359  1.00  0.00    -0.000 C 
BRANCH  10  11
ATOM     11  C   UNL     1      34.846   5.117  14.482  1.00  0.00    -0.003 C 
ATOM     12  C   UNL     1      35.820   5.114  15.660  1.00  0.00     0.004 C 
ENDBRANCH  10  11
ENDBRANCH   9  10
ENDBRANCH   8   9
ENDBRANCH   7   8
ENDBRANCH   6   7
ENDBRANCH   5   6
ENDBRANCH   4   5
ENDBRANCH   3   4
ENDBRANCH   2   3
ENDBRANCH   1   2
BRANCH   1  13
ATOM     13  C   UNL     1      35.663   4.878   9.424  1.00  0.00     0.000 C 
BRANCH  13  14
ATOM     14  C   UNL     1      35.120   4.918   7.987  1.00  0.00     0.000 C 
BRANCH  14  15
ATOM     15  C   UNL     1      33.761   5.632   7.877  1.00  0.00     0.000 C 
BRANCH  15  16
ATOM     16  C   UNL     1      32.629   4.806   7.233  1.00  0.00     0.000 C 
BRANCH  16  17
ATOM     17  C   UNL     1      32.280   3.495   7.959  1.00  0.00     0.000 C 
BRANCH  17  18
ATOM     18  C   UNL     1      31.751   2.410   7.011  1.00  0.00     0.000 C 
BRANCH  18  19
ATOM     19  C   UNL     1      31.751   2.906   5.558  1.00  0.00     0.000 C 
BRANCH  19  20
ATOM     20  C   UNL     1      30.349   2.897   4.921  1.00  0.00     0.006 C 
BRANCH  20  21
ATOM     21  C   UNL     1      29.195   2.877   5.937  1.00  0.00     0.053 C 
BRANCH  21  22
ATOM     22  C   UNL     1      28.257   4.028   5.743  1.00  0.00     0.041 C 
ATOM     23  O   UNL     1      28.181   4.936   6.613  1.00  0.00    -0.550 OA
ATOM     24  O   UNL     1      27.439   4.079   4.623  1.00  0.00    -0.550 OA
ENDBRANCH  21  22
ENDBRANCH  20  21
ENDBRANCH  19  20
ENDBRANCH  18  19
ENDBRANCH  17  18
ENDBRANCH  16  17
ENDBRANCH  15  16
ENDBRANCH  14  15
ENDBRANCH  13  14
ENDBRANCH   1  13
TORSDOF 20
ENDMDL
MODEL 7
REMARK VINA RESULT:    -4.509      3.326      6.640
REMARK INTER + INTRA:         -13.171
REMARK INTER:                 -10.351
REMARK INTRA:                  -2.820
REMARK UNBOUND:                -3.389
REMARK SMILES CCCCCCCCCCCCCCCCCCCCCC(=O)[O-]
REMARK SMILES IDX 12 1 11 2 10 3 9 4 8 5 7 6 6 7 5 8 4 9 3 10 2 11 1 12 13 13
REMARK SMILES IDX 14 14 15 15 16 16 17 17 18 18 19 19 20 20 21 21 22 22 23 23
REMARK SMILES IDX 24 24
REMARK H PARENT
REMARK Flexibility Score: inf
ROOT
ATOM      1  C   UNL     1      34.793   4.126   9.541  1.00  0.00     0.000 C 
ENDROOT
BRANCH   1   2
ATOM      2  C   UNL     1      33.343   4.100  10.072  1.00  0.00     0.000 C 
BRANCH   2   3
ATOM      3  C   UNL     1      33.230   3.370  11.422  1.00  0.00     0.000 C 
BRANCH   3   4
ATOM      4  C   UNL     1      33.364   4.313  12.632  1.00  0.00    -0.000 C 
BRANCH   4   5
ATOM      5  C   UNL     1      32.095   5.105  12.995  1.00  0.00    -0.000 C 
BRANCH   5   6
ATOM      6  C   UNL     1      31.907   6.367  12.139  1.00  0.00    -0.000 C 
BRANCH   6   7
ATOM      7  C   UNL     1      32.326   7.652  12.875  1.00  0.00    -0.000 C 
BRANCH   7   8
ATOM      8  C   UNL     1      33.446   8.437  12.158  1.00  0.00    -0.000 C 
BRANCH   8   9
ATOM      9  C   UNL     1      34.181   7.579  11.115  1.00  0.00    -0.000 C 
BRANCH   9  10
ATOM     10  C   UNL     1      35.520   7.072  11.668  1.00  0.00    -0.000 C 
BRANCH  10  11
ATOM     11  C   UNL     1      36.700   7.378  10.733  1.00  0.00    -0.003 C 
ATOM     12  C   UNL     1      37.798   6.318  10.801  1.00  0.00     0.004 C 
ENDBRANCH  10  11
ENDBRANCH   9  10
ENDBRANCH   8   9
ENDBRANCH   7   8
ENDBRANCH   6   7
ENDBRANCH   5   6
ENDBRANCH   4   5
ENDBRANCH   3   4
ENDBRANCH   2   3
ENDBRANCH   1   2
BRANCH   1  13
ATOM     13  C   UNL     1      34.988   5.024   8.307  1.00  0.00     0.000 C 
BRANCH  13  14
ATOM     14  C   UNL     1      33.699   5.749   7.889  1.00  0.00     0.000 C 
BRANCH  14  15
ATOM     15  C   UNL     1      33.105   5.209   6.575  1.00  0.00     0.000 C 
BRANCH  15  16
ATOM     16  C   UNL     1      31.750   4.486   6.710  1.00  0.00     0.000 C 
BRANCH  16  17
ATOM     17  C   UNL     1      31.819   2.950   6.659  1.00  0.00     0.000 C 
BRANCH  17  18
ATOM     18  C   UNL     1      31.421   2.379   5.290  1.00  0.00     0.000 C 
BRANCH  18  19
ATOM     19  C   UNL     1      30.723   3.446   4.435  1.00  0.00     0.000 C 
BRANCH  19  20
ATOM     20  C   UNL     1      29.385   2.961   3.848  1.00  0.00     0.006 C 
BRANCH  20  21
ATOM     21  C   UNL     1      28.151   3.694   4.399  1.00  0.00     0.053 C 
BRANCH  21  22
ATOM     22  C   UNL     1      28.154   3.750   5.896  1.00  0.00     0.041 C 
ATOM     23  O   UNL     1      28.004   2.696   6.569  1.00  0.00    -0.550 OA
ATOM     24  O   UNL     1      28.283   4.969   6.547  1.00  0.00    -0.550 OA
ENDBRANCH  21  22
ENDBRANCH  20  21
ENDBRANCH  19  20
ENDBRANCH  18  19
ENDBRANCH  17  18
ENDBRANCH  16  17
ENDBRANCH  15  16
ENDBRANCH  14  15
ENDBRANCH  13  14
ENDBRANCH   1  13
TORSDOF 20
ENDMDL
MODEL 8
REMARK VINA RESULT:    -4.495      3.135      6.797
REMARK INTER + INTRA:         -13.139
REMARK INTER:                 -10.504
REMARK INTRA:                  -2.635
REMARK UNBOUND:                -3.389
REMARK SMILES CCCCCCCCCCCCCCCCCCCCCC(=O)[O-]
REMARK SMILES IDX 12 1 11 2 10 3 9 4 8 5 7 6 6 7 5 8 4 9 3 10 2 11 1 12 13 13
REMARK SMILES IDX 14 14 15 15 16 16 17 17 18 18 19 19 20 20 21 21 22 22 23 23
REMARK SMILES IDX 24 24
REMARK H PARENT
REMARK Flexibility Score: inf
ROOT
ATOM      1  C   UNL     1      32.366   4.194  11.854  1.00  0.00     0.000 C 
ENDROOT
BRANCH   1   2
ATOM      2  C   UNL     1      32.531   4.371  13.379  1.00  0.00     0.000 C 
BRANCH   2   3
ATOM      3  C   UNL     1      33.993   4.195  13.830  1.00  0.00     0.000 C 
BRANCH   3   4
ATOM      4  C   UNL     1      34.771   5.522  13.890  1.00  0.00    -0.000 C 
BRANCH   4   5
ATOM      5  C   UNL     1      35.480   5.931  12.587  1.00  0.00    -0.000 C 
BRANCH   5   6
ATOM      6  C   UNL     1      35.254   7.405  12.214  1.00  0.00    -0.000 C 
BRANCH   6   7
ATOM      7  C   UNL     1      34.632   7.575  10.817  1.00  0.00    -0.000 C 
BRANCH   7   8
ATOM      8  C   UNL     1      33.155   8.025  10.849  1.00  0.00    -0.000 C 
BRANCH   8   9
ATOM      9  C   UNL     1      32.556   7.951  12.263  1.00  0.00    -0.000 C 
BRANCH   9  10
ATOM     10  C   UNL     1      31.316   8.848  12.381  1.00  0.00    -0.000 C 
BRANCH  10  11
ATOM     11  C   UNL     1      31.583  10.290  11.920  1.00  0.00    -0.003 C 
ATOM     12  C   UNL     1      30.419  11.232  12.224  1.00  0.00     0.004 C 
ENDBRANCH  10  11
ENDBRANCH   9  10
ENDBRANCH   8   9
ENDBRANCH   7   8
ENDBRANCH   6   7
ENDBRANCH   5   6
ENDBRANCH   4   5
ENDBRANCH   3   4
ENDBRANCH   2   3
ENDBRANCH   1   2
BRANCH   1  13
ATOM     13  C   UNL     1      33.323   3.159  11.239  1.00  0.00     0.000 C 
BRANCH  13  14
ATOM     14  C   UNL     1      33.966   3.647   9.931  1.00  0.00     0.000 C 
BRANCH  14  15
ATOM     15  C   UNL     1      33.066   4.615   9.143  1.00  0.00     0.000 C 
BRANCH  15  16
ATOM     16  C   UNL     1      33.783   5.462   8.072  1.00  0.00     0.000 C 
BRANCH  16  17
ATOM     17  C   UNL     1      33.203   5.351   6.652  1.00  0.00     0.000 C 
BRANCH  17  18
ATOM     18  C   UNL     1      32.021   4.375   6.565  1.00  0.00     0.000 C 
BRANCH  18  19
ATOM     19  C   UNL     1      31.624   4.125   5.103  1.00  0.00     0.000 C 
BRANCH  19  20
ATOM     20  C   UNL     1      30.755   2.866   4.925  1.00  0.00     0.006 C 
BRANCH  20  21
ATOM     21  C   UNL     1      29.621   2.731   5.954  1.00  0.00     0.053 C 
BRANCH  21  22
ATOM     22  C   UNL     1      28.549   3.755   5.745  1.00  0.00     0.041 C 
ATOM     23  O   UNL     1      27.748   3.646   4.779  1.00  0.00    -0.550 OA
ATOM     24  O   UNL     1      28.458   4.851   6.592  1.00  0.00    -0.550 OA
ENDBRANCH  21  22
ENDBRANCH  20  21
ENDBRANCH  19  20
ENDBRANCH  18  19
ENDBRANCH  17  18
ENDBRANCH  16  17
ENDBRANCH  15  16
ENDBRANCH  14  15
ENDBRANCH  13  14
ENDBRANCH   1  13
TORSDOF 20
ENDMDL
MODEL 9
REMARK VINA RESULT:    -4.479      3.411      7.091
REMARK INTER + INTRA:         -13.105
REMARK INTER:                  -9.910
REMARK INTRA:                  -3.195
REMARK UNBOUND:                -3.389
REMARK SMILES CCCCCCCCCCCCCCCCCCCCCC(=O)[O-]
REMARK SMILES IDX 12 1 11 2 10 3 9 4 8 5 7 6 6 7 5 8 4 9 3 10 2 11 1 12 13 13
REMARK SMILES IDX 14 14 15 15 16 16 17 17 18 18 19 19 20 20 21 21 22 22 23 23
REMARK SMILES IDX 24 24
REMARK H PARENT
REMARK Flexibility Score: inf
ROOT
ATOM      1  C   UNL     1      34.749   5.792   8.231  1.00  0.00     0.000 C 
ENDROOT
BRANCH   1   2
ATOM      2  C   UNL     1      35.491   4.590   8.857  1.00  0.00     0.000 C 
BRANCH   2   3
ATOM      3  C   UNL     1      36.416   5.015  10.012  1.00  0.00     0.000 C 
BRANCH   3   4
ATOM      4  C   UNL     1      36.232   6.487  10.424  1.00  0.00    -0.000 C 
BRANCH   4   5
ATOM      5  C   UNL     1      35.627   6.710  11.821  1.00  0.00    -0.000 C 
BRANCH   5   6
ATOM      6  C   UNL     1      34.579   7.833  11.853  1.00  0.00    -0.000 C 
BRANCH   6   7
ATOM      7  C   UNL     1      33.233   7.407  11.241  1.00  0.00    -0.000 C 
BRANCH   7   8
ATOM      8  C   UNL     1      32.127   7.161  12.290  1.00  0.00    -0.000 C 
BRANCH   8   9
ATOM      9  C   UNL     1      31.640   5.703  12.288  1.00  0.00    -0.000 C 
BRANCH   9  10
ATOM     10  C   UNL     1      32.507   4.836  11.363  1.00  0.00    -0.000 C 
BRANCH  10  11
ATOM     11  C   UNL     1      33.215   3.697  12.112  1.00  0.00    -0.003 C 
ATOM     12  C   UNL     1      33.365   2.435  11.263  1.00  0.00     0.004 C 
ENDBRANCH  10  11
ENDBRANCH   9  10
ENDBRANCH   8   9
ENDBRANCH   7   8
ENDBRANCH   6   7
ENDBRANCH   5   6
ENDBRANCH   4   5
ENDBRANCH   3   4
ENDBRANCH   2   3
ENDBRANCH   1   2
BRANCH   1  13
ATOM     13  C   UNL     1      33.369   5.437   7.652  1.00  0.00     0.000 C 
BRANCH  13  14
ATOM     14  C   UNL     1      32.921   4.012   8.011  1.00  0.00     0.000 C 
BRANCH  14  15
ATOM     15  C   UNL     1      31.552   3.643   7.413  1.00  0.00     0.000 C 
BRANCH  15  16
ATOM     16  C   UNL     1      31.511   2.323   6.617  1.00  0.00     0.000 C 
BRANCH  16  17
ATOM     17  C   UNL     1      31.416   2.482   5.089  1.00  0.00     0.000 C 
BRANCH  17  18
ATOM     18  C   UNL     1      31.398   3.951   4.642  1.00  0.00     0.000 C 
BRANCH  18  19
ATOM     19  C   UNL     1      30.248   4.209   3.658  1.00  0.00     0.000 C 
BRANCH  19  20
ATOM     20  C   UNL     1      29.090   3.206   3.814  1.00  0.00     0.006 C 
BRANCH  20  21
ATOM     21  C   UNL     1      27.833   3.790   4.480  1.00  0.00     0.053 C 
BRANCH  21  22
ATOM     22  C   UNL     1      27.941   3.794   5.974  1.00  0.00     0.041 C 
ATOM     23  O   UNL     1      28.035   2.708   6.605  1.00  0.00    -0.550 OA
ATOM     24  O   UNL     1      27.899   4.993   6.672  1.00  0.00    -0.550 OA
ENDBRANCH  21  22
ENDBRANCH  20  21
ENDBRANCH  19  20
ENDBRANCH  18  19
ENDBRANCH  17  18
ENDBRANCH  16  17
ENDBRANCH  15  16
ENDBRANCH  14  15
ENDBRANCH  13  14
ENDBRANCH   1  13
TORSDOF 20
ENDMDL
