MODEL 1
REMARK VINA RESULT:    -5.559      0.000      0.000
REMARK INTER + INTRA:          -5.979
REMARK INTER:                  -5.884
REMARK INTRA:                  -0.095
REMARK UNBOUND:                -0.095
REMARK SMILES C=C(C)[C@H]1CC=C(C)C(=O)C1
REMARK SMILES IDX 8 1 7 2 6 3 5 4 4 5 11 6 9 7 10 8 2 9 1 10 3 11
REMARK H PARENT
REMARK Flexibility Score: inf
ROOT
ATOM      1  C   UNL     1     139.508 141.143 118.175  1.00  0.00     0.048 C 
ATOM      2  C   UNL     1     140.495 141.210 117.043  1.00  0.00    -0.012 C 
ATOM      3  C   UNL     1     141.448 140.270 116.919  1.00  0.00    -0.019 C 
ATOM      4  C   UNL     1     142.506 140.339 115.851  1.00  0.00     0.036 C 
ATOM      5  C   UNL     1     141.978 141.046 114.588  1.00  0.00     0.025 C 
ATOM      6  C   UNL     1     141.418 142.435 114.948  1.00  0.00     0.089 C 
ATOM      7  C   UNL     1     140.429 142.334 116.076  1.00  0.00     0.158 C 
ATOM      8  O   UNL     1     139.567 143.243 116.220  1.00  0.00    -0.295 OA
ENDROOT
BRANCH   5   9
ATOM      9  C   UNL     1     143.043 141.132 113.504  1.00  0.00    -0.077 C 
ATOM     10  C   UNL     1     142.758 141.604 112.278  1.00  0.00     0.008 C 
ATOM     11  C   UNL     1     144.453 140.685 113.793  1.00  0.00     0.039 C 
ENDBRANCH   5   9
TORSDOF 1
ENDMDL
MODEL 2
REMARK VINA RESULT:    -5.553      8.660      9.812
REMARK INTER + INTRA:          -5.973
REMARK INTER:                  -5.877
REMARK INTRA:                  -0.096
REMARK UNBOUND:                -0.095
REMARK SMILES C=C(C)[C@H]1CC=C(C)C(=O)C1
REMARK SMILES IDX 8 1 7 2 6 3 5 4 4 5 11 6 9 7 10 8 2 9 1 10 3 11
REMARK H PARENT
REMARK Flexibility Score: inf
ROOT
ATOM      1  C   UNL     1     136.918 135.367 118.216  1.00  0.00     0.048 C 
ATOM      2  C   UNL     1     135.929 135.316 117.085  1.00  0.00    -0.012 C 
ATOM      3  C   UNL     1     134.962 136.245 116.991  1.00  0.00    -0.019 C 
ATOM      4  C   UNL     1     133.901 136.190 115.923  1.00  0.00     0.036 C 
ATOM      5  C   UNL     1     134.437 135.527 114.640  1.00  0.00     0.025 C 
ATOM      6  C   UNL     1     135.018 134.136 114.959  1.00  0.00     0.089 C 
ATOM      7  C   UNL     1     136.009 134.221 116.087  1.00  0.00     0.158 C 
ATOM      8  O   UNL     1     136.886 133.322 116.203  1.00  0.00    -0.295 OA
ENDROOT
BRANCH   5   9
ATOM      9  C   UNL     1     133.369 135.454 113.557  1.00  0.00    -0.077 C 
ATOM     10  C   UNL     1     132.090 135.779 113.811  1.00  0.00     0.008 C 
ATOM     11  C   UNL     1     133.735 135.012 112.163  1.00  0.00     0.039 C 
ENDBRANCH   5   9
TORSDOF 1
ENDMDL
MODEL 3
REMARK VINA RESULT:    -5.540      0.100      1.049
REMARK INTER + INTRA:          -5.960
REMARK INTER:                  -5.863
REMARK INTRA:                  -0.096
REMARK UNBOUND:                -0.095
REMARK SMILES C=C(C)[C@H]1CC=C(C)C(=O)C1
REMARK SMILES IDX 8 1 7 2 6 3 5 4 4 5 11 6 9 7 10 8 2 9 1 10 3 11
REMARK H PARENT
REMARK Flexibility Score: inf
ROOT
ATOM      1  C   UNL     1     139.501 141.112 118.200  1.00  0.00     0.048 C 
ATOM      2  C   UNL     1     140.498 141.169 117.076  1.00  0.00    -0.012 C 
ATOM      3  C   UNL     1     141.481 140.255 116.998  1.00  0.00    -0.019 C 
ATOM      4  C   UNL     1     142.549 140.317 115.939  1.00  0.00     0.036 C 
ATOM      5  C   UNL     1     142.014 140.960 114.645  1.00  0.00     0.025 C 
ATOM      6  C   UNL     1     141.408 142.344 114.947  1.00  0.00     0.089 C 
ATOM      7  C   UNL     1     140.410 142.253 116.068  1.00  0.00     0.158 C 
ATOM      8  O   UNL     1     139.518 143.140 116.169  1.00  0.00    -0.295 OA
ENDROOT
BRANCH   5   9
ATOM      9  C   UNL     1     143.088 141.040 113.570  1.00  0.00    -0.077 C 
ATOM     10  C   UNL     1     144.364 140.702 113.828  1.00  0.00     0.008 C 
ATOM     11  C   UNL     1     142.735 141.505 112.181  1.00  0.00     0.039 C 
ENDBRANCH   5   9
TORSDOF 1
ENDMDL
MODEL 4
REMARK VINA RESULT:    -5.466      8.712     10.191
REMARK INTER + INTRA:          -5.881
REMARK INTER:                  -5.786
REMARK INTRA:                  -0.095
REMARK UNBOUND:                -0.095
REMARK SMILES C=C(C)[C@H]1CC=C(C)C(=O)C1
REMARK SMILES IDX 8 1 7 2 6 3 5 4 4 5 11 6 9 7 10 8 2 9 1 10 3 11
REMARK H PARENT
REMARK Flexibility Score: inf
ROOT
ATOM      1  C   UNL     1     133.111 134.619 113.154  1.00  0.00     0.048 C 
ATOM      2  C   UNL     1     133.892 134.901 114.407  1.00  0.00    -0.012 C 
ATOM      3  C   UNL     1     133.710 136.055 115.072  1.00  0.00    -0.019 C 
ATOM      4  C   UNL     1     134.525 136.417 116.285  1.00  0.00     0.036 C 
ATOM      5  C   UNL     1     134.953 135.158 117.064  1.00  0.00     0.025 C 
ATOM      6  C   UNL     1     135.693 134.179 116.133  1.00  0.00     0.089 C 
ATOM      7  C   UNL     1     134.884 133.911 114.894  1.00  0.00     0.158 C 
ATOM      8  O   UNL     1     135.091 132.850 114.243  1.00  0.00    -0.295 OA
ENDROOT
BRANCH   5   9
ATOM      9  C   UNL     1     135.789 135.511 118.286  1.00  0.00    -0.077 C 
ATOM     10  C   UNL     1     137.126 135.371 118.285  1.00  0.00     0.008 C 
ATOM     11  C   UNL     1     135.121 136.030 119.534  1.00  0.00     0.039 C 
ENDBRANCH   5   9
TORSDOF 1
ENDMDL
MODEL 5
REMARK VINA RESULT:    -5.381      8.515      9.217
REMARK INTER + INTRA:          -5.790
REMARK INTER:                  -5.694
REMARK INTRA:                  -0.096
REMARK UNBOUND:                -0.095
REMARK SMILES C=C(C)[C@H]1CC=C(C)C(=O)C1
REMARK SMILES IDX 8 1 7 2 6 3 5 4 4 5 11 6 9 7 10 8 2 9 1 10 3 11
REMARK H PARENT
REMARK Flexibility Score: inf
ROOT
ATOM      1  C   UNL     1     136.501 135.553 118.803  1.00  0.00     0.048 C 
ATOM      2  C   UNL     1     136.073 135.373 117.373  1.00  0.00    -0.012 C 
ATOM      3  C   UNL     1     136.797 134.603 116.543  1.00  0.00    -0.019 C 
ATOM      4  C   UNL     1     136.454 134.456 115.084  1.00  0.00     0.036 C 
ATOM      5  C   UNL     1     134.937 134.595 114.853  1.00  0.00     0.025 C 
ATOM      6  C   UNL     1     134.425 135.922 115.444  1.00  0.00     0.089 C 
ATOM      7  C   UNL     1     134.861 136.069 116.875  1.00  0.00     0.158 C 
ATOM      8  O   UNL     1     134.210 136.831 117.640  1.00  0.00    -0.295 OA
ENDROOT
BRANCH   5   9
ATOM      9  C   UNL     1     134.578 134.460 113.379  1.00  0.00    -0.077 C 
ATOM     10  C   UNL     1     135.520 134.233 112.447  1.00  0.00     0.008 C 
ATOM     11  C   UNL     1     133.143 134.581 112.936  1.00  0.00     0.039 C 
ENDBRANCH   5   9
TORSDOF 1
ENDMDL
MODEL 6
REMARK VINA RESULT:    -5.367      1.270      4.194
REMARK INTER + INTRA:          -5.776
REMARK INTER:                  -5.680
REMARK INTRA:                  -0.096
REMARK UNBOUND:                -0.095
REMARK SMILES C=C(C)[C@H]1CC=C(C)C(=O)C1
REMARK SMILES IDX 8 1 7 2 6 3 5 4 4 5 11 6 9 7 10 8 2 9 1 10 3 11
REMARK H PARENT
REMARK Flexibility Score: inf
ROOT
ATOM      1  C   UNL     1     143.103 142.088 113.111  1.00  0.00     0.048 C 
ATOM      2  C   UNL     1     142.401 141.740 114.395  1.00  0.00    -0.012 C 
ATOM      3  C   UNL     1     142.757 140.642 115.083  1.00  0.00    -0.019 C 
ATOM      4  C   UNL     1     142.032 140.208 116.329  1.00  0.00     0.036 C 
ATOM      5  C   UNL     1     141.455 141.419 117.088  1.00  0.00     0.025 C 
ATOM      6  C   UNL     1     140.564 142.260 116.154  1.00  0.00     0.089 C 
ATOM      7  C   UNL     1     141.296 142.599 114.885  1.00  0.00     0.158 C 
ATOM      8  O   UNL     1     140.929 143.602 114.214  1.00  0.00    -0.295 OA
ENDROOT
BRANCH   5   9
ATOM      9  C   UNL     1     140.708 140.993 118.344  1.00  0.00    -0.077 C 
ATOM     10  C   UNL     1     139.372 141.109 118.437  1.00  0.00     0.008 C 
ATOM     11  C   UNL     1     141.465 140.426 119.518  1.00  0.00     0.039 C 
ENDBRANCH   5   9
TORSDOF 1
ENDMDL
MODEL 7
REMARK VINA RESULT:    -5.365      9.679     10.384
REMARK INTER + INTRA:          -5.773
REMARK INTER:                  -5.681
REMARK INTRA:                  -0.093
REMARK UNBOUND:                -0.095
REMARK SMILES C=C(C)[C@H]1CC=C(C)C(=O)C1
REMARK SMILES IDX 8 1 7 2 6 3 5 4 4 5 11 6 9 7 10 8 2 9 1 10 3 11
REMARK H PARENT
REMARK Flexibility Score: inf
ROOT
ATOM      1  C   UNL     1     137.052 132.537 115.671  1.00  0.00     0.048 C 
ATOM      2  C   UNL     1     136.042 133.485 115.087  1.00  0.00    -0.012 C 
ATOM      3  C   UNL     1     135.869 133.552 113.756  1.00  0.00    -0.019 C 
ATOM      4  C   UNL     1     134.928 134.541 113.120  1.00  0.00     0.036 C 
ATOM      5  C   UNL     1     133.742 134.858 114.050  1.00  0.00     0.025 C 
ATOM      6  C   UNL     1     134.252 135.336 115.423  1.00  0.00     0.089 C 
ATOM      7  C   UNL     1     135.253 134.365 115.984  1.00  0.00     0.158 C 
ATOM      8  O   UNL     1     135.450 134.337 117.230  1.00  0.00    -0.295 OA
ENDROOT
BRANCH   5   9
ATOM      9  C   UNL     1     132.789 135.866 113.423  1.00  0.00    -0.077 C 
ATOM     10  C   UNL     1     131.491 135.913 113.770  1.00  0.00     0.008 C 
ATOM     11  C   UNL     1     133.293 136.842 112.390  1.00  0.00     0.039 C 
ENDBRANCH   5   9
TORSDOF 1
ENDMDL
MODEL 8
REMARK VINA RESULT:    -5.332      1.517      2.556
REMARK INTER + INTRA:          -5.739
REMARK INTER:                  -5.647
REMARK INTRA:                  -0.092
REMARK UNBOUND:                -0.095
REMARK SMILES C=C(C)[C@H]1CC=C(C)C(=O)C1
REMARK SMILES IDX 8 1 7 2 6 3 5 4 4 5 11 6 9 7 10 8 2 9 1 10 3 11
REMARK H PARENT
REMARK Flexibility Score: inf
ROOT
ATOM      1  C   UNL     1     139.434 143.942 115.726  1.00  0.00     0.048 C 
ATOM      2  C   UNL     1     140.443 143.000 115.129  1.00  0.00    -0.012 C 
ATOM      3  C   UNL     1     140.657 142.992 113.802  1.00  0.00    -0.019 C 
ATOM      4  C   UNL     1     141.597 142.014 113.149  1.00  0.00     0.036 C 
ATOM      5  C   UNL     1     142.746 141.627 114.099  1.00  0.00     0.025 C 
ATOM      6  C   UNL     1     142.183 141.097 115.431  1.00  0.00     0.089 C 
ATOM      7  C   UNL     1     141.184 142.062 116.007  1.00  0.00     0.158 C 
ATOM      8  O   UNL     1     140.948 142.035 117.246  1.00  0.00    -0.295 OA
ENDROOT
BRANCH   5   9
ATOM      9  C   UNL     1     143.697 140.628 113.454  1.00  0.00    -0.077 C 
ATOM     10  C   UNL     1     144.993 140.566 113.808  1.00  0.00     0.008 C 
ATOM     11  C   UNL     1     143.194 139.681 112.395  1.00  0.00     0.039 C 
ENDBRANCH   5   9
TORSDOF 1
ENDMDL
MODEL 9
REMARK VINA RESULT:    -5.329      1.640      2.206
REMARK INTER + INTRA:          -5.735
REMARK INTER:                  -5.639
REMARK INTRA:                  -0.096
REMARK UNBOUND:                -0.095
REMARK SMILES C=C(C)[C@H]1CC=C(C)C(=O)C1
REMARK SMILES IDX 8 1 7 2 6 3 5 4 4 5 11 6 9 7 10 8 2 9 1 10 3 11
REMARK H PARENT
REMARK Flexibility Score: inf
ROOT
ATOM      1  C   UNL     1     139.612 140.995 118.683  1.00  0.00     0.048 C 
ATOM      2  C   UNL     1     140.204 141.131 117.308  1.00  0.00    -0.012 C 
ATOM      3  C   UNL     1     139.528 141.778 116.342  1.00  0.00    -0.019 C 
ATOM      4  C   UNL     1     140.044 141.871 114.931  1.00  0.00     0.036 C 
ATOM      5  C   UNL     1     141.584 141.867 114.899  1.00  0.00     0.025 C 
ATOM      6  C   UNL     1     142.131 140.632 115.641  1.00  0.00     0.089 C 
ATOM      7  C   UNL     1     141.527 140.528 117.014  1.00  0.00     0.158 C 
ATOM      8  O   UNL     1     142.139 139.879 117.906  1.00  0.00    -0.295 OA
ENDROOT
BRANCH   5   9
ATOM      9  C   UNL     1     142.117 141.948 113.475  1.00  0.00    -0.077 C 
ATOM     10  C   UNL     1     141.303 142.203 112.436  1.00  0.00     0.008 C 
ATOM     11  C   UNL     1     143.586 141.743 113.205  1.00  0.00     0.039 C 
ENDBRANCH   5   9
TORSDOF 1
ENDMDL
