MODEL 1
REMARK VINA RESULT:    -7.379      0.000      0.000
REMARK INTER + INTRA:          -8.805
REMARK INTER:                  -8.673
REMARK INTRA:                  -0.131
REMARK UNBOUND:                -0.131
REMARK SMILES O=c1c(O)c(-c2ccc(O)c(O)c2)oc2cc(O)ccc12
REMARK SMILES IDX 5 1 3 2 2 3 1 4 21 5 15 6 14 7 16 8 17 9 19 10 20 11 6 12
REMARK SMILES IDX 7 13 8 14 9 15 13 16 11 17 10 18 12 20 4 22 18 24
REMARK H PARENT 10 19 12 21 4 23 18 25
REMARK Flexibility Score: inf
ROOT
ATOM      1  C   UNL     1      82.544   2.052  -0.186  1.00  0.00     0.180 A 
ATOM      2  C   UNL     1      83.414   1.260   0.590  1.00  0.00     0.208 A 
ATOM      3  C   UNL     1      84.799   1.445   0.453  1.00  0.00     0.235 A 
ATOM      4  O   UNL     1      85.600   0.741   1.129  1.00  0.00    -0.285 OA
ATOM      5  C   UNL     1      85.281   2.422  -0.432  1.00  0.00     0.069 A 
ATOM      6  C   UNL     1      84.343   3.191  -1.154  1.00  0.00     0.142 A 
ATOM      7  O   UNL     1      83.041   2.978  -1.002  1.00  0.00    -0.452 OA
ATOM      8  C   UNL     1      84.783   4.181  -2.039  1.00  0.00     0.094 A 
ATOM      9  C   UNL     1      86.155   4.414  -2.212  1.00  0.00     0.119 A 
ATOM     10  C   UNL     1      87.085   3.652  -1.498  1.00  0.00     0.047 A 
ATOM     11  C   UNL     1      86.655   2.660  -0.611  1.00  0.00     0.020 A 
ENDROOT
BRANCH   1  12
ATOM     12  C   UNL     1      81.072   1.904  -0.113  1.00  0.00     0.025 A 
ATOM     13  C   UNL     1      80.283   3.015   0.219  1.00  0.00     0.016 A 
ATOM     14  C   UNL     1      78.893   2.902   0.274  1.00  0.00     0.051 A 
ATOM     15  C   UNL     1      78.262   1.686  -0.015  1.00  0.00     0.157 A 
ATOM     16  C   UNL     1      80.441   0.688  -0.425  1.00  0.00     0.062 A 
ATOM     17  C   UNL     1      79.047   0.566  -0.376  1.00  0.00     0.158 A 
BRANCH  15  18
ATOM     18  O   UNL     1      76.868   1.639   0.067  1.00  0.00    -0.504 OA
ATOM     19  H   UNL     1      76.335   0.783   0.098  1.00  0.00     0.293 HD
ENDBRANCH  15  18
BRANCH  17  20
ATOM     20  O   UNL     1      78.488  -0.673  -0.697  1.00  0.00    -0.504 OA
ATOM     21  H   UNL     1      79.030  -1.502  -0.895  1.00  0.00     0.293 HD
ENDBRANCH  17  20
ENDBRANCH   1  12
BRANCH   2  22
ATOM     22  O   UNL     1      82.905   0.328   1.499  1.00  0.00    -0.502 OA
ATOM     23  H   UNL     1      82.905  -0.667   1.312  1.00  0.00     0.293 HD
ENDBRANCH   2  22
BRANCH   9  24
ATOM     24  O   UNL     1      86.602   5.397  -3.092  1.00  0.00    -0.508 OA
ATOM     25  H   UNL     1      86.636   6.374  -2.823  1.00  0.00     0.293 HD
ENDBRANCH   9  24
TORSDOF 5
ENDMDL
MODEL 2
REMARK VINA RESULT:    -6.940      1.371      3.190
REMARK INTER + INTRA:          -8.288
REMARK INTER:                  -8.152
REMARK INTRA:                  -0.136
REMARK UNBOUND:                -0.131
REMARK SMILES O=c1c(O)c(-c2ccc(O)c(O)c2)oc2cc(O)ccc12
REMARK SMILES IDX 5 1 3 2 2 3 1 4 21 5 15 6 14 7 16 8 17 9 19 10 20 11 6 12
REMARK SMILES IDX 7 13 8 14 9 15 13 16 11 17 10 18 12 20 4 22 18 24
REMARK H PARENT 10 19 12 21 4 23 18 25
REMARK Flexibility Score: inf
ROOT
ATOM      1  C   UNL     1      82.321   1.869   0.037  1.00  0.00     0.180 A 
ATOM      2  C   UNL     1      83.010   2.750  -0.821  1.00  0.00     0.208 A 
ATOM      3  C   UNL     1      84.411   2.806  -0.749  1.00  0.00     0.235 A 
ATOM      4  O   UNL     1      85.051   3.595  -1.499  1.00  0.00    -0.285 OA
ATOM      5  C   UNL     1      85.090   1.973   0.155  1.00  0.00     0.069 A 
ATOM      6  C   UNL     1      84.328   1.101   0.962  1.00  0.00     0.142 A 
ATOM      7  O   UNL     1      83.003   1.085   0.869  1.00  0.00    -0.452 OA
ATOM      8  C   UNL     1      84.968   0.248   1.868  1.00  0.00     0.094 A 
ATOM      9  C   UNL     1      86.366   0.257   1.978  1.00  0.00     0.119 A 
ATOM     10  C   UNL     1      87.122   1.121   1.181  1.00  0.00     0.047 A 
ATOM     11  C   UNL     1      86.492   1.977   0.272  1.00  0.00     0.020 A 
ENDROOT
BRANCH   1  12
ATOM     12  C   UNL     1      80.844   1.766   0.035  1.00  0.00     0.025 A 
ATOM     13  C   UNL     1      80.074   2.887   0.373  1.00  0.00     0.016 A 
ATOM     14  C   UNL     1      78.680   2.817   0.359  1.00  0.00     0.051 A 
ATOM     15  C   UNL     1      78.027   1.634  -0.007  1.00  0.00     0.157 A 
ATOM     16  C   UNL     1      80.193   0.583  -0.354  1.00  0.00     0.062 A 
ATOM     17  C   UNL     1      78.795   0.504  -0.375  1.00  0.00     0.158 A 
BRANCH  15  18
ATOM     18  O   UNL     1      76.631   1.628   0.006  1.00  0.00    -0.504 OA
ATOM     19  H   UNL     1      76.075   1.763   0.838  1.00  0.00     0.293 HD
ENDBRANCH  15  18
BRANCH  17  20
ATOM     20  O   UNL     1      78.215  -0.703  -0.771  1.00  0.00    -0.504 OA
ATOM     21  H   UNL     1      77.870  -1.402  -0.128  1.00  0.00     0.293 HD
ENDBRANCH  17  20
ENDBRANCH   1  12
BRANCH   2  22
ATOM     22  O   UNL     1      82.312   3.532  -1.744  1.00  0.00    -0.502 OA
ATOM     23  H   UNL     1      82.656   4.428  -2.066  1.00  0.00     0.293 HD
ENDBRANCH   2  22
BRANCH   9  24
ATOM     24  O   UNL     1      87.011  -0.588   2.879  1.00  0.00    -0.508 OA
ATOM     25  H   UNL     1      87.522  -1.405   2.567  1.00  0.00     0.293 HD
ENDBRANCH   9  24
TORSDOF 5
ENDMDL
MODEL 3
REMARK VINA RESULT:    -6.464      7.509      8.837
REMARK INTER + INTRA:          -7.729
REMARK INTER:                  -7.554
REMARK INTRA:                  -0.175
REMARK UNBOUND:                -0.131
REMARK SMILES O=c1c(O)c(-c2ccc(O)c(O)c2)oc2cc(O)ccc12
REMARK SMILES IDX 5 1 3 2 2 3 1 4 21 5 15 6 14 7 16 8 17 9 19 10 20 11 6 12
REMARK SMILES IDX 7 13 8 14 9 15 13 16 11 17 10 18 12 20 4 22 18 24
REMARK H PARENT 10 19 12 21 4 23 18 25
REMARK Flexibility Score: inf
ROOT
ATOM      1  C   UNL     1      84.705  -1.093  -7.316  1.00  0.00     0.180 A 
ATOM      2  C   UNL     1      83.851  -0.753  -8.385  1.00  0.00     0.208 A 
ATOM      3  C   UNL     1      83.754   0.594  -8.769  1.00  0.00     0.235 A 
ATOM      4  O   UNL     1      82.988   0.927  -9.716  1.00  0.00    -0.285 OA
ATOM      5  C   UNL     1      84.520   1.561  -8.098  1.00  0.00     0.069 A 
ATOM      6  C   UNL     1      85.369   1.134  -7.054  1.00  0.00     0.142 A 
ATOM      7  O   UNL     1      85.425  -0.149  -6.716  1.00  0.00    -0.452 OA
ATOM      8  C   UNL     1      86.156   2.066  -6.368  1.00  0.00     0.094 A 
ATOM      9  C   UNL     1      86.103   3.424  -6.712  1.00  0.00     0.119 A 
ATOM     10  C   UNL     1      85.261   3.848  -7.745  1.00  0.00     0.047 A 
ATOM     11  C   UNL     1      84.471   2.925  -8.437  1.00  0.00     0.020 A 
ENDROOT
BRANCH   1  12
ATOM     12  C   UNL     1      84.848  -2.488  -6.840  1.00  0.00     0.025 A 
ATOM     13  C   UNL     1      86.104  -3.110  -6.894  1.00  0.00     0.016 A 
ATOM     14  C   UNL     1      86.265  -4.417  -6.432  1.00  0.00     0.051 A 
ATOM     15  C   UNL     1      85.183  -5.123  -5.893  1.00  0.00     0.157 A 
ATOM     16  C   UNL     1      83.765  -3.185  -6.278  1.00  0.00     0.062 A 
ATOM     17  C   UNL     1      83.918  -4.496  -5.808  1.00  0.00     0.158 A 
BRANCH  15  18
ATOM     18  O   UNL     1      85.410  -6.430  -5.455  1.00  0.00    -0.504 OA
ATOM     19  H   UNL     1      86.017  -6.669  -4.685  1.00  0.00     0.293 HD
ENDBRANCH  15  18
BRANCH  17  20
ATOM     20  O   UNL     1      82.798  -5.129  -5.265  1.00  0.00    -0.504 OA
ATOM     21  H   UNL     1      81.845  -4.892  -5.501  1.00  0.00     0.293 HD
ENDBRANCH  17  20
ENDBRANCH   1  12
BRANCH   2  22
ATOM     22  O   UNL     1      83.138  -1.742  -9.066  1.00  0.00    -0.502 OA
ATOM     23  H   UNL     1      82.522  -1.530  -9.841  1.00  0.00     0.293 HD
ENDBRANCH   2  22
BRANCH   9  24
ATOM     24  O   UNL     1      86.882   4.358  -6.033  1.00  0.00    -0.508 OA
ATOM     25  H   UNL     1      87.291   4.151  -5.129  1.00  0.00     0.293 HD
ENDBRANCH   9  24
TORSDOF 5
ENDMDL
MODEL 4
REMARK VINA RESULT:    -6.128      7.126      9.738
REMARK INTER + INTRA:          -7.334
REMARK INTER:                  -7.547
REMARK INTRA:                   0.214
REMARK UNBOUND:                -0.131
REMARK SMILES O=c1c(O)c(-c2ccc(O)c(O)c2)oc2cc(O)ccc12
REMARK SMILES IDX 5 1 3 2 2 3 1 4 21 5 15 6 14 7 16 8 17 9 19 10 20 11 6 12
REMARK SMILES IDX 7 13 8 14 9 15 13 16 11 17 10 18 12 20 4 22 18 24
REMARK H PARENT 10 19 12 21 4 23 18 25
REMARK Flexibility Score: inf
ROOT
ATOM      1  C   UNL     1      84.602   1.059  -7.456  1.00  0.00     0.180 A 
ATOM      2  C   UNL     1      83.529   1.135  -8.366  1.00  0.00     0.208 A 
ATOM      3  C   UNL     1      82.992  -0.056  -8.880  1.00  0.00     0.235 A 
ATOM      4  O   UNL     1      82.038  -0.014  -9.705  1.00  0.00    -0.285 OA
ATOM      5  C   UNL     1      83.519  -1.288  -8.461  1.00  0.00     0.069 A 
ATOM      6  C   UNL     1      84.578  -1.279  -7.527  1.00  0.00     0.142 A 
ATOM      7  O   UNL     1      85.063  -0.130  -7.073  1.00  0.00    -0.452 OA
ATOM      8  C   UNL     1      85.124  -2.487  -7.079  1.00  0.00     0.094 A 
ATOM      9  C   UNL     1      84.624  -3.708  -7.554  1.00  0.00     0.119 A 
ATOM     10  C   UNL     1      83.576  -3.717  -8.480  1.00  0.00     0.047 A 
ATOM     11  C   UNL     1      83.023  -2.516  -8.934  1.00  0.00     0.020 A 
ENDROOT
BRANCH   1  12
ATOM     12  C   UNL     1      85.235   2.269  -6.884  1.00  0.00     0.025 A 
ATOM     13  C   UNL     1      85.801   2.212  -5.602  1.00  0.00     0.016 A 
ATOM     14  C   UNL     1      86.420   3.336  -5.053  1.00  0.00     0.051 A 
ATOM     15  C   UNL     1      86.500   4.533  -5.774  1.00  0.00     0.157 A 
ATOM     16  C   UNL     1      85.333   3.462  -7.620  1.00  0.00     0.062 A 
ATOM     17  C   UNL     1      85.955   4.594  -7.078  1.00  0.00     0.158 A 
BRANCH  15  18
ATOM     18  O   UNL     1      87.125   5.622  -5.164  1.00  0.00    -0.504 OA
ATOM     19  H   UNL     1      86.645   6.296  -4.585  1.00  0.00     0.293 HD
ENDBRANCH  15  18
BRANCH  17  20
ATOM     20  O   UNL     1      86.014   5.746  -7.866  1.00  0.00    -0.504 OA
ATOM     21  H   UNL     1      86.021   5.740  -8.876  1.00  0.00     0.293 HD
ENDBRANCH  17  20
ENDBRANCH   1  12
BRANCH   2  22
ATOM     22  O   UNL     1      82.992   2.374  -8.728  1.00  0.00    -0.502 OA
ATOM     23  H   UNL     1      82.168   2.758  -8.282  1.00  0.00     0.293 HD
ENDBRANCH   2  22
BRANCH   9  24
ATOM     24  O   UNL     1      85.163  -4.914  -7.112  1.00  0.00    -0.508 OA
ATOM     25  H   UNL     1      85.581  -5.004  -6.193  1.00  0.00     0.293 HD
ENDBRANCH   9  24
TORSDOF 5
ENDMDL
MODEL 5
REMARK VINA RESULT:    -6.072      8.520      9.761
REMARK INTER + INTRA:          -7.268
REMARK INTER:                  -6.949
REMARK INTRA:                  -0.319
REMARK UNBOUND:                -0.131
REMARK SMILES O=c1c(O)c(-c2ccc(O)c(O)c2)oc2cc(O)ccc12
REMARK SMILES IDX 5 1 3 2 2 3 1 4 21 5 15 6 14 7 16 8 17 9 19 10 20 11 6 12
REMARK SMILES IDX 7 13 8 14 9 15 13 16 11 17 10 18 12 20 4 22 18 24
REMARK H PARENT 10 19 12 21 4 23 18 25
REMARK Flexibility Score: inf
ROOT
ATOM      1  C   UNL     1      84.548  -3.216  -6.996  1.00  0.00     0.180 A 
ATOM      2  C   UNL     1      83.783  -3.764  -8.046  1.00  0.00     0.208 A 
ATOM      3  C   UNL     1      83.292  -2.907  -9.043  1.00  0.00     0.235 A 
ATOM      4  O   UNL     1      82.595  -3.371  -9.987  1.00  0.00    -0.285 OA
ATOM      5  C   UNL     1      83.590  -1.536  -8.983  1.00  0.00     0.069 A 
ATOM      6  C   UNL     1      84.383  -1.070  -7.912  1.00  0.00     0.142 A 
ATOM      7  O   UNL     1      84.820  -1.913  -6.984  1.00  0.00    -0.452 OA
ATOM      8  C   UNL     1      84.709   0.287  -7.822  1.00  0.00     0.094 A 
ATOM      9  C   UNL     1      84.251   1.189  -8.793  1.00  0.00     0.119 A 
ATOM     10  C   UNL     1      83.464   0.729  -9.853  1.00  0.00     0.047 A 
ATOM     11  C   UNL     1      83.132  -0.625  -9.952  1.00  0.00     0.020 A 
ENDROOT
BRANCH   1  12
ATOM     12  C   UNL     1      85.086  -4.051  -5.897  1.00  0.00     0.025 A 
ATOM     13  C   UNL     1      86.410  -4.507  -5.961  1.00  0.00     0.016 A 
ATOM     14  C   UNL     1      86.942  -5.278  -4.927  1.00  0.00     0.051 A 
ATOM     15  C   UNL     1      86.171  -5.598  -3.803  1.00  0.00     0.157 A 
ATOM     16  C   UNL     1      84.316  -4.351  -4.760  1.00  0.00     0.062 A 
ATOM     17  C   UNL     1      84.842  -5.121  -3.716  1.00  0.00     0.158 A 
BRANCH  15  18
ATOM     18  O   UNL     1      86.762  -6.379  -2.808  1.00  0.00    -0.504 OA
ATOM     19  H   UNL     1      86.342  -7.212  -2.423  1.00  0.00     0.293 HD
ENDBRANCH  15  18
BRANCH  17  20
ATOM     20  O   UNL     1      84.020  -5.382  -2.618  1.00  0.00    -0.504 OA
ATOM     21  H   UNL     1      83.159  -4.888  -2.428  1.00  0.00     0.293 HD
ENDBRANCH  17  20
ENDBRANCH   1  12
BRANCH   2  22
ATOM     22  O   UNL     1      83.543  -5.139  -8.106  1.00  0.00    -0.502 OA
ATOM     23  H   UNL     1      84.266  -5.805  -8.348  1.00  0.00     0.293 HD
ENDBRANCH   2  22
BRANCH   9  24
ATOM     24  O   UNL     1      84.571   2.543  -8.710  1.00  0.00    -0.508 OA
ATOM     25  H   UNL     1      85.176   2.901  -7.981  1.00  0.00     0.293 HD
ENDBRANCH   9  24
TORSDOF 5
ENDMDL
MODEL 6
REMARK VINA RESULT:    -5.887      6.687      8.269
REMARK INTER + INTRA:          -7.050
REMARK INTER:                  -7.036
REMARK INTRA:                  -0.015
REMARK UNBOUND:                -0.131
REMARK SMILES O=c1c(O)c(-c2ccc(O)c(O)c2)oc2cc(O)ccc12
REMARK SMILES IDX 5 1 3 2 2 3 1 4 21 5 15 6 14 7 16 8 17 9 19 10 20 11 6 12
REMARK SMILES IDX 7 13 8 14 9 15 13 16 11 17 10 18 12 20 4 22 18 24
REMARK H PARENT 10 19 12 21 4 23 18 25
REMARK Flexibility Score: inf
ROOT
ATOM      1  C   UNL     1      85.461   2.094   6.635  1.00  0.00     0.180 A 
ATOM      2  C   UNL     1      85.978   0.923   7.226  1.00  0.00     0.208 A 
ATOM      3  C   UNL     1      86.502  -0.079   6.394  1.00  0.00     0.235 A 
ATOM      4  O   UNL     1      86.960  -1.142   6.898  1.00  0.00    -0.285 OA
ATOM      5  C   UNL     1      86.518   0.116   5.003  1.00  0.00     0.069 A 
ATOM      6  C   UNL     1      86.003   1.327   4.493  1.00  0.00     0.142 A 
ATOM      7  O   UNL     1      85.508   2.246   5.314  1.00  0.00    -0.452 OA
ATOM      8  C   UNL     1      86.010   1.563   3.113  1.00  0.00     0.094 A 
ATOM      9  C   UNL     1      86.526   0.599   2.235  1.00  0.00     0.119 A 
ATOM     10  C   UNL     1      87.035  -0.601   2.740  1.00  0.00     0.047 A 
ATOM     11  C   UNL     1      87.032  -0.847   4.117  1.00  0.00     0.020 A 
ENDROOT
BRANCH   1  12
ATOM     12  C   UNL     1      84.875   3.188   7.442  1.00  0.00     0.025 A 
ATOM     13  C   UNL     1      85.253   4.514   7.186  1.00  0.00     0.016 A 
ATOM     14  C   UNL     1      84.698   5.562   7.922  1.00  0.00     0.051 A 
ATOM     15  C   UNL     1      83.744   5.311   8.916  1.00  0.00     0.157 A 
ATOM     16  C   UNL     1      83.901   2.935   8.423  1.00  0.00     0.062 A 
ATOM     17  C   UNL     1      83.335   3.980   9.165  1.00  0.00     0.158 A 
BRANCH  15  18
ATOM     18  O   UNL     1      83.234   6.403   9.621  1.00  0.00    -0.504 OA
ATOM     19  H   UNL     1      83.490   7.362   9.437  1.00  0.00     0.293 HD
ENDBRANCH  15  18
BRANCH  17  20
ATOM     20  O   UNL     1      82.375   3.654  10.124  1.00  0.00    -0.504 OA
ATOM     21  H   UNL     1      82.308   4.097  11.029  1.00  0.00     0.293 HD
ENDBRANCH  17  20
ENDBRANCH   1  12
BRANCH   2  22
ATOM     22  O   UNL     1      85.993   0.777   8.615  1.00  0.00    -0.502 OA
ATOM     23  H   UNL     1      85.518   0.017   9.086  1.00  0.00     0.293 HD
ENDBRANCH   2  22
BRANCH   9  24
ATOM     24  O   UNL     1      86.536   0.827   0.861  1.00  0.00    -0.508 OA
ATOM     25  H   UNL     1      85.680   0.835   0.318  1.00  0.00     0.293 HD
ENDBRANCH   9  24
TORSDOF 5
ENDMDL
MODEL 7
REMARK VINA RESULT:    -5.636      6.366      7.961
REMARK INTER + INTRA:          -6.756
REMARK INTER:                  -6.542
REMARK INTRA:                  -0.214
REMARK UNBOUND:                -0.131
REMARK SMILES O=c1c(O)c(-c2ccc(O)c(O)c2)oc2cc(O)ccc12
REMARK SMILES IDX 5 1 3 2 2 3 1 4 21 5 15 6 14 7 16 8 17 9 19 10 20 11 6 12
REMARK SMILES IDX 7 13 8 14 9 15 13 16 11 17 10 18 12 20 4 22 18 24
REMARK H PARENT 10 19 12 21 4 23 18 25
REMARK Flexibility Score: inf
ROOT
ATOM      1  C   UNL     1      85.134   0.599  -6.814  1.00  0.00     0.180 A 
ATOM      2  C   UNL     1      85.171   1.661  -7.739  1.00  0.00     0.208 A 
ATOM      3  C   UNL     1      85.586   2.928  -7.298  1.00  0.00     0.235 A 
ATOM      4  O   UNL     1      85.619   3.898  -8.104  1.00  0.00    -0.285 OA
ATOM      5  C   UNL     1      85.971   3.101  -5.958  1.00  0.00     0.069 A 
ATOM      6  C   UNL     1      85.928   1.980  -5.101  1.00  0.00     0.142 A 
ATOM      7  O   UNL     1      85.521   0.801  -5.556  1.00  0.00    -0.452 OA
ATOM      8  C   UNL     1      86.313   2.109  -3.762  1.00  0.00     0.094 A 
ATOM      9  C   UNL     1      86.741   3.349  -3.267  1.00  0.00     0.119 A 
ATOM     10  C   UNL     1      86.783   4.460  -4.115  1.00  0.00     0.047 A 
ATOM     11  C   UNL     1      86.401   4.341  -5.455  1.00  0.00     0.020 A 
ENDROOT
BRANCH   1  12
ATOM     12  C   UNL     1      84.690  -0.761  -7.197  1.00  0.00     0.025 A 
ATOM     13  C   UNL     1      85.603  -1.824  -7.146  1.00  0.00     0.016 A 
ATOM     14  C   UNL     1      85.200  -3.117  -7.484  1.00  0.00     0.051 A 
ATOM     15  C   UNL     1      83.879  -3.378  -7.864  1.00  0.00     0.157 A 
ATOM     16  C   UNL     1      83.357  -1.023  -7.555  1.00  0.00     0.062 A 
ATOM     17  C   UNL     1      82.943  -2.318  -7.893  1.00  0.00     0.158 A 
BRANCH  15  18
ATOM     18  O   UNL     1      83.543  -4.693  -8.197  1.00  0.00    -0.504 OA
ATOM     19  H   UNL     1      83.215  -4.976  -9.108  1.00  0.00     0.293 HD
ENDBRANCH  15  18
BRANCH  17  20
ATOM     20  O   UNL     1      81.604  -2.505  -8.241  1.00  0.00    -0.504 OA
ATOM     21  H   UNL     1      81.275  -2.600  -9.192  1.00  0.00     0.293 HD
ENDBRANCH  17  20
ENDBRANCH   1  12
BRANCH   2  22
ATOM     22  O   UNL     1      84.829   1.449  -9.077  1.00  0.00    -0.502 OA
ATOM     23  H   UNL     1      85.107   0.617  -9.582  1.00  0.00     0.293 HD
ENDBRANCH   2  22
BRANCH   9  24
ATOM     24  O   UNL     1      87.125   3.486  -1.935  1.00  0.00    -0.508 OA
ATOM     25  H   UNL     1      87.690   2.785  -1.471  1.00  0.00     0.293 HD
ENDBRANCH   9  24
TORSDOF 5
ENDMDL
MODEL 8
REMARK VINA RESULT:    -5.059      8.131      9.308
REMARK INTER + INTRA:          -6.078
REMARK INTER:                  -6.569
REMARK INTRA:                   0.492
REMARK UNBOUND:                -0.131
REMARK SMILES O=c1c(O)c(-c2ccc(O)c(O)c2)oc2cc(O)ccc12
REMARK SMILES IDX 5 1 3 2 2 3 1 4 21 5 15 6 14 7 16 8 17 9 19 10 20 11 6 12
REMARK SMILES IDX 7 13 8 14 9 15 13 16 11 17 10 18 12 20 4 22 18 24
REMARK H PARENT 10 19 12 21 4 23 18 25
REMARK Flexibility Score: inf
ROOT
ATOM      1  C   UNL     1      84.251  -2.130  -7.266  1.00  0.00     0.180 A 
ATOM      2  C   UNL     1      83.070  -1.779  -7.952  1.00  0.00     0.208 A 
ATOM      3  C   UNL     1      82.921  -0.461  -8.411  1.00  0.00     0.235 A 
ATOM      4  O   UNL     1      81.869  -0.118  -9.017  1.00  0.00    -0.285 OA
ATOM      5  C   UNL     1      83.954   0.466  -8.195  1.00  0.00     0.069 A 
ATOM      6  C   UNL     1      85.115   0.029  -7.522  1.00  0.00     0.142 A 
ATOM      7  O   UNL     1      85.212  -1.225  -7.096  1.00  0.00    -0.452 OA
ATOM      8  C   UNL     1      86.170   0.919  -7.297  1.00  0.00     0.094 A 
ATOM      9  C   UNL     1      86.079   2.248  -7.738  1.00  0.00     0.119 A 
ATOM     10  C   UNL     1      84.929   2.682  -8.403  1.00  0.00     0.047 A 
ATOM     11  C   UNL     1      83.869   1.800  -8.634  1.00  0.00     0.020 A 
ENDROOT
BRANCH   1  12
ATOM     12  C   UNL     1      84.475  -3.494  -6.736  1.00  0.00     0.025 A 
ATOM     13  C   UNL     1      83.660  -4.548  -7.174  1.00  0.00     0.016 A 
ATOM     14  C   UNL     1      83.867  -5.844  -6.701  1.00  0.00     0.051 A 
ATOM     15  C   UNL     1      84.899  -6.119  -5.796  1.00  0.00     0.157 A 
ATOM     16  C   UNL     1      85.526  -3.770  -5.844  1.00  0.00     0.062 A 
ATOM     17  C   UNL     1      85.743  -5.069  -5.367  1.00  0.00     0.158 A 
BRANCH  15  18
ATOM     18  O   UNL     1      85.047  -7.437  -5.356  1.00  0.00    -0.504 OA
ATOM     19  H   UNL     1      84.563  -7.822  -4.559  1.00  0.00     0.293 HD
ENDBRANCH  15  18
BRANCH  17  20
ATOM     20  O   UNL     1      86.805  -5.269  -4.482  1.00  0.00    -0.504 OA
ATOM     21  H   UNL     1      87.778  -5.173  -4.736  1.00  0.00     0.293 HD
ENDBRANCH  17  20
ENDBRANCH   1  12
BRANCH   2  22
ATOM     22  O   UNL     1      82.080  -2.735  -8.194  1.00  0.00    -0.502 OA
ATOM     23  H   UNL     1      81.805  -3.419  -7.500  1.00  0.00     0.293 HD
ENDBRANCH   2  22
BRANCH   9  24
ATOM     24  O   UNL     1      87.125   3.141  -7.516  1.00  0.00    -0.508 OA
ATOM     25  H   UNL     1      87.601   3.190  -6.623  1.00  0.00     0.293 HD
ENDBRANCH   9  24
TORSDOF 5
ENDMDL
MODEL 9
REMARK VINA RESULT:    -4.836      5.218      7.376
REMARK INTER + INTRA:          -5.815
REMARK INTER:                  -5.816
REMARK INTRA:                   0.001
REMARK UNBOUND:                -0.131
REMARK SMILES O=c1c(O)c(-c2ccc(O)c(O)c2)oc2cc(O)ccc12
REMARK SMILES IDX 5 1 3 2 2 3 1 4 21 5 15 6 14 7 16 8 17 9 19 10 20 11 6 12
REMARK SMILES IDX 7 13 8 14 9 15 13 16 11 17 10 18 12 20 4 22 18 24
REMARK H PARENT 10 19 12 21 4 23 18 25
REMARK Flexibility Score: inf
ROOT
ATOM      1  C   UNL     1      86.005   2.487  -5.148  1.00  0.00     0.180 A 
ATOM      2  C   UNL     1      86.351   3.838  -5.354  1.00  0.00     0.208 A 
ATOM      3  C   UNL     1      86.714   4.619  -4.245  1.00  0.00     0.235 A 
ATOM      4  O   UNL     1      87.018   5.834  -4.401  1.00  0.00    -0.285 OA
ATOM      5  C   UNL     1      86.743   4.035  -2.969  1.00  0.00     0.069 A 
ATOM      6  C   UNL     1      86.406   2.669  -2.851  1.00  0.00     0.142 A 
ATOM      7  O   UNL     1      86.059   1.968  -3.924  1.00  0.00    -0.452 OA
ATOM      8  C   UNL     1      86.432   2.048  -1.597  1.00  0.00     0.094 A 
ATOM      9  C   UNL     1      86.792   2.778  -0.455  1.00  0.00     0.119 A 
ATOM     10  C   UNL     1      87.125   4.131  -0.571  1.00  0.00     0.047 A 
ATOM     11  C   UNL     1      87.102   4.761  -1.819  1.00  0.00     0.020 A 
ENDROOT
BRANCH   1  12
ATOM     12  C   UNL     1      85.593   1.603  -6.263  1.00  0.00     0.025 A 
ATOM     13  C   UNL     1      86.139   0.316  -6.360  1.00  0.00     0.016 A 
ATOM     14  C   UNL     1      85.750  -0.540  -7.392  1.00  0.00     0.051 A 
ATOM     15  C   UNL     1      84.799  -0.136  -8.336  1.00  0.00     0.157 A 
ATOM     16  C   UNL     1      84.622   2.005  -7.196  1.00  0.00     0.062 A 
ATOM     17  C   UNL     1      84.223   1.152  -8.233  1.00  0.00     0.158 A 
BRANCH  15  18
ATOM     18  O   UNL     1      84.460  -1.037  -9.348  1.00  0.00    -0.504 OA
ATOM     19  H   UNL     1      85.127  -1.622  -9.829  1.00  0.00     0.293 HD
ENDBRANCH  15  18
BRANCH  17  20
ATOM     20  O   UNL     1      83.255   1.618  -9.125  1.00  0.00    -0.504 OA
ATOM     21  H   UNL     1      82.348   1.962  -8.845  1.00  0.00     0.293 HD
ENDBRANCH  17  20
ENDBRANCH   1  12
BRANCH   2  22
ATOM     22  O   UNL     1      86.361   4.380  -6.642  1.00  0.00    -0.502 OA
ATOM     23  H   UNL     1      86.439   3.805  -7.471  1.00  0.00     0.293 HD
ENDBRANCH   2  22
BRANCH   9  24
ATOM     24  O   UNL     1      86.819   2.167   0.796  1.00  0.00    -0.508 OA
ATOM     25  H   UNL     1      87.642   1.680   1.131  1.00  0.00     0.293 HD
ENDBRANCH   9  24
TORSDOF 5
ENDMDL
