MODEL 1
REMARK VINA RESULT:    -7.157      0.000      0.000
REMARK INTER + INTRA:         -10.317
REMARK INTER:                  -9.667
REMARK INTRA:                  -0.650
REMARK UNBOUND:                -0.650
REMARK SMILES COc1ccc(-c2cc(=O)c3c(OC)c(OC)c(OC)cc3o2)cc1OC
REMARK SMILES IDX 7 1 8 2 9 3 10 4 11 5 12 6 15 7 18 8 21 9 22 10 23 11 6 12
REMARK SMILES IDX 3 13 25 14 4 15 24 16 5 17 2 18 1 19 26 20 27 21 13 22 14 23
REMARK SMILES IDX 19 24 20 25 16 26 17 27
REMARK H PARENT
REMARK Flexibility Score: inf
ROOT
ATOM      1  C   UNL     1     167.113 146.060 149.252  1.00  0.00     0.138 A 
ATOM      2  C   UNL     1     168.470 146.023 148.895  1.00  0.00     0.100 A 
ATOM      3  C   UNL     1     169.093 147.188 148.445  1.00  0.00     0.197 A 
ATOM      4  O   UNL     1     170.321 147.150 148.164  1.00  0.00    -0.289 OA
ATOM      5  C   UNL     1     168.348 148.382 148.338  1.00  0.00     0.111 A 
ATOM      6  C   UNL     1     168.892 149.600 147.856  1.00  0.00     0.179 A 
ATOM      7  C   UNL     1     168.112 150.784 147.896  1.00  0.00     0.204 A 
ATOM      8  C   UNL     1     166.770 150.722 148.301  1.00  0.00     0.168 A 
ATOM      9  C   UNL     1     166.218 149.499 148.712  1.00  0.00     0.098 A 
ATOM     10  C   UNL     1     166.997 148.344 148.748  1.00  0.00     0.146 A 
ATOM     11  O   UNL     1     166.448 147.210 149.173  1.00  0.00    -0.456 OA
ENDROOT
BRANCH   1  12
ATOM     12  C   UNL     1     166.398 144.852 149.737  1.00  0.00     0.021 A 
ATOM     13  C   UNL     1     165.094 142.527 150.668  1.00  0.00     0.160 A 
ATOM     14  C   UNL     1     166.328 142.421 150.009  1.00  0.00     0.161 A 
ATOM     15  C   UNL     1     164.522 143.796 150.868  1.00  0.00     0.051 A 
ATOM     16  C   UNL     1     166.975 143.585 149.551  1.00  0.00     0.062 A 
ATOM     17  C   UNL     1     165.169 144.945 150.411  1.00  0.00     0.016 A 
BRANCH  13  18
ATOM     18  O   UNL     1     164.471 141.350 151.112  1.00  0.00    -0.493 OA
ATOM     19  C   UNL     1     163.669 141.254 152.285  1.00  0.00     0.278 C 
ENDBRANCH  13  18
BRANCH  14  20
ATOM     20  O   UNL     1     166.878 141.142 149.828  1.00  0.00    -0.493 OA
ATOM     21  C   UNL     1     168.183 140.887 149.319  1.00  0.00     0.278 C 
ENDBRANCH  14  20
ENDBRANCH   1  12
BRANCH   6  22
ATOM     22  O   UNL     1     170.177 149.627 147.311  1.00  0.00    -0.492 OA
ATOM     23  C   UNL     1     170.384 149.869 145.923  1.00  0.00     0.278 C 
ENDBRANCH   6  22
BRANCH   8  24
ATOM     24  O   UNL     1     166.017 151.907 148.289  1.00  0.00    -0.493 OA
ATOM     25  C   UNL     1     165.405 152.490 149.435  1.00  0.00     0.278 C 
ENDBRANCH   8  24
BRANCH   7  26
ATOM     26  O   UNL     1     168.611 152.053 147.545  1.00  0.00    -0.490 OA
ATOM     27  C   UNL     1     169.416 152.892 148.366  1.00  0.00     0.278 C 
ENDBRANCH   7  26
TORSDOF 6
ENDMDL
MODEL 2
REMARK VINA RESULT:    -7.042      1.124      3.072
REMARK INTER + INTRA:         -10.162
REMARK INTER:                  -9.612
REMARK INTRA:                  -0.550
REMARK UNBOUND:                -0.650
REMARK SMILES COc1ccc(-c2cc(=O)c3c(OC)c(OC)c(OC)cc3o2)cc1OC
REMARK SMILES IDX 7 1 8 2 9 3 10 4 11 5 12 6 15 7 18 8 21 9 22 10 23 11 6 12
REMARK SMILES IDX 3 13 25 14 4 15 24 16 5 17 2 18 1 19 26 20 27 21 13 22 14 23
REMARK SMILES IDX 19 24 20 25 16 26 17 27
REMARK H PARENT
REMARK Flexibility Score: inf
ROOT
ATOM      1  C   UNL     1     165.529 146.696 149.640  1.00  0.00     0.138 A 
ATOM      2  C   UNL     1     164.537 147.687 149.687  1.00  0.00     0.100 A 
ATOM      3  C   UNL     1     164.832 148.976 149.240  1.00  0.00     0.197 A 
ATOM      4  O   UNL     1     163.920 149.845 149.252  1.00  0.00    -0.289 OA
ATOM      5  C   UNL     1     166.127 149.270 148.762  1.00  0.00     0.111 A 
ATOM      6  C   UNL     1     166.521 150.559 148.323  1.00  0.00     0.179 A 
ATOM      7  C   UNL     1     167.802 150.744 147.742  1.00  0.00     0.204 A 
ATOM      8  C   UNL     1     168.714 149.678 147.712  1.00  0.00     0.168 A 
ATOM      9  C   UNL     1     168.340 148.421 148.211  1.00  0.00     0.098 A 
ATOM     10  C   UNL     1     167.058 148.210 148.716  1.00  0.00     0.146 A 
ATOM     11  O   UNL     1     166.729 146.997 149.151  1.00  0.00    -0.456 OA
ENDROOT
BRANCH   1  12
ATOM     12  C   UNL     1     165.272 145.308 150.102  1.00  0.00     0.021 A 
ATOM     13  C   UNL     1     164.843 142.653 150.963  1.00  0.00     0.160 A 
ATOM     14  C   UNL     1     165.741 142.913 149.917  1.00  0.00     0.161 A 
ATOM     15  C   UNL     1     164.170 143.722 151.580  1.00  0.00     0.051 A 
ATOM     16  C   UNL     1     165.955 144.240 149.495  1.00  0.00     0.062 A 
ATOM     17  C   UNL     1     164.386 145.034 151.157  1.00  0.00     0.016 A 
BRANCH  13  18
ATOM     18  O   UNL     1     164.650 141.321 151.360  1.00  0.00    -0.493 OA
ATOM     19  C   UNL     1     163.654 140.891 152.284  1.00  0.00     0.278 C 
ENDBRANCH  13  18
BRANCH  14  20
ATOM     20  O   UNL     1     166.403 141.826 149.322  1.00  0.00    -0.493 OA
ATOM     21  C   UNL     1     167.725 141.409 149.646  1.00  0.00     0.278 C 
ENDBRANCH  14  20
ENDBRANCH   1  12
BRANCH   6  22
ATOM     22  O   UNL     1     165.667 151.650 148.494  1.00  0.00    -0.492 OA
ATOM     23  C   UNL     1     165.791 152.513 149.621  1.00  0.00     0.278 C 
ENDBRANCH   6  22
BRANCH   8  24
ATOM     24  O   UNL     1     169.987 149.909 147.166  1.00  0.00    -0.493 OA
ATOM     25  C   UNL     1     171.149 150.226 147.927  1.00  0.00     0.278 C 
ENDBRANCH   8  24
BRANCH   7  26
ATOM     26  O   UNL     1     168.230 151.961 147.179  1.00  0.00    -0.490 OA
ATOM     27  C   UNL     1     168.796 153.057 147.888  1.00  0.00     0.278 C 
ENDBRANCH   7  26
TORSDOF 6
ENDMDL
MODEL 3
REMARK VINA RESULT:    -6.664      1.618      8.181
REMARK INTER + INTRA:          -9.652
REMARK INTER:                  -8.979
REMARK INTRA:                  -0.673
REMARK UNBOUND:                -0.650
REMARK SMILES COc1ccc(-c2cc(=O)c3c(OC)c(OC)c(OC)cc3o2)cc1OC
REMARK SMILES IDX 7 1 8 2 9 3 10 4 11 5 12 6 15 7 18 8 21 9 22 10 23 11 6 12
REMARK SMILES IDX 3 13 25 14 4 15 24 16 5 17 2 18 1 19 26 20 27 21 13 22 14 23
REMARK SMILES IDX 19 24 20 25 16 26 17 27
REMARK H PARENT
REMARK Flexibility Score: inf
ROOT
ATOM      1  C   UNL     1     168.336 147.747 149.046  1.00  0.00     0.138 A 
ATOM      2  C   UNL     1     169.448 146.914 148.846  1.00  0.00     0.100 A 
ATOM      3  C   UNL     1     169.317 145.537 149.035  1.00  0.00     0.197 A 
ATOM      4  O   UNL     1     170.313 144.797 148.815  1.00  0.00    -0.289 OA
ATOM      5  C   UNL     1     168.074 145.002 149.439  1.00  0.00     0.111 A 
ATOM      6  C   UNL     1     167.864 143.622 149.688  1.00  0.00     0.179 A 
ATOM      7  C   UNL     1     166.557 143.149 149.971  1.00  0.00     0.204 A 
ATOM      8  C   UNL     1     165.502 144.062 150.118  1.00  0.00     0.168 A 
ATOM      9  C   UNL     1     165.732 145.435 149.938  1.00  0.00     0.098 A 
ATOM     10  C   UNL     1     166.997 145.903 149.587  1.00  0.00     0.146 A 
ATOM     11  O   UNL     1     167.170 147.207 149.393  1.00  0.00    -0.456 OA
ENDROOT
BRANCH   1  12
ATOM     12  C   UNL     1     168.416 149.218 148.860  1.00  0.00     0.021 A 
ATOM     13  C   UNL     1     168.511 152.021 148.533  1.00  0.00     0.160 A 
ATOM     14  C   UNL     1     167.275 151.358 148.534  1.00  0.00     0.161 A 
ATOM     15  C   UNL     1     169.695 151.281 148.704  1.00  0.00     0.051 A 
ATOM     16  C   UNL     1     167.234 149.960 148.702  1.00  0.00     0.062 A 
ATOM     17  C   UNL     1     169.646 149.896 148.870  1.00  0.00     0.016 A 
BRANCH  13  18
ATOM     18  O   UNL     1     168.521 153.414 148.361  1.00  0.00    -0.493 OA
ATOM     19  C   UNL     1     168.492 154.358 149.427  1.00  0.00     0.278 C 
ENDBRANCH  13  18
BRANCH  14  20
ATOM     20  O   UNL     1     166.110 152.123 148.365  1.00  0.00    -0.493 OA
ATOM     21  C   UNL     1     164.963 152.045 149.204  1.00  0.00     0.278 C 
ENDBRANCH  14  20
ENDBRANCH   1  12
BRANCH   6  22
ATOM     22  O   UNL     1     168.944 142.737 149.690  1.00  0.00    -0.492 OA
ATOM     23  C   UNL     1     169.529 142.293 150.910  1.00  0.00     0.278 C 
ENDBRANCH   6  22
BRANCH   8  24
ATOM     24  O   UNL     1     164.230 143.561 150.439  1.00  0.00    -0.493 OA
ATOM     25  C   UNL     1     163.698 143.485 151.757  1.00  0.00     0.278 C 
ENDBRANCH   8  24
BRANCH   7  26
ATOM     26  O   UNL     1     166.241 141.785 150.118  1.00  0.00    -0.490 OA
ATOM     27  C   UNL     1     165.947 140.876 149.063  1.00  0.00     0.278 C 
ENDBRANCH   7  26
TORSDOF 6
ENDMDL
MODEL 4
REMARK VINA RESULT:    -6.552      1.847      8.384
REMARK INTER + INTRA:          -9.500
REMARK INTER:                  -8.915
REMARK INTRA:                  -0.585
REMARK UNBOUND:                -0.650
REMARK SMILES COc1ccc(-c2cc(=O)c3c(OC)c(OC)c(OC)cc3o2)cc1OC
REMARK SMILES IDX 7 1 8 2 9 3 10 4 11 5 12 6 15 7 18 8 21 9 22 10 23 11 6 12
REMARK SMILES IDX 3 13 25 14 4 15 24 16 5 17 2 18 1 19 26 20 27 21 13 22 14 23
REMARK SMILES IDX 19 24 20 25 16 26 17 27
REMARK H PARENT
REMARK Flexibility Score: inf
ROOT
ATOM      1  C   UNL     1     167.048 147.738 148.422  1.00  0.00     0.138 A 
ATOM      2  C   UNL     1     165.917 147.335 147.696  1.00  0.00     0.100 A 
ATOM      3  C   UNL     1     165.550 145.989 147.686  1.00  0.00     0.197 A 
ATOM      4  O   UNL     1     164.511 145.648 147.061  1.00  0.00    -0.289 OA
ATOM      5  C   UNL     1     166.330 145.047 148.393  1.00  0.00     0.111 A 
ATOM      6  C   UNL     1     166.049 143.657 148.407  1.00  0.00     0.179 A 
ATOM      7  C   UNL     1     166.807 142.795 149.240  1.00  0.00     0.204 A 
ATOM      8  C   UNL     1     167.902 143.302 149.956  1.00  0.00     0.168 A 
ATOM      9  C   UNL     1     168.216 144.668 149.884  1.00  0.00     0.098 A 
ATOM     10  C   UNL     1     167.432 145.537 149.126  1.00  0.00     0.146 A 
ATOM     11  O   UNL     1     167.741 146.830 149.107  1.00  0.00    -0.456 OA
ENDROOT
BRANCH   1  12
ATOM     12  C   UNL     1     167.486 149.156 148.469  1.00  0.00     0.021 A 
ATOM     13  C   UNL     1     168.371 151.837 148.527  1.00  0.00     0.160 A 
ATOM     14  C   UNL     1     169.306 150.792 148.509  1.00  0.00     0.161 A 
ATOM     15  C   UNL     1     166.997 151.538 148.506  1.00  0.00     0.051 A 
ATOM     16  C   UNL     1     168.858 149.457 148.476  1.00  0.00     0.062 A 
ATOM     17  C   UNL     1     166.560 150.213 148.473  1.00  0.00     0.016 A 
BRANCH  13  18
ATOM     18  O   UNL     1     168.847 153.157 148.562  1.00  0.00    -0.493 OA
ATOM     19  C   UNL     1     168.991 153.931 149.749  1.00  0.00     0.278 C 
ENDBRANCH  13  18
BRANCH  14  20
ATOM     20  O   UNL     1     170.671 151.120 148.527  1.00  0.00    -0.493 OA
ATOM     21  C   UNL     1     171.557 150.951 147.425  1.00  0.00     0.278 C 
ENDBRANCH  14  20
ENDBRANCH   1  12
BRANCH   6  22
ATOM     22  O   UNL     1     165.057 143.134 147.576  1.00  0.00    -0.492 OA
ATOM     23  C   UNL     1     165.367 142.171 146.574  1.00  0.00     0.278 C 
ENDBRANCH   6  22
BRANCH   8  24
ATOM     24  O   UNL     1     168.654 142.410 150.739  1.00  0.00    -0.493 OA
ATOM     25  C   UNL     1     170.073 142.307 150.711  1.00  0.00     0.278 C 
ENDBRANCH   8  24
BRANCH   7  26
ATOM     26  O   UNL     1     166.523 141.425 149.400  1.00  0.00    -0.490 OA
ATOM     27  C   UNL     1     165.464 140.875 150.176  1.00  0.00     0.278 C 
ENDBRANCH   7  26
TORSDOF 6
ENDMDL
MODEL 5
REMARK VINA RESULT:    -6.475      6.318      8.575
REMARK INTER + INTRA:          -9.396
REMARK INTER:                  -8.839
REMARK INTRA:                  -0.558
REMARK UNBOUND:                -0.650
REMARK SMILES COc1ccc(-c2cc(=O)c3c(OC)c(OC)c(OC)cc3o2)cc1OC
REMARK SMILES IDX 7 1 8 2 9 3 10 4 11 5 12 6 15 7 18 8 21 9 22 10 23 11 6 12
REMARK SMILES IDX 3 13 25 14 4 15 24 16 5 17 2 18 1 19 26 20 27 21 13 22 14 23
REMARK SMILES IDX 19 24 20 25 16 26 17 27
REMARK H PARENT
REMARK Flexibility Score: inf
ROOT
ATOM      1  C   UNL     1     171.396 143.163 150.954  1.00  0.00     0.138 A 
ATOM      2  C   UNL     1     172.251 142.057 150.831  1.00  0.00     0.100 A 
ATOM      3  C   UNL     1     173.299 141.896 151.738  1.00  0.00     0.197 A 
ATOM      4  O   UNL     1     174.035 140.878 151.639  1.00  0.00    -0.289 OA
ATOM      5  C   UNL     1     173.496 142.854 152.756  1.00  0.00     0.111 A 
ATOM      6  C   UNL     1     174.555 142.785 153.697  1.00  0.00     0.179 A 
ATOM      7  C   UNL     1     174.611 143.719 154.763  1.00  0.00     0.204 A 
ATOM      8  C   UNL     1     173.687 144.773 154.816  1.00  0.00     0.168 A 
ATOM      9  C   UNL     1     172.681 144.874 153.842  1.00  0.00     0.098 A 
ATOM     10  C   UNL     1     172.572 143.919 152.832  1.00  0.00     0.146 A 
ATOM     11  O   UNL     1     171.587 144.029 151.946  1.00  0.00    -0.456 OA
ENDROOT
BRANCH   1  12
ATOM     12  C   UNL     1     170.265 143.387 150.018  1.00  0.00     0.021 A 
ATOM     13  C   UNL     1     168.073 143.805 148.287  1.00  0.00     0.160 A 
ATOM     14  C   UNL     1     167.912 143.028 149.443  1.00  0.00     0.161 A 
ATOM     15  C   UNL     1     169.326 144.378 148.005  1.00  0.00     0.051 A 
ATOM     16  C   UNL     1     169.008 142.826 150.305  1.00  0.00     0.062 A 
ATOM     17  C   UNL     1     170.408 144.174 148.864  1.00  0.00     0.016 A 
BRANCH  13  18
ATOM     18  O   UNL     1     166.964 143.987 147.446  1.00  0.00    -0.493 OA
ATOM     19  C   UNL     1     166.276 145.223 147.274  1.00  0.00     0.278 C 
ENDBRANCH  13  18
BRANCH  14  20
ATOM     20  O   UNL     1     166.649 142.472 149.701  1.00  0.00    -0.493 OA
ATOM     21  C   UNL     1     165.643 143.087 150.499  1.00  0.00     0.278 C 
ENDBRANCH  14  20
ENDBRANCH   1  12
BRANCH   6  22
ATOM     22  O   UNL     1     175.560 141.827 153.552  1.00  0.00    -0.492 OA
ATOM     23  C   UNL     1     176.792 142.143 152.911  1.00  0.00     0.278 C 
ENDBRANCH   6  22
BRANCH   8  24
ATOM     24  O   UNL     1     173.798 145.702 155.864  1.00  0.00    -0.493 OA
ATOM     25  C   UNL     1     172.717 146.129 156.685  1.00  0.00     0.278 C 
ENDBRANCH   8  24
BRANCH   7  26
ATOM     26  O   UNL     1     175.561 143.654 155.800  1.00  0.00    -0.490 OA
ATOM     27  C   UNL     1     176.814 144.328 155.830  1.00  0.00     0.278 C 
ENDBRANCH   7  26
TORSDOF 6
ENDMDL
MODEL 6
REMARK VINA RESULT:    -6.468      6.316      8.653
REMARK INTER + INTRA:          -9.387
REMARK INTER:                  -8.850
REMARK INTRA:                  -0.537
REMARK UNBOUND:                -0.650
REMARK SMILES COc1ccc(-c2cc(=O)c3c(OC)c(OC)c(OC)cc3o2)cc1OC
REMARK SMILES IDX 7 1 8 2 9 3 10 4 11 5 12 6 15 7 18 8 21 9 22 10 23 11 6 12
REMARK SMILES IDX 3 13 25 14 4 15 24 16 5 17 2 18 1 19 26 20 27 21 13 22 14 23
REMARK SMILES IDX 19 24 20 25 16 26 17 27
REMARK H PARENT
REMARK Flexibility Score: inf
ROOT
ATOM      1  C   UNL     1     171.371 143.182 150.939  1.00  0.00     0.138 A 
ATOM      2  C   UNL     1     172.215 142.066 150.825  1.00  0.00     0.100 A 
ATOM      3  C   UNL     1     173.261 141.902 151.734  1.00  0.00     0.197 A 
ATOM      4  O   UNL     1     173.987 140.875 151.644  1.00  0.00    -0.289 OA
ATOM      5  C   UNL     1     173.468 142.866 152.744  1.00  0.00     0.111 A 
ATOM      6  C   UNL     1     174.527 142.795 153.684  1.00  0.00     0.179 A 
ATOM      7  C   UNL     1     174.593 143.737 154.743  1.00  0.00     0.204 A 
ATOM      8  C   UNL     1     173.680 144.801 154.787  1.00  0.00     0.168 A 
ATOM      9  C   UNL     1     172.675 144.904 153.812  1.00  0.00     0.098 A 
ATOM     10  C   UNL     1     172.556 143.942 152.810  1.00  0.00     0.146 A 
ATOM     11  O   UNL     1     171.572 144.054 151.924  1.00  0.00    -0.456 OA
ENDROOT
BRANCH   1  12
ATOM     12  C   UNL     1     170.243 143.409 150.001  1.00  0.00     0.021 A 
ATOM     13  C   UNL     1     168.137 143.853 148.172  1.00  0.00     0.160 A 
ATOM     14  C   UNL     1     169.371 144.493 147.986  1.00  0.00     0.161 A 
ATOM     15  C   UNL     1     167.963 142.986 149.266  1.00  0.00     0.051 A 
ATOM     16  C   UNL     1     170.419 144.264 148.900  1.00  0.00     0.062 A 
ATOM     17  C   UNL     1     169.006 142.765 150.167  1.00  0.00     0.016 A 
BRANCH  13  18
ATOM     18  O   UNL     1     167.111 144.101 147.247  1.00  0.00    -0.493 OA
ATOM     19  C   UNL     1     165.744 143.752 147.446  1.00  0.00     0.278 C 
ENDBRANCH  13  18
BRANCH  14  20
ATOM     20  O   UNL     1     169.518 145.349 146.883  1.00  0.00    -0.493 OA
ATOM     21  C   UNL     1     169.607 146.767 146.967  1.00  0.00     0.278 C 
ENDBRANCH  14  20
ENDBRANCH   1  12
BRANCH   6  22
ATOM     22  O   UNL     1     175.522 141.825 153.548  1.00  0.00    -0.492 OA
ATOM     23  C   UNL     1     176.768 142.129 152.930  1.00  0.00     0.278 C 
ENDBRANCH   6  22
BRANCH   8  24
ATOM     24  O   UNL     1     173.801 145.737 155.826  1.00  0.00    -0.493 OA
ATOM     25  C   UNL     1     172.737 146.138 156.684  1.00  0.00     0.278 C 
ENDBRANCH   8  24
BRANCH   7  26
ATOM     26  O   UNL     1     175.542 143.671 155.781  1.00  0.00    -0.490 OA
ATOM     27  C   UNL     1     176.786 144.361 155.821  1.00  0.00     0.278 C 
ENDBRANCH   7  26
TORSDOF 6
ENDMDL
MODEL 7
REMARK VINA RESULT:    -6.455      4.818      7.039
REMARK INTER + INTRA:          -9.370
REMARK INTER:                  -8.689
REMARK INTRA:                  -0.681
REMARK UNBOUND:                -0.650
REMARK SMILES COc1ccc(-c2cc(=O)c3c(OC)c(OC)c(OC)cc3o2)cc1OC
REMARK SMILES IDX 7 1 8 2 9 3 10 4 11 5 12 6 15 7 18 8 21 9 22 10 23 11 6 12
REMARK SMILES IDX 3 13 25 14 4 15 24 16 5 17 2 18 1 19 26 20 27 21 13 22 14 23
REMARK SMILES IDX 19 24 20 25 16 26 17 27
REMARK H PARENT
REMARK Flexibility Score: inf
ROOT
ATOM      1  C   UNL     1     170.799 143.421 150.940  1.00  0.00     0.138 A 
ATOM      2  C   UNL     1     169.713 142.538 150.839  1.00  0.00     0.100 A 
ATOM      3  C   UNL     1     168.587 142.917 150.106  1.00  0.00     0.197 A 
ATOM      4  O   UNL     1     167.635 142.099 149.992  1.00  0.00    -0.289 OA
ATOM      5  C   UNL     1     168.548 144.186 149.491  1.00  0.00     0.111 A 
ATOM      6  C   UNL     1     167.431 144.664 148.759  1.00  0.00     0.179 A 
ATOM      7  C   UNL     1     167.518 145.899 148.068  1.00  0.00     0.204 A 
ATOM      8  C   UNL     1     168.664 146.697 148.207  1.00  0.00     0.168 A 
ATOM      9  C   UNL     1     169.740 146.248 148.989  1.00  0.00     0.098 A 
ATOM     10  C   UNL     1     169.694 145.002 149.612  1.00  0.00     0.146 A 
ATOM     11  O   UNL     1     170.745 144.596 150.318  1.00  0.00    -0.456 OA
ENDROOT
BRANCH   1  12
ATOM     12  C   UNL     1     172.023 143.073 151.705  1.00  0.00     0.021 A 
ATOM     13  C   UNL     1     174.380 142.398 153.107  1.00  0.00     0.160 A 
ATOM     14  C   UNL     1     174.110 141.804 151.866  1.00  0.00     0.161 A 
ATOM     15  C   UNL     1     173.475 143.334 153.639  1.00  0.00     0.051 A 
ATOM     16  C   UNL     1     172.935 142.148 151.169  1.00  0.00     0.062 A 
ATOM     17  C   UNL     1     172.312 143.670 152.944  1.00  0.00     0.016 A 
BRANCH  13  18
ATOM     18  O   UNL     1     175.557 142.034 153.779  1.00  0.00    -0.493 OA
ATOM     19  C   UNL     1     175.595 141.360 155.033  1.00  0.00     0.278 C 
ENDBRANCH  13  18
BRANCH  14  20
ATOM     20  O   UNL     1     175.033 140.876 151.357  1.00  0.00    -0.493 OA
ATOM     21  C   UNL     1     175.869 141.104 150.228  1.00  0.00     0.278 C 
ENDBRANCH  14  20
ENDBRANCH   1  12
BRANCH   6  22
ATOM     22  O   UNL     1     166.238 143.939 148.749  1.00  0.00    -0.492 OA
ATOM     23  C   UNL     1     165.110 144.365 149.508  1.00  0.00     0.278 C 
ENDBRANCH   6  22
BRANCH   8  24
ATOM     24  O   UNL     1     168.698 147.932 147.540  1.00  0.00    -0.493 OA
ATOM     25  C   UNL     1     169.549 148.236 146.440  1.00  0.00     0.278 C 
ENDBRANCH   8  24
BRANCH   7  26
ATOM     26  O   UNL     1     166.500 146.392 147.229  1.00  0.00    -0.490 OA
ATOM     27  C   UNL     1     166.276 146.013 145.875  1.00  0.00     0.278 C 
ENDBRANCH   7  26
TORSDOF 6
ENDMDL
MODEL 8
REMARK VINA RESULT:    -6.375      4.745      7.278
REMARK INTER + INTRA:          -9.261
REMARK INTER:                  -8.586
REMARK INTRA:                  -0.675
REMARK UNBOUND:                -0.650
REMARK SMILES COc1ccc(-c2cc(=O)c3c(OC)c(OC)c(OC)cc3o2)cc1OC
REMARK SMILES IDX 7 1 8 2 9 3 10 4 11 5 12 6 15 7 18 8 21 9 22 10 23 11 6 12
REMARK SMILES IDX 3 13 25 14 4 15 24 16 5 17 2 18 1 19 26 20 27 21 13 22 14 23
REMARK SMILES IDX 19 24 20 25 16 26 17 27
REMARK H PARENT
REMARK Flexibility Score: inf
ROOT
ATOM      1  C   UNL     1     170.800 143.193 150.804  1.00  0.00     0.138 A 
ATOM      2  C   UNL     1     169.660 142.375 150.821  1.00  0.00     0.100 A 
ATOM      3  C   UNL     1     168.482 142.828 150.225  1.00  0.00     0.197 A 
ATOM      4  O   UNL     1     167.477 142.068 150.214  1.00  0.00    -0.289 OA
ATOM      5  C   UNL     1     168.447 144.106 149.627  1.00  0.00     0.111 A 
ATOM      6  C   UNL     1     167.284 144.657 149.031  1.00  0.00     0.179 A 
ATOM      7  C   UNL     1     167.365 145.896 148.344  1.00  0.00     0.204 A 
ATOM      8  C   UNL     1     168.564 146.624 148.358  1.00  0.00     0.168 A 
ATOM      9  C   UNL     1     169.694 146.103 149.008  1.00  0.00     0.098 A 
ATOM     10  C   UNL     1     169.646 144.853 149.623  1.00  0.00     0.146 A 
ATOM     11  O   UNL     1     170.744 144.378 150.202  1.00  0.00    -0.456 OA
ENDROOT
BRANCH   1  12
ATOM     12  C   UNL     1     172.080 142.764 151.423  1.00  0.00     0.021 A 
ATOM     13  C   UNL     1     174.494 141.970 152.655  1.00  0.00     0.160 A 
ATOM     14  C   UNL     1     173.761 143.044 153.180  1.00  0.00     0.161 A 
ATOM     15  C   UNL     1     174.013 141.291 151.521  1.00  0.00     0.051 A 
ATOM     16  C   UNL     1     172.556 143.433 152.564  1.00  0.00     0.062 A 
ATOM     17  C   UNL     1     172.818 141.681 150.915  1.00  0.00     0.016 A 
BRANCH  13  18
ATOM     18  O   UNL     1     175.692 141.607 153.289  1.00  0.00    -0.493 OA
ATOM     19  C   UNL     1     176.941 141.444 152.622  1.00  0.00     0.278 C 
ENDBRANCH  13  18
BRANCH  14  20
ATOM     20  O   UNL     1     174.263 143.701 154.315  1.00  0.00    -0.493 OA
ATOM     21  C   UNL     1     173.724 144.901 154.859  1.00  0.00     0.278 C 
ENDBRANCH  14  20
ENDBRANCH   1  12
BRANCH   6  22
ATOM     22  O   UNL     1     166.058 144.002 149.152  1.00  0.00    -0.492 OA
ATOM     23  C   UNL     1     165.084 144.430 150.100  1.00  0.00     0.278 C 
ENDBRANCH   6  22
BRANCH   8  24
ATOM     24  O   UNL     1     168.594 147.865 147.701  1.00  0.00    -0.493 OA
ATOM     25  C   UNL     1     169.235 148.105 146.452  1.00  0.00     0.278 C 
ENDBRANCH   8  24
BRANCH   7  26
ATOM     26  O   UNL     1     166.289 146.457 147.631  1.00  0.00    -0.490 OA
ATOM     27  C   UNL     1     165.878 146.097 146.316  1.00  0.00     0.278 C 
ENDBRANCH   7  26
TORSDOF 6
ENDMDL
MODEL 9
REMARK VINA RESULT:    -6.365      5.149      7.719
REMARK INTER + INTRA:          -9.248
REMARK INTER:                  -8.630
REMARK INTRA:                  -0.617
REMARK UNBOUND:                -0.650
REMARK SMILES COc1ccc(-c2cc(=O)c3c(OC)c(OC)c(OC)cc3o2)cc1OC
REMARK SMILES IDX 7 1 8 2 9 3 10 4 11 5 12 6 15 7 18 8 21 9 22 10 23 11 6 12
REMARK SMILES IDX 3 13 25 14 4 15 24 16 5 17 2 18 1 19 26 20 27 21 13 22 14 23
REMARK SMILES IDX 19 24 20 25 16 26 17 27
REMARK H PARENT
REMARK Flexibility Score: inf
ROOT
ATOM      1  C   UNL     1     171.144 143.309 151.257  1.00  0.00     0.138 A 
ATOM      2  C   UNL     1     170.123 142.348 151.314  1.00  0.00     0.100 A 
ATOM      3  C   UNL     1     169.083 142.395 150.385  1.00  0.00     0.197 A 
ATOM      4  O   UNL     1     168.193 141.504 150.425  1.00  0.00    -0.289 OA
ATOM      5  C   UNL     1     169.062 143.416 149.411  1.00  0.00     0.111 A 
ATOM      6  C   UNL     1     168.026 143.558 148.453  1.00  0.00     0.179 A 
ATOM      7  C   UNL     1     168.141 144.535 147.430  1.00  0.00     0.204 A 
ATOM      8  C   UNL     1     169.221 145.431 147.441  1.00  0.00     0.168 A 
ATOM      9  C   UNL     1     170.209 145.328 148.433  1.00  0.00     0.098 A 
ATOM     10  C   UNL     1     170.143 144.324 149.399  1.00  0.00     0.146 A 
ATOM     11  O   UNL     1     171.113 144.237 150.303  1.00  0.00    -0.456 OA
ENDROOT
BRANCH   1  12
ATOM     12  C   UNL     1     172.275 143.309 152.218  1.00  0.00     0.021 A 
ATOM     13  C   UNL     1     174.390 143.338 154.089  1.00  0.00     0.160 A 
ATOM     14  C   UNL     1     173.420 144.350 154.115  1.00  0.00     0.161 A 
ATOM     15  C   UNL     1     174.295 142.310 153.134  1.00  0.00     0.051 A 
ATOM     16  C   UNL     1     172.365 144.328 153.182  1.00  0.00     0.062 A 
ATOM     17  C   UNL     1     173.247 142.294 152.213  1.00  0.00     0.016 A 
BRANCH  13  18
ATOM     18  O   UNL     1     175.431 143.388 155.030  1.00  0.00    -0.493 OA
ATOM     19  C   UNL     1     175.529 142.540 156.171  1.00  0.00     0.278 C 
ENDBRANCH  13  18
BRANCH  14  20
ATOM     20  O   UNL     1     173.538 145.362 155.082  1.00  0.00    -0.493 OA
ATOM     21  C   UNL     1     172.749 145.446 156.264  1.00  0.00     0.278 C 
ENDBRANCH  14  20
ENDBRANCH   1  12
BRANCH   6  22
ATOM     22  O   UNL     1     166.880 142.766 148.537  1.00  0.00    -0.492 OA
ATOM     23  C   UNL     1     165.691 143.253 149.151  1.00  0.00     0.278 C 
ENDBRANCH   6  22
BRANCH   8  24
ATOM     24  O   UNL     1     169.281 146.410 146.437  1.00  0.00    -0.493 OA
ATOM     25  C   UNL     1     169.134 147.809 146.660  1.00  0.00     0.278 C 
ENDBRANCH   8  24
BRANCH   7  26
ATOM     26  O   UNL     1     167.216 144.668 146.377  1.00  0.00    -0.490 OA
ATOM     27  C   UNL     1     166.097 145.547 146.353  1.00  0.00     0.278 C 
ENDBRANCH   7  26
TORSDOF 6
ENDMDL
