MODEL 1
REMARK VINA RESULT:    -4.178      0.000      0.000
REMARK INTER + INTRA:          -5.574
REMARK INTER:                  -5.399
REMARK INTRA:                  -0.175
REMARK UNBOUND:                -0.175
REMARK SMILES CCCCCCC(=O)[O-]
REMARK SMILES IDX 5 1 6 2 7 3 8 4 9 5 4 6 3 7 2 8 1 9
REMARK H PARENT
REMARK Flexibility Score: inf
ROOT
ATOM      1  C   UNL     1       4.140  44.657  11.675  1.00  0.00     0.006 C 
ENDROOT
BRANCH   1   2
ATOM      2  C   UNL     1       2.913  43.765  11.925  1.00  0.00     0.053 C 
BRANCH   2   3
ATOM      3  C   UNL     1       2.977  42.492  11.140  1.00  0.00     0.041 C 
ATOM      4  O   UNL     1       3.077  41.386  11.732  1.00  0.00    -0.550 OA
ATOM      5  O   UNL     1       2.961  42.530   9.751  1.00  0.00    -0.550 OA
ENDBRANCH   2   3
ENDBRANCH   1   2
BRANCH   1   6
ATOM      6  C   UNL     1       3.854  45.919  10.837  1.00  0.00     0.000 C 
BRANCH   6   7
ATOM      7  C   UNL     1       4.582  45.981   9.481  1.00  0.00    -0.000 C 
BRANCH   7   8
ATOM      8  C   UNL     1       5.115  47.382   9.153  1.00  0.00    -0.003 C 
ATOM      9  C   UNL     1       6.620  47.467   9.388  1.00  0.00     0.004 C 
ENDBRANCH   7   8
ENDBRANCH   6   7
ENDBRANCH   1   6
TORSDOF 5
ENDMDL
MODEL 2
REMARK VINA RESULT:    -4.095      3.135      4.989
REMARK INTER + INTRA:          -5.468
REMARK INTER:                  -5.248
REMARK INTRA:                  -0.220
REMARK UNBOUND:                -0.175
REMARK SMILES CCCCCCC(=O)[O-]
REMARK SMILES IDX 5 1 6 2 7 3 8 4 9 5 4 6 3 7 2 8 1 9
REMARK H PARENT
REMARK Flexibility Score: inf
ROOT
ATOM      1  C   UNL     1       4.035  45.929  10.969  1.00  0.00     0.006 C 
ENDROOT
BRANCH   1   2
ATOM      2  C   UNL     1       4.527  45.929   9.512  1.00  0.00     0.053 C 
BRANCH   2   3
ATOM      3  C   UNL     1       5.320  47.157   9.189  1.00  0.00     0.041 C 
ATOM      4  O   UNL     1       6.498  47.282   9.615  1.00  0.00    -0.550 OA
ATOM      5  O   UNL     1       4.744  48.180   8.446  1.00  0.00    -0.550 OA
ENDBRANCH   2   3
ENDBRANCH   1   2
BRANCH   1   6
ATOM      6  C   UNL     1       4.109  44.557  11.669  1.00  0.00     0.000 C 
BRANCH   6   7
ATOM      7  C   UNL     1       2.749  43.956  12.071  1.00  0.00    -0.000 C 
BRANCH   7   8
ATOM      8  C   UNL     1       2.482  42.593  11.418  1.00  0.00    -0.003 C 
ATOM      9  C   UNL     1       2.829  42.616   9.933  1.00  0.00     0.004 C 
ENDBRANCH   7   8
ENDBRANCH   6   7
ENDBRANCH   1   6
TORSDOF 5
ENDMDL
MODEL 3
REMARK VINA RESULT:    -4.092      3.387      5.446
REMARK INTER + INTRA:          -5.463
REMARK INTER:                  -5.322
REMARK INTRA:                  -0.141
REMARK UNBOUND:                -0.175
REMARK SMILES CCCCCCC(=O)[O-]
REMARK SMILES IDX 5 1 6 2 7 3 8 4 9 5 4 6 3 7 2 8 1 9
REMARK H PARENT
REMARK Flexibility Score: inf
ROOT
ATOM      1  C   UNL     1       4.881  46.055   9.801  1.00  0.00     0.006 C 
ENDROOT
BRANCH   1   2
ATOM      2  C   UNL     1       4.916  47.421   9.098  1.00  0.00     0.053 C 
BRANCH   2   3
ATOM      3  C   UNL     1       6.274  48.048   9.160  1.00  0.00     0.041 C 
ATOM      4  O   UNL     1       7.263  47.380   9.562  1.00  0.00    -0.550 OA
ATOM      5  O   UNL     1       6.442  49.380   8.806  1.00  0.00    -0.550 OA
ENDBRANCH   2   3
ENDBRANCH   1   2
BRANCH   1   6
ATOM      6  C   UNL     1       3.857  45.953  10.950  1.00  0.00     0.000 C 
BRANCH   6   7
ATOM      7  C   UNL     1       3.901  44.638  11.749  1.00  0.00    -0.000 C 
BRANCH   7   8
ATOM      8  C   UNL     1       2.644  43.777  11.554  1.00  0.00    -0.003 C 
ATOM      9  C   UNL     1       2.948  42.545  10.708  1.00  0.00     0.004 C 
ENDBRANCH   7   8
ENDBRANCH   6   7
ENDBRANCH   1   6
TORSDOF 5
ENDMDL
MODEL 4
REMARK VINA RESULT:    -3.999      3.077      4.820
REMARK INTER + INTRA:          -5.343
REMARK INTER:                  -5.098
REMARK INTRA:                  -0.245
REMARK UNBOUND:                -0.175
REMARK SMILES CCCCCCC(=O)[O-]
REMARK SMILES IDX 5 1 6 2 7 3 8 4 9 5 4 6 3 7 2 8 1 9
REMARK H PARENT
REMARK Flexibility Score: inf
ROOT
ATOM      1  C   UNL     1       4.279  46.178  10.714  1.00  0.00     0.006 C 
ENDROOT
BRANCH   1   2
ATOM      2  C   UNL     1       4.146  46.182   9.183  1.00  0.00     0.053 C 
BRANCH   2   3
ATOM      3  C   UNL     1       3.286  47.308   8.698  1.00  0.00     0.041 C 
ATOM      4  O   UNL     1       2.198  47.568   9.274  1.00  0.00    -0.550 OA
ATOM      5  O   UNL     1       3.671  48.048   7.588  1.00  0.00    -0.550 OA
ENDBRANCH   2   3
ENDBRANCH   1   2
BRANCH   1   6
ATOM      6  C   UNL     1       3.442  45.097  11.426  1.00  0.00     0.000 C 
BRANCH   6   7
ATOM      7  C   UNL     1       4.251  43.923  12.007  1.00  0.00    -0.000 C 
BRANCH   7   8
ATOM      8  C   UNL     1       3.676  42.552  11.625  1.00  0.00    -0.003 C 
ATOM      9  C   UNL     1       2.991  42.604  10.262  1.00  0.00     0.004 C 
ENDBRANCH   7   8
ENDBRANCH   6   7
ENDBRANCH   1   6
TORSDOF 5
ENDMDL
MODEL 5
REMARK VINA RESULT:    -3.877      2.620      4.510
REMARK INTER + INTRA:          -5.186
REMARK INTER:                  -4.840
REMARK INTRA:                  -0.346
REMARK UNBOUND:                -0.175
REMARK SMILES CCCCCCC(=O)[O-]
REMARK SMILES IDX 5 1 6 2 7 3 8 4 9 5 4 6 3 7 2 8 1 9
REMARK H PARENT
REMARK Flexibility Score: inf
ROOT
ATOM      1  C   UNL     1       1.715  45.364   9.966  1.00  0.00     0.006 C 
ENDROOT
BRANCH   1   2
ATOM      2  C   UNL     1       2.356  46.761   9.942  1.00  0.00     0.053 C 
BRANCH   2   3
ATOM      3  C   UNL     1       3.586  46.797   9.089  1.00  0.00     0.041 C 
ATOM      4  O   UNL     1       3.768  47.741   8.277  1.00  0.00    -0.550 OA
ATOM      5  O   UNL     1       4.516  45.768   9.168  1.00  0.00    -0.550 OA
ENDBRANCH   2   3
ENDBRANCH   1   2
BRANCH   1   6
ATOM      6  C   UNL     1       1.801  44.644  11.327  1.00  0.00     0.000 C 
BRANCH   6   7
ATOM      7  C   UNL     1       2.306  43.191  11.266  1.00  0.00    -0.000 C 
BRANCH   7   8
ATOM      8  C   UNL     1       3.829  43.080  11.419  1.00  0.00    -0.003 C 
ATOM      9  C   UNL     1       4.381  44.221  12.268  1.00  0.00     0.004 C 
ENDBRANCH   7   8
ENDBRANCH   6   7
ENDBRANCH   1   6
TORSDOF 5
ENDMDL
MODEL 6
REMARK VINA RESULT:    -3.793      2.123      2.408
REMARK INTER + INTRA:          -5.077
REMARK INTER:                  -4.803
REMARK INTRA:                  -0.274
REMARK UNBOUND:                -0.175
REMARK SMILES CCCCCCC(=O)[O-]
REMARK SMILES IDX 5 1 6 2 7 3 8 4 9 5 4 6 3 7 2 8 1 9
REMARK H PARENT
REMARK Flexibility Score: inf
ROOT
ATOM      1  C   UNL     1       3.796  43.935   9.536  1.00  0.00     0.006 C 
ENDROOT
BRANCH   1   2
ATOM      2  C   UNL     1       2.353  43.405   9.506  1.00  0.00     0.053 C 
BRANCH   2   3
ATOM      3  C   UNL     1       1.358  44.471   9.849  1.00  0.00     0.041 C 
ATOM      4  O   UNL     1       0.722  44.419  10.934  1.00  0.00    -0.550 OA
ATOM      5  O   UNL     1       1.110  45.504   8.954  1.00  0.00    -0.550 OA
ENDBRANCH   2   3
ENDBRANCH   1   2
BRANCH   1   6
ATOM      6  C   UNL     1       4.184  44.658  10.841  1.00  0.00     0.000 C 
BRANCH   6   7
ATOM      7  C   UNL     1       4.370  46.181  10.713  1.00  0.00    -0.000 C 
BRANCH   7   8
ATOM      8  C   UNL     1       4.855  46.609   9.321  1.00  0.00    -0.003 C 
ATOM      9  C   UNL     1       6.198  47.328   9.403  1.00  0.00     0.004 C 
ENDBRANCH   7   8
ENDBRANCH   6   7
ENDBRANCH   1   6
TORSDOF 5
ENDMDL
MODEL 7
REMARK VINA RESULT:    -3.776      1.733      2.359
REMARK INTER + INTRA:          -5.056
REMARK INTER:                  -4.815
REMARK INTRA:                  -0.240
REMARK UNBOUND:                -0.175
REMARK SMILES CCCCCCC(=O)[O-]
REMARK SMILES IDX 5 1 6 2 7 3 8 4 9 5 4 6 3 7 2 8 1 9
REMARK H PARENT
REMARK Flexibility Score: inf
ROOT
ATOM      1  C   UNL     1       3.946  43.579   9.760  1.00  0.00     0.006 C 
ENDROOT
BRANCH   1   2
ATOM      2  C   UNL     1       2.767  42.626  10.019  1.00  0.00     0.053 C 
BRANCH   2   3
ATOM      3  C   UNL     1       2.726  42.162  11.442  1.00  0.00     0.041 C 
ATOM      4  O   UNL     1       3.602  41.371  11.877  1.00  0.00    -0.550 OA
ATOM      5  O   UNL     1       1.698  42.578  12.279  1.00  0.00    -0.550 OA
ENDBRANCH   2   3
ENDBRANCH   1   2
BRANCH   1   6
ATOM      6  C   UNL     1       4.178  44.625  10.869  1.00  0.00     0.000 C 
BRANCH   6   7
ATOM      7  C   UNL     1       3.922  46.085  10.453  1.00  0.00    -0.000 C 
BRANCH   7   8
ATOM      8  C   UNL     1       2.435  46.388  10.221  1.00  0.00    -0.003 C 
ATOM      9  C   UNL     1       2.248  47.393   9.088  1.00  0.00     0.004 C 
ENDBRANCH   7   8
ENDBRANCH   6   7
ENDBRANCH   1   6
TORSDOF 5
ENDMDL
MODEL 8
REMARK VINA RESULT:    -3.073     14.518     15.766
REMARK INTER + INTRA:          -4.147
REMARK INTER:                  -3.904
REMARK INTRA:                  -0.244
REMARK UNBOUND:                -0.175
REMARK SMILES CCCCCCC(=O)[O-]
REMARK SMILES IDX 5 1 6 2 7 3 8 4 9 5 4 6 3 7 2 8 1 9
REMARK H PARENT
REMARK Flexibility Score: inf
ROOT
ATOM      1  C   UNL     1      13.404  33.507  13.534  1.00  0.00     0.006 C 
ENDROOT
BRANCH   1   2
ATOM      2  C   UNL     1      14.358  34.687  13.289  1.00  0.00     0.053 C 
BRANCH   2   3
ATOM      3  C   UNL     1      13.625  35.922  12.867  1.00  0.00     0.041 C 
ATOM      4  O   UNL     1      12.751  36.428  13.618  1.00  0.00    -0.550 OA
ATOM      5  O   UNL     1      13.882  36.494  11.627  1.00  0.00    -0.550 OA
ENDBRANCH   2   3
ENDBRANCH   1   2
BRANCH   1   6
ATOM      6  C   UNL     1      13.521  32.365  12.504  1.00  0.00     0.000 C 
BRANCH   6   7
ATOM      7  C   UNL     1      14.289  31.123  12.991  1.00  0.00    -0.000 C 
BRANCH   7   8
ATOM      8  C   UNL     1      15.584  30.875  12.206  1.00  0.00    -0.003 C 
ATOM      9  C   UNL     1      16.777  31.537  12.889  1.00  0.00     0.004 C 
ENDBRANCH   7   8
ENDBRANCH   6   7
ENDBRANCH   1   6
TORSDOF 5
ENDMDL
