MODEL 1
REMARK VINA RESULT:    -5.573      0.000      0.000
REMARK INTER + INTRA:         -10.437
REMARK INTER:                  -9.482
REMARK INTRA:                  -0.955
REMARK UNBOUND:                -0.955
REMARK SMILES CCCCCCCCCCCCCC(=O)[O-]
REMARK SMILES IDX 8 1 9 2 10 3 11 4 12 5 13 6 14 7 15 8 16 9 7 10 6 11 5 12
REMARK SMILES IDX 4 13 3 14 2 15 1 16
REMARK H PARENT
REMARK Flexibility Score: inf
ROOT
ATOM      1  C   UNL     1     -13.450 -17.408  30.042  1.00  0.00     0.000 C 
ENDROOT
BRANCH   1   2
ATOM      2  C   UNL     1     -12.420 -17.234  31.164  1.00  0.00     0.000 C 
BRANCH   2   3
ATOM      3  C   UNL     1     -11.971 -18.592  31.715  1.00  0.00     0.000 C 
BRANCH   3   4
ATOM      4  C   UNL     1     -10.483 -18.838  31.431  1.00  0.00     0.000 C 
BRANCH   4   5
ATOM      5  C   UNL     1      -9.695 -17.541  31.171  1.00  0.00     0.006 C 
BRANCH   5   6
ATOM      6  C   UNL     1      -8.526 -17.315  32.147  1.00  0.00     0.053 C 
BRANCH   6   7
ATOM      7  C   UNL     1      -7.681 -16.135  31.773  1.00  0.00     0.041 C 
ATOM      8  O   UNL     1      -6.477 -16.074  32.140  1.00  0.00    -0.550 OA
ATOM      9  O   UNL     1      -8.214 -15.118  30.992  1.00  0.00    -0.550 OA
ENDBRANCH   6   7
ENDBRANCH   5   6
ENDBRANCH   4   5
ENDBRANCH   3   4
ENDBRANCH   2   3
ENDBRANCH   1   2
BRANCH   1  10
ATOM     10  C   UNL     1     -13.089 -16.551  28.824  1.00  0.00     0.000 C 
BRANCH  10  11
ATOM     11  C   UNL     1     -11.878 -17.129  28.082  1.00  0.00    -0.000 C 
BRANCH  11  12
ATOM     12  C   UNL     1     -10.758 -16.086  27.958  1.00  0.00    -0.000 C 
BRANCH  12  13
ATOM     13  C   UNL     1     -10.717 -15.411  26.576  1.00  0.00    -0.000 C 
BRANCH  13  14
ATOM     14  C   UNL     1      -9.304 -15.151  26.016  1.00  0.00    -0.000 C 
BRANCH  14  15
ATOM     15  C   UNL     1      -9.012 -13.685  25.647  1.00  0.00    -0.003 C 
ATOM     16  C   UNL     1      -9.792 -13.213  24.422  1.00  0.00     0.004 C 
ENDBRANCH  14  15
ENDBRANCH  13  14
ENDBRANCH  12  13
ENDBRANCH  11  12
ENDBRANCH  10  11
ENDBRANCH   1  10
TORSDOF 12
ENDMDL
MODEL 2
REMARK VINA RESULT:    -5.465      2.207      5.474
REMARK INTER + INTRA:         -10.254
REMARK INTER:                  -9.208
REMARK INTRA:                  -1.046
REMARK UNBOUND:                -0.955
REMARK SMILES CCCCCCCCCCCCCC(=O)[O-]
REMARK SMILES IDX 8 1 9 2 10 3 11 4 12 5 13 6 14 7 15 8 16 9 7 10 6 11 5 12
REMARK SMILES IDX 4 13 3 14 2 15 1 16
REMARK H PARENT
REMARK Flexibility Score: inf
ROOT
ATOM      1  C   UNL     1     -12.745 -16.085  29.133  1.00  0.00     0.000 C 
ENDROOT
BRANCH   1   2
ATOM      2  C   UNL     1     -13.530 -16.104  27.816  1.00  0.00     0.000 C 
BRANCH   2   3
ATOM      3  C   UNL     1     -12.632 -15.721  26.634  1.00  0.00     0.000 C 
BRANCH   3   4
ATOM      4  C   UNL     1     -11.148 -15.867  26.999  1.00  0.00     0.000 C 
BRANCH   4   5
ATOM      5  C   UNL     1     -10.225 -14.972  26.152  1.00  0.00     0.006 C 
BRANCH   5   6
ATOM      6  C   UNL     1      -8.726 -15.264  26.341  1.00  0.00     0.053 C 
BRANCH   6   7
ATOM      7  C   UNL     1      -7.868 -14.056  26.117  1.00  0.00     0.041 C 
ATOM      8  O   UNL     1      -8.310 -13.074  25.464  1.00  0.00    -0.550 OA
ATOM      9  O   UNL     1      -6.591 -14.002  26.660  1.00  0.00    -0.550 OA
ENDBRANCH   6   7
ENDBRANCH   5   6
ENDBRANCH   4   5
ENDBRANCH   3   4
ENDBRANCH   2   3
ENDBRANCH   1   2
BRANCH   1  10
ATOM     10  C   UNL     1     -13.237 -17.182  30.084  1.00  0.00     0.000 C 
BRANCH  10  11
ATOM     11  C   UNL     1     -12.626 -18.540  29.722  1.00  0.00    -0.000 C 
BRANCH  11  12
ATOM     12  C   UNL     1     -11.155 -18.390  29.310  1.00  0.00    -0.000 C 
BRANCH  12  13
ATOM     13  C   UNL     1     -10.181 -19.007  30.329  1.00  0.00    -0.000 C 
BRANCH  13  14
ATOM     14  C   UNL     1     -10.447 -18.630  31.801  1.00  0.00    -0.000 C 
BRANCH  14  15
ATOM     15  C   UNL     1     -10.051 -17.192  32.183  1.00  0.00    -0.003 C 
ATOM     16  C   UNL     1      -8.623 -16.839  31.771  1.00  0.00     0.004 C 
ENDBRANCH  14  15
ENDBRANCH  13  14
ENDBRANCH  12  13
ENDBRANCH  11  12
ENDBRANCH  10  11
ENDBRANCH   1  10
TORSDOF 12
ENDMDL
MODEL 3
REMARK VINA RESULT:    -5.328      1.837      3.408
REMARK INTER + INTRA:         -10.020
REMARK INTER:                  -8.701
REMARK INTRA:                  -1.319
REMARK UNBOUND:                -0.955
REMARK SMILES CCCCCCCCCCCCCC(=O)[O-]
REMARK SMILES IDX 8 1 9 2 10 3 11 4 12 5 13 6 14 7 15 8 16 9 7 10 6 11 5 12
REMARK SMILES IDX 4 13 3 14 2 15 1 16
REMARK H PARENT
REMARK Flexibility Score: inf
ROOT
ATOM      1  C   UNL     1     -10.247 -18.981  31.198  1.00  0.00     0.000 C 
ENDROOT
BRANCH   1   2
ATOM      2  C   UNL     1      -9.691 -17.817  32.027  1.00  0.00     0.000 C 
BRANCH   2   3
ATOM      3  C   UNL     1      -9.201 -16.681  31.122  1.00  0.00     0.000 C 
BRANCH   3   4
ATOM      4  C   UNL     1      -8.008 -15.949  31.753  1.00  0.00     0.000 C 
BRANCH   4   5
ATOM      5  C   UNL     1      -8.033 -14.430  31.508  1.00  0.00     0.006 C 
BRANCH   5   6
ATOM      6  C   UNL     1      -6.662 -13.834  31.142  1.00  0.00     0.053 C 
BRANCH   6   7
ATOM      7  C   UNL     1      -6.204 -14.233  29.771  1.00  0.00     0.041 C 
ATOM      8  O   UNL     1      -7.026 -14.288  28.818  1.00  0.00    -0.550 OA
ATOM      9  O   UNL     1      -4.863 -14.512  29.541  1.00  0.00    -0.550 OA
ENDBRANCH   6   7
ENDBRANCH   5   6
ENDBRANCH   4   5
ENDBRANCH   3   4
ENDBRANCH   2   3
ENDBRANCH   1   2
BRANCH   1  10
ATOM     10  C   UNL     1     -10.488 -18.558  29.745  1.00  0.00     0.000 C 
BRANCH  10  11
ATOM     11  C   UNL     1     -11.983 -18.583  29.404  1.00  0.00    -0.000 C 
BRANCH  11  12
ATOM     12  C   UNL     1     -12.669 -17.281  29.841  1.00  0.00    -0.000 C 
BRANCH  12  13
ATOM     13  C   UNL     1     -12.286 -16.077  28.962  1.00  0.00    -0.000 C 
BRANCH  13  14
ATOM     14  C   UNL     1     -12.308 -16.342  27.443  1.00  0.00    -0.000 C 
BRANCH  14  15
ATOM     15  C   UNL     1     -11.178 -15.661  26.649  1.00  0.00    -0.003 C 
ATOM     16  C   UNL     1      -9.825 -15.742  27.352  1.00  0.00     0.004 C 
ENDBRANCH  14  15
ENDBRANCH  13  14
ENDBRANCH  12  13
ENDBRANCH  11  12
ENDBRANCH  10  11
ENDBRANCH   1  10
TORSDOF 12
ENDMDL
MODEL 4
REMARK VINA RESULT:    -5.324      1.852      3.230
REMARK INTER + INTRA:         -10.014
REMARK INTER:                  -8.724
REMARK INTRA:                  -1.290
REMARK UNBOUND:                -0.955
REMARK SMILES CCCCCCCCCCCCCC(=O)[O-]
REMARK SMILES IDX 8 1 9 2 10 3 11 4 12 5 13 6 14 7 15 8 16 9 7 10 6 11 5 12
REMARK SMILES IDX 4 13 3 14 2 15 1 16
REMARK H PARENT
REMARK Flexibility Score: inf
ROOT
ATOM      1  C   UNL     1     -11.082 -17.991  32.816  1.00  0.00     0.000 C 
ENDROOT
BRANCH   1   2
ATOM      2  C   UNL     1     -11.543 -16.534  32.932  1.00  0.00     0.000 C 
BRANCH   2   3
ATOM      3  C   UNL     1     -11.090 -15.713  31.719  1.00  0.00     0.000 C 
BRANCH   3   4
ATOM      4  C   UNL     1      -9.737 -15.039  31.985  1.00  0.00     0.000 C 
BRANCH   4   5
ATOM      5  C   UNL     1      -8.538 -15.883  31.517  1.00  0.00     0.006 C 
BRANCH   5   6
ATOM      6  C   UNL     1      -7.170 -15.252  31.830  1.00  0.00     0.053 C 
BRANCH   6   7
ATOM      7  C   UNL     1      -7.043 -13.853  31.306  1.00  0.00     0.041 C 
ATOM      8  O   UNL     1      -7.023 -12.876  32.101  1.00  0.00    -0.550 OA
ATOM      9  O   UNL     1      -6.914 -13.632  29.941  1.00  0.00    -0.550 OA
ENDBRANCH   6   7
ENDBRANCH   5   6
ENDBRANCH   4   5
ENDBRANCH   3   4
ENDBRANCH   2   3
ENDBRANCH   1   2
BRANCH   1  10
ATOM     10  C   UNL     1     -11.582 -18.626  31.513  1.00  0.00     0.000 C 
BRANCH  10  11
ATOM     11  C   UNL     1     -10.414 -18.965  30.580  1.00  0.00    -0.000 C 
BRANCH  11  12
ATOM     12  C   UNL     1     -10.585 -18.287  29.213  1.00  0.00    -0.000 C 
BRANCH  12  13
ATOM     13  C   UNL     1     -12.056 -17.989  28.873  1.00  0.00    -0.000 C 
BRANCH  13  14
ATOM     14  C   UNL     1     -12.356 -16.525  28.489  1.00  0.00    -0.000 C 
BRANCH  14  15
ATOM     15  C   UNL     1     -12.189 -16.199  26.994  1.00  0.00    -0.003 C 
ATOM     16  C   UNL     1     -10.862 -15.512  26.679  1.00  0.00     0.004 C 
ENDBRANCH  14  15
ENDBRANCH  13  14
ENDBRANCH  12  13
ENDBRANCH  11  12
ENDBRANCH  10  11
ENDBRANCH   1  10
TORSDOF 12
ENDMDL
MODEL 5
REMARK VINA RESULT:    -5.246      1.919      5.469
REMARK INTER + INTRA:          -9.881
REMARK INTER:                  -8.918
REMARK INTRA:                  -0.962
REMARK UNBOUND:                -0.955
REMARK SMILES CCCCCCCCCCCCCC(=O)[O-]
REMARK SMILES IDX 8 1 9 2 10 3 11 4 12 5 13 6 14 7 15 8 16 9 7 10 6 11 5 12
REMARK SMILES IDX 4 13 3 14 2 15 1 16
REMARK H PARENT
REMARK Flexibility Score: inf
ROOT
ATOM      1  C   UNL     1     -12.487 -16.372  27.285  1.00  0.00     0.000 C 
ENDROOT
BRANCH   1   2
ATOM      2  C   UNL     1     -11.530 -15.560  26.404  1.00  0.00     0.000 C 
BRANCH   2   3
ATOM      3  C   UNL     1     -10.100 -15.607  26.954  1.00  0.00     0.000 C 
BRANCH   3   4
ATOM      4  C   UNL     1      -9.150 -14.763  26.093  1.00  0.00     0.000 C 
BRANCH   4   5
ATOM      5  C   UNL     1      -7.692 -15.252  26.144  1.00  0.00     0.006 C 
BRANCH   5   6
ATOM      6  C   UNL     1      -6.692 -14.186  26.624  1.00  0.00     0.053 C 
BRANCH   6   7
ATOM      7  C   UNL     1      -6.159 -14.469  27.997  1.00  0.00     0.041 C 
ATOM      8  O   UNL     1      -4.947 -14.771  28.159  1.00  0.00    -0.550 OA
ATOM      9  O   UNL     1      -6.996 -14.365  29.101  1.00  0.00    -0.550 OA
ENDBRANCH   6   7
ENDBRANCH   5   6
ENDBRANCH   4   5
ENDBRANCH   3   4
ENDBRANCH   2   3
ENDBRANCH   1   2
BRANCH   1  10
ATOM     10  C   UNL     1     -11.824 -16.754  28.613  1.00  0.00     0.000 C 
BRANCH  10  11
ATOM     11  C   UNL     1     -12.341 -15.877  29.760  1.00  0.00    -0.000 C 
BRANCH  11  12
ATOM     12  C   UNL     1     -11.430 -15.987  30.991  1.00  0.00    -0.000 C 
BRANCH  12  13
ATOM     13  C   UNL     1     -10.022 -16.506  30.650  1.00  0.00    -0.000 C 
BRANCH  13  14
ATOM     14  C   UNL     1      -9.509 -17.648  31.552  1.00  0.00    -0.000 C 
BRANCH  14  15
ATOM     15  C   UNL     1     -10.298 -18.965  31.442  1.00  0.00    -0.003 C 
ATOM     16  C   UNL     1     -11.335 -19.131  32.552  1.00  0.00     0.004 C 
ENDBRANCH  14  15
ENDBRANCH  13  14
ENDBRANCH  12  13
ENDBRANCH  11  12
ENDBRANCH  10  11
ENDBRANCH   1  10
TORSDOF 12
ENDMDL
MODEL 6
REMARK VINA RESULT:    -5.245      1.403      1.987
REMARK INTER + INTRA:          -9.879
REMARK INTER:                  -9.162
REMARK INTRA:                  -0.717
REMARK UNBOUND:                -0.955
REMARK SMILES CCCCCCCCCCCCCC(=O)[O-]
REMARK SMILES IDX 8 1 9 2 10 3 11 4 12 5 13 6 14 7 15 8 16 9 7 10 6 11 5 12
REMARK SMILES IDX 4 13 3 14 2 15 1 16
REMARK H PARENT
REMARK Flexibility Score: inf
ROOT
ATOM      1  C   UNL     1     -11.739 -16.231  29.445  1.00  0.00     0.000 C 
ENDROOT
BRANCH   1   2
ATOM      2  C   UNL     1     -12.217 -16.732  30.812  1.00  0.00     0.000 C 
BRANCH   2   3
ATOM      3  C   UNL     1     -11.264 -16.286  31.927  1.00  0.00     0.000 C 
BRANCH   3   4
ATOM      4  C   UNL     1     -10.285 -17.409  32.297  1.00  0.00     0.000 C 
BRANCH   4   5
ATOM      5  C   UNL     1      -8.837 -17.114  31.867  1.00  0.00     0.006 C 
BRANCH   5   6
ATOM      6  C   UNL     1      -8.683 -15.832  31.031  1.00  0.00     0.053 C 
BRANCH   6   7
ATOM      7  C   UNL     1      -8.072 -14.704  31.807  1.00  0.00     0.041 C 
ATOM      8  O   UNL     1      -8.771 -13.711  32.142  1.00  0.00    -0.550 OA
ATOM      9  O   UNL     1      -6.738 -14.766  32.190  1.00  0.00    -0.550 OA
ENDBRANCH   6   7
ENDBRANCH   5   6
ENDBRANCH   4   5
ENDBRANCH   3   4
ENDBRANCH   2   3
ENDBRANCH   1   2
BRANCH   1  10
ATOM     10  C   UNL     1     -12.794 -16.488  28.363  1.00  0.00     0.000 C 
BRANCH  10  11
ATOM     11  C   UNL     1     -12.277 -16.077  26.979  1.00  0.00    -0.000 C 
BRANCH  11  12
ATOM     12  C   UNL     1     -10.789 -15.703  27.036  1.00  0.00    -0.000 C 
BRANCH  12  13
ATOM     13  C   UNL     1     -10.332 -14.876  25.822  1.00  0.00    -0.000 C 
BRANCH  13  14
ATOM     14  C   UNL     1      -8.952 -14.203  25.969  1.00  0.00    -0.000 C 
BRANCH  14  15
ATOM     15  C   UNL     1      -7.792 -15.165  26.282  1.00  0.00    -0.003 C 
ATOM     16  C   UNL     1      -6.566 -14.453  26.850  1.00  0.00     0.004 C 
ENDBRANCH  14  15
ENDBRANCH  13  14
ENDBRANCH  12  13
ENDBRANCH  11  12
ENDBRANCH  10  11
ENDBRANCH   1  10
TORSDOF 12
ENDMDL
MODEL 7
REMARK VINA RESULT:    -5.225      2.522      4.504
REMARK INTER + INTRA:          -9.845
REMARK INTER:                  -8.785
REMARK INTRA:                  -1.060
REMARK UNBOUND:                -0.955
REMARK SMILES CCCCCCCCCCCCCC(=O)[O-]
REMARK SMILES IDX 8 1 9 2 10 3 11 4 12 5 13 6 14 7 15 8 16 9 7 10 6 11 5 12
REMARK SMILES IDX 4 13 3 14 2 15 1 16
REMARK H PARENT
REMARK Flexibility Score: inf
ROOT
ATOM      1  C   UNL     1      -6.777 -15.266  31.194  1.00  0.00     0.000 C 
ENDROOT
BRANCH   1   2
ATOM      2  C   UNL     1      -8.222 -15.426  30.709  1.00  0.00     0.000 C 
BRANCH   2   3
ATOM      3  C   UNL     1      -9.113 -16.013  31.811  1.00  0.00     0.000 C 
BRANCH   3   4
ATOM      4  C   UNL     1      -8.919 -17.531  31.926  1.00  0.00     0.000 C 
BRANCH   4   5
ATOM      5  C   UNL     1     -10.172 -18.333  31.530  1.00  0.00     0.006 C 
BRANCH   5   6
ATOM      6  C   UNL     1     -10.228 -18.707  30.039  1.00  0.00     0.053 C 
BRANCH   6   7
ATOM      7  C   UNL     1     -11.151 -17.825  29.254  1.00  0.00     0.041 C 
ATOM      8  O   UNL     1     -10.687 -16.911  28.522  1.00  0.00    -0.550 OA
ATOM      9  O   UNL     1     -12.523 -18.034  29.307  1.00  0.00    -0.550 OA
ENDBRANCH   6   7
ENDBRANCH   5   6
ENDBRANCH   4   5
ENDBRANCH   3   4
ENDBRANCH   2   3
ENDBRANCH   1   2
BRANCH   1  10
ATOM     10  C   UNL     1      -6.058 -14.151  30.427  1.00  0.00     0.000 C 
BRANCH  10  11
ATOM     11  C   UNL     1      -6.755 -13.860  29.093  1.00  0.00    -0.000 C 
BRANCH  11  12
ATOM     12  C   UNL     1      -6.001 -14.509  27.924  1.00  0.00    -0.000 C 
BRANCH  12  13
ATOM     13  C   UNL     1      -6.815 -14.519  26.618  1.00  0.00    -0.000 C 
BRANCH  13  14
ATOM     14  C   UNL     1      -8.211 -15.167  26.722  1.00  0.00    -0.000 C 
BRANCH  14  15
ATOM     15  C   UNL     1      -9.288 -14.532  25.824  1.00  0.00    -0.003 C 
ATOM     16  C   UNL     1      -8.864 -13.182  25.249  1.00  0.00     0.004 C 
ENDBRANCH  14  15
ENDBRANCH  13  14
ENDBRANCH  12  13
ENDBRANCH  11  12
ENDBRANCH  10  11
ENDBRANCH   1  10
TORSDOF 12
ENDMDL
MODEL 8
REMARK VINA RESULT:    -5.205      2.092      5.009
REMARK INTER + INTRA:          -9.811
REMARK INTER:                  -8.837
REMARK INTRA:                  -0.974
REMARK UNBOUND:                -0.955
REMARK SMILES CCCCCCCCCCCCCC(=O)[O-]
REMARK SMILES IDX 8 1 9 2 10 3 11 4 12 5 13 6 14 7 15 8 16 9 7 10 6 11 5 12
REMARK SMILES IDX 4 13 3 14 2 15 1 16
REMARK H PARENT
REMARK Flexibility Score: inf
ROOT
ATOM      1  C   UNL     1     -12.157 -18.221  30.135  1.00  0.00     0.000 C 
ENDROOT
BRANCH   1   2
ATOM      2  C   UNL     1     -12.703 -16.789  30.106  1.00  0.00     0.000 C 
BRANCH   2   3
ATOM      3  C   UNL     1     -12.973 -16.330  28.669  1.00  0.00     0.000 C 
BRANCH   3   4
ATOM      4  C   UNL     1     -11.863 -16.806  27.721  1.00  0.00     0.000 C 
BRANCH   4   5
ATOM      5  C   UNL     1     -10.668 -15.838  27.655  1.00  0.00     0.006 C 
BRANCH   5   6
ATOM      6  C   UNL     1     -10.391 -15.282  26.247  1.00  0.00     0.053 C 
BRANCH   6   7
ATOM      7  C   UNL     1      -9.049 -14.625  26.137  1.00  0.00     0.041 C 
ATOM      8  O   UNL     1      -8.953 -13.437  25.728  1.00  0.00    -0.550 OA
ATOM      9  O   UNL     1      -7.905 -15.314  26.520  1.00  0.00    -0.550 OA
ENDBRANCH   6   7
ENDBRANCH   5   6
ENDBRANCH   4   5
ENDBRANCH   3   4
ENDBRANCH   2   3
ENDBRANCH   1   2
BRANCH   1  10
ATOM     10  C   UNL     1     -11.334 -18.473  31.403  1.00  0.00     0.000 C 
BRANCH  10  11
ATOM     11  C   UNL     1      -9.839 -18.256  31.142  1.00  0.00    -0.000 C 
BRANCH  11  12
ATOM     12  C   UNL     1      -9.353 -16.946  31.778  1.00  0.00    -0.000 C 
BRANCH  12  13
ATOM     13  C   UNL     1      -7.866 -16.985  32.170  1.00  0.00    -0.000 C 
BRANCH  13  14
ATOM     14  C   UNL     1      -7.048 -15.742  31.763  1.00  0.00    -0.000 C 
BRANCH  14  15
ATOM     15  C   UNL     1      -7.656 -14.912  30.618  1.00  0.00    -0.003 C 
ATOM     16  C   UNL     1      -6.600 -14.212  29.765  1.00  0.00     0.004 C 
ENDBRANCH  14  15
ENDBRANCH  13  14
ENDBRANCH  12  13
ENDBRANCH  11  12
ENDBRANCH  10  11
ENDBRANCH   1  10
TORSDOF 12
ENDMDL
MODEL 9
REMARK VINA RESULT:    -5.143      2.459      5.124
REMARK INTER + INTRA:          -9.706
REMARK INTER:                  -8.827
REMARK INTRA:                  -0.879
REMARK UNBOUND:                -0.955
REMARK SMILES CCCCCCCCCCCCCC(=O)[O-]
REMARK SMILES IDX 8 1 9 2 10 3 11 4 12 5 13 6 14 7 15 8 16 9 7 10 6 11 5 12
REMARK SMILES IDX 4 13 3 14 2 15 1 16
REMARK H PARENT
REMARK Flexibility Score: inf
ROOT
ATOM      1  C   UNL     1     -10.874 -17.028  32.587  1.00  0.00     0.000 C 
ENDROOT
BRANCH   1   2
ATOM      2  C   UNL     1     -12.094 -16.786  31.691  1.00  0.00     0.000 C 
BRANCH   2   3
ATOM      3  C   UNL     1     -12.306 -17.955  30.721  1.00  0.00     0.000 C 
BRANCH   3   4
ATOM      4  C   UNL     1     -13.358 -17.605  29.659  1.00  0.00     0.000 C 
BRANCH   4   5
ATOM      5  C   UNL     1     -13.057 -16.290  28.918  1.00  0.00     0.006 C 
BRANCH   5   6
ATOM      6  C   UNL     1     -12.443 -16.487  27.521  1.00  0.00     0.053 C 
BRANCH   6   7
ATOM      7  C   UNL     1     -11.034 -15.983  27.431  1.00  0.00     0.041 C 
ATOM      8  O   UNL     1     -10.685 -15.236  26.479  1.00  0.00    -0.550 OA
ATOM      9  O   UNL     1     -10.115 -16.314  28.419  1.00  0.00    -0.550 OA
ENDBRANCH   6   7
ENDBRANCH   5   6
ENDBRANCH   4   5
ENDBRANCH   3   4
ENDBRANCH   2   3
ENDBRANCH   1   2
BRANCH   1  10
ATOM     10  C   UNL     1      -9.705 -17.609  31.783  1.00  0.00     0.000 C 
BRANCH  10  11
ATOM     11  C   UNL     1      -8.482 -16.686  31.842  1.00  0.00    -0.000 C 
BRANCH  11  12
ATOM     12  C   UNL     1      -8.883 -15.225  31.596  1.00  0.00    -0.000 C 
BRANCH  12  13
ATOM     13  C   UNL     1      -7.692 -14.336  31.196  1.00  0.00    -0.000 C 
BRANCH  13  14
ATOM     14  C   UNL     1      -7.177 -13.393  32.302  1.00  0.00    -0.000 C 
BRANCH  14  15
ATOM     15  C   UNL     1      -6.436 -12.143  31.796  1.00  0.00    -0.003 C 
ATOM     16  C   UNL     1      -5.715 -12.375  30.469  1.00  0.00     0.004 C 
ENDBRANCH  14  15
ENDBRANCH  13  14
ENDBRANCH  12  13
ENDBRANCH  11  12
ENDBRANCH  10  11
ENDBRANCH   1  10
TORSDOF 12
ENDMDL
