MODEL 1
REMARK VINA RESULT:    -4.200      0.000      0.000
REMARK INTER + INTRA:         -13.258
REMARK INTER:                 -10.584
REMARK INTRA:                  -2.673
REMARK UNBOUND:                -2.673
REMARK SMILES CCCCCCCCCCCCCCCCCCCCCCCCCCCC(=O)[O-]
REMARK SMILES IDX 15 1 16 2 17 3 18 4 19 5 20 6 21 7 22 8 23 9 24 10 25 11
REMARK SMILES IDX 26 12 27 13 28 14 29 15 30 16 14 17 13 18 12 19 11 20 10 21
REMARK SMILES IDX 9 22 8 23 7 24 6 25 5 26 4 27 3 28 2 29 1 30
REMARK H PARENT
REMARK Flexibility Score: inf
ROOT
ATOM      1  C   UNL     1     155.432 159.357 163.539  1.00  0.00     0.000 C 
ENDROOT
BRANCH   1   2
ATOM      2  C   UNL     1     154.512 160.059 162.526  1.00  0.00     0.000 C 
BRANCH   2   3
ATOM      3  C   UNL     1     153.651 159.063 161.731  1.00  0.00     0.000 C 
BRANCH   3   4
ATOM      4  C   UNL     1     152.167 159.130 162.129  1.00  0.00     0.000 C 
BRANCH   4   5
ATOM      5  C   UNL     1     151.841 158.250 163.355  1.00  0.00     0.000 C 
BRANCH   5   6
ATOM      6  C   UNL     1     151.083 156.956 163.004  1.00  0.00     0.000 C 
BRANCH   6   7
ATOM      7  C   UNL     1     151.973 155.716 162.808  1.00  0.00     0.000 C 
BRANCH   7   8
ATOM      8  C   UNL     1     152.651 155.609 161.428  1.00  0.00     0.000 C 
BRANCH   8   9
ATOM      9  C   UNL     1     154.180 155.495 161.520  1.00  0.00     0.000 C 
BRANCH   9  10
ATOM     10  C   UNL     1     154.670 155.754 162.951  1.00  0.00     0.000 C 
BRANCH  10  11
ATOM     11  C   UNL     1     155.294 154.487 163.553  1.00  0.00     0.000 C 
BRANCH  11  12
ATOM     12  C   UNL     1     155.790 153.508 162.476  1.00  0.00     0.006 C 
BRANCH  12  13
ATOM     13  C   UNL     1     156.672 152.396 163.059  1.00  0.00     0.053 C 
BRANCH  13  14
ATOM     14  C   UNL     1     157.481 152.911 164.208  1.00  0.00     0.041 C 
ATOM     15  O   UNL     1     157.252 152.502 165.377  1.00  0.00    -0.550 OA
ATOM     16  O   UNL     1     158.507 153.823 163.985  1.00  0.00    -0.550 OA
ENDBRANCH  13  14
ENDBRANCH  12  13
ENDBRANCH  11  12
ENDBRANCH  10  11
ENDBRANCH   9  10
ENDBRANCH   8   9
ENDBRANCH   7   8
ENDBRANCH   6   7
ENDBRANCH   5   6
ENDBRANCH   4   5
ENDBRANCH   3   4
ENDBRANCH   2   3
ENDBRANCH   1   2
BRANCH   1  17
ATOM     17  C   UNL     1     156.741 160.123 163.791  1.00  0.00     0.000 C 
BRANCH  17  18
ATOM     18  C   UNL     1     157.771 159.337 164.631  1.00  0.00     0.000 C 
BRANCH  18  19
ATOM     19  C   UNL     1     159.172 159.358 164.000  1.00  0.00     0.000 C 
BRANCH  19  20
ATOM     20  C   UNL     1     160.242 159.697 165.045  1.00  0.00     0.000 C 
BRANCH  20  21
ATOM     21  C   UNL     1     161.279 158.568 165.155  1.00  0.00     0.000 C 
BRANCH  21  22
ATOM     22  C   UNL     1     160.880 157.318 164.356  1.00  0.00    -0.000 C 
BRANCH  22  23
ATOM     23  C   UNL     1     161.541 156.037 164.894  1.00  0.00    -0.000 C 
BRANCH  23  24
ATOM     24  C   UNL     1     162.196 156.247 166.268  1.00  0.00    -0.000 C 
BRANCH  24  25
ATOM     25  C   UNL     1     163.673 155.816 166.291  1.00  0.00    -0.000 C 
BRANCH  25  26
ATOM     26  C   UNL     1     164.313 155.810 164.892  1.00  0.00    -0.000 C 
BRANCH  26  27
ATOM     27  C   UNL     1     165.538 154.886 164.744  1.00  0.00    -0.000 C 
BRANCH  27  28
ATOM     28  C   UNL     1     165.262 153.539 164.045  1.00  0.00    -0.000 C 
BRANCH  28  29
ATOM     29  C   UNL     1     163.787 153.287 163.685  1.00  0.00    -0.003 C 
ATOM     30  C   UNL     1     163.399 151.812 163.772  1.00  0.00     0.004 C 
ENDBRANCH  28  29
ENDBRANCH  27  28
ENDBRANCH  26  27
ENDBRANCH  25  26
ENDBRANCH  24  25
ENDBRANCH  23  24
ENDBRANCH  22  23
ENDBRANCH  21  22
ENDBRANCH  20  21
ENDBRANCH  19  20
ENDBRANCH  18  19
ENDBRANCH  17  18
ENDBRANCH   1  17
TORSDOF 26
ENDMDL
MODEL 2
REMARK VINA RESULT:    -4.159      5.844      7.566
REMARK INTER + INTRA:         -13.154
REMARK INTER:                  -7.588
REMARK INTRA:                  -5.566
REMARK UNBOUND:                -2.673
REMARK SMILES CCCCCCCCCCCCCCCCCCCCCCCCCCCC(=O)[O-]
REMARK SMILES IDX 15 1 16 2 17 3 18 4 19 5 20 6 21 7 22 8 23 9 24 10 25 11
REMARK SMILES IDX 26 12 27 13 28 14 29 15 30 16 14 17 13 18 12 19 11 20 10 21
REMARK SMILES IDX 9 22 8 23 7 24 6 25 5 26 4 27 3 28 2 29 1 30
REMARK H PARENT
REMARK Flexibility Score: inf
ROOT
ATOM      1  C   UNL     1     161.693 156.750 163.750  1.00  0.00     0.000 C 
ENDROOT
BRANCH   1   2
ATOM      2  C   UNL     1     161.983 155.382 163.111  1.00  0.00     0.000 C 
BRANCH   2   3
ATOM      3  C   UNL     1     161.591 154.213 164.030  1.00  0.00     0.000 C 
BRANCH   3   4
ATOM      4  C   UNL     1     162.628 153.076 164.002  1.00  0.00     0.000 C 
BRANCH   4   5
ATOM      5  C   UNL     1     162.221 151.928 163.052  1.00  0.00     0.000 C 
BRANCH   5   6
ATOM      6  C   UNL     1     160.794 151.403 163.293  1.00  0.00     0.000 C 
BRANCH   6   7
ATOM      7  C   UNL     1     159.921 151.294 162.030  1.00  0.00     0.000 C 
BRANCH   7   8
ATOM      8  C   UNL     1     159.549 152.637 161.374  1.00  0.00     0.000 C 
BRANCH   8   9
ATOM      9  C   UNL     1     159.378 152.534 159.851  1.00  0.00     0.000 C 
BRANCH   9  10
ATOM     10  C   UNL     1     160.355 153.464 159.120  1.00  0.00     0.000 C 
BRANCH  10  11
ATOM     11  C   UNL     1     161.344 154.101 160.107  1.00  0.00     0.000 C 
BRANCH  11  12
ATOM     12  C   UNL     1     162.804 153.729 159.798  1.00  0.00     0.006 C 
BRANCH  12  13
ATOM     13  C   UNL     1     163.594 154.904 159.208  1.00  0.00     0.053 C 
BRANCH  13  14
ATOM     14  C   UNL     1     164.481 154.439 158.096  1.00  0.00     0.041 C 
ATOM     15  O   UNL     1     165.682 154.810 158.046  1.00  0.00    -0.550 OA
ATOM     16  O   UNL     1     163.988 153.570 157.128  1.00  0.00    -0.550 OA
ENDBRANCH  13  14
ENDBRANCH  12  13
ENDBRANCH  11  12
ENDBRANCH  10  11
ENDBRANCH   9  10
ENDBRANCH   8   9
ENDBRANCH   7   8
ENDBRANCH   6   7
ENDBRANCH   5   6
ENDBRANCH   4   5
ENDBRANCH   3   4
ENDBRANCH   2   3
ENDBRANCH   1   2
BRANCH   1  17
ATOM     17  C   UNL     1     161.664 156.700 165.287  1.00  0.00     0.000 C 
BRANCH  17  18
ATOM     18  C   UNL     1     162.993 157.125 165.948  1.00  0.00     0.000 C 
BRANCH  18  19
ATOM     19  C   UNL     1     163.638 155.980 166.743  1.00  0.00     0.000 C 
BRANCH  19  20
ATOM     20  C   UNL     1     164.710 155.266 165.912  1.00  0.00     0.000 C 
BRANCH  20  21
ATOM     21  C   UNL     1     165.301 156.209 164.851  1.00  0.00     0.000 C 
BRANCH  21  22
ATOM     22  C   UNL     1     166.248 155.486 163.879  1.00  0.00    -0.000 C 
BRANCH  22  23
ATOM     23  C   UNL     1     165.493 154.735 162.769  1.00  0.00    -0.000 C 
BRANCH  23  24
ATOM     24  C   UNL     1     166.345 154.548 161.503  1.00  0.00    -0.000 C 
BRANCH  24  25
ATOM     25  C   UNL     1     166.604 153.066 161.179  1.00  0.00    -0.000 C 
BRANCH  25  26
ATOM     26  C   UNL     1     165.818 152.110 162.094  1.00  0.00    -0.000 C 
BRANCH  26  27
ATOM     27  C   UNL     1     166.690 151.167 162.946  1.00  0.00    -0.000 C 
BRANCH  27  28
ATOM     28  C   UNL     1     167.058 151.700 164.345  1.00  0.00    -0.000 C 
BRANCH  28  29
ATOM     29  C   UNL     1     165.874 151.836 165.318  1.00  0.00    -0.003 C 
ATOM     30  C   UNL     1     165.137 150.517 165.544  1.00  0.00     0.004 C 
ENDBRANCH  28  29
ENDBRANCH  27  28
ENDBRANCH  26  27
ENDBRANCH  25  26
ENDBRANCH  24  25
ENDBRANCH  23  24
ENDBRANCH  22  23
ENDBRANCH  21  22
ENDBRANCH  20  21
ENDBRANCH  19  20
ENDBRANCH  18  19
ENDBRANCH  17  18
ENDBRANCH   1  17
TORSDOF 26
ENDMDL
MODEL 3
REMARK VINA RESULT:    -4.133      6.200     10.071
REMARK INTER + INTRA:         -13.088
REMARK INTER:                  -8.919
REMARK INTRA:                  -4.169
REMARK UNBOUND:                -2.673
REMARK SMILES CCCCCCCCCCCCCCCCCCCCCCCCCCCC(=O)[O-]
REMARK SMILES IDX 15 1 16 2 17 3 18 4 19 5 20 6 21 7 22 8 23 9 24 10 25 11
REMARK SMILES IDX 26 12 27 13 28 14 29 15 30 16 14 17 13 18 12 19 11 20 10 21
REMARK SMILES IDX 9 22 8 23 7 24 6 25 5 26 4 27 3 28 2 29 1 30
REMARK H PARENT
REMARK Flexibility Score: inf
ROOT
ATOM      1  C   UNL     1     162.732 153.472 159.878  1.00  0.00     0.000 C 
ENDROOT
BRANCH   1   2
ATOM      2  C   UNL     1     163.369 154.866 160.004  1.00  0.00     0.000 C 
BRANCH   2   3
ATOM      3  C   UNL     1     164.902 154.821 159.883  1.00  0.00     0.000 C 
BRANCH   3   4
ATOM      4  C   UNL     1     165.414 153.425 159.487  1.00  0.00     0.000 C 
BRANCH   4   5
ATOM      5  C   UNL     1     166.365 153.466 158.271  1.00  0.00     0.000 C 
BRANCH   5   6
ATOM      6  C   UNL     1     166.414 154.836 157.571  1.00  0.00     0.000 C 
BRANCH   6   7
ATOM      7  C   UNL     1     165.667 154.905 156.227  1.00  0.00     0.000 C 
BRANCH   7   8
ATOM      8  C   UNL     1     164.188 155.328 156.322  1.00  0.00     0.000 C 
BRANCH   8   9
ATOM      9  C   UNL     1     163.217 154.144 156.198  1.00  0.00     0.000 C 
BRANCH   9  10
ATOM     10  C   UNL     1     161.762 154.604 156.350  1.00  0.00     0.000 C 
BRANCH  10  11
ATOM     11  C   UNL     1     160.871 153.962 155.276  1.00  0.00     0.000 C 
BRANCH  11  12
ATOM     12  C   UNL     1     160.800 154.804 153.992  1.00  0.00     0.006 C 
BRANCH  12  13
ATOM     13  C   UNL     1     159.357 155.040 153.527  1.00  0.00     0.053 C 
BRANCH  13  14
ATOM     14  C   UNL     1     159.332 155.548 152.119  1.00  0.00     0.041 C 
ATOM     15  O   UNL     1     160.248 156.304 151.704  1.00  0.00    -0.550 OA
ATOM     16  O   UNL     1     158.312 155.162 151.257  1.00  0.00    -0.550 OA
ENDBRANCH  13  14
ENDBRANCH  12  13
ENDBRANCH  11  12
ENDBRANCH  10  11
ENDBRANCH   9  10
ENDBRANCH   8   9
ENDBRANCH   7   8
ENDBRANCH   6   7
ENDBRANCH   5   6
ENDBRANCH   4   5
ENDBRANCH   3   4
ENDBRANCH   2   3
ENDBRANCH   1   2
BRANCH   1  17
ATOM     17  C   UNL     1     161.463 153.315 160.732  1.00  0.00     0.000 C 
BRANCH  17  18
ATOM     18  C   UNL     1     161.494 154.122 162.048  1.00  0.00     0.000 C 
BRANCH  18  19
ATOM     19  C   UNL     1     161.229 153.239 163.277  1.00  0.00     0.000 C 
BRANCH  19  20
ATOM     20  C   UNL     1     161.896 151.867 163.124  1.00  0.00     0.000 C 
BRANCH  20  21
ATOM     21  C   UNL     1     163.240 151.823 163.869  1.00  0.00     0.000 C 
BRANCH  21  22
ATOM     22  C   UNL     1     164.432 152.158 162.959  1.00  0.00    -0.000 C 
BRANCH  22  23
ATOM     23  C   UNL     1     165.040 153.537 163.266  1.00  0.00    -0.000 C 
BRANCH  23  24
ATOM     24  C   UNL     1     164.543 154.114 164.601  1.00  0.00    -0.000 C 
BRANCH  24  25
ATOM     25  C   UNL     1     164.151 155.598 164.494  1.00  0.00    -0.000 C 
BRANCH  25  26
ATOM     26  C   UNL     1     163.376 156.100 165.725  1.00  0.00    -0.000 C 
BRANCH  26  27
ATOM     27  C   UNL     1     161.845 156.157 165.548  1.00  0.00    -0.000 C 
BRANCH  27  28
ATOM     28  C   UNL     1     161.360 156.886 164.280  1.00  0.00    -0.000 C 
BRANCH  28  29
ATOM     29  C   UNL     1     160.584 158.190 164.540  1.00  0.00    -0.003 C 
ATOM     30  C   UNL     1     161.413 159.235 165.285  1.00  0.00     0.004 C 
ENDBRANCH  28  29
ENDBRANCH  27  28
ENDBRANCH  26  27
ENDBRANCH  25  26
ENDBRANCH  24  25
ENDBRANCH  23  24
ENDBRANCH  22  23
ENDBRANCH  21  22
ENDBRANCH  20  21
ENDBRANCH  19  20
ENDBRANCH  18  19
ENDBRANCH  17  18
ENDBRANCH   1  17
TORSDOF 26
ENDMDL
MODEL 4
REMARK VINA RESULT:    -4.129      4.401      9.542
REMARK INTER + INTRA:         -13.078
REMARK INTER:                  -8.034
REMARK INTRA:                  -5.044
REMARK UNBOUND:                -2.673
REMARK SMILES CCCCCCCCCCCCCCCCCCCCCCCCCCCC(=O)[O-]
REMARK SMILES IDX 15 1 16 2 17 3 18 4 19 5 20 6 21 7 22 8 23 9 24 10 25 11
REMARK SMILES IDX 26 12 27 13 28 14 29 15 30 16 14 17 13 18 12 19 11 20 10 21
REMARK SMILES IDX 9 22 8 23 7 24 6 25 5 26 4 27 3 28 2 29 1 30
REMARK H PARENT
REMARK Flexibility Score: inf
ROOT
ATOM      1  C   UNL     1     165.029 155.938 164.939  1.00  0.00     0.000 C 
ENDROOT
BRANCH   1   2
ATOM      2  C   UNL     1     165.204 154.754 163.974  1.00  0.00     0.000 C 
BRANCH   2   3
ATOM      3  C   UNL     1     166.609 154.135 164.056  1.00  0.00     0.000 C 
BRANCH   3   4
ATOM      4  C   UNL     1     166.564 152.623 164.336  1.00  0.00     0.000 C 
BRANCH   4   5
ATOM      5  C   UNL     1     165.215 152.172 164.936  1.00  0.00     0.000 C 
BRANCH   5   6
ATOM      6  C   UNL     1     165.146 150.663 165.237  1.00  0.00     0.000 C 
BRANCH   6   7
ATOM      7  C   UNL     1     165.329 149.748 164.012  1.00  0.00     0.000 C 
BRANCH   7   8
ATOM      8  C   UNL     1     164.191 149.807 162.976  1.00  0.00     0.000 C 
BRANCH   8   9
ATOM      9  C   UNL     1     164.630 150.419 161.637  1.00  0.00     0.000 C 
BRANCH   9  10
ATOM     10  C   UNL     1     164.101 151.851 161.484  1.00  0.00     0.000 C 
BRANCH  10  11
ATOM     11  C   UNL     1     164.843 152.590 160.361  1.00  0.00     0.000 C 
BRANCH  11  12
ATOM     12  C   UNL     1     164.872 154.112 160.580  1.00  0.00     0.006 C 
BRANCH  12  13
ATOM     13  C   UNL     1     164.698 154.894 159.270  1.00  0.00     0.053 C 
BRANCH  13  14
ATOM     14  C   UNL     1     163.426 154.502 158.587  1.00  0.00     0.041 C 
ATOM     15  O   UNL     1     163.456 153.999 157.433  1.00  0.00    -0.550 OA
ATOM     16  O   UNL     1     162.207 154.665 159.236  1.00  0.00    -0.550 OA
ENDBRANCH  13  14
ENDBRANCH  12  13
ENDBRANCH  11  12
ENDBRANCH  10  11
ENDBRANCH   9  10
ENDBRANCH   8   9
ENDBRANCH   7   8
ENDBRANCH   6   7
ENDBRANCH   5   6
ENDBRANCH   4   5
ENDBRANCH   3   4
ENDBRANCH   2   3
ENDBRANCH   1   2
BRANCH   1  17
ATOM     17  C   UNL     1     164.377 155.533 166.272  1.00  0.00     0.000 C 
BRANCH  17  18
ATOM     18  C   UNL     1     163.020 156.221 166.535  1.00  0.00     0.000 C 
BRANCH  18  19
ATOM     19  C   UNL     1     162.856 157.514 165.720  1.00  0.00     0.000 C 
BRANCH  19  20
ATOM     20  C   UNL     1     161.523 157.524 164.964  1.00  0.00     0.000 C 
BRANCH  20  21
ATOM     21  C   UNL     1     161.174 156.119 164.447  1.00  0.00     0.000 C 
BRANCH  21  22
ATOM     22  C   UNL     1     161.739 155.849 163.043  1.00  0.00    -0.000 C 
BRANCH  22  23
ATOM     23  C   UNL     1     161.790 154.348 162.706  1.00  0.00    -0.000 C 
BRANCH  23  24
ATOM     24  C   UNL     1     161.815 153.464 163.964  1.00  0.00    -0.000 C 
BRANCH  24  25
ATOM     25  C   UNL     1     161.156 152.093 163.735  1.00  0.00    -0.000 C 
BRANCH  25  26
ATOM     26  C   UNL     1     160.334 152.036 162.436  1.00  0.00    -0.000 C 
BRANCH  26  27
ATOM     27  C   UNL     1     158.805 152.078 162.634  1.00  0.00    -0.000 C 
BRANCH  27  28
ATOM     28  C   UNL     1     158.317 152.996 163.771  1.00  0.00    -0.000 C 
BRANCH  28  29
ATOM     29  C   UNL     1     157.316 152.347 164.743  1.00  0.00    -0.003 C 
ATOM     30  C   UNL     1     155.903 152.910 164.604  1.00  0.00     0.004 C 
ENDBRANCH  28  29
ENDBRANCH  27  28
ENDBRANCH  26  27
ENDBRANCH  25  26
ENDBRANCH  24  25
ENDBRANCH  23  24
ENDBRANCH  22  23
ENDBRANCH  21  22
ENDBRANCH  20  21
ENDBRANCH  19  20
ENDBRANCH  18  19
ENDBRANCH  17  18
ENDBRANCH   1  17
TORSDOF 26
ENDMDL
MODEL 5
REMARK VINA RESULT:    -4.102      6.738     10.209
REMARK INTER + INTRA:         -13.010
REMARK INTER:                  -7.765
REMARK INTRA:                  -5.245
REMARK UNBOUND:                -2.673
REMARK SMILES CCCCCCCCCCCCCCCCCCCCCCCCCCCC(=O)[O-]
REMARK SMILES IDX 15 1 16 2 17 3 18 4 19 5 20 6 21 7 22 8 23 9 24 10 25 11
REMARK SMILES IDX 26 12 27 13 28 14 29 15 30 16 14 17 13 18 12 19 11 20 10 21
REMARK SMILES IDX 9 22 8 23 7 24 6 25 5 26 4 27 3 28 2 29 1 30
REMARK H PARENT
REMARK Flexibility Score: inf
ROOT
ATOM      1  C   UNL     1     161.992 154.669 161.105  1.00  0.00     0.000 C 
ENDROOT
BRANCH   1   2
ATOM      2  C   UNL     1     163.279 154.852 160.284  1.00  0.00     0.000 C 
BRANCH   2   3
ATOM      3  C   UNL     1     164.498 154.195 160.953  1.00  0.00     0.000 C 
BRANCH   3   4
ATOM      4  C   UNL     1     165.822 154.848 160.521  1.00  0.00     0.000 C 
BRANCH   4   5
ATOM      5  C   UNL     1     167.022 153.881 160.629  1.00  0.00     0.000 C 
BRANCH   5   6
ATOM      6  C   UNL     1     166.764 152.502 159.993  1.00  0.00     0.000 C 
BRANCH   6   7
ATOM      7  C   UNL     1     167.270 152.349 158.548  1.00  0.00     0.000 C 
BRANCH   7   8
ATOM      8  C   UNL     1     166.245 151.768 157.555  1.00  0.00     0.000 C 
BRANCH   8   9
ATOM      9  C   UNL     1     164.856 152.411 157.682  1.00  0.00     0.000 C 
BRANCH   9  10
ATOM     10  C   UNL     1     164.609 153.422 156.555  1.00  0.00     0.000 C 
BRANCH  10  11
ATOM     11  C   UNL     1     164.934 154.849 157.020  1.00  0.00     0.000 C 
BRANCH  11  12
ATOM     12  C   UNL     1     166.143 155.446 156.281  1.00  0.00     0.006 C 
BRANCH  12  13
ATOM     13  C   UNL     1     165.728 156.293 155.071  1.00  0.00     0.053 C 
BRANCH  13  14
ATOM     14  C   UNL     1     166.753 157.346 154.788  1.00  0.00     0.041 C 
ATOM     15  O   UNL     1     166.526 158.547 155.091  1.00  0.00    -0.550 OA
ATOM     16  O   UNL     1     167.971 156.998 154.214  1.00  0.00    -0.550 OA
ENDBRANCH  13  14
ENDBRANCH  12  13
ENDBRANCH  11  12
ENDBRANCH  10  11
ENDBRANCH   9  10
ENDBRANCH   8   9
ENDBRANCH   7   8
ENDBRANCH   6   7
ENDBRANCH   5   6
ENDBRANCH   4   5
ENDBRANCH   3   4
ENDBRANCH   2   3
ENDBRANCH   1   2
BRANCH   1  17
ATOM     17  C   UNL     1     162.082 155.295 162.507  1.00  0.00     0.000 C 
BRANCH  17  18
ATOM     18  C   UNL     1     161.106 154.672 163.530  1.00  0.00     0.000 C 
BRANCH  18  19
ATOM     19  C   UNL     1     161.456 155.059 164.975  1.00  0.00     0.000 C 
BRANCH  19  20
ATOM     20  C   UNL     1     161.681 156.570 165.103  1.00  0.00     0.000 C 
BRANCH  20  21
ATOM     21  C   UNL     1     162.894 156.872 165.998  1.00  0.00     0.000 C 
BRANCH  21  22
ATOM     22  C   UNL     1     163.985 155.794 165.898  1.00  0.00    -0.000 C 
BRANCH  22  23
ATOM     23  C   UNL     1     165.016 156.097 164.798  1.00  0.00    -0.000 C 
BRANCH  23  24
ATOM     24  C   UNL     1     165.669 154.823 164.237  1.00  0.00    -0.000 C 
BRANCH  24  25
ATOM     25  C   UNL     1     164.901 153.547 164.623  1.00  0.00    -0.000 C 
BRANCH  25  26
ATOM     26  C   UNL     1     165.444 152.290 163.921  1.00  0.00    -0.000 C 
BRANCH  26  27
ATOM     27  C   UNL     1     164.428 151.139 163.777  1.00  0.00    -0.000 C 
BRANCH  27  28
ATOM     28  C   UNL     1     162.955 151.577 163.653  1.00  0.00    -0.000 C 
BRANCH  28  29
ATOM     29  C   UNL     1     162.260 151.152 162.348  1.00  0.00    -0.003 C 
ATOM     30  C   UNL     1     163.248 150.849 161.222  1.00  0.00     0.004 C 
ENDBRANCH  28  29
ENDBRANCH  27  28
ENDBRANCH  26  27
ENDBRANCH  25  26
ENDBRANCH  24  25
ENDBRANCH  23  24
ENDBRANCH  22  23
ENDBRANCH  21  22
ENDBRANCH  20  21
ENDBRANCH  19  20
ENDBRANCH  18  19
ENDBRANCH  17  18
ENDBRANCH   1  17
TORSDOF 26
ENDMDL
MODEL 6
REMARK VINA RESULT:    -4.098      5.404      7.741
REMARK INTER + INTRA:         -13.000
REMARK INTER:                  -7.449
REMARK INTRA:                  -5.550
REMARK UNBOUND:                -2.673
REMARK SMILES CCCCCCCCCCCCCCCCCCCCCCCCCCCC(=O)[O-]
REMARK SMILES IDX 15 1 16 2 17 3 18 4 19 5 20 6 21 7 22 8 23 9 24 10 25 11
REMARK SMILES IDX 26 12 27 13 28 14 29 15 30 16 14 17 13 18 12 19 11 20 10 21
REMARK SMILES IDX 9 22 8 23 7 24 6 25 5 26 4 27 3 28 2 29 1 30
REMARK H PARENT
REMARK Flexibility Score: inf
ROOT
ATOM      1  C   UNL     1     162.611 151.601 163.433  1.00  0.00     0.000 C 
ENDROOT
BRANCH   1   2
ATOM      2  C   UNL     1     161.516 150.578 163.779  1.00  0.00     0.000 C 
BRANCH   2   3
ATOM      3  C   UNL     1     160.106 151.187 163.717  1.00  0.00     0.000 C 
BRANCH   3   4
ATOM      4  C   UNL     1     159.179 150.414 162.763  1.00  0.00     0.000 C 
BRANCH   4   5
ATOM      5  C   UNL     1     159.216 150.968 161.322  1.00  0.00     0.000 C 
BRANCH   5   6
ATOM      6  C   UNL     1     159.168 152.506 161.249  1.00  0.00     0.000 C 
BRANCH   6   7
ATOM      7  C   UNL     1     160.175 153.142 160.275  1.00  0.00     0.000 C 
BRANCH   7   8
ATOM      8  C   UNL     1     161.206 152.168 159.672  1.00  0.00     0.000 C 
BRANCH   8   9
ATOM      9  C   UNL     1     162.578 152.817 159.438  1.00  0.00     0.000 C 
BRANCH   9  10
ATOM     10  C   UNL     1     162.437 154.168 158.724  1.00  0.00     0.000 C 
BRANCH  10  11
ATOM     11  C   UNL     1     163.496 155.162 159.221  1.00  0.00     0.000 C 
BRANCH  11  12
ATOM     12  C   UNL     1     164.928 154.626 159.056  1.00  0.00     0.006 C 
BRANCH  12  13
ATOM     13  C   UNL     1     165.667 154.513 160.396  1.00  0.00     0.053 C 
BRANCH  13  14
ATOM     14  C   UNL     1     166.276 153.155 160.550  1.00  0.00     0.041 C 
ATOM     15  O   UNL     1     167.471 152.954 160.205  1.00  0.00    -0.550 OA
ATOM     16  O   UNL     1     165.534 152.116 161.101  1.00  0.00    -0.550 OA
ENDBRANCH  13  14
ENDBRANCH  12  13
ENDBRANCH  11  12
ENDBRANCH  10  11
ENDBRANCH   9  10
ENDBRANCH   8   9
ENDBRANCH   7   8
ENDBRANCH   6   7
ENDBRANCH   5   6
ENDBRANCH   4   5
ENDBRANCH   3   4
ENDBRANCH   2   3
ENDBRANCH   1   2
BRANCH   1  17
ATOM     17  C   UNL     1     162.173 153.054 163.681  1.00  0.00     0.000 C 
BRANCH  17  18
ATOM     18  C   UNL     1     162.778 154.066 162.684  1.00  0.00     0.000 C 
BRANCH  18  19
ATOM     19  C   UNL     1     162.040 155.413 162.703  1.00  0.00     0.000 C 
BRANCH  19  20
ATOM     20  C   UNL     1     160.979 155.445 163.810  1.00  0.00     0.000 C 
BRANCH  20  21
ATOM     21  C   UNL     1     160.859 156.852 164.416  1.00  0.00     0.000 C 
BRANCH  21  22
ATOM     22  C   UNL     1     162.227 157.513 164.652  1.00  0.00    -0.000 C 
BRANCH  22  23
ATOM     23  C   UNL     1     162.668 157.449 166.124  1.00  0.00    -0.000 C 
BRANCH  23  24
ATOM     24  C   UNL     1     163.371 156.126 166.470  1.00  0.00    -0.000 C 
BRANCH  24  25
ATOM     25  C   UNL     1     164.473 155.762 165.461  1.00  0.00    -0.000 C 
BRANCH  25  26
ATOM     26  C   UNL     1     165.004 154.330 165.648  1.00  0.00    -0.000 C 
BRANCH  26  27
ATOM     27  C   UNL     1     165.940 153.834 164.529  1.00  0.00    -0.000 C 
BRANCH  27  28
ATOM     28  C   UNL     1     166.066 152.302 164.411  1.00  0.00    -0.000 C 
BRANCH  28  29
ATOM     29  C   UNL     1     165.788 151.527 165.711  1.00  0.00    -0.003 C 
ATOM     30  C   UNL     1     165.416 150.066 165.463  1.00  0.00     0.004 C 
ENDBRANCH  28  29
ENDBRANCH  27  28
ENDBRANCH  26  27
ENDBRANCH  25  26
ENDBRANCH  24  25
ENDBRANCH  23  24
ENDBRANCH  22  23
ENDBRANCH  21  22
ENDBRANCH  20  21
ENDBRANCH  19  20
ENDBRANCH  18  19
ENDBRANCH  17  18
ENDBRANCH   1  17
TORSDOF 26
ENDMDL
MODEL 7
REMARK VINA RESULT:    -4.090      4.943      8.383
REMARK INTER + INTRA:         -12.981
REMARK INTER:                  -8.103
REMARK INTRA:                  -4.878
REMARK UNBOUND:                -2.673
REMARK SMILES CCCCCCCCCCCCCCCCCCCCCCCCCCCC(=O)[O-]
REMARK SMILES IDX 15 1 16 2 17 3 18 4 19 5 20 6 21 7 22 8 23 9 24 10 25 11
REMARK SMILES IDX 26 12 27 13 28 14 29 15 30 16 14 17 13 18 12 19 11 20 10 21
REMARK SMILES IDX 9 22 8 23 7 24 6 25 5 26 4 27 3 28 2 29 1 30
REMARK H PARENT
REMARK Flexibility Score: inf
ROOT
ATOM      1  C   UNL     1     164.743 156.252 165.142  1.00  0.00     0.000 C 
ENDROOT
BRANCH   1   2
ATOM      2  C   UNL     1     166.032 155.507 164.757  1.00  0.00     0.000 C 
BRANCH   2   3
ATOM      3  C   UNL     1     166.907 156.317 163.786  1.00  0.00     0.000 C 
BRANCH   3   4
ATOM      4  C   UNL     1     167.807 155.415 162.923  1.00  0.00     0.000 C 
BRANCH   4   5
ATOM      5  C   UNL     1     167.677 155.718 161.414  1.00  0.00     0.000 C 
BRANCH   5   6
ATOM      6  C   UNL     1     166.907 154.640 160.631  1.00  0.00     0.000 C 
BRANCH   6   7
ATOM      7  C   UNL     1     165.406 154.547 160.960  1.00  0.00     0.000 C 
BRANCH   7   8
ATOM      8  C   UNL     1     164.459 154.777 159.766  1.00  0.00     0.000 C 
BRANCH   8   9
ATOM      9  C   UNL     1     162.995 154.443 160.089  1.00  0.00     0.000 C 
BRANCH   9  10
ATOM     10  C   UNL     1     162.738 152.934 159.994  1.00  0.00     0.000 C 
BRANCH  10  11
ATOM     11  C   UNL     1     161.238 152.643 159.848  1.00  0.00     0.000 C 
BRANCH  11  12
ATOM     12  C   UNL     1     160.653 151.940 161.084  1.00  0.00     0.006 C 
BRANCH  12  13
ATOM     13  C   UNL     1     159.311 152.543 161.518  1.00  0.00     0.053 C 
BRANCH  13  14
ATOM     14  C   UNL     1     158.247 152.248 160.508  1.00  0.00     0.041 C 
ATOM     15  O   UNL     1     157.657 153.189 159.917  1.00  0.00    -0.550 OA
ATOM     16  O   UNL     1     157.927 150.931 160.197  1.00  0.00    -0.550 OA
ENDBRANCH  13  14
ENDBRANCH  12  13
ENDBRANCH  11  12
ENDBRANCH  10  11
ENDBRANCH   9  10
ENDBRANCH   8   9
ENDBRANCH   7   8
ENDBRANCH   6   7
ENDBRANCH   5   6
ENDBRANCH   4   5
ENDBRANCH   3   4
ENDBRANCH   2   3
ENDBRANCH   1   2
BRANCH   1  17
ATOM     17  C   UNL     1     164.067 155.672 166.395  1.00  0.00     0.000 C 
BRANCH  17  18
ATOM     18  C   UNL     1     162.907 156.537 166.934  1.00  0.00     0.000 C 
BRANCH  18  19
ATOM     19  C   UNL     1     162.904 157.948 166.325  1.00  0.00     0.000 C 
BRANCH  19  20
ATOM     20  C   UNL     1     161.561 158.254 165.651  1.00  0.00     0.000 C 
BRANCH  20  21
ATOM     21  C   UNL     1     161.519 157.682 164.225  1.00  0.00     0.000 C 
BRANCH  21  22
ATOM     22  C   UNL     1     160.758 156.349 164.145  1.00  0.00    -0.000 C 
BRANCH  22  23
ATOM     23  C   UNL     1     161.487 155.304 163.282  1.00  0.00    -0.000 C 
BRANCH  23  24
ATOM     24  C   UNL     1     161.761 153.999 164.046  1.00  0.00    -0.000 C 
BRANCH  24  25
ATOM     25  C   UNL     1     163.127 153.385 163.696  1.00  0.00    -0.000 C 
BRANCH  25  26
ATOM     26  C   UNL     1     163.091 151.848 163.631  1.00  0.00    -0.000 C 
BRANCH  26  27
ATOM     27  C   UNL     1     164.433 151.184 163.264  1.00  0.00    -0.000 C 
BRANCH  27  28
ATOM     28  C   UNL     1     165.689 151.998 163.631  1.00  0.00    -0.000 C 
BRANCH  28  29
ATOM     29  C   UNL     1     166.147 151.859 165.093  1.00  0.00    -0.003 C 
ATOM     30  C   UNL     1     165.759 150.516 165.711  1.00  0.00     0.004 C 
ENDBRANCH  28  29
ENDBRANCH  27  28
ENDBRANCH  26  27
ENDBRANCH  25  26
ENDBRANCH  24  25
ENDBRANCH  23  24
ENDBRANCH  22  23
ENDBRANCH  21  22
ENDBRANCH  20  21
ENDBRANCH  19  20
ENDBRANCH  18  19
ENDBRANCH  17  18
ENDBRANCH   1  17
TORSDOF 26
ENDMDL
MODEL 8
REMARK VINA RESULT:    -4.074      6.109      8.358
REMARK INTER + INTRA:         -12.940
REMARK INTER:                  -7.510
REMARK INTRA:                  -5.431
REMARK UNBOUND:                -2.673
REMARK SMILES CCCCCCCCCCCCCCCCCCCCCCCCCCCC(=O)[O-]
REMARK SMILES IDX 15 1 16 2 17 3 18 4 19 5 20 6 21 7 22 8 23 9 24 10 25 11
REMARK SMILES IDX 26 12 27 13 28 14 29 15 30 16 14 17 13 18 12 19 11 20 10 21
REMARK SMILES IDX 9 22 8 23 7 24 6 25 5 26 4 27 3 28 2 29 1 30
REMARK H PARENT
REMARK Flexibility Score: inf
ROOT
ATOM      1  C   UNL     1     162.570 157.320 164.749  1.00  0.00     0.000 C 
ENDROOT
BRANCH   1   2
ATOM      2  C   UNL     1     161.255 156.710 164.233  1.00  0.00     0.000 C 
BRANCH   2   3
ATOM      3  C   UNL     1     161.491 155.472 163.353  1.00  0.00     0.000 C 
BRANCH   3   4
ATOM      4  C   UNL     1     161.230 154.159 164.113  1.00  0.00     0.000 C 
BRANCH   4   5
ATOM      5  C   UNL     1     162.357 153.123 163.910  1.00  0.00     0.000 C 
BRANCH   5   6
ATOM      6  C   UNL     1     161.846 151.683 163.724  1.00  0.00     0.000 C 
BRANCH   6   7
ATOM      7  C   UNL     1     161.702 151.229 162.260  1.00  0.00     0.000 C 
BRANCH   7   8
ATOM      8  C   UNL     1     162.243 152.220 161.212  1.00  0.00     0.000 C 
BRANCH   8   9
ATOM      9  C   UNL     1     163.578 151.772 160.597  1.00  0.00     0.000 C 
BRANCH   9  10
ATOM     10  C   UNL     1     164.762 152.475 161.273  1.00  0.00     0.000 C 
BRANCH  10  11
ATOM     11  C   UNL     1     164.570 153.999 161.264  1.00  0.00     0.000 C 
BRANCH  11  12
ATOM     12  C   UNL     1     165.106 154.651 159.979  1.00  0.00     0.006 C 
BRANCH  12  13
ATOM     13  C   UNL     1     163.980 155.077 159.027  1.00  0.00     0.053 C 
BRANCH  13  14
ATOM     14  C   UNL     1     164.078 154.339 157.729  1.00  0.00     0.041 C 
ATOM     15  O   UNL     1     165.012 153.516 157.539  1.00  0.00    -0.550 OA
ATOM     16  O   UNL     1     163.121 154.537 156.740  1.00  0.00    -0.550 OA
ENDBRANCH  13  14
ENDBRANCH  12  13
ENDBRANCH  11  12
ENDBRANCH  10  11
ENDBRANCH   9  10
ENDBRANCH   8   9
ENDBRANCH   7   8
ENDBRANCH   6   7
ENDBRANCH   5   6
ENDBRANCH   4   5
ENDBRANCH   3   4
ENDBRANCH   2   3
ENDBRANCH   1   2
BRANCH   1  17
ATOM     17  C   UNL     1     163.054 156.678 166.059  1.00  0.00     0.000 C 
BRANCH  17  18
ATOM     18  C   UNL     1     164.244 155.711 165.876  1.00  0.00     0.000 C 
BRANCH  18  19
ATOM     19  C   UNL     1     164.918 155.872 164.505  1.00  0.00     0.000 C 
BRANCH  19  20
ATOM     20  C   UNL     1     166.441 155.965 164.646  1.00  0.00     0.000 C 
BRANCH  20  21
ATOM     21  C   UNL     1     167.123 155.966 163.269  1.00  0.00     0.000 C 
BRANCH  21  22
ATOM     22  C   UNL     1     167.772 154.614 162.930  1.00  0.00    -0.000 C 
BRANCH  22  23
ATOM     23  C   UNL     1     167.855 153.677 164.147  1.00  0.00    -0.000 C 
BRANCH  23  24
ATOM     24  C   UNL     1     167.017 152.401 163.964  1.00  0.00    -0.000 C 
BRANCH  24  25
ATOM     25  C   UNL     1     165.881 152.287 164.994  1.00  0.00    -0.000 C 
BRANCH  25  26
ATOM     26  C   UNL     1     165.892 150.946 165.748  1.00  0.00    -0.000 C 
BRANCH  26  27
ATOM     27  C   UNL     1     164.577 150.145 165.667  1.00  0.00    -0.000 C 
BRANCH  27  28
ATOM     28  C   UNL     1     164.605 148.934 164.713  1.00  0.00    -0.000 C 
BRANCH  28  29
ATOM     29  C   UNL     1     164.875 149.278 163.238  1.00  0.00    -0.003 C 
ATOM     30  C   UNL     1     164.066 148.416 162.270  1.00  0.00     0.004 C 
ENDBRANCH  28  29
ENDBRANCH  27  28
ENDBRANCH  26  27
ENDBRANCH  25  26
ENDBRANCH  24  25
ENDBRANCH  23  24
ENDBRANCH  22  23
ENDBRANCH  21  22
ENDBRANCH  20  21
ENDBRANCH  19  20
ENDBRANCH  18  19
ENDBRANCH  17  18
ENDBRANCH   1  17
TORSDOF 26
ENDMDL
MODEL 9
REMARK VINA RESULT:    -4.048      6.214      9.331
REMARK INTER + INTRA:         -12.874
REMARK INTER:                  -8.063
REMARK INTRA:                  -4.811
REMARK UNBOUND:                -2.673
REMARK SMILES CCCCCCCCCCCCCCCCCCCCCCCCCCCC(=O)[O-]
REMARK SMILES IDX 15 1 16 2 17 3 18 4 19 5 20 6 21 7 22 8 23 9 24 10 25 11
REMARK SMILES IDX 26 12 27 13 28 14 29 15 30 16 14 17 13 18 12 19 11 20 10 21
REMARK SMILES IDX 9 22 8 23 7 24 6 25 5 26 4 27 3 28 2 29 1 30
REMARK H PARENT
REMARK Flexibility Score: inf
ROOT
ATOM      1  C   UNL     1     166.405 154.243 162.735  1.00  0.00     0.000 C 
ENDROOT
BRANCH   1   2
ATOM      2  C   UNL     1     166.932 155.266 161.714  1.00  0.00     0.000 C 
BRANCH   2   3
ATOM      3  C   UNL     1     166.997 154.690 160.290  1.00  0.00     0.000 C 
BRANCH   3   4
ATOM      4  C   UNL     1     165.627 154.706 159.592  1.00  0.00     0.000 C 
BRANCH   4   5
ATOM      5  C   UNL     1     165.109 153.288 159.270  1.00  0.00     0.000 C 
BRANCH   5   6
ATOM      6  C   UNL     1     163.991 152.809 160.215  1.00  0.00     0.000 C 
BRANCH   6   7
ATOM      7  C   UNL     1     162.815 153.789 160.379  1.00  0.00     0.000 C 
BRANCH   7   8
ATOM      8  C   UNL     1     161.514 153.373 159.666  1.00  0.00     0.000 C 
BRANCH   8   9
ATOM      9  C   UNL     1     161.133 154.317 158.516  1.00  0.00     0.000 C 
BRANCH   9  10
ATOM     10  C   UNL     1     160.923 153.541 157.209  1.00  0.00     0.000 C 
BRANCH  10  11
ATOM     11  C   UNL     1     161.732 154.169 156.065  1.00  0.00     0.000 C 
BRANCH  11  12
ATOM     12  C   UNL     1     163.246 153.963 156.233  1.00  0.00     0.006 C 
BRANCH  12  13
ATOM     13  C   UNL     1     164.011 155.291 156.316  1.00  0.00     0.053 C 
BRANCH  13  14
ATOM     14  C   UNL     1     165.362 155.162 155.686  1.00  0.00     0.041 C 
ATOM     15  O   UNL     1     166.272 155.986 155.965  1.00  0.00    -0.550 OA
ATOM     16  O   UNL     1     165.626 154.113 154.811  1.00  0.00    -0.550 OA
ENDBRANCH  13  14
ENDBRANCH  12  13
ENDBRANCH  11  12
ENDBRANCH  10  11
ENDBRANCH   9  10
ENDBRANCH   8   9
ENDBRANCH   7   8
ENDBRANCH   6   7
ENDBRANCH   5   6
ENDBRANCH   4   5
ENDBRANCH   3   4
ENDBRANCH   2   3
ENDBRANCH   1   2
BRANCH   1  17
ATOM     17  C   UNL     1     164.996 154.581 163.249  1.00  0.00     0.000 C 
BRANCH  17  18
ATOM     18  C   UNL     1     164.818 154.360 164.766  1.00  0.00     0.000 C 
BRANCH  18  19
ATOM     19  C   UNL     1     164.906 155.674 165.558  1.00  0.00     0.000 C 
BRANCH  19  20
ATOM     20  C   UNL     1     163.923 155.676 166.734  1.00  0.00     0.000 C 
BRANCH  20  21
ATOM     21  C   UNL     1     162.854 156.766 166.556  1.00  0.00     0.000 C 
BRANCH  21  22
ATOM     22  C   UNL     1     163.197 157.751 165.427  1.00  0.00    -0.000 C 
BRANCH  22  23
ATOM     23  C   UNL     1     162.050 157.912 164.415  1.00  0.00    -0.000 C 
BRANCH  23  24
ATOM     24  C   UNL     1     161.045 156.750 164.476  1.00  0.00    -0.000 C 
BRANCH  24  25
ATOM     25  C   UNL     1     161.393 155.617 163.495  1.00  0.00    -0.000 C 
BRANCH  25  26
ATOM     26  C   UNL     1     161.289 154.222 164.135  1.00  0.00    -0.000 C 
BRANCH  26  27
ATOM     27  C   UNL     1     160.612 153.153 163.253  1.00  0.00    -0.000 C 
BRANCH  27  28
ATOM     28  C   UNL     1     160.881 151.694 163.670  1.00  0.00    -0.000 C 
BRANCH  28  29
ATOM     29  C   UNL     1     162.015 150.998 162.898  1.00  0.00    -0.003 C 
ATOM     30  C   UNL     1     163.382 151.185 163.554  1.00  0.00     0.004 C 
ENDBRANCH  28  29
ENDBRANCH  27  28
ENDBRANCH  26  27
ENDBRANCH  25  26
ENDBRANCH  24  25
ENDBRANCH  23  24
ENDBRANCH  22  23
ENDBRANCH  21  22
ENDBRANCH  20  21
ENDBRANCH  19  20
ENDBRANCH  18  19
ENDBRANCH  17  18
ENDBRANCH   1  17
TORSDOF 26
ENDMDL
