MODEL 1
REMARK VINA RESULT:    -4.165      0.000      0.000
REMARK INTER + INTRA:          -4.497
REMARK INTER:                  -4.408
REMARK INTRA:                  -0.088
REMARK UNBOUND:                -0.088
REMARK SMILES C=C(C)[C@H]1CC=C(C)C(=O)C1
REMARK SMILES IDX 8 1 7 2 6 3 5 4 4 5 11 6 9 7 10 8 2 9 1 10 3 11
REMARK H PARENT
REMARK Flexibility Score: inf
ROOT
ATOM      1  C   UNL     1      28.799  32.368  23.589  1.00  0.00     0.048 C 
ATOM      2  C   UNL     1      28.327  33.683  23.033  1.00  0.00    -0.012 C 
ATOM      3  C   UNL     1      27.758  34.593  23.842  1.00  0.00    -0.019 C 
ATOM      4  C   UNL     1      27.198  35.890  23.318  1.00  0.00     0.036 C 
ATOM      5  C   UNL     1      27.970  36.367  22.073  1.00  0.00     0.025 C 
ATOM      6  C   UNL     1      27.987  35.262  20.999  1.00  0.00     0.089 C 
ATOM      7  C   UNL     1      28.471  33.963  21.583  1.00  0.00     0.158 C 
ATOM      8  O   UNL     1      28.961  33.090  20.816  1.00  0.00    -0.295 OA
ENDROOT
BRANCH   5   9
ATOM      9  C   UNL     1      27.405  37.672  21.527  1.00  0.00    -0.077 C 
ATOM     10  C   UNL     1      28.116  38.811  21.565  1.00  0.00     0.008 C 
ATOM     11  C   UNL     1      26.022  37.705  20.930  1.00  0.00     0.039 C 
ENDBRANCH   5   9
TORSDOF 1
ENDMDL
MODEL 2
REMARK VINA RESULT:    -4.128      1.873      5.129
REMARK INTER + INTRA:          -4.457
REMARK INTER:                  -4.361
REMARK INTRA:                  -0.097
REMARK UNBOUND:                -0.088
REMARK SMILES C=C(C)[C@H]1CC=C(C)C(=O)C1
REMARK SMILES IDX 8 1 7 2 6 3 5 4 4 5 11 6 9 7 10 8 2 9 1 10 3 11
REMARK H PARENT
REMARK Flexibility Score: inf
ROOT
ATOM      1  C   UNL     1      28.318  36.667  21.296  1.00  0.00     0.048 C 
ATOM      2  C   UNL     1      28.393  35.280  21.873  1.00  0.00    -0.012 C 
ATOM      3  C   UNL     1      28.936  34.280  21.159  1.00  0.00    -0.019 C 
ATOM      4  C   UNL     1      28.962  32.860  21.663  1.00  0.00     0.036 C 
ATOM      5  C   UNL     1      29.038  32.816  23.201  1.00  0.00     0.025 C 
ATOM      6  C   UNL     1      27.887  33.633  23.816  1.00  0.00     0.089 C 
ATOM      7  C   UNL     1      27.843  35.016  23.226  1.00  0.00     0.158 C 
ATOM      8  O   UNL     1      27.290  35.944  23.876  1.00  0.00    -0.295 OA
ENDROOT
BRANCH   5   9
ATOM      9  C   UNL     1      29.052  31.384  23.722  1.00  0.00    -0.077 C 
ATOM     10  C   UNL     1      29.037  31.120  25.039  1.00  0.00     0.008 C 
ATOM     11  C   UNL     1      29.084  30.230  22.755  1.00  0.00     0.039 C 
ENDBRANCH   5   9
TORSDOF 1
ENDMDL
MODEL 3
REMARK VINA RESULT:    -3.986      1.910      2.457
REMARK INTER + INTRA:          -4.307
REMARK INTER:                  -4.212
REMARK INTRA:                  -0.096
REMARK UNBOUND:                -0.088
REMARK SMILES C=C(C)[C@H]1CC=C(C)C(=O)C1
REMARK SMILES IDX 8 1 7 2 6 3 5 4 4 5 11 6 9 7 10 8 2 9 1 10 3 11
REMARK H PARENT
REMARK Flexibility Score: inf
ROOT
ATOM      1  C   UNL     1      28.141  33.154  23.778  1.00  0.00     0.048 C 
ATOM      2  C   UNL     1      28.117  34.296  22.800  1.00  0.00    -0.012 C 
ATOM      3  C   UNL     1      28.575  34.122  21.549  1.00  0.00    -0.019 C 
ATOM      4  C   UNL     1      28.645  35.255  20.558  1.00  0.00     0.036 C 
ATOM      5  C   UNL     1      27.534  36.290  20.817  1.00  0.00     0.025 C 
ATOM      6  C   UNL     1      27.593  36.784  22.275  1.00  0.00     0.089 C 
ATOM      7  C   UNL     1      27.607  35.621  23.229  1.00  0.00     0.158 C 
ATOM      8  O   UNL     1      27.223  35.797  24.417  1.00  0.00    -0.295 OA
ENDROOT
BRANCH   5   9
ATOM      9  C   UNL     1      27.602  37.447  19.829  1.00  0.00    -0.077 C 
ATOM     10  C   UNL     1      28.676  37.633  19.043  1.00  0.00     0.008 C 
ATOM     11  C   UNL     1      26.452  38.413  19.717  1.00  0.00     0.039 C 
ENDBRANCH   5   9
TORSDOF 1
ENDMDL
MODEL 4
REMARK VINA RESULT:    -3.966      2.459      4.920
REMARK INTER + INTRA:          -4.286
REMARK INTER:                  -4.190
REMARK INTRA:                  -0.096
REMARK UNBOUND:                -0.088
REMARK SMILES C=C(C)[C@H]1CC=C(C)C(=O)C1
REMARK SMILES IDX 8 1 7 2 6 3 5 4 4 5 11 6 9 7 10 8 2 9 1 10 3 11
REMARK H PARENT
REMARK Flexibility Score: inf
ROOT
ATOM      1  C   UNL     1      27.266  39.360  18.834  1.00  0.00     0.048 C 
ATOM      2  C   UNL     1      27.368  38.149  19.718  1.00  0.00    -0.012 C 
ATOM      3  C   UNL     1      28.392  37.291  19.573  1.00  0.00    -0.019 C 
ATOM      4  C   UNL     1      28.495  36.024  20.382  1.00  0.00     0.036 C 
ATOM      5  C   UNL     1      27.845  36.193  21.768  1.00  0.00     0.025 C 
ATOM      6  C   UNL     1      26.390  36.676  21.620  1.00  0.00     0.089 C 
ATOM      7  C   UNL     1      26.320  37.892  20.737  1.00  0.00     0.158 C 
ATOM      8  O   UNL     1      25.334  38.670  20.841  1.00  0.00    -0.295 OA
ENDROOT
BRANCH   5   9
ATOM      9  C   UNL     1      27.932  34.914  22.589  1.00  0.00    -0.077 C 
ATOM     10  C   UNL     1      27.438  34.849  23.837  1.00  0.00     0.008 C 
ATOM     11  C   UNL     1      28.583  33.686  22.008  1.00  0.00     0.039 C 
ENDBRANCH   5   9
TORSDOF 1
ENDMDL
MODEL 5
REMARK VINA RESULT:    -3.855      3.866      6.738
REMARK INTER + INTRA:          -4.169
REMARK INTER:                  -4.074
REMARK INTRA:                  -0.095
REMARK UNBOUND:                -0.088
REMARK SMILES C=C(C)[C@H]1CC=C(C)C(=O)C1
REMARK SMILES IDX 8 1 7 2 6 3 5 4 4 5 11 6 9 7 10 8 2 9 1 10 3 11
REMARK H PARENT
REMARK Flexibility Score: inf
ROOT
ATOM      1  C   UNL     1      27.669  42.859  19.052  1.00  0.00     0.048 C 
ATOM      2  C   UNL     1      27.252  41.458  19.402  1.00  0.00    -0.012 C 
ATOM      3  C   UNL     1      27.583  40.434  18.598  1.00  0.00    -0.019 C 
ATOM      4  C   UNL     1      27.121  39.025  18.864  1.00  0.00     0.036 C 
ATOM      5  C   UNL     1      26.948  38.772  20.374  1.00  0.00     0.025 C 
ATOM      6  C   UNL     1      26.004  39.823  20.987  1.00  0.00     0.089 C 
ATOM      7  C   UNL     1      26.451  41.213  20.628  1.00  0.00     0.158 C 
ATOM      8  O   UNL     1      26.099  42.180  21.356  1.00  0.00    -0.295 OA
ENDROOT
BRANCH   5   9
ATOM      9  C   UNL     1      26.468  37.354  20.655  1.00  0.00    -0.077 C 
ATOM     10  C   UNL     1      25.165  37.079  20.834  1.00  0.00     0.008 C 
ATOM     11  C   UNL     1      27.461  36.224  20.738  1.00  0.00     0.039 C 
ENDBRANCH   5   9
TORSDOF 1
ENDMDL
MODEL 6
REMARK VINA RESULT:    -3.847      1.771      2.581
REMARK INTER + INTRA:          -4.160
REMARK INTER:                  -4.065
REMARK INTRA:                  -0.095
REMARK UNBOUND:                -0.088
REMARK SMILES C=C(C)[C@H]1CC=C(C)C(=O)C1
REMARK SMILES IDX 8 1 7 2 6 3 5 4 4 5 11 6 9 7 10 8 2 9 1 10 3 11
REMARK H PARENT
REMARK Flexibility Score: inf
ROOT
ATOM      1  C   UNL     1      28.785  33.310  22.328  1.00  0.00     0.048 C 
ATOM      2  C   UNL     1      28.328  34.633  21.779  1.00  0.00    -0.012 C 
ATOM      3  C   UNL     1      28.663  34.997  20.529  1.00  0.00    -0.019 C 
ATOM      4  C   UNL     1      28.297  36.344  19.963  1.00  0.00     0.036 C 
ATOM      5  C   UNL     1      26.982  36.866  20.574  1.00  0.00     0.025 C 
ATOM      6  C   UNL     1      27.076  36.883  22.111  1.00  0.00     0.089 C 
ATOM      7  C   UNL     1      27.526  35.546  22.631  1.00  0.00     0.158 C 
ATOM      8  O   UNL     1      27.254  35.225  23.819  1.00  0.00    -0.295 OA
ENDROOT
BRANCH   5   9
ATOM      9  C   UNL     1      26.609  38.234  20.018  1.00  0.00    -0.077 C 
ATOM     10  C   UNL     1      26.979  38.611  18.782  1.00  0.00     0.008 C 
ATOM     11  C   UNL     1      25.810  39.197  20.856  1.00  0.00     0.039 C 
ENDBRANCH   5   9
TORSDOF 1
ENDMDL
MODEL 7
REMARK VINA RESULT:    -3.818      1.933      4.491
REMARK INTER + INTRA:          -4.130
REMARK INTER:                  -4.035
REMARK INTRA:                  -0.094
REMARK UNBOUND:                -0.088
REMARK SMILES C=C(C)[C@H]1CC=C(C)C(=O)C1
REMARK SMILES IDX 8 1 7 2 6 3 5 4 4 5 11 6 9 7 10 8 2 9 1 10 3 11
REMARK H PARENT
REMARK Flexibility Score: inf
ROOT
ATOM      1  C   UNL     1      26.858  38.983  19.147  1.00  0.00     0.048 C 
ATOM      2  C   UNL     1      27.331  37.881  20.053  1.00  0.00    -0.012 C 
ATOM      3  C   UNL     1      26.704  37.649  21.219  1.00  0.00    -0.019 C 
ATOM      4  C   UNL     1      27.189  36.609  22.196  1.00  0.00     0.036 C 
ATOM      5  C   UNL     1      27.880  35.441  21.467  1.00  0.00     0.025 C 
ATOM      6  C   UNL     1      29.012  35.969  20.565  1.00  0.00     0.089 C 
ATOM      7  C   UNL     1      28.507  37.064  19.666  1.00  0.00     0.158 C 
ATOM      8  O   UNL     1      29.125  37.313  18.595  1.00  0.00    -0.295 OA
ENDROOT
BRANCH   5   9
ATOM      9  C   UNL     1      28.386  34.389  22.445  1.00  0.00    -0.077 C 
ATOM     10  C   UNL     1      28.764  33.169  22.027  1.00  0.00     0.008 C 
ATOM     11  C   UNL     1      28.469  34.704  23.916  1.00  0.00     0.039 C 
ENDBRANCH   5   9
TORSDOF 1
ENDMDL
MODEL 8
REMARK VINA RESULT:    -3.751      2.716      4.450
REMARK INTER + INTRA:          -4.059
REMARK INTER:                  -3.966
REMARK INTRA:                  -0.093
REMARK UNBOUND:                -0.088
REMARK SMILES C=C(C)[C@H]1CC=C(C)C(=O)C1
REMARK SMILES IDX 8 1 7 2 6 3 5 4 4 5 11 6 9 7 10 8 2 9 1 10 3 11
REMARK H PARENT
REMARK Flexibility Score: inf
ROOT
ATOM      1  C   UNL     1      27.648  35.715  21.057  1.00  0.00     0.048 C 
ATOM      2  C   UNL     1      27.400  37.197  21.020  1.00  0.00    -0.012 C 
ATOM      3  C   UNL     1      28.416  38.057  21.209  1.00  0.00    -0.019 C 
ATOM      4  C   UNL     1      28.204  39.548  21.259  1.00  0.00     0.036 C 
ATOM      5  C   UNL     1      27.014  39.970  20.377  1.00  0.00     0.025 C 
ATOM      6  C   UNL     1      25.749  39.186  20.774  1.00  0.00     0.089 C 
ATOM      7  C   UNL     1      26.025  37.708  20.795  1.00  0.00     0.158 C 
ATOM      8  O   UNL     1      25.065  36.902  20.666  1.00  0.00    -0.295 OA
ENDROOT
BRANCH   5   9
ATOM      9  C   UNL     1      26.782  41.475  20.429  1.00  0.00    -0.077 C 
ATOM     10  C   UNL     1      26.167  42.051  21.476  1.00  0.00     0.008 C 
ATOM     11  C   UNL     1      27.243  42.350  19.293  1.00  0.00     0.039 C 
ENDBRANCH   5   9
TORSDOF 1
ENDMDL
