MODEL 1
REMARK VINA RESULT:    -3.071      0.000      0.000
REMARK INTER + INTRA:          -4.812
REMARK INTER:                  -3.968
REMARK INTRA:                  -0.844
REMARK UNBOUND:                -0.844
REMARK SMILES CO[C@]1(CO)O[C@@H](CO)[C@@H](O)[C@H]1O
REMARK SMILES IDX 3 1 12 2 10 3 7 4 6 5 2 6 1 7 4 8 5 9 13 11 11 13 8 15 9 16
REMARK H PARENT 5 10 13 12 11 14 9 17
REMARK Flexibility Score: inf
ROOT
ATOM      1  C   UNL     1       8.769  -7.584  -5.893  1.00  0.00     0.221 C 
ATOM      2  C   UNL     1       8.745  -8.889  -5.080  1.00  0.00     0.207 C 
ATOM      3  C   UNL     1       7.800  -8.543  -3.946  1.00  0.00     0.180 C 
ATOM      4  C   UNL     1       6.931  -7.415  -4.537  1.00  0.00     0.179 C 
ATOM      5  O   UNL     1       7.474  -7.016  -5.781  1.00  0.00    -0.337 OA
ENDROOT
BRANCH   1   6
ATOM      6  O   UNL     1       9.768  -6.743  -5.314  1.00  0.00    -0.349 OA
ATOM      7  C   UNL     1       9.807  -5.451  -5.889  1.00  0.00     0.198 C 
ENDBRANCH   1   6
BRANCH   1   8
ATOM      8  C   UNL     1       9.124  -7.834  -7.381  1.00  0.00     0.224 C 
BRANCH   8   9
ATOM      9  O   UNL     1       7.968  -8.071  -8.137  1.00  0.00    -0.391 OA
ATOM     10  H   UNL     1       7.204  -7.981  -7.509  1.00  0.00     0.210 HD
ENDBRANCH   8   9
ENDBRANCH   1   8
BRANCH   2  11
ATOM     11  O   UNL     1       8.289  -9.997  -5.827  1.00  0.00    -0.385 OA
ATOM     12  H   UNL     1       7.994 -10.702  -5.194  1.00  0.00     0.211 HD
ENDBRANCH   2  11
BRANCH   3  13
ATOM     13  O   UNL     1       7.055  -9.654  -3.517  1.00  0.00    -0.387 OA
ATOM     14  H   UNL     1       6.200  -9.631  -4.022  1.00  0.00     0.211 HD
ENDBRANCH   3  13
BRANCH   4  15
ATOM     15  C   UNL     1       5.454  -7.785  -4.736  1.00  0.00     0.191 C 
BRANCH  15  16
ATOM     16  O   UNL     1       5.338  -8.822  -5.671  1.00  0.00    -0.394 OA
ATOM     17  H   UNL     1       6.240  -8.938  -6.067  1.00  0.00     0.210 HD
ENDBRANCH  15  16
ENDBRANCH   4  15
TORSDOF 7
ENDMDL
MODEL 2
REMARK VINA RESULT:    -2.986     21.070     22.563
REMARK INTER + INTRA:          -4.702
REMARK INTER:                  -3.926
REMARK INTRA:                  -0.777
REMARK UNBOUND:                -0.844
REMARK SMILES CO[C@]1(CO)O[C@@H](CO)[C@@H](O)[C@H]1O
REMARK SMILES IDX 3 1 12 2 10 3 7 4 6 5 2 6 1 7 4 8 5 9 13 11 11 13 8 15 9 16
REMARK H PARENT 5 10 13 12 11 14 9 17
REMARK Flexibility Score: inf
ROOT
ATOM      1  C   UNL     1      -9.026   5.495  -2.647  1.00  0.00     0.221 C 
ATOM      2  C   UNL     1      -7.868   6.098  -1.835  1.00  0.00     0.207 C 
ATOM      3  C   UNL     1      -7.856   7.537  -2.314  1.00  0.00     0.180 C 
ATOM      4  C   UNL     1      -9.302   7.764  -2.799  1.00  0.00     0.179 C 
ATOM      5  O   UNL     1      -9.988   6.527  -2.804  1.00  0.00    -0.337 OA
ENDROOT
BRANCH   1   6
ATOM      6  O   UNL     1      -8.490   5.076  -3.903  1.00  0.00    -0.349 OA
ATOM      7  C   UNL     1      -9.476   4.592  -4.795  1.00  0.00     0.198 C 
ENDBRANCH   1   6
BRANCH   1   8
ATOM      8  C   UNL     1      -9.657   4.271  -1.937  1.00  0.00     0.224 C 
BRANCH   8   9
ATOM      9  O   UNL     1      -8.667   3.366  -1.528  1.00  0.00    -0.391 OA
ATOM     10  H   UNL     1      -8.560   3.497  -0.549  1.00  0.00     0.210 HD
ENDBRANCH   8   9
ENDBRANCH   1   8
BRANCH   2  11
ATOM     11  O   UNL     1      -8.066   6.008  -0.440  1.00  0.00    -0.385 OA
ATOM     12  H   UNL     1      -7.454   5.313  -0.081  1.00  0.00     0.211 HD
ENDBRANCH   2  11
BRANCH   3  13
ATOM     13  O   UNL     1      -7.461   8.430  -1.303  1.00  0.00    -0.387 OA
ATOM     14  H   UNL     1      -7.765   8.035  -0.444  1.00  0.00     0.211 HD
ENDBRANCH   3  13
BRANCH   4  15
ATOM     15  C   UNL     1     -10.104   8.773  -1.964  1.00  0.00     0.191 C 
BRANCH  15  16
ATOM     16  O   UNL     1     -10.105   8.391  -0.616  1.00  0.00    -0.394 OA
ATOM     17  H   UNL     1      -9.187   8.558  -0.281  1.00  0.00     0.210 HD
ENDBRANCH  15  16
ENDBRANCH   4  15
TORSDOF 7
ENDMDL
MODEL 3
REMARK VINA RESULT:    -2.880      1.330      3.002
REMARK INTER + INTRA:          -4.566
REMARK INTER:                  -3.755
REMARK INTRA:                  -0.811
REMARK UNBOUND:                -0.844
REMARK SMILES CO[C@]1(CO)O[C@@H](CO)[C@@H](O)[C@H]1O
REMARK SMILES IDX 3 1 12 2 10 3 7 4 6 5 2 6 1 7 4 8 5 9 13 11 11 13 8 15 9 16
REMARK H PARENT 5 10 13 12 11 14 9 17
REMARK Flexibility Score: inf
ROOT
ATOM      1  C   UNL     1       8.405  -7.776  -6.327  1.00  0.00     0.221 C 
ATOM      2  C   UNL     1       7.185  -7.507  -5.430  1.00  0.00     0.207 C 
ATOM      3  C   UNL     1       6.918  -8.874  -4.832  1.00  0.00     0.180 C 
ATOM      4  C   UNL     1       8.291  -9.571  -4.908  1.00  0.00     0.179 C 
ATOM      5  O   UNL     1       9.175  -8.771  -5.670  1.00  0.00    -0.337 OA
ENDROOT
BRANCH   1   6
ATOM      6  O   UNL     1       7.911  -8.235  -7.586  1.00  0.00    -0.349 OA
ATOM      7  C   UNL     1       8.304  -7.414  -8.669  1.00  0.00     0.198 C 
ENDBRANCH   1   6
BRANCH   1   8
ATOM      8  C   UNL     1       9.251  -6.498  -6.554  1.00  0.00     0.224 C 
BRANCH   8   9
ATOM      9  O   UNL     1      10.107  -6.267  -5.468  1.00  0.00    -0.391 OA
ATOM     10  H   UNL     1       9.524  -6.200  -4.667  1.00  0.00     0.210 HD
ENDBRANCH   8   9
ENDBRANCH   1   8
BRANCH   2  11
ATOM     11  O   UNL     1       7.434  -6.535  -4.436  1.00  0.00    -0.385 OA
ATOM     12  H   UNL     1       8.271  -6.055  -4.670  1.00  0.00     0.211 HD
ENDBRANCH   2  11
BRANCH   3  13
ATOM     13  O   UNL     1       6.407  -8.792  -3.525  1.00  0.00    -0.387 OA
ATOM     14  H   UNL     1       5.523  -8.346  -3.596  1.00  0.00     0.211 HD
ENDBRANCH   3  13
BRANCH   4  15
ATOM     15  C   UNL     1       8.936  -9.862  -3.545  1.00  0.00     0.191 C 
BRANCH  15  16
ATOM     16  O   UNL     1       9.098  -8.672  -2.824  1.00  0.00    -0.394 OA
ATOM     17  H   UNL     1      10.073  -8.576  -2.665  1.00  0.00     0.210 HD
ENDBRANCH  15  16
ENDBRANCH   4  15
TORSDOF 7
ENDMDL
MODEL 4
REMARK VINA RESULT:    -2.836      1.351      3.989
REMARK INTER + INTRA:          -4.509
REMARK INTER:                  -4.114
REMARK INTRA:                  -0.394
REMARK UNBOUND:                -0.844
REMARK SMILES CO[C@]1(CO)O[C@@H](CO)[C@@H](O)[C@H]1O
REMARK SMILES IDX 3 1 12 2 10 3 7 4 6 5 2 6 1 7 4 8 5 9 13 11 11 13 8 15 9 16
REMARK H PARENT 5 10 13 12 11 14 9 17
REMARK Flexibility Score: inf
ROOT
ATOM      1  C   UNL     1       6.936  -8.247  -5.492  1.00  0.00     0.221 C 
ATOM      2  C   UNL     1       8.178  -7.584  -4.873  1.00  0.00     0.207 C 
ATOM      3  C   UNL     1       9.212  -7.753  -5.969  1.00  0.00     0.180 C 
ATOM      4  C   UNL     1       8.360  -7.874  -7.248  1.00  0.00     0.179 C 
ATOM      5  O   UNL     1       6.997  -7.990  -6.887  1.00  0.00    -0.337 OA
ENDROOT
BRANCH   1   6
ATOM      6  O   UNL     1       7.015  -9.644  -5.209  1.00  0.00    -0.349 OA
ATOM      7  C   UNL     1       7.051  -9.929  -3.823  1.00  0.00     0.198 C 
ENDBRANCH   1   6
BRANCH   1   8
ATOM      8  C   UNL     1       5.621  -7.687  -4.895  1.00  0.00     0.224 C 
BRANCH   8   9
ATOM      9  O   UNL     1       4.506  -8.203  -5.571  1.00  0.00    -0.391 OA
ATOM     10  H   UNL     1       3.998  -8.731  -4.902  1.00  0.00     0.210 HD
ENDBRANCH   8   9
ENDBRANCH   1   8
BRANCH   2  11
ATOM     11  O   UNL     1       7.973  -6.227  -4.543  1.00  0.00    -0.385 OA
ATOM     12  H   UNL     1       8.438  -6.039  -3.687  1.00  0.00     0.211 HD
ENDBRANCH   2  11
BRANCH   3  13
ATOM     13  O   UNL     1      10.125  -6.684  -6.006  1.00  0.00    -0.387 OA
ATOM     14  H   UNL     1      10.970  -7.050  -6.378  1.00  0.00     0.211 HD
ENDBRANCH   3  13
BRANCH   4  15
ATOM     15  C   UNL     1       8.515  -6.704  -8.231  1.00  0.00     0.191 C 
BRANCH  15  16
ATOM     16  O   UNL     1       9.747  -6.790  -8.893  1.00  0.00    -0.394 OA
ATOM     17  H   UNL     1       9.685  -7.578  -9.491  1.00  0.00     0.210 HD
ENDBRANCH  15  16
ENDBRANCH   4  15
TORSDOF 7
ENDMDL
MODEL 5
REMARK VINA RESULT:    -2.823     17.175     19.129
REMARK INTER + INTRA:          -4.492
REMARK INTER:                  -4.055
REMARK INTRA:                  -0.436
REMARK UNBOUND:                -0.844
REMARK SMILES CO[C@]1(CO)O[C@@H](CO)[C@@H](O)[C@H]1O
REMARK SMILES IDX 3 1 12 2 10 3 7 4 6 5 2 6 1 7 4 8 5 9 13 11 11 13 8 15 9 16
REMARK H PARENT 5 10 13 12 11 14 9 17
REMARK Flexibility Score: inf
ROOT
ATOM      1  C   UNL     1      -7.827   1.398  -8.064  1.00  0.00     0.221 C 
ATOM      2  C   UNL     1      -6.887   2.532  -8.506  1.00  0.00     0.207 C 
ATOM      3  C   UNL     1      -7.724   3.767  -8.235  1.00  0.00     0.180 C 
ATOM      4  C   UNL     1      -8.701   3.302  -7.136  1.00  0.00     0.179 C 
ATOM      5  O   UNL     1      -8.578   1.902  -6.971  1.00  0.00    -0.337 OA
ENDROOT
BRANCH   1   6
ATOM      6  O   UNL     1      -8.662   1.081  -9.178  1.00  0.00    -0.349 OA
ATOM      7  C   UNL     1      -9.572   0.032  -8.910  1.00  0.00     0.198 C 
ENDBRANCH   1   6
BRANCH   1   8
ATOM      8  C   UNL     1      -7.046   0.128  -7.644  1.00  0.00     0.224 C 
BRANCH   8   9
ATOM      9  O   UNL     1      -6.859   0.092  -6.255  1.00  0.00    -0.391 OA
ATOM     10  H   UNL     1      -7.668  -0.344  -5.879  1.00  0.00     0.210 HD
ENDBRANCH   8   9
ENDBRANCH   1   8
BRANCH   2  11
ATOM     11  O   UNL     1      -5.670   2.551  -7.791  1.00  0.00    -0.385 OA
ATOM     12  H   UNL     1      -5.768   3.171  -7.022  1.00  0.00     0.211 HD
ENDBRANCH   2  11
BRANCH   3  13
ATOM     13  O   UNL     1      -6.938   4.868  -7.852  1.00  0.00    -0.387 OA
ATOM     14  H   UNL     1      -7.433   5.680  -8.141  1.00  0.00     0.211 HD
ENDBRANCH   3  13
BRANCH   4  15
ATOM     15  C   UNL     1      -8.500   3.983  -5.774  1.00  0.00     0.191 C 
BRANCH  15  16
ATOM     16  O   UNL     1      -8.501   3.025  -4.751  1.00  0.00    -0.394 OA
ATOM     17  H   UNL     1      -8.299   3.516  -3.914  1.00  0.00     0.210 HD
ENDBRANCH  15  16
ENDBRANCH   4  15
TORSDOF 7
ENDMDL
MODEL 6
REMARK VINA RESULT:    -2.787     15.089     16.305
REMARK INTER + INTRA:          -4.445
REMARK INTER:                  -3.624
REMARK INTRA:                  -0.820
REMARK UNBOUND:                -0.844
REMARK SMILES CO[C@]1(CO)O[C@@H](CO)[C@@H](O)[C@H]1O
REMARK SMILES IDX 3 1 12 2 10 3 7 4 6 5 2 6 1 7 4 8 5 9 13 11 11 13 8 15 9 16
REMARK H PARENT 5 10 13 12 11 14 9 17
REMARK Flexibility Score: inf
ROOT
ATOM      1  C   UNL     1       7.252  -1.963   8.759  1.00  0.00     0.221 C 
ATOM      2  C   UNL     1       5.967  -1.185   8.431  1.00  0.00     0.207 C 
ATOM      3  C   UNL     1       5.916  -0.164   9.551  1.00  0.00     0.180 C 
ATOM      4  C   UNL     1       7.392  -0.029   9.978  1.00  0.00     0.179 C 
ATOM      5  O   UNL     1       8.154  -1.028   9.328  1.00  0.00    -0.337 OA
ENDROOT
BRANCH   1   6
ATOM      6  O   UNL     1       6.901  -2.991   9.686  1.00  0.00    -0.349 OA
ATOM      7  C   UNL     1       8.013  -3.748  10.125  1.00  0.00     0.198 C 
ENDBRANCH   1   6
BRANCH   1   8
ATOM      8  C   UNL     1       7.873  -2.615   7.497  1.00  0.00     0.224 C 
BRANCH   8   9
ATOM      9  O   UNL     1       8.634  -1.683   6.778  1.00  0.00    -0.391 OA
ATOM     10  H   UNL     1       8.525  -0.815   7.247  1.00  0.00     0.210 HD
ENDBRANCH   8   9
ENDBRANCH   1   8
BRANCH   2  11
ATOM     11  O   UNL     1       6.000  -0.574   7.159  1.00  0.00    -0.385 OA
ATOM     12  H   UNL     1       6.672  -1.046   6.602  1.00  0.00     0.211 HD
ENDBRANCH   2  11
BRANCH   3  13
ATOM     13  O   UNL     1       5.343   1.050   9.136  1.00  0.00    -0.387 OA
ATOM     14  H   UNL     1       5.912   1.392   8.398  1.00  0.00     0.211 HD
ENDBRANCH   3  13
BRANCH   4  15
ATOM     15  C   UNL     1       8.017   1.343   9.685  1.00  0.00     0.191 C 
BRANCH  15  16
ATOM     16  O   UNL     1       8.252   1.483   8.311  1.00  0.00    -0.394 OA
ATOM     17  H   UNL     1       7.360   1.497   7.879  1.00  0.00     0.210 HD
ENDBRANCH  15  16
ENDBRANCH   4  15
TORSDOF 7
ENDMDL
MODEL 7
REMARK VINA RESULT:    -2.769     15.509     17.521
REMARK INTER + INTRA:          -4.422
REMARK INTER:                  -3.571
REMARK INTRA:                  -0.851
REMARK UNBOUND:                -0.844
REMARK SMILES CO[C@]1(CO)O[C@@H](CO)[C@@H](O)[C@H]1O
REMARK SMILES IDX 3 1 12 2 10 3 7 4 6 5 2 6 1 7 4 8 5 9 13 11 11 13 8 15 9 16
REMARK H PARENT 5 10 13 12 11 14 9 17
REMARK Flexibility Score: inf
ROOT
ATOM      1  C   UNL     1      -7.494   1.047  -8.867  1.00  0.00     0.221 C 
ATOM      2  C   UNL     1      -7.524  -0.116  -7.861  1.00  0.00     0.207 C 
ATOM      3  C   UNL     1      -7.299  -1.320  -8.755  1.00  0.00     0.180 C 
ATOM      4  C   UNL     1      -6.555  -0.729  -9.969  1.00  0.00     0.179 C 
ATOM      5  O   UNL     1      -6.564   0.683  -9.874  1.00  0.00    -0.337 OA
ENDROOT
BRANCH   1   6
ATOM      6  O   UNL     1      -8.815   1.185  -9.393  1.00  0.00    -0.349 OA
ATOM      7  C   UNL     1      -9.776   1.508  -8.405  1.00  0.00     0.198 C 
ENDBRANCH   1   6
BRANCH   1   8
ATOM      8  C   UNL     1      -7.077   2.381  -8.200  1.00  0.00     0.224 C 
BRANCH   8   9
ATOM      9  O   UNL     1      -5.682   2.466  -8.085  1.00  0.00    -0.391 OA
ATOM     10  H   UNL     1      -5.462   3.434  -8.099  1.00  0.00     0.210 HD
ENDBRANCH   8   9
ENDBRANCH   1   8
BRANCH   2  11
ATOM     11  O   UNL     1      -6.532  -0.007  -6.862  1.00  0.00    -0.385 OA
ATOM     12  H   UNL     1      -6.540  -0.839  -6.320  1.00  0.00     0.211 HD
ENDBRANCH   2  11
BRANCH   3  13
ATOM     13  O   UNL     1      -6.581  -2.338  -8.104  1.00  0.00    -0.387 OA
ATOM     14  H   UNL     1      -6.570  -2.101  -7.139  1.00  0.00     0.211 HD
ENDBRANCH   3  13
BRANCH   4  15
ATOM     15  C   UNL     1      -5.104  -1.208 -10.124  1.00  0.00     0.191 C 
BRANCH  15  16
ATOM     16  O   UNL     1      -4.356  -0.852  -8.995  1.00  0.00    -0.394 OA
ATOM     17  H   UNL     1      -4.410   0.136  -8.928  1.00  0.00     0.210 HD
ENDBRANCH  15  16
ENDBRANCH   4  15
TORSDOF 7
ENDMDL
MODEL 8
REMARK VINA RESULT:    -2.693     20.959     22.181
REMARK INTER + INTRA:          -4.324
REMARK INTER:                  -3.767
REMARK INTRA:                  -0.557
REMARK UNBOUND:                -0.844
REMARK SMILES CO[C@]1(CO)O[C@@H](CO)[C@@H](O)[C@H]1O
REMARK SMILES IDX 3 1 12 2 10 3 7 4 6 5 2 6 1 7 4 8 5 9 13 11 11 13 8 15 9 16
REMARK H PARENT 5 10 13 12 11 14 9 17
REMARK Flexibility Score: inf
ROOT
ATOM      1  C   UNL     1      -9.006   6.367  -2.348  1.00  0.00     0.221 C 
ATOM      2  C   UNL     1      -9.364   4.875  -2.246  1.00  0.00     0.207 C 
ATOM      3  C   UNL     1     -10.103   4.632  -3.547  1.00  0.00     0.180 C 
ATOM      4  C   UNL     1      -9.556   5.731  -4.479  1.00  0.00     0.179 C 
ATOM      5  O   UNL     1      -8.768   6.630  -3.722  1.00  0.00    -0.337 OA
ENDROOT
BRANCH   1   6
ATOM      6  O   UNL     1     -10.125   7.105  -1.855  1.00  0.00    -0.349 OA
ATOM      7  C   UNL     1      -9.858   8.487  -1.710  1.00  0.00     0.198 C 
ENDBRANCH   1   6
BRANCH   1   8
ATOM      8  C   UNL     1      -7.757   6.724  -1.504  1.00  0.00     0.224 C 
BRANCH   8   9
ATOM      9  O   UNL     1      -7.806   6.097  -0.251  1.00  0.00    -0.391 OA
ATOM     10  H   UNL     1      -8.616   6.449   0.203  1.00  0.00     0.210 HD
ENDBRANCH   8   9
ENDBRANCH   1   8
BRANCH   2  11
ATOM     11  O   UNL     1      -8.230   4.043  -2.119  1.00  0.00    -0.385 OA
ATOM     12  H   UNL     1      -8.072   3.873  -1.154  1.00  0.00     0.211 HD
ENDBRANCH   2  11
BRANCH   3  13
ATOM     13  O   UNL     1      -9.899   3.331  -4.039  1.00  0.00    -0.387 OA
ATOM     14  H   UNL     1      -8.922   3.163  -3.992  1.00  0.00     0.211 HD
ENDBRANCH   3  13
BRANCH   4  15
ATOM     15  C   UNL     1      -8.720   5.210  -5.657  1.00  0.00     0.191 C 
BRANCH  15  16
ATOM     16  O   UNL     1      -9.550   4.596  -6.604  1.00  0.00    -0.394 OA
ATOM     17  H   UNL     1      -9.098   4.708  -7.481  1.00  0.00     0.210 HD
ENDBRANCH  15  16
ENDBRANCH   4  15
TORSDOF 7
ENDMDL
MODEL 9
REMARK VINA RESULT:    -0.231      1.272      3.912
REMARK INTER + INTRA:          -1.142
REMARK INTER:                  -0.325
REMARK INTRA:                  -0.817
REMARK UNBOUND:                -0.844
REMARK SMILES CO[C@]1(CO)O[C@@H](CO)[C@@H](O)[C@H]1O
REMARK SMILES IDX 3 1 12 2 10 3 7 4 6 5 2 6 1 7 4 8 5 9 13 11 11 13 8 15 9 16
REMARK H PARENT 5 10 13 12 11 14 9 17
REMARK Flexibility Score: inf
ROOT
ATOM      1  C   UNL     1       7.401  -8.251  -5.309  1.00  0.00     0.221 C 
ATOM      2  C   UNL     1       8.515  -8.585  -6.315  1.00  0.00     0.207 C 
ATOM      3  C   UNL     1       8.708  -7.262  -7.030  1.00  0.00     0.180 C 
ATOM      4  C   UNL     1       8.214  -6.224  -6.002  1.00  0.00     0.179 C 
ATOM      5  O   UNL     1       7.600  -6.901  -4.922  1.00  0.00    -0.337 OA
ENDROOT
BRANCH   1   6
ATOM      6  O   UNL     1       6.155  -8.430  -5.984  1.00  0.00    -0.349 OA
ATOM      7  C   UNL     1       5.034  -8.249  -5.138  1.00  0.00     0.198 C 
ENDBRANCH   1   6
BRANCH   1   8
ATOM      8  C   UNL     1       7.439  -9.182  -4.071  1.00  0.00     0.224 C 
BRANCH   8   9
ATOM      9  O   UNL     1       8.286  -8.661  -3.082  1.00  0.00    -0.391 OA
ATOM     10  H   UNL     1       7.747  -7.996  -2.579  1.00  0.00     0.210 HD
ENDBRANCH   8   9
ENDBRANCH   1   8
BRANCH   2  11
ATOM     11  O   UNL     1       9.704  -9.029  -5.695  1.00  0.00    -0.385 OA
ATOM     12  H   UNL     1      10.464  -8.513  -6.070  1.00  0.00     0.211 HD
ENDBRANCH   2  11
BRANCH   3  13
ATOM     13  O   UNL     1      10.042  -7.061  -7.425  1.00  0.00    -0.387 OA
ATOM     14  H   UNL     1      10.434  -7.964  -7.560  1.00  0.00     0.211 HD
ENDBRANCH   3  13
BRANCH   4  15
ATOM     15  C   UNL     1       9.308  -5.299  -5.451  1.00  0.00     0.191 C 
BRANCH  15  16
ATOM     16  O   UNL     1      10.125  -5.999  -4.554  1.00  0.00    -0.394 OA
ATOM     17  H   UNL     1       9.764  -6.923  -4.515  1.00  0.00     0.210 HD
ENDBRANCH  15  16
ENDBRANCH   4  15
TORSDOF 7
ENDMDL
