MODEL 1
REMARK VINA RESULT:    -3.879      0.000      0.000
REMARK INTER + INTRA:          -8.301
REMARK INTER:                  -6.827
REMARK INTRA:                  -1.474
REMARK UNBOUND:                -1.474
REMARK SMILES CCCCCCCCCCCCCCC(=O)[O-]
REMARK SMILES IDX 9 1 10 2 11 3 12 4 13 5 14 6 15 7 16 8 17 9 8 10 7 11 6 12
REMARK SMILES IDX 5 13 4 14 3 15 2 16 1 17
REMARK H PARENT
REMARK Flexibility Score: inf
ROOT
ATOM      1  C   UNL     1      -8.588  -5.794  -5.311  1.00  0.00     0.000 C 
ENDROOT
BRANCH   1   2
ATOM      2  C   UNL     1      -9.957  -6.492  -5.358  1.00  0.00     0.000 C 
BRANCH   2   3
ATOM      3  C   UNL     1     -11.057  -5.690  -4.645  1.00  0.00     0.000 C 
BRANCH   3   4
ATOM      4  C   UNL     1     -10.993  -4.208  -5.031  1.00  0.00     0.000 C 
BRANCH   4   5
ATOM      5  C   UNL     1     -10.827  -3.322  -3.787  1.00  0.00     0.006 C 
BRANCH   5   6
ATOM      6  C   UNL     1     -10.500  -4.139  -2.531  1.00  0.00     0.053 C 
BRANCH   6   7
ATOM      7  C   UNL     1      -9.108  -3.876  -2.042  1.00  0.00     0.041 C 
ATOM      8  O   UNL     1      -8.446  -4.796  -1.492  1.00  0.00    -0.550 OA
ATOM      9  O   UNL     1      -8.556  -2.608  -2.161  1.00  0.00    -0.550 OA
ENDBRANCH   6   7
ENDBRANCH   5   6
ENDBRANCH   4   5
ENDBRANCH   3   4
ENDBRANCH   2   3
ENDBRANCH   1   2
BRANCH   1  10
ATOM     10  C   UNL     1      -7.517  -6.540  -6.126  1.00  0.00     0.000 C 
BRANCH  10  11
ATOM     11  C   UNL     1      -6.666  -5.602  -7.000  1.00  0.00    -0.000 C 
BRANCH  11  12
ATOM     12  C   UNL     1      -6.931  -5.692  -8.515  1.00  0.00    -0.000 C 
BRANCH  12  13
ATOM     13  C   UNL     1      -8.074  -4.774  -8.979  1.00  0.00    -0.000 C 
BRANCH  13  14
ATOM     14  C   UNL     1      -9.292  -5.562  -9.491  1.00  0.00    -0.000 C 
BRANCH  14  15
ATOM     15  C   UNL     1     -10.590  -5.197  -8.747  1.00  0.00    -0.000 C 
BRANCH  15  16
ATOM     16  C   UNL     1     -10.817  -3.680  -8.672  1.00  0.00    -0.003 C 
ATOM     17  C   UNL     1     -10.736  -3.003 -10.040  1.00  0.00     0.004 C 
ENDBRANCH  15  16
ENDBRANCH  14  15
ENDBRANCH  13  14
ENDBRANCH  12  13
ENDBRANCH  11  12
ENDBRANCH  10  11
ENDBRANCH   1  10
TORSDOF 13
ENDMDL
MODEL 2
REMARK VINA RESULT:    -3.827      2.085      4.264
REMARK INTER + INTRA:          -8.210
REMARK INTER:                  -7.058
REMARK INTRA:                  -1.152
REMARK UNBOUND:                -1.474
REMARK SMILES CCCCCCCCCCCCCCC(=O)[O-]
REMARK SMILES IDX 9 1 10 2 11 3 12 4 13 5 14 6 15 7 16 8 17 9 8 10 7 11 6 12
REMARK SMILES IDX 5 13 4 14 3 15 2 16 1 17
REMARK H PARENT
REMARK Flexibility Score: inf
ROOT
ATOM      1  C   UNL     1      -9.572  -5.176  -7.929  1.00  0.00     0.000 C 
ENDROOT
BRANCH   1   2
ATOM      2  C   UNL     1     -10.466  -6.381  -7.595  1.00  0.00     0.000 C 
BRANCH   2   3
ATOM      3  C   UNL     1     -10.971  -6.363  -6.144  1.00  0.00     0.000 C 
BRANCH   3   4
ATOM      4  C   UNL     1     -10.845  -4.960  -5.538  1.00  0.00     0.000 C 
BRANCH   4   5
ATOM      5  C   UNL     1     -10.453  -5.036  -4.054  1.00  0.00     0.006 C 
BRANCH   5   6
ATOM      6  C   UNL     1      -9.240  -4.155  -3.728  1.00  0.00     0.053 C 
BRANCH   6   7
ATOM      7  C   UNL     1      -9.156  -3.843  -2.265  1.00  0.00     0.041 C 
ATOM      8  O   UNL     1      -9.618  -2.758  -1.821  1.00  0.00    -0.550 OA
ATOM      9  O   UNL     1      -8.537  -4.732  -1.397  1.00  0.00    -0.550 OA
ENDBRANCH   6   7
ENDBRANCH   5   6
ENDBRANCH   4   5
ENDBRANCH   3   4
ENDBRANCH   2   3
ENDBRANCH   1   2
BRANCH   1  10
ATOM     10  C   UNL     1      -8.323  -5.573  -8.735  1.00  0.00     0.000 C 
BRANCH  10  11
ATOM     11  C   UNL     1      -7.037  -5.574  -7.888  1.00  0.00    -0.000 C 
BRANCH  11  12
ATOM     12  C   UNL     1      -7.214  -6.010  -6.422  1.00  0.00    -0.000 C 
BRANCH  12  13
ATOM     13  C   UNL     1      -5.881  -6.116  -5.662  1.00  0.00    -0.000 C 
BRANCH  13  14
ATOM     14  C   UNL     1      -4.793  -5.201  -6.250  1.00  0.00    -0.000 C 
BRANCH  14  15
ATOM     15  C   UNL     1      -3.404  -5.463  -5.642  1.00  0.00    -0.000 C 
BRANCH  15  16
ATOM     16  C   UNL     1      -2.638  -4.166  -5.343  1.00  0.00    -0.003 C 
ATOM     17  C   UNL     1      -3.520  -2.922  -5.450  1.00  0.00     0.004 C 
ENDBRANCH  15  16
ENDBRANCH  14  15
ENDBRANCH  13  14
ENDBRANCH  12  13
ENDBRANCH  11  12
ENDBRANCH  10  11
ENDBRANCH   1  10
TORSDOF 13
ENDMDL
MODEL 3
REMARK VINA RESULT:    -3.791      0.953      3.116
REMARK INTER + INTRA:          -8.147
REMARK INTER:                  -6.808
REMARK INTRA:                  -1.338
REMARK UNBOUND:                -1.474
REMARK SMILES CCCCCCCCCCCCCCC(=O)[O-]
REMARK SMILES IDX 9 1 10 2 11 3 12 4 13 5 14 6 15 7 16 8 17 9 8 10 7 11 6 12
REMARK SMILES IDX 5 13 4 14 3 15 2 16 1 17
REMARK H PARENT
REMARK Flexibility Score: inf
ROOT
ATOM      1  C   UNL     1     -10.771  -4.192  -6.797  1.00  0.00     0.000 C 
ENDROOT
BRANCH   1   2
ATOM      2  C   UNL     1     -10.999  -5.567  -6.148  1.00  0.00     0.000 C 
BRANCH   2   3
ATOM      3  C   UNL     1     -11.125  -5.489  -4.619  1.00  0.00     0.000 C 
BRANCH   3   4
ATOM      4  C   UNL     1     -10.240  -4.373  -4.052  1.00  0.00     0.000 C 
BRANCH   4   5
ATOM      5  C   UNL     1     -11.016  -3.515  -3.041  1.00  0.00     0.006 C 
BRANCH   5   6
ATOM      6  C   UNL     1     -10.360  -3.514  -1.655  1.00  0.00     0.053 C 
BRANCH   6   7
ATOM      7  C   UNL     1      -8.872  -3.668  -1.742  1.00  0.00     0.041 C 
ATOM      8  O   UNL     1      -8.333  -4.775  -1.475  1.00  0.00    -0.550 OA
ATOM      9  O   UNL     1      -8.078  -2.582  -2.084  1.00  0.00    -0.550 OA
ENDBRANCH   6   7
ENDBRANCH   5   6
ENDBRANCH   4   5
ENDBRANCH   3   4
ENDBRANCH   2   3
ENDBRANCH   1   2
BRANCH   1  10
ATOM     10  C   UNL     1     -10.799  -4.253  -8.334  1.00  0.00     0.000 C 
BRANCH  10  11
ATOM     11  C   UNL     1     -10.351  -5.618  -8.888  1.00  0.00    -0.000 C 
BRANCH  11  12
ATOM     12  C   UNL     1      -9.129  -5.580  -9.825  1.00  0.00    -0.000 C 
BRANCH  12  13
ATOM     13  C   UNL     1      -7.879  -6.230  -9.208  1.00  0.00    -0.000 C 
BRANCH  13  14
ATOM     14  C   UNL     1      -6.983  -5.212  -8.482  1.00  0.00    -0.000 C 
BRANCH  14  15
ATOM     15  C   UNL     1      -6.521  -5.708  -7.100  1.00  0.00    -0.000 C 
BRANCH  15  16
ATOM     16  C   UNL     1      -7.678  -6.267  -6.259  1.00  0.00    -0.003 C 
ATOM     17  C   UNL     1      -7.221  -7.325  -5.254  1.00  0.00     0.004 C 
ENDBRANCH  15  16
ENDBRANCH  14  15
ENDBRANCH  13  14
ENDBRANCH  12  13
ENDBRANCH  11  12
ENDBRANCH  10  11
ENDBRANCH   1  10
TORSDOF 13
ENDMDL
MODEL 4
REMARK VINA RESULT:    -3.674      1.279      3.085
REMARK INTER + INTRA:          -7.941
REMARK INTER:                  -6.709
REMARK INTRA:                  -1.232
REMARK UNBOUND:                -1.474
REMARK SMILES CCCCCCCCCCCCCCC(=O)[O-]
REMARK SMILES IDX 9 1 10 2 11 3 12 4 13 5 14 6 15 7 16 8 17 9 8 10 7 11 6 12
REMARK SMILES IDX 5 13 4 14 3 15 2 16 1 17
REMARK H PARENT
REMARK Flexibility Score: inf
ROOT
ATOM      1  C   UNL     1     -10.246  -7.059  -6.292  1.00  0.00     0.000 C 
ENDROOT
BRANCH   1   2
ATOM      2  C   UNL     1     -10.621  -6.113  -5.140  1.00  0.00     0.000 C 
BRANCH   2   3
ATOM      3  C   UNL     1     -10.928  -4.686  -5.619  1.00  0.00     0.000 C 
BRANCH   3   4
ATOM      4  C   UNL     1     -10.585  -3.658  -4.534  1.00  0.00     0.000 C 
BRANCH   4   5
ATOM      5  C   UNL     1     -11.117  -4.106  -3.164  1.00  0.00     0.006 C 
BRANCH   5   6
ATOM      6  C   UNL     1     -10.519  -3.287  -2.012  1.00  0.00     0.053 C 
BRANCH   6   7
ATOM      7  C   UNL     1      -9.044  -3.511  -1.877  1.00  0.00     0.041 C 
ATOM      8  O   UNL     1      -8.595  -4.671  -1.679  1.00  0.00    -0.550 OA
ATOM      9  O   UNL     1      -8.168  -2.436  -1.935  1.00  0.00    -0.550 OA
ENDBRANCH   6   7
ENDBRANCH   5   6
ENDBRANCH   4   5
ENDBRANCH   3   4
ENDBRANCH   2   3
ENDBRANCH   1   2
BRANCH   1  10
ATOM     10  C   UNL     1     -11.009  -6.740  -7.589  1.00  0.00     0.000 C 
BRANCH  10  11
ATOM     11  C   UNL     1     -10.253  -7.183  -8.856  1.00  0.00    -0.000 C 
BRANCH  11  12
ATOM     12  C   UNL     1      -9.707  -6.039  -9.731  1.00  0.00    -0.000 C 
BRANCH  12  13
ATOM     13  C   UNL     1      -8.995  -4.947  -8.916  1.00  0.00    -0.000 C 
BRANCH  13  14
ATOM     14  C   UNL     1      -7.494  -5.232  -8.735  1.00  0.00    -0.000 C 
BRANCH  14  15
ATOM     15  C   UNL     1      -7.166  -5.839  -7.359  1.00  0.00    -0.000 C 
BRANCH  15  16
ATOM     16  C   UNL     1      -5.879  -5.260  -6.753  1.00  0.00    -0.003 C 
ATOM     17  C   UNL     1      -5.303  -6.138  -5.642  1.00  0.00     0.004 C 
ENDBRANCH  15  16
ENDBRANCH  14  15
ENDBRANCH  13  14
ENDBRANCH  12  13
ENDBRANCH  11  12
ENDBRANCH  10  11
ENDBRANCH   1  10
TORSDOF 13
ENDMDL
MODEL 5
REMARK VINA RESULT:    -3.316     18.128     20.440
REMARK INTER + INTRA:          -7.310
REMARK INTER:                  -6.760
REMARK INTRA:                  -0.550
REMARK UNBOUND:                -1.474
REMARK SMILES CCCCCCCCCCCCCCC(=O)[O-]
REMARK SMILES IDX 9 1 10 2 11 3 12 4 13 5 14 6 15 7 16 8 17 9 8 10 7 11 6 12
REMARK SMILES IDX 5 13 4 14 3 15 2 16 1 17
REMARK H PARENT
REMARK Flexibility Score: inf
ROOT
ATOM      1  C   UNL     1      -3.616   6.712   8.121  1.00  0.00     0.000 C 
ENDROOT
BRANCH   1   2
ATOM      2  C   UNL     1      -2.705   7.217   9.252  1.00  0.00     0.000 C 
BRANCH   2   3
ATOM      3  C   UNL     1      -1.508   6.289   9.510  1.00  0.00     0.000 C 
BRANCH   3   4
ATOM      4  C   UNL     1      -0.211   7.093   9.654  1.00  0.00     0.000 C 
BRANCH   4   5
ATOM      5  C   UNL     1      -0.506   8.597   9.767  1.00  0.00     0.006 C 
BRANCH   5   6
ATOM      6  C   UNL     1       0.294   9.424   8.752  1.00  0.00     0.053 C 
BRANCH   6   7
ATOM      7  C   UNL     1       1.716   8.961   8.653  1.00  0.00     0.041 C 
ATOM      8  O   UNL     1       2.129   8.407   7.600  1.00  0.00    -0.550 OA
ATOM      9  O   UNL     1       2.573   9.107   9.735  1.00  0.00    -0.550 OA
ENDBRANCH   6   7
ENDBRANCH   5   6
ENDBRANCH   4   5
ENDBRANCH   3   4
ENDBRANCH   2   3
ENDBRANCH   1   2
BRANCH   1  10
ATOM     10  C   UNL     1      -4.580   7.797   7.611  1.00  0.00     0.000 C 
BRANCH  10  11
ATOM     11  C   UNL     1      -5.917   7.819   8.375  1.00  0.00    -0.000 C 
BRANCH  11  12
ATOM     12  C   UNL     1      -7.015   6.899   7.807  1.00  0.00    -0.000 C 
BRANCH  12  13
ATOM     13  C   UNL     1      -8.365   7.061   8.525  1.00  0.00    -0.000 C 
BRANCH  13  14
ATOM     14  C   UNL     1      -9.551   7.105   7.548  1.00  0.00    -0.000 C 
BRANCH  14  15
ATOM     15  C   UNL     1     -10.598   8.167   7.931  1.00  0.00    -0.000 C 
BRANCH  15  16
ATOM     16  C   UNL     1     -11.014   9.040   6.738  1.00  0.00    -0.003 C 
ATOM     17  C   UNL     1     -10.980   8.280   5.411  1.00  0.00     0.004 C 
ENDBRANCH  15  16
ENDBRANCH  14  15
ENDBRANCH  13  14
ENDBRANCH  12  13
ENDBRANCH  11  12
ENDBRANCH  10  11
ENDBRANCH   1  10
TORSDOF 13
ENDMDL
MODEL 6
REMARK VINA RESULT:    -3.302      1.165      1.637
REMARK INTER + INTRA:          -7.286
REMARK INTER:                  -5.718
REMARK INTRA:                  -1.568
REMARK UNBOUND:                -1.474
REMARK SMILES CCCCCCCCCCCCCCC(=O)[O-]
REMARK SMILES IDX 9 1 10 2 11 3 12 4 13 5 14 6 15 7 16 8 17 9 8 10 7 11 6 12
REMARK SMILES IDX 5 13 4 14 3 15 2 16 1 17
REMARK H PARENT
REMARK Flexibility Score: inf
ROOT
ATOM      1  C   UNL     1      -7.244  -6.399  -6.238  1.00  0.00     0.000 C 
ENDROOT
BRANCH   1   2
ATOM      2  C   UNL     1      -8.320  -7.094  -5.387  1.00  0.00     0.000 C 
BRANCH   2   3
ATOM      3  C   UNL     1      -9.748  -6.713  -5.806  1.00  0.00     0.000 C 
BRANCH   3   4
ATOM      4  C   UNL     1     -10.581  -6.287  -4.591  1.00  0.00     0.000 C 
BRANCH   4   5
ATOM      5  C   UNL     1     -10.558  -4.761  -4.415  1.00  0.00     0.006 C 
BRANCH   5   6
ATOM      6  C   UNL     1      -9.506  -4.310  -3.393  1.00  0.00     0.053 C 
BRANCH   6   7
ATOM      7  C   UNL     1     -10.107  -3.464  -2.312  1.00  0.00     0.041 C 
ATOM      8  O   UNL     1     -10.036  -3.830  -1.109  1.00  0.00    -0.550 OA
ATOM      9  O   UNL     1     -10.776  -2.292  -2.635  1.00  0.00    -0.550 OA
ENDBRANCH   6   7
ENDBRANCH   5   6
ENDBRANCH   4   5
ENDBRANCH   3   4
ENDBRANCH   2   3
ENDBRANCH   1   2
BRANCH   1  10
ATOM     10  C   UNL     1      -7.846  -5.575  -7.389  1.00  0.00     0.000 C 
BRANCH  10  11
ATOM     11  C   UNL     1      -6.989  -5.617  -8.669  1.00  0.00    -0.000 C 
BRANCH  11  12
ATOM     12  C   UNL     1      -7.720  -6.098  -9.935  1.00  0.00    -0.000 C 
BRANCH  12  13
ATOM     13  C   UNL     1      -9.062  -6.784  -9.629  1.00  0.00    -0.000 C 
BRANCH  13  14
ATOM     14  C   UNL     1     -10.269  -5.950 -10.091  1.00  0.00    -0.000 C 
BRANCH  14  15
ATOM     15  C   UNL     1     -10.972  -5.228  -8.928  1.00  0.00    -0.000 C 
BRANCH  15  16
ATOM     16  C   UNL     1     -11.125  -3.721  -9.179  1.00  0.00    -0.003 C 
ATOM     17  C   UNL     1     -10.057  -3.168 -10.123  1.00  0.00     0.004 C 
ENDBRANCH  15  16
ENDBRANCH  14  15
ENDBRANCH  13  14
ENDBRANCH  12  13
ENDBRANCH  11  12
ENDBRANCH  10  11
ENDBRANCH   1  10
TORSDOF 13
ENDMDL
MODEL 7
REMARK VINA RESULT:    -3.181      3.502      5.944
REMARK INTER + INTRA:          -7.073
REMARK INTER:                  -5.851
REMARK INTRA:                  -1.222
REMARK UNBOUND:                -1.474
REMARK SMILES CCCCCCCCCCCCCCC(=O)[O-]
REMARK SMILES IDX 9 1 10 2 11 3 12 4 13 5 14 6 15 7 16 8 17 9 8 10 7 11 6 12
REMARK SMILES IDX 5 13 4 14 3 15 2 16 1 17
REMARK H PARENT
REMARK Flexibility Score: inf
ROOT
ATOM      1  C   UNL     1      -9.777  -5.495  -4.944  1.00  0.00     0.000 C 
ENDROOT
BRANCH   1   2
ATOM      2  C   UNL     1     -10.972  -4.969  -5.756  1.00  0.00     0.000 C 
BRANCH   2   3
ATOM      3  C   UNL     1     -10.567  -4.467  -7.151  1.00  0.00     0.000 C 
BRANCH   3   4
ATOM      4  C   UNL     1     -10.722  -5.576  -8.199  1.00  0.00     0.000 C 
BRANCH   4   5
ATOM      5  C   UNL     1      -9.979  -5.216  -9.494  1.00  0.00     0.006 C 
BRANCH   5   6
ATOM      6  C   UNL     1      -8.537  -4.762  -9.231  1.00  0.00     0.053 C 
BRANCH   6   7
ATOM      7  C   UNL     1      -7.574  -5.908  -9.282  1.00  0.00     0.041 C 
ATOM      8  O   UNL     1      -6.337  -5.692  -9.373  1.00  0.00    -0.550 OA
ATOM      9  O   UNL     1      -8.044  -7.214  -9.265  1.00  0.00    -0.550 OA
ENDBRANCH   6   7
ENDBRANCH   5   6
ENDBRANCH   4   5
ENDBRANCH   3   4
ENDBRANCH   2   3
ENDBRANCH   1   2
BRANCH   1  10
ATOM     10  C   UNL     1      -9.444  -6.961  -5.269  1.00  0.00     0.000 C 
BRANCH  10  11
ATOM     11  C   UNL     1      -8.005  -7.151  -5.785  1.00  0.00    -0.000 C 
BRANCH  11  12
ATOM     12  C   UNL     1      -7.064  -5.951  -5.567  1.00  0.00    -0.000 C 
BRANCH  12  13
ATOM     13  C   UNL     1      -5.578  -6.322  -5.705  1.00  0.00    -0.000 C 
BRANCH  13  14
ATOM     14  C   UNL     1      -4.698  -5.109  -6.053  1.00  0.00    -0.000 C 
BRANCH  14  15
ATOM     15  C   UNL     1      -3.218  -5.327  -5.690  1.00  0.00    -0.000 C 
BRANCH  15  16
ATOM     16  C   UNL     1      -2.537  -4.039  -5.202  1.00  0.00    -0.003 C 
ATOM     17  C   UNL     1      -3.399  -2.796  -5.423  1.00  0.00     0.004 C 
ENDBRANCH  15  16
ENDBRANCH  14  15
ENDBRANCH  13  14
ENDBRANCH  12  13
ENDBRANCH  11  12
ENDBRANCH  10  11
ENDBRANCH   1  10
TORSDOF 13
ENDMDL
MODEL 8
REMARK VINA RESULT:    -3.177      1.926      5.430
REMARK INTER + INTRA:          -7.067
REMARK INTER:                  -5.904
REMARK INTRA:                  -1.163
REMARK UNBOUND:                -1.474
REMARK SMILES CCCCCCCCCCCCCCC(=O)[O-]
REMARK SMILES IDX 9 1 10 2 11 3 12 4 13 5 14 6 15 7 16 8 17 9 8 10 7 11 6 12
REMARK SMILES IDX 5 13 4 14 3 15 2 16 1 17
REMARK H PARENT
REMARK Flexibility Score: inf
ROOT
ATOM      1  C   UNL     1      -9.143  -4.310  -9.732  1.00  0.00     0.000 C 
ENDROOT
BRANCH   1   2
ATOM      2  C   UNL     1      -8.674  -5.748 -10.009  1.00  0.00     0.000 C 
BRANCH   2   3
ATOM      3  C   UNL     1      -7.158  -5.923  -9.834  1.00  0.00     0.000 C 
BRANCH   3   4
ATOM      4  C   UNL     1      -6.695  -5.372  -8.480  1.00  0.00     0.000 C 
BRANCH   4   5
ATOM      5  C   UNL     1      -7.427  -6.070  -7.323  1.00  0.00     0.006 C 
BRANCH   5   6
ATOM      6  C   UNL     1      -6.675  -5.933  -5.993  1.00  0.00     0.053 C 
BRANCH   6   7
ATOM      7  C   UNL     1      -6.862  -7.138  -5.121  1.00  0.00     0.041 C 
ATOM      8  O   UNL     1      -7.158  -8.250  -5.633  1.00  0.00    -0.550 OA
ATOM      9  O   UNL     1      -6.744  -7.025  -3.743  1.00  0.00    -0.550 OA
ENDBRANCH   6   7
ENDBRANCH   5   6
ENDBRANCH   4   5
ENDBRANCH   3   4
ENDBRANCH   2   3
ENDBRANCH   1   2
BRANCH   1  10
ATOM     10  C   UNL     1     -10.173  -4.235  -8.592  1.00  0.00     0.000 C 
BRANCH  10  11
ATOM     11  C   UNL     1     -10.639  -5.622  -8.112  1.00  0.00    -0.000 C 
BRANCH  11  12
ATOM     12  C   UNL     1     -11.125  -5.684  -6.652  1.00  0.00    -0.000 C 
BRANCH  12  13
ATOM     13  C   UNL     1     -10.700  -4.459  -5.825  1.00  0.00    -0.000 C 
BRANCH  13  14
ATOM     14  C   UNL     1     -10.701  -4.739  -4.313  1.00  0.00    -0.000 C 
BRANCH  14  15
ATOM     15  C   UNL     1      -9.304  -4.598  -3.681  1.00  0.00    -0.000 C 
BRANCH  15  16
ATOM     16  C   UNL     1      -9.243  -3.476  -2.634  1.00  0.00    -0.003 C 
ATOM     17  C   UNL     1     -10.485  -3.432  -1.743  1.00  0.00     0.004 C 
ENDBRANCH  15  16
ENDBRANCH  14  15
ENDBRANCH  13  14
ENDBRANCH  12  13
ENDBRANCH  11  12
ENDBRANCH  10  11
ENDBRANCH   1  10
TORSDOF 13
ENDMDL
