MODEL 1
REMARK VINA RESULT:    -9.595      0.000      0.000
REMARK INTER + INTRA:         -17.402
REMARK INTER:                 -15.765
REMARK INTRA:                  -1.636
REMARK UNBOUND:                -1.636
REMARK SMILES COc1ccc([C@@H]2CC(=O)c3c(O)cc(O[C@H]4O[C@@H](CO[C@@H]5O[C@H](C)[C@@H](O)[C@@H](O)[C@H]5O)[C@@H](O)[C@H](O)[C@H]4O)cc3O2)cc1O
REMARK SMILES IDX 19 1 32 2 34 3 36 4 17 5 18 6 20 7 21 8 22 9 25 10 24 11
REMARK SMILES IDX 26 12 23 13 28 14 30 15 27 16 29 18 31 20 33 22 35 24 16 26
REMARK SMILES IDX 15 27 14 28 38 29 12 30 39 31 11 32 40 33 9 34 7 35 10 36
REMARK SMILES IDX 8 37 13 38 6 40 41 41 5 42 42 43 4 44 3 45 43 46 2 48 1 49
REMARK SMILES IDX 37 50
REMARK H PARENT 27 17 29 19 31 21 33 23 35 25 13 39 43 47 37 51
REMARK Flexibility Score: inf
ROOT
ATOM      1  C   UNL     1     -66.995 -43.258 -39.772  1.00  0.00     0.180 C 
ATOM      2  C   UNL     1     -67.602 -42.871 -41.145  1.00  0.00     0.177 C 
ATOM      3  C   UNL     1     -67.899 -41.347 -41.204  1.00  0.00     0.180 C 
ATOM      4  C   UNL     1     -68.561 -40.830 -39.904  1.00  0.00     0.214 C 
ATOM      5  C   UNL     1     -67.826 -41.388 -38.672  1.00  0.00     0.339 C 
ATOM      6  O   UNL     1     -67.833 -42.801 -38.723  1.00  0.00    -0.332 OA
ENDROOT
BRANCH   1   7
ATOM      7  C   UNL     1     -66.813 -44.778 -39.623  1.00  0.00     0.198 C 
BRANCH   7   8
ATOM      8  O   UNL     1     -65.736 -45.224 -40.428  1.00  0.00    -0.347 OA
BRANCH   8   9
ATOM      9  C   UNL     1     -65.862 -46.595 -40.766  1.00  0.00     0.281 C 
ATOM     10  C   UNL     1     -63.888 -45.139 -42.707  1.00  0.00     0.041 C 
ATOM     11  C   UNL     1     -64.492 -46.552 -42.740  1.00  0.00     0.150 C 
ATOM     12  C   UNL     1     -65.724 -46.669 -43.675  1.00  0.00     0.174 C 
ATOM     13  O   UNL     1     -64.704 -47.091 -41.437  1.00  0.00    -0.344 OA
ATOM     14  C   UNL     1     -66.992 -46.157 -42.969  1.00  0.00     0.179 C 
ATOM     15  C   UNL     1     -67.145 -46.811 -41.587  1.00  0.00     0.202 C 
BRANCH  12  16
ATOM     16  O   UNL     1     -65.888 -48.019 -44.046  1.00  0.00    -0.388 OA
ATOM     17  H   UNL     1     -65.001 -48.348 -44.348  1.00  0.00     0.211 HD
ENDBRANCH  12  16
BRANCH  14  18
ATOM     18  O   UNL     1     -68.140 -46.332 -43.772  1.00  0.00    -0.387 OA
ATOM     19  H   UNL     1     -67.945 -47.028 -44.455  1.00  0.00     0.211 HD
ENDBRANCH  14  18
BRANCH  15  20
ATOM     20  O   UNL     1     -67.396 -48.189 -41.714  1.00  0.00    -0.385 OA
ATOM     21  H   UNL     1     -66.631 -48.660 -41.296  1.00  0.00     0.211 HD
ENDBRANCH  15  20
ENDBRANCH   8   9
ENDBRANCH   7   8
ENDBRANCH   1   7
BRANCH   2  22
ATOM     22  O   UNL     1     -68.794 -43.587 -41.359  1.00  0.00    -0.387 OA
ATOM     23  H   UNL     1     -69.448 -43.272 -40.682  1.00  0.00     0.211 HD
ENDBRANCH   2  22
BRANCH   3  24
ATOM     24  O   UNL     1     -66.742 -40.611 -41.517  1.00  0.00    -0.387 OA
ATOM     25  H   UNL     1     -66.687 -39.847 -40.897  1.00  0.00     0.211 HD
ENDBRANCH   3  24
BRANCH   5  26
ATOM     26  O   UNL     1     -68.496 -40.979 -37.477  1.00  0.00    -0.462 OA
BRANCH  26  27
ATOM     27  C   UNL     1     -68.074 -39.941 -36.629  1.00  0.00     0.130 A 
ATOM     28  C   UNL     1     -68.764 -38.718 -36.521  1.00  0.00     0.093 A 
ATOM     29  C   UNL     1     -66.897 -40.123 -35.896  1.00  0.00     0.094 A 
ATOM     30  C   UNL     1     -68.224 -37.654 -35.789  1.00  0.00     0.133 A 
ATOM     31  C   UNL     1     -66.365 -39.085 -35.123  1.00  0.00     0.138 A 
ATOM     32  C   UNL     1     -67.013 -37.835 -35.075  1.00  0.00     0.102 A 
ATOM     33  O   UNL     1     -65.174 -39.309 -34.415  1.00  0.00    -0.484 OA
ATOM     34  C   UNL     1     -66.374 -36.783 -34.257  1.00  0.00     0.174 C 
ATOM     35  C   UNL     1     -64.583 -38.358 -33.517  1.00  0.00     0.211 C 
ATOM     36  O   UNL     1     -67.034 -35.817 -33.789  1.00  0.00    -0.294 OA
ATOM     37  C   UNL     1     -64.914 -36.911 -33.932  1.00  0.00     0.131 C 
BRANCH  30  38
ATOM     38  O   UNL     1     -68.898 -36.431 -35.836  1.00  0.00    -0.507 OA
ATOM     39  H   UNL     1     -69.368 -36.026 -35.039  1.00  0.00     0.293 HD
ENDBRANCH  30  38
BRANCH  35  40
ATOM     40  C   UNL     1     -64.999 -38.623 -32.084  1.00  0.00    -0.003 A 
ATOM     41  C   UNL     1     -65.778 -39.741 -31.738  1.00  0.00     0.057 A 
ATOM     42  C   UNL     1     -64.673 -37.689 -31.089  1.00  0.00     0.011 A 
ATOM     43  C   UNL     1     -66.225 -39.924 -30.424  1.00  0.00     0.158 A 
ATOM     44  C   UNL     1     -65.107 -37.872 -29.775  1.00  0.00     0.051 A 
ATOM     45  C   UNL     1     -65.888 -38.990 -29.429  1.00  0.00     0.160 A 
BRANCH  43  46
ATOM     46  O   UNL     1     -67.017 -41.035 -30.132  1.00  0.00    -0.504 OA
ATOM     47  H   UNL     1     -67.815 -40.981 -29.514  1.00  0.00     0.293 HD
ENDBRANCH  43  46
BRANCH  45  48
ATOM     48  O   UNL     1     -66.342 -39.194 -28.117  1.00  0.00    -0.493 OA
ATOM     49  C   UNL     1     -65.495 -39.371 -26.985  1.00  0.00     0.278 C 
ENDBRANCH  45  48
ENDBRANCH  35  40
ENDBRANCH  26  27
ENDBRANCH   5  26
BRANCH   4  50
ATOM     50  O   UNL     1     -69.906 -41.242 -39.879  1.00  0.00    -0.384 OA
ATOM     51  H   UNL     1     -70.335 -40.777 -39.118  1.00  0.00     0.211 HD
ENDBRANCH   4  50
TORSDOF 15
ENDMDL
MODEL 2
REMARK VINA RESULT:    -9.376      1.255      2.050
REMARK INTER + INTRA:         -17.042
REMARK INTER:                 -15.607
REMARK INTRA:                  -1.435
REMARK UNBOUND:                -1.636
REMARK SMILES COc1ccc([C@@H]2CC(=O)c3c(O)cc(O[C@H]4O[C@@H](CO[C@@H]5O[C@H](C)[C@@H](O)[C@@H](O)[C@H]5O)[C@@H](O)[C@H](O)[C@H]4O)cc3O2)cc1O
REMARK SMILES IDX 19 1 32 2 34 3 36 4 17 5 18 6 20 7 21 8 22 9 25 10 24 11
REMARK SMILES IDX 26 12 23 13 28 14 30 15 27 16 29 18 31 20 33 22 35 24 16 26
REMARK SMILES IDX 15 27 14 28 38 29 12 30 39 31 11 32 40 33 9 34 7 35 10 36
REMARK SMILES IDX 8 37 13 38 6 40 41 41 5 42 42 43 4 44 3 45 43 46 2 48 1 49
REMARK SMILES IDX 37 50
REMARK H PARENT 27 17 29 19 31 21 33 23 35 25 13 39 43 47 37 51
REMARK Flexibility Score: inf
ROOT
ATOM      1  C   UNL     1     -67.152 -43.832 -39.996  1.00  0.00     0.180 C 
ATOM      2  C   UNL     1     -67.787 -43.414 -41.346  1.00  0.00     0.177 C 
ATOM      3  C   UNL     1     -67.967 -41.872 -41.413  1.00  0.00     0.180 C 
ATOM      4  C   UNL     1     -68.529 -41.291 -40.093  1.00  0.00     0.214 C 
ATOM      5  C   UNL     1     -67.786 -41.892 -38.887  1.00  0.00     0.339 C 
ATOM      6  O   UNL     1     -67.904 -43.301 -38.918  1.00  0.00    -0.332 OA
ENDROOT
BRANCH   1   7
ATOM      7  C   UNL     1     -67.081 -45.360 -39.834  1.00  0.00     0.198 C 
BRANCH   7   8
ATOM      8  O   UNL     1     -66.156 -45.909 -40.755  1.00  0.00    -0.347 OA
BRANCH   8   9
ATOM      9  C   UNL     1     -64.962 -45.149 -40.821  1.00  0.00     0.281 C 
ATOM     10  C   UNL     1     -65.334 -46.877 -43.401  1.00  0.00     0.041 C 
ATOM     11  C   UNL     1     -64.152 -46.029 -42.905  1.00  0.00     0.150 C 
ATOM     12  C   UNL     1     -63.053 -46.864 -42.199  1.00  0.00     0.174 C 
ATOM     13  O   UNL     1     -64.569 -44.883 -42.167  1.00  0.00    -0.344 OA
ATOM     14  C   UNL     1     -63.443 -47.151 -40.738  1.00  0.00     0.179 C 
ATOM     15  C   UNL     1     -63.853 -45.854 -40.022  1.00  0.00     0.202 C 
BRANCH  12  16
ATOM     16  O   UNL     1     -61.839 -46.150 -42.245  1.00  0.00    -0.388 OA
ATOM     17  H   UNL     1     -61.679 -45.787 -41.335  1.00  0.00     0.211 HD
ENDBRANCH  12  16
BRANCH  14  18
ATOM     18  O   UNL     1     -62.418 -47.838 -40.053  1.00  0.00    -0.387 OA
ATOM     19  H   UNL     1     -61.691 -48.048 -40.697  1.00  0.00     0.211 HD
ENDBRANCH  14  18
BRANCH  15  20
ATOM     20  O   UNL     1     -62.750 -44.992 -39.885  1.00  0.00    -0.385 OA
ATOM     21  H   UNL     1     -62.722 -44.710 -38.935  1.00  0.00     0.211 HD
ENDBRANCH  15  20
ENDBRANCH   8   9
ENDBRANCH   7   8
ENDBRANCH   1   7
BRANCH   2  22
ATOM     22  O   UNL     1     -69.039 -44.037 -41.499  1.00  0.00    -0.387 OA
ATOM     23  H   UNL     1     -68.865 -44.978 -41.763  1.00  0.00     0.211 HD
ENDBRANCH   2  22
BRANCH   3  24
ATOM     24  O   UNL     1     -66.772 -41.232 -41.786  1.00  0.00    -0.387 OA
ATOM     25  H   UNL     1     -66.791 -41.089 -42.761  1.00  0.00     0.211 HD
ENDBRANCH   3  24
BRANCH   5  26
ATOM     26  O   UNL     1     -68.368 -41.420 -37.669  1.00  0.00    -0.462 OA
BRANCH  26  27
ATOM     27  C   UNL     1     -67.974 -40.260 -36.981  1.00  0.00     0.130 A 
ATOM     28  C   UNL     1     -68.687 -39.048 -37.059  1.00  0.00     0.093 A 
ATOM     29  C   UNL     1     -66.800 -40.309 -36.221  1.00  0.00     0.094 A 
ATOM     30  C   UNL     1     -68.173 -37.878 -36.489  1.00  0.00     0.133 A 
ATOM     31  C   UNL     1     -66.295 -39.158 -35.607  1.00  0.00     0.138 A 
ATOM     32  C   UNL     1     -66.966 -37.928 -35.748  1.00  0.00     0.102 A 
ATOM     33  O   UNL     1     -65.107 -39.252 -34.865  1.00  0.00    -0.484 OA
ATOM     34  C   UNL     1     -66.354 -36.754 -35.090  1.00  0.00     0.174 C 
ATOM     35  C   UNL     1     -64.542 -38.168 -34.114  1.00  0.00     0.211 C 
ATOM     36  O   UNL     1     -67.036 -35.742 -34.775  1.00  0.00    -0.294 OA
ATOM     37  C   UNL     1     -64.895 -36.805 -34.740  1.00  0.00     0.131 C 
BRANCH  30  38
ATOM     38  O   UNL     1     -68.869 -36.688 -36.721  1.00  0.00    -0.507 OA
ATOM     39  H   UNL     1     -69.862 -36.652 -36.899  1.00  0.00     0.293 HD
ENDBRANCH  30  38
BRANCH  35  40
ATOM     40  C   UNL     1     -64.967 -38.226 -32.660  1.00  0.00    -0.003 A 
ATOM     41  C   UNL     1     -65.533 -39.387 -32.104  1.00  0.00     0.057 A 
ATOM     42  C   UNL     1     -64.872 -37.071 -31.869  1.00  0.00     0.011 A 
ATOM     43  C   UNL     1     -65.998 -39.396 -30.784  1.00  0.00     0.158 A 
ATOM     44  C   UNL     1     -65.325 -37.078 -30.548  1.00  0.00     0.051 A 
ATOM     45  C   UNL     1     -65.893 -38.239 -29.993  1.00  0.00     0.160 A 
BRANCH  43  46
ATOM     46  O   UNL     1     -66.576 -40.563 -30.283  1.00  0.00    -0.504 OA
ATOM     47  H   UNL     1     -67.571 -40.735 -30.329  1.00  0.00     0.293 HD
ENDBRANCH  43  46
BRANCH  45  48
ATOM     48  O   UNL     1     -66.361 -38.269 -28.670  1.00  0.00    -0.493 OA
ATOM     49  C   UNL     1     -65.556 -38.570 -27.533  1.00  0.00     0.278 C 
ENDBRANCH  45  48
ENDBRANCH  35  40
ENDBRANCH  26  27
ENDBRANCH   5  26
BRANCH   4  50
ATOM     50  O   UNL     1     -69.899 -41.596 -40.005  1.00  0.00    -0.384 OA
ATOM     51  H   UNL     1     -70.393 -40.761 -40.199  1.00  0.00     0.211 HD
ENDBRANCH   4  50
TORSDOF 15
ENDMDL
MODEL 3
REMARK VINA RESULT:    -9.237      2.618      5.048
REMARK INTER + INTRA:         -16.813
REMARK INTER:                 -15.204
REMARK INTRA:                  -1.609
REMARK UNBOUND:                -1.636
REMARK SMILES COc1ccc([C@@H]2CC(=O)c3c(O)cc(O[C@H]4O[C@@H](CO[C@@H]5O[C@H](C)[C@@H](O)[C@@H](O)[C@H]5O)[C@@H](O)[C@H](O)[C@H]4O)cc3O2)cc1O
REMARK SMILES IDX 19 1 32 2 34 3 36 4 17 5 18 6 20 7 21 8 22 9 25 10 24 11
REMARK SMILES IDX 26 12 23 13 28 14 30 15 27 16 29 18 31 20 33 22 35 24 16 26
REMARK SMILES IDX 15 27 14 28 38 29 12 30 39 31 11 32 40 33 9 34 7 35 10 36
REMARK SMILES IDX 8 37 13 38 6 40 41 41 5 42 42 43 4 44 3 45 43 46 2 48 1 49
REMARK SMILES IDX 37 50
REMARK H PARENT 27 17 29 19 31 21 33 23 35 25 13 39 43 47 37 51
REMARK Flexibility Score: inf
ROOT
ATOM      1  C   UNL     1     -66.848 -44.268 -41.613  1.00  0.00     0.180 C 
ATOM      2  C   UNL     1     -67.682 -43.373 -42.565  1.00  0.00     0.177 C 
ATOM      3  C   UNL     1     -67.703 -41.904 -42.059  1.00  0.00     0.180 C 
ATOM      4  C   UNL     1     -67.932 -41.816 -40.530  1.00  0.00     0.214 C 
ATOM      5  C   UNL     1     -67.040 -42.833 -39.797  1.00  0.00     0.339 C 
ATOM      6  O   UNL     1     -67.315 -44.132 -40.282  1.00  0.00    -0.332 OA
ENDROOT
BRANCH   1   7
ATOM      7  C   UNL     1     -66.914 -45.754 -42.005  1.00  0.00     0.198 C 
BRANCH   7   8
ATOM      8  O   UNL     1     -66.275 -46.549 -41.022  1.00  0.00    -0.347 OA
BRANCH   8   9
ATOM      9  C   UNL     1     -65.238 -47.340 -41.576  1.00  0.00     0.281 C 
ATOM     10  C   UNL     1     -65.843 -48.189 -38.626  1.00  0.00     0.041 C 
ATOM     11  C   UNL     1     -64.722 -48.601 -39.595  1.00  0.00     0.150 C 
ATOM     12  C   UNL     1     -63.400 -47.824 -39.368  1.00  0.00     0.174 C 
ATOM     13  O   UNL     1     -65.152 -48.623 -40.955  1.00  0.00    -0.344 OA
ATOM     14  C   UNL     1     -63.458 -46.442 -40.043  1.00  0.00     0.179 C 
ATOM     15  C   UNL     1     -63.906 -46.573 -41.507  1.00  0.00     0.202 C 
BRANCH  12  16
ATOM     16  O   UNL     1     -62.332 -48.577 -39.897  1.00  0.00    -0.388 OA
ATOM     17  H   UNL     1     -61.761 -47.950 -40.413  1.00  0.00     0.211 HD
ENDBRANCH  12  16
BRANCH  14  18
ATOM     18  O   UNL     1     -62.233 -45.751 -39.919  1.00  0.00    -0.387 OA
ATOM     19  H   UNL     1     -62.201 -45.323 -39.023  1.00  0.00     0.211 HD
ENDBRANCH  14  18
BRANCH  15  20
ATOM     20  O   UNL     1     -62.933 -47.248 -42.266  1.00  0.00    -0.385 OA
ATOM     21  H   UNL     1     -62.050 -46.952 -41.928  1.00  0.00     0.211 HD
ENDBRANCH  15  20
ENDBRANCH   8   9
ENDBRANCH   7   8
ENDBRANCH   1   7
BRANCH   2  22
ATOM     22  O   UNL     1     -69.000 -43.858 -42.644  1.00  0.00    -0.387 OA
ATOM     23  H   UNL     1     -69.546 -43.150 -43.077  1.00  0.00     0.211 HD
ENDBRANCH   2  22
BRANCH   3  24
ATOM     24  O   UNL     1     -66.539 -41.213 -42.442  1.00  0.00    -0.387 OA
ATOM     25  H   UNL     1     -66.699 -40.249 -42.314  1.00  0.00     0.211 HD
ENDBRANCH   3  24
BRANCH   5  26
ATOM     26  O   UNL     1     -67.322 -42.809 -38.395  1.00  0.00    -0.462 OA
BRANCH  26  27
ATOM     27  C   UNL     1     -66.865 -41.830 -37.496  1.00  0.00     0.130 A 
ATOM     28  C   UNL     1     -65.549 -41.810 -36.997  1.00  0.00     0.093 A 
ATOM     29  C   UNL     1     -67.774 -40.863 -37.054  1.00  0.00     0.094 A 
ATOM     30  C   UNL     1     -65.181 -40.916 -35.984  1.00  0.00     0.133 A 
ATOM     31  C   UNL     1     -67.410 -39.932 -36.075  1.00  0.00     0.138 A 
ATOM     32  C   UNL     1     -66.117 -39.960 -35.517  1.00  0.00     0.102 A 
ATOM     33  O   UNL     1     -68.359 -38.988 -35.652  1.00  0.00    -0.484 OA
ATOM     34  C   UNL     1     -65.819 -38.960 -34.469  1.00  0.00     0.174 C 
ATOM     35  C   UNL     1     -68.079 -37.928 -34.726  1.00  0.00     0.211 C 
ATOM     36  O   UNL     1     -64.639 -38.598 -34.216  1.00  0.00    -0.294 OA
ATOM     37  C   UNL     1     -66.965 -38.324 -33.737  1.00  0.00     0.131 C 
BRANCH  30  38
ATOM     38  O   UNL     1     -63.897 -41.044 -35.446  1.00  0.00    -0.507 OA
ATOM     39  H   UNL     1     -63.503 -41.926 -35.155  1.00  0.00     0.293 HD
ENDBRANCH  30  38
BRANCH  35  40
ATOM     40  C   UNL     1     -67.733 -36.642 -35.450  1.00  0.00    -0.003 A 
ATOM     41  C   UNL     1     -66.950 -35.643 -34.844  1.00  0.00     0.057 A 
ATOM     42  C   UNL     1     -68.273 -36.402 -36.723  1.00  0.00     0.011 A 
ATOM     43  C   UNL     1     -66.712 -34.427 -35.494  1.00  0.00     0.158 A 
ATOM     44  C   UNL     1     -68.029 -35.196 -37.380  1.00  0.00     0.051 A 
ATOM     45  C   UNL     1     -67.248 -34.196 -36.773  1.00  0.00     0.160 A 
BRANCH  43  46
ATOM     46  O   UNL     1     -65.951 -33.455 -34.845  1.00  0.00    -0.504 OA
ATOM     47  H   UNL     1     -66.207 -32.477 -34.847  1.00  0.00     0.293 HD
ENDBRANCH  43  46
BRANCH  45  48
ATOM     48  O   UNL     1     -66.993 -32.971 -37.411  1.00  0.00    -0.493 OA
ATOM     49  C   UNL     1     -67.539 -32.583 -38.669  1.00  0.00     0.278 C 
ENDBRANCH  45  48
ENDBRANCH  35  40
ENDBRANCH  26  27
ENDBRANCH   5  26
BRANCH   4  50
ATOM     50  O   UNL     1     -69.285 -42.087 -40.254  1.00  0.00    -0.384 OA
ATOM     51  H   UNL     1     -69.820 -41.589 -40.922  1.00  0.00     0.211 HD
ENDBRANCH   4  50
TORSDOF 15
ENDMDL
MODEL 4
REMARK VINA RESULT:    -9.165      2.536      4.889
REMARK INTER + INTRA:         -16.695
REMARK INTER:                 -16.099
REMARK INTRA:                  -0.597
REMARK UNBOUND:                -1.636
REMARK SMILES COc1ccc([C@@H]2CC(=O)c3c(O)cc(O[C@H]4O[C@@H](CO[C@@H]5O[C@H](C)[C@@H](O)[C@@H](O)[C@H]5O)[C@@H](O)[C@H](O)[C@H]4O)cc3O2)cc1O
REMARK SMILES IDX 19 1 32 2 34 3 36 4 17 5 18 6 20 7 21 8 22 9 25 10 24 11
REMARK SMILES IDX 26 12 23 13 28 14 30 15 27 16 29 18 31 20 33 22 35 24 16 26
REMARK SMILES IDX 15 27 14 28 38 29 12 30 39 31 11 32 40 33 9 34 7 35 10 36
REMARK SMILES IDX 8 37 13 38 6 40 41 41 5 42 42 43 4 44 3 45 43 46 2 48 1 49
REMARK SMILES IDX 37 50
REMARK H PARENT 27 17 29 19 31 21 33 23 35 25 13 39 43 47 37 51
REMARK Flexibility Score: inf
ROOT
ATOM      1  C   UNL     1     -67.203 -44.325 -40.605  1.00  0.00     0.180 C 
ATOM      2  C   UNL     1     -68.045 -43.480 -41.595  1.00  0.00     0.177 C 
ATOM      3  C   UNL     1     -67.925 -41.967 -41.263  1.00  0.00     0.180 C 
ATOM      4  C   UNL     1     -68.030 -41.692 -39.743  1.00  0.00     0.214 C 
ATOM      5  C   UNL     1     -67.156 -42.688 -38.960  1.00  0.00     0.339 C 
ATOM      6  O   UNL     1     -67.556 -44.008 -39.269  1.00  0.00    -0.332 OA
ENDROOT
BRANCH   1   7
ATOM      7  C   UNL     1     -67.401 -45.837 -40.815  1.00  0.00     0.198 C 
BRANCH   7   8
ATOM      8  O   UNL     1     -66.147 -46.492 -40.878  1.00  0.00    -0.347 OA
BRANCH   8   9
ATOM      9  C   UNL     1     -65.068 -45.580 -40.773  1.00  0.00     0.281 C 
ATOM     10  C   UNL     1     -65.183 -46.857 -43.626  1.00  0.00     0.041 C 
ATOM     11  C   UNL     1     -64.131 -45.960 -42.954  1.00  0.00     0.150 C 
ATOM     12  C   UNL     1     -62.933 -46.752 -42.370  1.00  0.00     0.174 C 
ATOM     13  O   UNL     1     -64.707 -45.029 -42.040  1.00  0.00    -0.344 OA
ATOM     14  C   UNL     1     -63.290 -47.343 -40.995  1.00  0.00     0.179 C 
ATOM     15  C   UNL     1     -63.878 -46.261 -40.076  1.00  0.00     0.202 C 
BRANCH  12  16
ATOM     16  O   UNL     1     -61.828 -45.886 -42.253  1.00  0.00    -0.388 OA
ATOM     17  H   UNL     1     -61.835 -45.294 -43.050  1.00  0.00     0.211 HD
ENDBRANCH  12  16
BRANCH  14  18
ATOM     18  O   UNL     1     -62.185 -47.998 -40.408  1.00  0.00    -0.387 OA
ATOM     19  H   UNL     1     -61.978 -47.555 -39.543  1.00  0.00     0.211 HD
ENDBRANCH  14  18
BRANCH  15  20
ATOM     20  O   UNL     1     -62.905 -45.297 -39.757  1.00  0.00    -0.385 OA
ATOM     21  H   UNL     1     -62.055 -45.602 -40.165  1.00  0.00     0.211 HD
ENDBRANCH  15  20
ENDBRANCH   8   9
ENDBRANCH   7   8
ENDBRANCH   1   7
BRANCH   2  22
ATOM     22  O   UNL     1     -69.395 -43.868 -41.526  1.00  0.00    -0.387 OA
ATOM     23  H   UNL     1     -69.417 -44.775 -41.123  1.00  0.00     0.211 HD
ENDBRANCH   2  22
BRANCH   3  24
ATOM     24  O   UNL     1     -66.750 -41.415 -41.803  1.00  0.00    -0.387 OA
ATOM     25  H   UNL     1     -66.873 -40.439 -41.872  1.00  0.00     0.211 HD
ENDBRANCH   3  24
BRANCH   5  26
ATOM     26  O   UNL     1     -67.327 -42.486 -37.554  1.00  0.00    -0.462 OA
BRANCH  26  27
ATOM     27  C   UNL     1     -66.767 -41.430 -36.815  1.00  0.00     0.130 A 
ATOM     28  C   UNL     1     -65.392 -41.353 -36.518  1.00  0.00     0.093 A 
ATOM     29  C   UNL     1     -67.623 -40.439 -36.325  1.00  0.00     0.094 A 
ATOM     30  C   UNL     1     -64.902 -40.373 -35.648  1.00  0.00     0.133 A 
ATOM     31  C   UNL     1     -67.143 -39.425 -35.490  1.00  0.00     0.138 A 
ATOM     32  C   UNL     1     -65.782 -39.391 -35.128  1.00  0.00     0.102 A 
ATOM     33  O   UNL     1     -68.042 -38.459 -35.010  1.00  0.00    -0.484 OA
ATOM     34  C   UNL     1     -65.358 -38.303 -34.221  1.00  0.00     0.174 C 
ATOM     35  C   UNL     1     -67.654 -37.321 -34.226  1.00  0.00     0.211 C 
ATOM     36  O   UNL     1     -64.163 -37.908 -34.175  1.00  0.00    -0.294 OA
ATOM     37  C   UNL     1     -66.399 -37.620 -33.383  1.00  0.00     0.131 C 
BRANCH  30  38
ATOM     38  O   UNL     1     -63.551 -40.440 -35.296  1.00  0.00    -0.507 OA
ATOM     39  H   UNL     1     -63.009 -39.635 -35.020  1.00  0.00     0.293 HD
ENDBRANCH  30  38
BRANCH  35  40
ATOM     40  C   UNL     1     -67.448 -36.098 -35.096  1.00  0.00    -0.003 A 
ATOM     41  C   UNL     1     -68.099 -35.957 -36.335  1.00  0.00     0.057 A 
ATOM     42  C   UNL     1     -66.523 -35.120 -34.701  1.00  0.00     0.011 A 
ATOM     43  C   UNL     1     -67.832 -34.862 -37.164  1.00  0.00     0.158 A 
ATOM     44  C   UNL     1     -66.261 -34.020 -35.520  1.00  0.00     0.051 A 
ATOM     45  C   UNL     1     -66.911 -33.880 -36.759  1.00  0.00     0.160 A 
BRANCH  43  46
ATOM     46  O   UNL     1     -68.482 -34.777 -38.395  1.00  0.00    -0.504 OA
ATOM     47  H   UNL     1     -68.158 -35.274 -39.213  1.00  0.00     0.293 HD
ENDBRANCH  43  46
BRANCH  45  48
ATOM     48  O   UNL     1     -66.660 -32.787 -37.603  1.00  0.00    -0.493 OA
ATOM     49  C   UNL     1     -67.597 -32.249 -38.532  1.00  0.00     0.278 C 
ENDBRANCH  45  48
ENDBRANCH  35  40
ENDBRANCH  26  27
ENDBRANCH   5  26
BRANCH   4  50
ATOM     50  O   UNL     1     -69.373 -41.826 -39.345  1.00  0.00    -0.384 OA
ATOM     51  H   UNL     1     -69.905 -41.965 -40.168  1.00  0.00     0.211 HD
ENDBRANCH   4  50
TORSDOF 15
ENDMDL
MODEL 5
REMARK VINA RESULT:    -8.900      1.748     11.362
REMARK INTER + INTRA:         -16.260
REMARK INTER:                 -15.330
REMARK INTRA:                  -0.930
REMARK UNBOUND:                -1.636
REMARK SMILES COc1ccc([C@@H]2CC(=O)c3c(O)cc(O[C@H]4O[C@@H](CO[C@@H]5O[C@H](C)[C@@H](O)[C@@H](O)[C@H]5O)[C@@H](O)[C@H](O)[C@H]4O)cc3O2)cc1O
REMARK SMILES IDX 19 1 32 2 34 3 36 4 17 5 18 6 20 7 21 8 22 9 25 10 24 11
REMARK SMILES IDX 26 12 23 13 28 14 30 15 27 16 29 18 31 20 33 22 35 24 16 26
REMARK SMILES IDX 15 27 14 28 38 29 12 30 39 31 11 32 40 33 9 34 7 35 10 36
REMARK SMILES IDX 8 37 13 38 6 40 41 41 5 42 42 43 4 44 3 45 43 46 2 48 1 49
REMARK SMILES IDX 37 50
REMARK H PARENT 27 17 29 19 31 21 33 23 35 25 13 39 43 47 37 51
REMARK Flexibility Score: inf
ROOT
ATOM      1  C   UNL     1     -66.365 -37.693 -33.643  1.00  0.00     0.180 C 
ATOM      2  C   UNL     1     -66.689 -36.296 -34.233  1.00  0.00     0.177 C 
ATOM      3  C   UNL     1     -67.272 -36.429 -35.667  1.00  0.00     0.180 C 
ATOM      4  C   UNL     1     -66.494 -37.458 -36.522  1.00  0.00     0.214 C 
ATOM      5  C   UNL     1     -66.238 -38.740 -35.712  1.00  0.00     0.339 C 
ATOM      6  O   UNL     1     -65.530 -38.416 -34.532  1.00  0.00    -0.332 OA
ENDROOT
BRANCH   1   7
ATOM      7  C   UNL     1     -65.660 -37.599 -32.279  1.00  0.00     0.198 C 
BRANCH   7   8
ATOM      8  O   UNL     1     -65.737 -38.840 -31.600  1.00  0.00    -0.347 OA
BRANCH   8   9
ATOM      9  C   UNL     1     -64.629 -39.042 -30.740  1.00  0.00     0.281 C 
ATOM     10  C   UNL     1     -66.851 -41.183 -30.227  1.00  0.00     0.041 C 
ATOM     11  C   UNL     1     -65.555 -40.858 -29.467  1.00  0.00     0.150 C 
ATOM     12  C   UNL     1     -65.783 -39.956 -28.227  1.00  0.00     0.174 C 
ATOM     13  O   UNL     1     -64.512 -40.403 -30.327  1.00  0.00    -0.344 OA
ATOM     14  C   UNL     1     -65.895 -38.478 -28.642  1.00  0.00     0.179 C 
ATOM     15  C   UNL     1     -64.717 -38.078 -29.545  1.00  0.00     0.202 C 
BRANCH  12  16
ATOM     16  O   UNL     1     -64.706 -40.127 -27.334  1.00  0.00    -0.388 OA
ATOM     17  H   UNL     1     -64.171 -40.895 -27.665  1.00  0.00     0.211 HD
ENDBRANCH  12  16
BRANCH  14  18
ATOM     18  O   UNL     1     -66.019 -37.630 -27.520  1.00  0.00    -0.387 OA
ATOM     19  H   UNL     1     -66.578 -38.089 -26.838  1.00  0.00     0.211 HD
ENDBRANCH  14  18
BRANCH  15  20
ATOM     20  O   UNL     1     -63.509 -38.107 -28.826  1.00  0.00    -0.385 OA
ATOM     21  H   UNL     1     -63.615 -38.787 -28.113  1.00  0.00     0.211 HD
ENDBRANCH  15  20
ENDBRANCH   8   9
ENDBRANCH   7   8
ENDBRANCH   1   7
BRANCH   2  22
ATOM     22  O   UNL     1     -65.521 -35.513 -34.275  1.00  0.00    -0.387 OA
ATOM     23  H   UNL     1     -64.804 -36.081 -34.664  1.00  0.00     0.211 HD
ENDBRANCH   2  22
BRANCH   3  24
ATOM     24  O   UNL     1     -68.647 -36.725 -35.635  1.00  0.00    -0.387 OA
ATOM     25  H   UNL     1     -68.788 -37.459 -34.992  1.00  0.00     0.211 HD
ENDBRANCH   3  24
BRANCH   5  26
ATOM     26  O   UNL     1     -65.442 -39.651 -36.476  1.00  0.00    -0.462 OA
BRANCH  26  27
ATOM     27  C   UNL     1     -65.826 -40.231 -37.697  1.00  0.00     0.130 A 
ATOM     28  C   UNL     1     -65.934 -39.492 -38.891  1.00  0.00     0.093 A 
ATOM     29  C   UNL     1     -66.150 -41.591 -37.709  1.00  0.00     0.094 A 
ATOM     30  C   UNL     1     -66.472 -40.072 -40.045  1.00  0.00     0.133 A 
ATOM     31  C   UNL     1     -66.648 -42.200 -38.866  1.00  0.00     0.138 A 
ATOM     32  C   UNL     1     -66.830 -41.443 -40.041  1.00  0.00     0.102 A 
ATOM     33  O   UNL     1     -66.973 -43.564 -38.828  1.00  0.00    -0.484 OA
ATOM     34  C   UNL     1     -67.384 -42.154 -41.213  1.00  0.00     0.174 C 
ATOM     35  C   UNL     1     -67.401 -44.320 -39.971  1.00  0.00     0.211 C 
ATOM     36  O   UNL     1     -67.193 -41.741 -42.388  1.00  0.00    -0.294 OA
ATOM     37  C   UNL     1     -68.141 -43.430 -40.989  1.00  0.00     0.131 C 
BRANCH  30  38
ATOM     38  O   UNL     1     -66.671 -39.242 -41.152  1.00  0.00    -0.507 OA
ATOM     39  H   UNL     1     -66.779 -39.589 -42.094  1.00  0.00     0.293 HD
ENDBRANCH  30  38
BRANCH  35  40
ATOM     40  C   UNL     1     -66.236 -45.040 -40.622  1.00  0.00    -0.003 A 
ATOM     41  C   UNL     1     -66.430 -45.948 -41.678  1.00  0.00     0.057 A 
ATOM     42  C   UNL     1     -64.944 -44.863 -40.107  1.00  0.00     0.011 A 
ATOM     43  C   UNL     1     -65.354 -46.668 -42.210  1.00  0.00     0.158 A 
ATOM     44  C   UNL     1     -63.865 -45.570 -40.641  1.00  0.00     0.051 A 
ATOM     45  C   UNL     1     -64.059 -46.480 -41.696  1.00  0.00     0.160 A 
BRANCH  43  46
ATOM     46  O   UNL     1     -65.597 -47.577 -43.240  1.00  0.00    -0.504 OA
ATOM     47  H   UNL     1     -66.339 -48.262 -43.192  1.00  0.00     0.293 HD
ENDBRANCH  43  46
BRANCH  45  48
ATOM     48  O   UNL     1     -62.992 -47.208 -42.246  1.00  0.00    -0.493 OA
ATOM     49  C   UNL     1     -61.931 -47.787 -41.491  1.00  0.00     0.278 C 
ENDBRANCH  45  48
ENDBRANCH  35  40
ENDBRANCH  26  27
ENDBRANCH   5  26
BRANCH   4  50
ATOM     50  O   UNL     1     -65.267 -36.892 -36.914  1.00  0.00    -0.384 OA
ATOM     51  H   UNL     1     -64.557 -37.524 -36.636  1.00  0.00     0.211 HD
ENDBRANCH   4  50
TORSDOF 15
ENDMDL
MODEL 6
REMARK VINA RESULT:    -8.364      1.002      1.942
REMARK INTER + INTRA:         -15.379
REMARK INTER:                 -14.845
REMARK INTRA:                  -0.534
REMARK UNBOUND:                -1.636
REMARK SMILES COc1ccc([C@@H]2CC(=O)c3c(O)cc(O[C@H]4O[C@@H](CO[C@@H]5O[C@H](C)[C@@H](O)[C@@H](O)[C@H]5O)[C@@H](O)[C@H](O)[C@H]4O)cc3O2)cc1O
REMARK SMILES IDX 19 1 32 2 34 3 36 4 17 5 18 6 20 7 21 8 22 9 25 10 24 11
REMARK SMILES IDX 26 12 23 13 28 14 30 15 27 16 29 18 31 20 33 22 35 24 16 26
REMARK SMILES IDX 15 27 14 28 38 29 12 30 39 31 11 32 40 33 9 34 7 35 10 36
REMARK SMILES IDX 8 37 13 38 6 40 41 41 5 42 42 43 4 44 3 45 43 46 2 48 1 49
REMARK SMILES IDX 37 50
REMARK H PARENT 27 17 29 19 31 21 33 23 35 25 13 39 43 47 37 51
REMARK Flexibility Score: inf
ROOT
ATOM      1  C   UNL     1     -66.576 -42.784 -40.469  1.00  0.00     0.180 C 
ATOM      2  C   UNL     1     -67.446 -42.164 -41.593  1.00  0.00     0.177 C 
ATOM      3  C   UNL     1     -67.871 -40.716 -41.221  1.00  0.00     0.180 C 
ATOM      4  C   UNL     1     -68.330 -40.602 -39.747  1.00  0.00     0.214 C 
ATOM      5  C   UNL     1     -67.346 -41.339 -38.822  1.00  0.00     0.339 C 
ATOM      6  O   UNL     1     -67.248 -42.691 -39.224  1.00  0.00    -0.332 OA
ENDROOT
BRANCH   1   7
ATOM      7  C   UNL     1     -66.248 -44.263 -40.737  1.00  0.00     0.198 C 
BRANCH   7   8
ATOM      8  O   UNL     1     -67.438 -44.998 -40.960  1.00  0.00    -0.347 OA
BRANCH   8   9
ATOM      9  C   UNL     1     -67.189 -46.208 -41.654  1.00  0.00     0.281 C 
ATOM     10  C   UNL     1     -67.890 -46.758 -38.656  1.00  0.00     0.041 C 
ATOM     11  C   UNL     1     -67.381 -47.688 -39.770  1.00  0.00     0.150 C 
ATOM     12  C   UNL     1     -65.850 -47.924 -39.718  1.00  0.00     0.174 C 
ATOM     13  O   UNL     1     -67.864 -47.316 -41.059  1.00  0.00    -0.344 OA
ATOM     14  C   UNL     1     -65.096 -46.751 -40.370  1.00  0.00     0.179 C 
ATOM     15  C   UNL     1     -65.672 -46.443 -41.761  1.00  0.00     0.202 C 
BRANCH  12  16
ATOM     16  O   UNL     1     -65.551 -49.125 -40.391  1.00  0.00    -0.388 OA
ATOM     17  H   UNL     1     -64.561 -49.190 -40.448  1.00  0.00     0.211 HD
ENDBRANCH  12  16
BRANCH  14  18
ATOM     18  O   UNL     1     -63.705 -46.984 -40.408  1.00  0.00    -0.387 OA
ATOM     19  H   UNL     1     -63.260 -46.183 -40.795  1.00  0.00     0.211 HD
ENDBRANCH  14  18
BRANCH  15  20
ATOM     20  O   UNL     1     -65.421 -47.504 -42.649  1.00  0.00    -0.385 OA
ATOM     21  H   UNL     1     -65.177 -48.289 -42.095  1.00  0.00     0.211 HD
ENDBRANCH  15  20
ENDBRANCH   8   9
ENDBRANCH   7   8
ENDBRANCH   1   7
BRANCH   2  22
ATOM     22  O   UNL     1     -68.595 -42.950 -41.795  1.00  0.00    -0.387 OA
ATOM     23  H   UNL     1     -68.975 -43.146 -40.899  1.00  0.00     0.211 HD
ENDBRANCH   2  22
BRANCH   3  24
ATOM     24  O   UNL     1     -66.851 -39.792 -41.512  1.00  0.00    -0.387 OA
ATOM     25  H   UNL     1     -67.041 -39.393 -42.393  1.00  0.00     0.211 HD
ENDBRANCH   3  24
BRANCH   5  26
ATOM     26  O   UNL     1     -67.824 -41.306 -37.474  1.00  0.00    -0.462 OA
BRANCH  26  27
ATOM     27  C   UNL     1     -67.596 -40.261 -36.562  1.00  0.00     0.130 A 
ATOM     28  C   UNL     1     -68.454 -39.150 -36.447  1.00  0.00     0.093 A 
ATOM     29  C   UNL     1     -66.447 -40.316 -35.768  1.00  0.00     0.094 A 
ATOM     30  C   UNL     1     -68.107 -38.059 -35.643  1.00  0.00     0.133 A 
ATOM     31  C   UNL     1     -66.107 -39.254 -34.923  1.00  0.00     0.138 A 
ATOM     32  C   UNL     1     -66.923 -38.107 -34.865  1.00  0.00     0.102 A 
ATOM     33  O   UNL     1     -64.936 -39.347 -34.155  1.00  0.00    -0.484 OA
ATOM     34  C   UNL     1     -66.482 -37.017 -33.968  1.00  0.00     0.174 C 
ATOM     35  C   UNL     1     -64.532 -38.368 -33.186  1.00  0.00     0.211 C 
ATOM     36  O   UNL     1     -67.293 -36.174 -33.503  1.00  0.00    -0.294 OA
ATOM     37  C   UNL     1     -65.038 -36.961 -33.562  1.00  0.00     0.131 C 
BRANCH  30  38
ATOM     38  O   UNL     1     -68.941 -36.938 -35.681  1.00  0.00    -0.507 OA
ATOM     39  H   UNL     1     -69.457 -36.659 -36.503  1.00  0.00     0.293 HD
ENDBRANCH  30  38
BRANCH  35  40
ATOM     40  C   UNL     1     -64.984 -38.754 -31.792  1.00  0.00    -0.003 A 
ATOM     41  C   UNL     1     -65.848 -39.843 -31.573  1.00  0.00     0.057 A 
ATOM     42  C   UNL     1     -64.603 -37.961 -30.699  1.00  0.00     0.011 A 
ATOM     43  C   UNL     1     -66.324 -40.133 -30.290  1.00  0.00     0.158 A 
ATOM     44  C   UNL     1     -65.066 -38.253 -29.415  1.00  0.00     0.051 A 
ATOM     45  C   UNL     1     -65.931 -39.340 -29.197  1.00  0.00     0.160 A 
BRANCH  43  46
ATOM     46  O   UNL     1     -67.199 -41.207 -30.124  1.00  0.00    -0.504 OA
ATOM     47  H   UNL     1     -67.971 -41.376 -30.753  1.00  0.00     0.293 HD
ENDBRANCH  43  46
BRANCH  45  48
ATOM     48  O   UNL     1     -66.415 -39.651 -27.917  1.00  0.00    -0.493 OA
ATOM     49  C   UNL     1     -65.913 -39.096 -26.704  1.00  0.00     0.278 C 
ENDBRANCH  45  48
ENDBRANCH  35  40
ENDBRANCH  26  27
ENDBRANCH   5  26
BRANCH   4  50
ATOM     50  O   UNL     1     -69.612 -41.168 -39.622  1.00  0.00    -0.384 OA
ATOM     51  H   UNL     1     -69.603 -42.017 -40.132  1.00  0.00     0.211 HD
ENDBRANCH   4  50
TORSDOF 15
ENDMDL
MODEL 7
REMARK VINA RESULT:    -8.056      2.495     10.819
REMARK INTER + INTRA:         -14.872
REMARK INTER:                 -13.175
REMARK INTRA:                  -1.698
REMARK UNBOUND:                -1.636
REMARK SMILES COc1ccc([C@@H]2CC(=O)c3c(O)cc(O[C@H]4O[C@@H](CO[C@@H]5O[C@H](C)[C@@H](O)[C@@H](O)[C@H]5O)[C@@H](O)[C@H](O)[C@H]4O)cc3O2)cc1O
REMARK SMILES IDX 19 1 32 2 34 3 36 4 17 5 18 6 20 7 21 8 22 9 25 10 24 11
REMARK SMILES IDX 26 12 23 13 28 14 30 15 27 16 29 18 31 20 33 22 35 24 16 26
REMARK SMILES IDX 15 27 14 28 38 29 12 30 39 31 11 32 40 33 9 34 7 35 10 36
REMARK SMILES IDX 8 37 13 38 6 40 41 41 5 42 42 43 4 44 3 45 43 46 2 48 1 49
REMARK SMILES IDX 37 50
REMARK H PARENT 27 17 29 19 31 21 33 23 35 25 13 39 43 47 37 51
REMARK Flexibility Score: inf
ROOT
ATOM      1  C   UNL     1     -65.090 -37.474 -35.918  1.00  0.00     0.180 C 
ATOM      2  C   UNL     1     -65.227 -37.281 -34.386  1.00  0.00     0.177 C 
ATOM      3  C   UNL     1     -65.532 -38.635 -33.689  1.00  0.00     0.180 C 
ATOM      4  C   UNL     1     -66.596 -39.460 -34.453  1.00  0.00     0.214 C 
ATOM      5  C   UNL     1     -66.287 -39.463 -35.961  1.00  0.00     0.339 C 
ATOM      6  O   UNL     1     -66.236 -38.132 -36.432  1.00  0.00    -0.332 OA
ENDROOT
BRANCH   1   7
ATOM      7  C   UNL     1     -64.921 -36.137 -36.661  1.00  0.00     0.198 C 
BRANCH   7   8
ATOM      8  O   UNL     1     -66.107 -35.813 -37.365  1.00  0.00    -0.347 OA
BRANCH   8   9
ATOM      9  C   UNL     1     -66.733 -34.656 -36.840  1.00  0.00     0.281 C 
ATOM     10  C   UNL     1     -68.798 -36.976 -37.211  1.00  0.00     0.041 C 
ATOM     11  C   UNL     1     -68.986 -35.494 -36.847  1.00  0.00     0.150 C 
ATOM     12  C   UNL     1     -69.378 -34.612 -38.060  1.00  0.00     0.174 C 
ATOM     13  O   UNL     1     -67.901 -34.974 -36.082  1.00  0.00    -0.344 OA
ATOM     14  C   UNL     1     -68.134 -34.238 -38.886  1.00  0.00     0.179 C 
ATOM     15  C   UNL     1     -67.033 -33.666 -37.979  1.00  0.00     0.202 C 
BRANCH  12  16
ATOM     16  O   UNL     1     -70.014 -33.446 -37.589  1.00  0.00    -0.388 OA
ATOM     17  H   UNL     1     -70.965 -33.499 -37.868  1.00  0.00     0.211 HD
ENDBRANCH  12  16
BRANCH  14  18
ATOM     18  O   UNL     1     -68.458 -33.366 -39.947  1.00  0.00    -0.387 OA
ATOM     19  H   UNL     1     -69.309 -33.671 -40.359  1.00  0.00     0.211 HD
ENDBRANCH  14  18
BRANCH  15  20
ATOM     20  O   UNL     1     -67.429 -32.430 -37.437  1.00  0.00    -0.385 OA
ATOM     21  H   UNL     1     -68.417 -32.389 -37.507  1.00  0.00     0.211 HD
ENDBRANCH  15  20
ENDBRANCH   8   9
ENDBRANCH   7   8
ENDBRANCH   1   7
BRANCH   2  22
ATOM     22  O   UNL     1     -66.263 -36.370 -34.111  1.00  0.00    -0.387 OA
ATOM     23  H   UNL     1     -66.294 -36.255 -33.125  1.00  0.00     0.211 HD
ENDBRANCH   2  22
BRANCH   3  24
ATOM     24  O   UNL     1     -64.358 -39.381 -33.482  1.00  0.00    -0.387 OA
ATOM     25  H   UNL     1     -64.043 -39.707 -34.357  1.00  0.00     0.211 HD
ENDBRANCH   3  24
BRANCH   5  26
ATOM     26  O   UNL     1     -67.321 -40.151 -36.670  1.00  0.00    -0.462 OA
BRANCH  26  27
ATOM     27  C   UNL     1     -67.225 -40.610 -37.995  1.00  0.00     0.130 A 
ATOM     28  C   UNL     1     -66.964 -39.753 -39.081  1.00  0.00     0.093 A 
ATOM     29  C   UNL     1     -67.437 -41.971 -38.239  1.00  0.00     0.094 A 
ATOM     30  C   UNL     1     -67.034 -40.224 -40.397  1.00  0.00     0.133 A 
ATOM     31  C   UNL     1     -67.466 -42.468 -39.547  1.00  0.00     0.138 A 
ATOM     32  C   UNL     1     -67.283 -41.598 -40.639  1.00  0.00     0.102 A 
ATOM     33  O   UNL     1     -67.697 -43.838 -39.745  1.00  0.00    -0.484 OA
ATOM     34  C   UNL     1     -67.354 -42.197 -41.989  1.00  0.00     0.174 C 
ATOM     35  C   UNL     1     -67.657 -44.482 -41.028  1.00  0.00     0.211 C 
ATOM     36  O   UNL     1     -66.798 -41.657 -42.982  1.00  0.00    -0.294 OA
ATOM     37  C   UNL     1     -68.058 -43.512 -42.156  1.00  0.00     0.131 C 
BRANCH  30  38
ATOM     38  O   UNL     1     -66.894 -39.288 -41.425  1.00  0.00    -0.507 OA
ATOM     39  H   UNL     1     -67.297 -39.408 -42.343  1.00  0.00     0.293 HD
ENDBRANCH  30  38
BRANCH  35  40
ATOM     40  C   UNL     1     -66.296 -45.094 -41.294  1.00  0.00    -0.003 A 
ATOM     41  C   UNL     1     -66.049 -45.868 -42.442  1.00  0.00     0.057 A 
ATOM     42  C   UNL     1     -65.281 -44.959 -40.335  1.00  0.00     0.011 A 
ATOM     43  C   UNL     1     -64.812 -46.496 -42.629  1.00  0.00     0.158 A 
ATOM     44  C   UNL     1     -64.043 -45.575 -40.522  1.00  0.00     0.051 A 
ATOM     45  C   UNL     1     -63.796 -46.350 -41.669  1.00  0.00     0.160 A 
BRANCH  43  46
ATOM     46  O   UNL     1     -64.620 -47.275 -43.771  1.00  0.00    -0.504 OA
ATOM     47  H   UNL     1     -65.385 -47.733 -44.247  1.00  0.00     0.293 HD
ENDBRANCH  43  46
BRANCH  45  48
ATOM     48  O   UNL     1     -62.561 -46.985 -41.878  1.00  0.00    -0.493 OA
ATOM     49  C   UNL     1     -62.034 -48.023 -41.055  1.00  0.00     0.278 C 
ENDBRANCH  45  48
ENDBRANCH  35  40
ENDBRANCH  26  27
ENDBRANCH   5  26
BRANCH   4  50
ATOM     50  O   UNL     1     -67.863 -38.890 -34.232  1.00  0.00    -0.384 OA
ATOM     51  H   UNL     1     -68.389 -39.551 -33.714  1.00  0.00     0.211 HD
ENDBRANCH   4  50
TORSDOF 15
ENDMDL
MODEL 8
REMARK VINA RESULT:    -8.016      1.858     11.482
REMARK INTER + INTRA:         -14.807
REMARK INTER:                 -14.474
REMARK INTRA:                  -0.333
REMARK UNBOUND:                -1.636
REMARK SMILES COc1ccc([C@@H]2CC(=O)c3c(O)cc(O[C@H]4O[C@@H](CO[C@@H]5O[C@H](C)[C@@H](O)[C@@H](O)[C@H]5O)[C@@H](O)[C@H](O)[C@H]4O)cc3O2)cc1O
REMARK SMILES IDX 19 1 32 2 34 3 36 4 17 5 18 6 20 7 21 8 22 9 25 10 24 11
REMARK SMILES IDX 26 12 23 13 28 14 30 15 27 16 29 18 31 20 33 22 35 24 16 26
REMARK SMILES IDX 15 27 14 28 38 29 12 30 39 31 11 32 40 33 9 34 7 35 10 36
REMARK SMILES IDX 8 37 13 38 6 40 41 41 5 42 42 43 4 44 3 45 43 46 2 48 1 49
REMARK SMILES IDX 37 50
REMARK H PARENT 27 17 29 19 31 21 33 23 35 25 13 39 43 47 37 51
REMARK Flexibility Score: inf
ROOT
ATOM      1  C   UNL     1     -66.275 -38.670 -33.371  1.00  0.00     0.180 C 
ATOM      2  C   UNL     1     -64.873 -38.152 -33.780  1.00  0.00     0.177 C 
ATOM      3  C   UNL     1     -64.748 -38.072 -35.327  1.00  0.00     0.180 C 
ATOM      4  C   UNL     1     -65.334 -39.323 -36.026  1.00  0.00     0.214 C 
ATOM      5  C   UNL     1     -66.700 -39.683 -35.417  1.00  0.00     0.339 C 
ATOM      6  O   UNL     1     -66.553 -39.896 -34.027  1.00  0.00    -0.332 OA
ENDROOT
BRANCH   1   7
ATOM      7  C   UNL     1     -66.394 -38.892 -31.853  1.00  0.00     0.198 C 
BRANCH   7   8
ATOM      8  O   UNL     1     -65.114 -38.848 -31.249  1.00  0.00    -0.347 OA
BRANCH   8   9
ATOM      9  C   UNL     1     -65.145 -38.193 -29.993  1.00  0.00     0.281 C 
ATOM     10  C   UNL     1     -63.127 -40.583 -29.961  1.00  0.00     0.041 C 
ATOM     11  C   UNL     1     -63.653 -39.679 -28.834  1.00  0.00     0.150 C 
ATOM     12  C   UNL     1     -64.813 -40.317 -28.027  1.00  0.00     0.174 C 
ATOM     13  O   UNL     1     -63.921 -38.350 -29.275  1.00  0.00    -0.344 OA
ATOM     14  C   UNL     1     -66.150 -40.148 -28.770  1.00  0.00     0.179 C 
ATOM     15  C   UNL     1     -66.358 -38.682 -29.182  1.00  0.00     0.202 C 
BRANCH  12  16
ATOM     16  O   UNL     1     -64.880 -39.702 -26.761  1.00  0.00    -0.388 OA
ATOM     17  H   UNL     1     -64.792 -38.724 -26.907  1.00  0.00     0.211 HD
ENDBRANCH  12  16
BRANCH  14  18
ATOM     18  O   UNL     1     -67.232 -40.648 -28.014  1.00  0.00    -0.387 OA
ATOM     19  H   UNL     1     -67.067 -40.447 -27.055  1.00  0.00     0.211 HD
ENDBRANCH  14  18
BRANCH  15  20
ATOM     20  O   UNL     1     -66.527 -37.866 -28.049  1.00  0.00    -0.385 OA
ATOM     21  H   UNL     1     -65.665 -37.871 -27.560  1.00  0.00     0.211 HD
ENDBRANCH  15  20
ENDBRANCH   8   9
ENDBRANCH   7   8
ENDBRANCH   1   7
BRANCH   2  22
ATOM     22  O   UNL     1     -63.880 -39.011 -33.275  1.00  0.00    -0.387 OA
ATOM     23  H   UNL     1     -63.015 -38.714 -33.661  1.00  0.00     0.211 HD
ENDBRANCH   2  22
BRANCH   3  24
ATOM     24  O   UNL     1     -65.322 -36.890 -35.827  1.00  0.00    -0.387 OA
ATOM     25  H   UNL     1     -65.553 -37.038 -36.774  1.00  0.00     0.211 HD
ENDBRANCH   3  24
BRANCH   5  26
ATOM     26  O   UNL     1     -67.194 -40.890 -36.005  1.00  0.00    -0.462 OA
BRANCH  26  27
ATOM     27  C   UNL     1     -67.159 -41.194 -37.377  1.00  0.00     0.130 A 
ATOM     28  C   UNL     1     -66.966 -40.213 -38.369  1.00  0.00     0.093 A 
ATOM     29  C   UNL     1     -67.365 -42.521 -37.765  1.00  0.00     0.094 A 
ATOM     30  C   UNL     1     -67.097 -40.533 -39.725  1.00  0.00     0.133 A 
ATOM     31  C   UNL     1     -67.455 -42.867 -39.118  1.00  0.00     0.138 A 
ATOM     32  C   UNL     1     -67.339 -41.874 -40.111  1.00  0.00     0.102 A 
ATOM     33  O   UNL     1     -67.676 -44.210 -39.461  1.00  0.00    -0.484 OA
ATOM     34  C   UNL     1     -67.471 -42.317 -41.516  1.00  0.00     0.174 C 
ATOM     35  C   UNL     1     -67.693 -44.702 -40.809  1.00  0.00     0.211 C 
ATOM     36  O   UNL     1     -66.974 -41.656 -42.467  1.00  0.00    -0.294 OA
ATOM     37  C   UNL     1     -68.165 -43.618 -41.798  1.00  0.00     0.131 C 
BRANCH  30  38
ATOM     38  O   UNL     1     -67.023 -39.483 -40.645  1.00  0.00    -0.507 OA
ATOM     39  H   UNL     1     -67.748 -38.789 -40.754  1.00  0.00     0.293 HD
ENDBRANCH  30  38
BRANCH  35  40
ATOM     40  C   UNL     1     -66.339 -45.253 -41.211  1.00  0.00    -0.003 A 
ATOM     41  C   UNL     1     -66.166 -45.990 -42.396  1.00  0.00     0.057 A 
ATOM     42  C   UNL     1     -65.248 -45.099 -40.342  1.00  0.00     0.011 A 
ATOM     43  C   UNL     1     -64.929 -46.564 -42.708  1.00  0.00     0.158 A 
ATOM     44  C   UNL     1     -64.009 -45.661 -40.654  1.00  0.00     0.051 A 
ATOM     45  C   UNL     1     -63.837 -46.399 -41.838  1.00  0.00     0.160 A 
BRANCH  43  46
ATOM     46  O   UNL     1     -64.810 -47.308 -43.883  1.00  0.00    -0.504 OA
ATOM     47  H   UNL     1     -64.710 -48.314 -43.876  1.00  0.00     0.293 HD
ENDBRANCH  43  46
BRANCH  45  48
ATOM     48  O   UNL     1     -62.602 -46.979 -42.172  1.00  0.00    -0.493 OA
ATOM     49  C   UNL     1     -61.889 -47.897 -41.348  1.00  0.00     0.278 C 
ENDBRANCH  45  48
ENDBRANCH  35  40
ENDBRANCH  26  27
ENDBRANCH   5  26
BRANCH   4  50
ATOM     50  O   UNL     1     -64.443 -40.399 -35.861  1.00  0.00    -0.384 OA
ATOM     51  H   UNL     1     -64.722 -41.104 -36.498  1.00  0.00     0.211 HD
ENDBRANCH   4  50
TORSDOF 15
ENDMDL
MODEL 9
REMARK VINA RESULT:    -7.756      1.505      2.716
REMARK INTER + INTRA:         -14.380
REMARK INTER:                 -13.174
REMARK INTRA:                  -1.206
REMARK UNBOUND:                -1.636
REMARK SMILES COc1ccc([C@@H]2CC(=O)c3c(O)cc(O[C@H]4O[C@@H](CO[C@@H]5O[C@H](C)[C@@H](O)[C@@H](O)[C@H]5O)[C@@H](O)[C@H](O)[C@H]4O)cc3O2)cc1O
REMARK SMILES IDX 19 1 32 2 34 3 36 4 17 5 18 6 20 7 21 8 22 9 25 10 24 11
REMARK SMILES IDX 26 12 23 13 28 14 30 15 27 16 29 18 31 20 33 22 35 24 16 26
REMARK SMILES IDX 15 27 14 28 38 29 12 30 39 31 11 32 40 33 9 34 7 35 10 36
REMARK SMILES IDX 8 37 13 38 6 40 41 41 5 42 42 43 4 44 3 45 43 46 2 48 1 49
REMARK SMILES IDX 37 50
REMARK H PARENT 27 17 29 19 31 21 33 23 35 25 13 39 43 47 37 51
REMARK Flexibility Score: inf
ROOT
ATOM      1  C   UNL     1     -67.826 -42.083 -39.421  1.00  0.00     0.180 C 
ATOM      2  C   UNL     1     -67.587 -43.235 -38.412  1.00  0.00     0.177 C 
ATOM      3  C   UNL     1     -67.810 -42.742 -36.955  1.00  0.00     0.180 C 
ATOM      4  C   UNL     1     -67.165 -41.358 -36.701  1.00  0.00     0.214 C 
ATOM      5  C   UNL     1     -67.489 -40.398 -37.859  1.00  0.00     0.339 C 
ATOM      6  O   UNL     1     -67.035 -40.958 -39.074  1.00  0.00    -0.332 OA
ENDROOT
BRANCH   1   7
ATOM      7  C   UNL     1     -67.484 -42.492 -40.864  1.00  0.00     0.198 C 
BRANCH   7   8
ATOM      8  O   UNL     1     -67.674 -43.885 -41.037  1.00  0.00    -0.347 OA
BRANCH   8   9
ATOM      9  C   UNL     1     -67.007 -44.370 -42.190  1.00  0.00     0.281 C 
ATOM     10  C   UNL     1     -68.029 -46.730 -40.410  1.00  0.00     0.041 C 
ATOM     11  C   UNL     1     -67.118 -46.709 -41.648  1.00  0.00     0.150 C 
ATOM     12  C   UNL     1     -65.608 -46.764 -41.298  1.00  0.00     0.174 C 
ATOM     13  O   UNL     1     -67.460 -45.671 -42.564  1.00  0.00    -0.344 OA
ATOM     14  C   UNL     1     -65.089 -45.369 -40.907  1.00  0.00     0.179 C 
ATOM     15  C   UNL     1     -65.486 -44.328 -41.965  1.00  0.00     0.202 C 
BRANCH  12  16
ATOM     16  O   UNL     1     -64.899 -47.250 -42.415  1.00  0.00    -0.388 OA
ATOM     17  H   UNL     1     -64.247 -47.919 -42.079  1.00  0.00     0.211 HD
ENDBRANCH  12  16
BRANCH  14  18
ATOM     18  O   UNL     1     -63.698 -45.381 -40.666  1.00  0.00    -0.387 OA
ATOM     19  H   UNL     1     -63.243 -45.768 -41.460  1.00  0.00     0.211 HD
ENDBRANCH  14  18
BRANCH  15  20
ATOM     20  O   UNL     1     -64.823 -44.576 -43.180  1.00  0.00    -0.385 OA
ATOM     21  H   UNL     1     -64.410 -45.474 -43.104  1.00  0.00     0.211 HD
ENDBRANCH  15  20
ENDBRANCH   8   9
ENDBRANCH   7   8
ENDBRANCH   1   7
BRANCH   2  22
ATOM     22  O   UNL     1     -66.273 -43.721 -38.544  1.00  0.00    -0.387 OA
ATOM     23  H   UNL     1     -66.253 -44.621 -38.124  1.00  0.00     0.211 HD
ENDBRANCH   2  22
BRANCH   3  24
ATOM     24  O   UNL     1     -69.175 -42.741 -36.618  1.00  0.00    -0.387 OA
ATOM     25  H   UNL     1     -69.275 -43.177 -35.740  1.00  0.00     0.211 HD
ENDBRANCH   3  24
BRANCH   5  26
ATOM     26  O   UNL     1     -66.818 -39.150 -37.661  1.00  0.00    -0.462 OA
BRANCH  26  27
ATOM     27  C   UNL     1     -66.828 -38.407 -36.468  1.00  0.00     0.130 A 
ATOM     28  C   UNL     1     -67.828 -37.462 -36.169  1.00  0.00     0.093 A 
ATOM     29  C   UNL     1     -65.776 -38.593 -35.566  1.00  0.00     0.094 A 
ATOM     30  C   UNL     1     -67.714 -36.632 -35.048  1.00  0.00     0.133 A 
ATOM     31  C   UNL     1     -65.670 -37.802 -34.416  1.00  0.00     0.138 A 
ATOM     32  C   UNL     1     -66.627 -36.802 -34.154  1.00  0.00     0.102 A 
ATOM     33  O   UNL     1     -64.590 -38.014 -33.546  1.00  0.00    -0.484 OA
ATOM     34  C   UNL     1     -66.430 -35.992 -32.933  1.00  0.00     0.174 C 
ATOM     35  C   UNL     1     -64.423 -37.334 -32.292  1.00  0.00     0.211 C 
ATOM     36  O   UNL     1     -67.389 -35.401 -32.370  1.00  0.00    -0.294 OA
ATOM     37  C   UNL     1     -65.059 -35.930 -32.325  1.00  0.00     0.131 C 
BRANCH  30  38
ATOM     38  O   UNL     1     -68.674 -35.629 -34.887  1.00  0.00    -0.507 OA
ATOM     39  H   UNL     1     -68.620 -34.730 -35.343  1.00  0.00     0.293 HD
ENDBRANCH  30  38
BRANCH  35  40
ATOM     40  C   UNL     1     -64.975 -38.155 -31.144  1.00  0.00    -0.003 A 
ATOM     41  C   UNL     1     -65.750 -39.307 -31.368  1.00  0.00     0.057 A 
ATOM     42  C   UNL     1     -64.781 -37.714 -29.826  1.00  0.00     0.011 A 
ATOM     43  C   UNL     1     -66.322 -40.005 -30.298  1.00  0.00     0.158 A 
ATOM     44  C   UNL     1     -65.340 -38.412 -28.755  1.00  0.00     0.051 A 
ATOM     45  C   UNL     1     -66.117 -39.563 -28.980  1.00  0.00     0.160 A 
BRANCH  43  46
ATOM     46  O   UNL     1     -67.105 -41.127 -30.570  1.00  0.00    -0.504 OA
ATOM     47  H   UNL     1     -67.427 -41.348 -31.502  1.00  0.00     0.293 HD
ENDBRANCH  43  46
BRANCH  45  48
ATOM     48  O   UNL     1     -66.695 -40.279 -27.920  1.00  0.00    -0.493 OA
ATOM     49  C   UNL     1     -67.060 -39.714 -26.663  1.00  0.00     0.278 C 
ENDBRANCH  45  48
ENDBRANCH  35  40
ENDBRANCH  26  27
ENDBRANCH   5  26
BRANCH   4  50
ATOM     50  O   UNL     1     -65.771 -41.515 -36.592  1.00  0.00    -0.384 OA
ATOM     51  H   UNL     1     -65.548 -42.391 -36.995  1.00  0.00     0.211 HD
ENDBRANCH   4  50
TORSDOF 15
ENDMDL
