MODEL 1
REMARK VINA RESULT:    -4.547      0.000      0.000
REMARK INTER + INTRA:          -7.436
REMARK INTER:                  -6.939
REMARK INTRA:                  -0.497
REMARK UNBOUND:                -0.497
REMARK SMILES O=C([O-])CCCCCCCCC(=O)[O-]
REMARK SMILES IDX 7 1 6 2 5 3 4 4 2 5 1 6 3 7 8 8 9 9 10 10 11 11 12 12 13 13
REMARK SMILES IDX 14 14
REMARK H PARENT
REMARK Flexibility Score: inf
ROOT
ATOM      1  C   UNL     1     -19.063 -24.532  14.619  1.00  0.00     0.000 C 
ENDROOT
BRANCH   1   2
ATOM      2  C   UNL     1     -18.792 -25.958  15.133  1.00  0.00     0.000 C 
BRANCH   2   3
ATOM      3  C   UNL     1     -17.682 -26.668  14.343  1.00  0.00     0.006 C 
BRANCH   3   4
ATOM      4  C   UNL     1     -16.311 -26.004  14.527  1.00  0.00     0.053 C 
BRANCH   4   5
ATOM      5  C   UNL     1     -15.809 -26.222  15.919  1.00  0.00     0.041 C 
ATOM      6  O   UNL     1     -15.542 -25.237  16.658  1.00  0.00    -0.550 OA
ATOM      7  O   UNL     1     -15.590 -27.511  16.386  1.00  0.00    -0.550 OA
ENDBRANCH   4   5
ENDBRANCH   3   4
ENDBRANCH   2   3
ENDBRANCH   1   2
BRANCH   1   8
ATOM      8  C   UNL     1     -20.499 -24.355  14.101  1.00  0.00     0.000 C 
BRANCH   8   9
ATOM      9  C   UNL     1     -20.639 -23.165  13.140  1.00  0.00     0.000 C 
BRANCH   9  10
ATOM     10  C   UNL     1     -19.375 -22.997  12.287  1.00  0.00     0.006 C 
BRANCH  10  11
ATOM     11  C   UNL     1     -19.257 -21.566  11.756  1.00  0.00     0.053 C 
BRANCH  11  12
ATOM     12  C   UNL     1     -19.558 -21.524  10.291  1.00  0.00     0.041 C 
ATOM     13  O   UNL     1     -19.955 -20.455   9.757  1.00  0.00    -0.550 OA
ATOM     14  O   UNL     1     -19.451 -22.678   9.526  1.00  0.00    -0.550 OA
ENDBRANCH  11  12
ENDBRANCH  10  11
ENDBRANCH   9  10
ENDBRANCH   8   9
ENDBRANCH   1   8
TORSDOF 9
ENDMDL
MODEL 2
REMARK VINA RESULT:    -4.532      7.329      9.198
REMARK INTER + INTRA:          -7.413
REMARK INTER:                  -6.995
REMARK INTRA:                  -0.418
REMARK UNBOUND:                -0.497
REMARK SMILES O=C([O-])CCCCCCCCC(=O)[O-]
REMARK SMILES IDX 7 1 6 2 5 3 4 4 2 5 1 6 3 7 8 8 9 9 10 10 11 11 12 12 13 13
REMARK SMILES IDX 14 14
REMARK H PARENT
REMARK Flexibility Score: inf
ROOT
ATOM      1  C   UNL     1     -22.172 -31.116  14.862  1.00  0.00     0.000 C 
ENDROOT
BRANCH   1   2
ATOM      2  C   UNL     1     -21.552 -30.534  13.579  1.00  0.00     0.000 C 
BRANCH   2   3
ATOM      3  C   UNL     1     -21.395 -31.586  12.470  1.00  0.00     0.006 C 
BRANCH   3   4
ATOM      4  C   UNL     1     -22.585 -31.604  11.502  1.00  0.00     0.053 C 
BRANCH   4   5
ATOM      5  C   UNL     1     -22.759 -32.969  10.916  1.00  0.00     0.041 C 
ATOM      6  O   UNL     1     -21.896 -33.436  10.127  1.00  0.00    -0.550 OA
ATOM      7  O   UNL     1     -23.899 -33.709  11.204  1.00  0.00    -0.550 OA
ENDBRANCH   4   5
ENDBRANCH   3   4
ENDBRANCH   2   3
ENDBRANCH   1   2
BRANCH   1   8
ATOM      8  C   UNL     1     -22.029 -30.173  16.067  1.00  0.00     0.000 C 
BRANCH   8   9
ATOM      9  C   UNL     1     -21.095 -28.987  15.783  1.00  0.00     0.000 C 
BRANCH   9  10
ATOM     10  C   UNL     1     -21.357 -27.834  16.759  1.00  0.00     0.006 C 
BRANCH  10  11
ATOM     11  C   UNL     1     -22.846 -27.479  16.803  1.00  0.00     0.053 C 
BRANCH  11  12
ATOM     12  C   UNL     1     -23.301 -27.299  18.217  1.00  0.00     0.041 C 
ATOM     13  O   UNL     1     -23.671 -26.166  18.623  1.00  0.00    -0.550 OA
ATOM     14  O   UNL     1     -23.266 -28.371  19.100  1.00  0.00    -0.550 OA
ENDBRANCH  11  12
ENDBRANCH  10  11
ENDBRANCH   9  10
ENDBRANCH   8   9
ENDBRANCH   1   8
TORSDOF 9
ENDMDL
MODEL 3
REMARK VINA RESULT:    -4.475      9.353     11.583
REMARK INTER + INTRA:          -7.326
REMARK INTER:                  -6.629
REMARK INTRA:                  -0.698
REMARK UNBOUND:                -0.497
REMARK SMILES O=C([O-])CCCCCCCCC(=O)[O-]
REMARK SMILES IDX 7 1 6 2 5 3 4 4 2 5 1 6 3 7 8 8 9 9 10 10 11 11 12 12 13 13
REMARK SMILES IDX 14 14
REMARK H PARENT
REMARK Flexibility Score: inf
ROOT
ATOM      1  C   UNL     1     -29.418 -23.752  15.139  1.00  0.00     0.000 C 
ENDROOT
BRANCH   1   2
ATOM      2  C   UNL     1     -30.698 -23.796  15.993  1.00  0.00     0.000 C 
BRANCH   2   3
ATOM      3  C   UNL     1     -30.462 -23.318  17.435  1.00  0.00     0.006 C 
BRANCH   3   4
ATOM      4  C   UNL     1     -29.216 -22.432  17.565  1.00  0.00     0.053 C 
BRANCH   4   5
ATOM      5  C   UNL     1     -29.611 -21.014  17.828  1.00  0.00     0.041 C 
ATOM      6  O   UNL     1     -29.232 -20.435  18.880  1.00  0.00    -0.550 OA
ATOM      7  O   UNL     1     -30.438 -20.345  16.935  1.00  0.00    -0.550 OA
ENDBRANCH   4   5
ENDBRANCH   3   4
ENDBRANCH   2   3
ENDBRANCH   1   2
BRANCH   1   8
ATOM      8  C   UNL     1     -29.235 -25.016  14.285  1.00  0.00     0.000 C 
BRANCH   8   9
ATOM      9  C   UNL     1     -28.093 -25.911  14.790  1.00  0.00     0.000 C 
BRANCH   9  10
ATOM     10  C   UNL     1     -27.287 -25.206  15.888  1.00  0.00     0.006 C 
BRANCH  10  11
ATOM     11  C   UNL     1     -25.911 -24.778  15.370  1.00  0.00     0.053 C 
BRANCH  11  12
ATOM     12  C   UNL     1     -24.830 -25.561  16.044  1.00  0.00     0.041 C 
ATOM     13  O   UNL     1     -25.053 -26.128  17.146  1.00  0.00    -0.550 OA
ATOM     14  O   UNL     1     -23.561 -25.621  15.483  1.00  0.00    -0.550 OA
ENDBRANCH  11  12
ENDBRANCH  10  11
ENDBRANCH   9  10
ENDBRANCH   8   9
ENDBRANCH   1   8
TORSDOF 9
ENDMDL
MODEL 4
REMARK VINA RESULT:    -4.436      7.260      8.331
REMARK INTER + INTRA:          -7.267
REMARK INTER:                  -6.855
REMARK INTRA:                  -0.412
REMARK UNBOUND:                -0.497
REMARK SMILES O=C([O-])CCCCCCCCC(=O)[O-]
REMARK SMILES IDX 7 1 6 2 5 3 4 4 2 5 1 6 3 7 8 8 9 9 10 10 11 11 12 12 13 13
REMARK SMILES IDX 14 14
REMARK H PARENT
REMARK Flexibility Score: inf
ROOT
ATOM      1  C   UNL     1     -23.285 -26.135  15.993  1.00  0.00     0.000 C 
ENDROOT
BRANCH   1   2
ATOM      2  C   UNL     1     -23.748 -26.705  17.346  1.00  0.00     0.000 C 
BRANCH   2   3
ATOM      3  C   UNL     1     -23.186 -28.109  17.619  1.00  0.00     0.006 C 
BRANCH   3   4
ATOM      4  C   UNL     1     -22.272 -28.607  16.491  1.00  0.00     0.053 C 
BRANCH   4   5
ATOM      5  C   UNL     1     -21.842 -30.015  16.753  1.00  0.00     0.041 C 
ATOM      6  O   UNL     1     -20.918 -30.253  17.576  1.00  0.00    -0.550 OA
ATOM      7  O   UNL     1     -22.426 -31.062  16.053  1.00  0.00    -0.550 OA
ENDBRANCH   4   5
ENDBRANCH   3   4
ENDBRANCH   2   3
ENDBRANCH   1   2
BRANCH   1   8
ATOM      8  C   UNL     1     -24.334 -25.215  15.350  1.00  0.00     0.000 C 
BRANCH   8   9
ATOM      9  C   UNL     1     -25.675 -25.231  16.100  1.00  0.00     0.000 C 
BRANCH   9  10
ATOM     10  C   UNL     1     -26.797 -24.647  15.233  1.00  0.00     0.006 C 
BRANCH  10  11
ATOM     11  C   UNL     1     -28.172 -25.080  15.748  1.00  0.00     0.053 C 
BRANCH  11  12
ATOM     12  C   UNL     1     -28.626 -24.180  16.852  1.00  0.00     0.041 C 
ATOM     13  O   UNL     1     -29.135 -24.666  17.896  1.00  0.00    -0.550 OA
ATOM     14  O   UNL     1     -28.536 -22.801  16.707  1.00  0.00    -0.550 OA
ENDBRANCH  11  12
ENDBRANCH  10  11
ENDBRANCH   9  10
ENDBRANCH   8   9
ENDBRANCH   1   8
TORSDOF 9
ENDMDL
MODEL 5
REMARK VINA RESULT:    -4.425     10.266     12.321
REMARK INTER + INTRA:          -7.250
REMARK INTER:                  -6.394
REMARK INTRA:                  -0.856
REMARK UNBOUND:                -0.497
REMARK SMILES O=C([O-])CCCCCCCCC(=O)[O-]
REMARK SMILES IDX 7 1 6 2 5 3 4 4 2 5 1 6 3 7 8 8 9 9 10 10 11 11 12 12 13 13
REMARK SMILES IDX 14 14
REMARK H PARENT
REMARK Flexibility Score: inf
ROOT
ATOM      1  C   UNL     1     -31.200 -23.197  15.364  1.00  0.00     0.000 C 
ENDROOT
BRANCH   1   2
ATOM      2  C   UNL     1     -31.481 -23.285  16.875  1.00  0.00     0.000 C 
BRANCH   2   3
ATOM      3  C   UNL     1     -30.197 -23.237  17.717  1.00  0.00     0.006 C 
BRANCH   3   4
ATOM      4  C   UNL     1     -29.218 -22.158  17.238  1.00  0.00     0.053 C 
BRANCH   4   5
ATOM      5  C   UNL     1     -29.608 -20.821  17.782  1.00  0.00     0.041 C 
ATOM      6  O   UNL     1     -30.289 -20.025  17.082  1.00  0.00    -0.550 OA
ATOM      7  O   UNL     1     -29.180 -20.432  19.045  1.00  0.00    -0.550 OA
ENDBRANCH   4   5
ENDBRANCH   3   4
ENDBRANCH   2   3
ENDBRANCH   1   2
BRANCH   1   8
ATOM      8  C   UNL     1     -30.796 -24.551  14.759  1.00  0.00     0.000 C 
BRANCH   8   9
ATOM      9  C   UNL     1     -29.664 -24.424  13.728  1.00  0.00     0.000 C 
BRANCH   9  10
ATOM     10  C   UNL     1     -28.297 -24.347  14.419  1.00  0.00     0.006 C 
BRANCH  10  11
ATOM     11  C   UNL     1     -27.855 -25.725  14.918  1.00  0.00     0.053 C 
BRANCH  11  12
ATOM     12  C   UNL     1     -27.108 -25.600  16.208  1.00  0.00     0.041 C 
ATOM     13  O   UNL     1     -25.929 -25.156  16.216  1.00  0.00    -0.550 OA
ATOM     14  O   UNL     1     -27.693 -26.021  17.395  1.00  0.00    -0.550 OA
ENDBRANCH  11  12
ENDBRANCH  10  11
ENDBRANCH   9  10
ENDBRANCH   8   9
ENDBRANCH   1   8
TORSDOF 9
ENDMDL
MODEL 6
REMARK VINA RESULT:    -4.423      2.454      7.143
REMARK INTER + INTRA:          -7.247
REMARK INTER:                  -6.663
REMARK INTRA:                  -0.584
REMARK UNBOUND:                -0.497
REMARK SMILES O=C([O-])CCCCCCCCC(=O)[O-]
REMARK SMILES IDX 7 1 6 2 5 3 4 4 2 5 1 6 3 7 8 8 9 9 10 10 11 11 12 12 13 13
REMARK SMILES IDX 14 14
REMARK H PARENT
REMARK Flexibility Score: inf
ROOT
ATOM      1  C   UNL     1     -19.502 -21.501  11.972  1.00  0.00     0.000 C 
ENDROOT
BRANCH   1   2
ATOM      2  C   UNL     1     -19.131 -21.160  10.517  1.00  0.00     0.000 C 
BRANCH   2   3
ATOM      3  C   UNL     1     -19.849 -22.059   9.498  1.00  0.00     0.006 C 
BRANCH   3   4
ATOM      4  C   UNL     1     -20.941 -21.314   8.721  1.00  0.00     0.053 C 
BRANCH   4   5
ATOM      5  C   UNL     1     -22.196 -22.125   8.678  1.00  0.00     0.041 C 
ATOM      6  O   UNL     1     -22.333 -23.122   9.435  1.00  0.00    -0.550 OA
ATOM      7  O   UNL     1     -23.197 -21.810   7.768  1.00  0.00    -0.550 OA
ENDBRANCH   4   5
ENDBRANCH   3   4
ENDBRANCH   2   3
ENDBRANCH   1   2
BRANCH   1   8
ATOM      8  C   UNL     1     -19.928 -22.968  12.143  1.00  0.00     0.000 C 
BRANCH   8   9
ATOM      9  C   UNL     1     -19.502 -23.553  13.498  1.00  0.00     0.000 C 
BRANCH   9  10
ATOM     10  C   UNL     1     -18.775 -24.890  13.315  1.00  0.00     0.006 C 
BRANCH  10  11
ATOM     11  C   UNL     1     -17.660 -24.772  12.272  1.00  0.00     0.053 C 
BRANCH  11  12
ATOM     12  C   UNL     1     -16.420 -25.458  12.749  1.00  0.00     0.041 C 
ATOM     13  O   UNL     1     -15.413 -25.541  11.997  1.00  0.00    -0.550 OA
ATOM     14  O   UNL     1     -16.392 -26.051  14.005  1.00  0.00    -0.550 OA
ENDBRANCH  11  12
ENDBRANCH  10  11
ENDBRANCH   9  10
ENDBRANCH   8   9
ENDBRANCH   1   8
TORSDOF 9
ENDMDL
MODEL 7
REMARK VINA RESULT:    -4.397     10.005     11.414
REMARK INTER + INTRA:          -7.207
REMARK INTER:                  -6.472
REMARK INTRA:                  -0.734
REMARK UNBOUND:                -0.497
REMARK SMILES O=C([O-])CCCCCCCCC(=O)[O-]
REMARK SMILES IDX 7 1 6 2 5 3 4 4 2 5 1 6 3 7 8 8 9 9 10 10 11 11 12 12 13 13
REMARK SMILES IDX 14 14
REMARK H PARENT
REMARK Flexibility Score: inf
ROOT
ATOM      1  C   UNL     1     -25.112 -29.232   5.743  1.00  0.00     0.000 C 
ENDROOT
BRANCH   1   2
ATOM      2  C   UNL     1     -24.434 -29.811   6.998  1.00  0.00     0.000 C 
BRANCH   2   3
ATOM      3  C   UNL     1     -23.091 -30.490   6.682  1.00  0.00     0.006 C 
BRANCH   3   4
ATOM      4  C   UNL     1     -23.260 -31.780   5.870  1.00  0.00     0.053 C 
BRANCH   4   5
ATOM      5  C   UNL     1     -22.447 -31.717   4.616  1.00  0.00     0.041 C 
ATOM      6  O   UNL     1     -21.794 -30.677   4.336  1.00  0.00    -0.550 OA
ATOM      7  O   UNL     1     -22.449 -32.787   3.731  1.00  0.00    -0.550 OA
ENDBRANCH   4   5
ENDBRANCH   3   4
ENDBRANCH   2   3
ENDBRANCH   1   2
BRANCH   1   8
ATOM      8  C   UNL     1     -26.611 -28.963   5.954  1.00  0.00     0.000 C 
BRANCH   8   9
ATOM      9  C   UNL     1     -27.128 -29.514   7.291  1.00  0.00     0.000 C 
BRANCH   9  10
ATOM     10  C   UNL     1     -27.695 -28.389   8.166  1.00  0.00     0.006 C 
BRANCH  10  11
ATOM     11  C   UNL     1     -26.706 -27.997   9.267  1.00  0.00     0.053 C 
BRANCH  11  12
ATOM     12  C   UNL     1     -26.101 -26.660   8.977  1.00  0.00     0.041 C 
ATOM     13  O   UNL     1     -24.950 -26.582   8.472  1.00  0.00    -0.550 OA
ATOM     14  O   UNL     1     -26.786 -25.499   9.313  1.00  0.00    -0.550 OA
ENDBRANCH  11  12
ENDBRANCH  10  11
ENDBRANCH   9  10
ENDBRANCH   8   9
ENDBRANCH   1   8
TORSDOF 9
ENDMDL
MODEL 8
REMARK VINA RESULT:    -4.377      2.010      7.087
REMARK INTER + INTRA:          -7.177
REMARK INTER:                  -6.573
REMARK INTRA:                  -0.604
REMARK UNBOUND:                -0.497
REMARK SMILES O=C([O-])CCCCCCCCC(=O)[O-]
REMARK SMILES IDX 7 1 6 2 5 3 4 4 2 5 1 6 3 7 8 8 9 9 10 10 11 11 12 12 13 13
REMARK SMILES IDX 14 14
REMARK H PARENT
REMARK Flexibility Score: inf
ROOT
ATOM      1  C   UNL     1     -19.482 -21.734  11.939  1.00  0.00     0.000 C 
ENDROOT
BRANCH   1   2
ATOM      2  C   UNL     1     -19.271 -21.182  10.518  1.00  0.00     0.000 C 
BRANCH   2   3
ATOM      3  C   UNL     1     -19.678 -22.186   9.428  1.00  0.00     0.006 C 
BRANCH   3   4
ATOM      4  C   UNL     1     -20.949 -21.762   8.681  1.00  0.00     0.053 C 
BRANCH   4   5
ATOM      5  C   UNL     1     -22.125 -22.550   9.166  1.00  0.00     0.041 C 
ATOM      6  O   UNL     1     -21.954 -23.551   9.910  1.00  0.00    -0.550 OA
ATOM      7  O   UNL     1     -23.407 -22.207   8.757  1.00  0.00    -0.550 OA
ENDBRANCH   4   5
ENDBRANCH   3   4
ENDBRANCH   2   3
ENDBRANCH   1   2
BRANCH   1   8
ATOM      8  C   UNL     1     -19.060 -23.206  12.069  1.00  0.00     0.000 C 
BRANCH   8   9
ATOM      9  C   UNL     1     -19.969 -24.001  13.018  1.00  0.00     0.000 C 
BRANCH   9  10
ATOM     10  C   UNL     1     -19.412 -23.993  14.447  1.00  0.00     0.006 C 
BRANCH  10  11
ATOM     11  C   UNL     1     -19.126 -25.416  14.934  1.00  0.00     0.053 C 
BRANCH  11  12
ATOM     12  C   UNL     1     -17.675 -25.743  14.777  1.00  0.00     0.041 C 
ATOM     13  O   UNL     1     -16.879 -25.565  15.736  1.00  0.00    -0.550 OA
ATOM     14  O   UNL     1     -17.192 -26.195  13.555  1.00  0.00    -0.550 OA
ENDBRANCH  11  12
ENDBRANCH  10  11
ENDBRANCH   9  10
ENDBRANCH   8   9
ENDBRANCH   1   8
TORSDOF 9
ENDMDL
MODEL 9
REMARK VINA RESULT:    -4.357      9.737     11.135
REMARK INTER + INTRA:          -7.147
REMARK INTER:                  -6.541
REMARK INTRA:                  -0.605
REMARK UNBOUND:                -0.497
REMARK SMILES O=C([O-])CCCCCCCCC(=O)[O-]
REMARK SMILES IDX 7 1 6 2 5 3 4 4 2 5 1 6 3 7 8 8 9 9 10 10 11 11 12 12 13 13
REMARK SMILES IDX 14 14
REMARK H PARENT
REMARK Flexibility Score: inf
ROOT
ATOM      1  C   UNL     1     -27.514 -28.792   7.893  1.00  0.00     0.000 C 
ENDROOT
BRANCH   1   2
ATOM      2  C   UNL     1     -26.297 -28.458   8.775  1.00  0.00     0.000 C 
BRANCH   2   3
ATOM      3  C   UNL     1     -26.104 -26.945   8.964  1.00  0.00     0.006 C 
BRANCH   3   4
ATOM      4  C   UNL     1     -27.275 -26.290   9.707  1.00  0.00     0.053 C 
BRANCH   4   5
ATOM      5  C   UNL     1     -27.178 -24.800   9.624  1.00  0.00     0.041 C 
ATOM      6  O   UNL     1     -26.050 -24.238   9.621  1.00  0.00    -0.550 OA
ATOM      7  O   UNL     1     -28.332 -24.028   9.597  1.00  0.00    -0.550 OA
ENDBRANCH   4   5
ENDBRANCH   3   4
ENDBRANCH   2   3
ENDBRANCH   1   2
BRANCH   1   8
ATOM      8  C   UNL     1     -27.119 -29.496   6.585  1.00  0.00     0.000 C 
BRANCH   8   9
ATOM      9  C   UNL     1     -25.597 -29.573   6.391  1.00  0.00     0.000 C 
BRANCH   9  10
ATOM     10  C   UNL     1     -25.198 -29.092   4.990  1.00  0.00     0.006 C 
BRANCH  10  11
ATOM     11  C   UNL     1     -24.931 -27.585   4.982  1.00  0.00     0.053 C 
BRANCH  11  12
ATOM     12  C   UNL     1     -23.544 -27.300   4.501  1.00  0.00     0.041 C 
ATOM     13  O   UNL     1     -23.259 -26.170   4.024  1.00  0.00    -0.550 OA
ATOM     14  O   UNL     1     -22.578 -28.298   4.531  1.00  0.00    -0.550 OA
ENDBRANCH  11  12
ENDBRANCH  10  11
ENDBRANCH   9  10
ENDBRANCH   8   9
ENDBRANCH   1   8
TORSDOF 9
ENDMDL
