MODEL 1
REMARK VINA RESULT:    -6.964      0.000      0.000
REMARK INTER + INTRA:          -8.164
REMARK INTER:                  -8.389
REMARK INTRA:                   0.225
REMARK UNBOUND:                 0.225
REMARK SMILES Oc1cc(O)c2c(c1)O[C@@H](c1ccc(O)c(O)c1)[C@H](O)C2
REMARK SMILES IDX 21 1 19 2 10 3 9 4 7 5 8 6 2 7 3 8 4 9 6 10 20 11 11 13
REMARK SMILES IDX 18 14 12 15 16 16 13 17 14 18 17 19 15 21 5 23 1 25
REMARK H PARENT 20 12 17 20 15 22 5 24 1 26
REMARK Flexibility Score: inf
ROOT
ATOM      1  C   UNL     1      29.813  -0.323 167.993  1.00  0.00     0.079 C 
ATOM      2  C   UNL     1      30.832   0.681 167.423  1.00  0.00     0.164 C 
ATOM      3  C   UNL     1      31.947  -0.064 166.661  1.00  0.00     0.232 C 
ATOM      4  O   UNL     1      31.369  -0.875 165.638  1.00  0.00    -0.482 OA
ATOM      5  C   UNL     1      30.170  -1.572 165.824  1.00  0.00     0.131 A 
ATOM      6  C   UNL     1      29.765  -2.491 164.852  1.00  0.00     0.093 A 
ATOM      7  C   UNL     1      28.578  -3.214 165.015  1.00  0.00     0.122 A 
ATOM      8  C   UNL     1      27.802  -3.023 166.160  1.00  0.00     0.092 A 
ATOM      9  C   UNL     1      28.192  -2.108 167.144  1.00  0.00     0.126 A 
ATOM     10  C   UNL     1      29.369  -1.341 166.963  1.00  0.00     0.039 A 
ENDROOT
BRANCH   2  11
ATOM     11  O   UNL     1      31.361   1.486 168.449  1.00  0.00    -0.389 OA
ATOM     12  H   UNL     1      31.798   2.268 168.024  1.00  0.00     0.211 HD
ENDBRANCH   2  11
BRANCH   3  13
ATOM     13  C   UNL     1      32.931   0.904 166.048  1.00  0.00    -0.001 A 
ATOM     14  C   UNL     1      34.037   0.433 165.318  1.00  0.00     0.057 A 
ATOM     15  C   UNL     1      32.723   2.288 166.159  1.00  0.00     0.012 A 
ATOM     16  C   UNL     1      34.934   1.329 164.726  1.00  0.00     0.157 A 
ATOM     17  C   UNL     1      33.617   3.186 165.568  1.00  0.00     0.050 A 
ATOM     18  C   UNL     1      34.725   2.713 164.852  1.00  0.00     0.157 A 
BRANCH  16  19
ATOM     19  O   UNL     1      36.023   0.826 164.015  1.00  0.00    -0.504 OA
ATOM     20  H   UNL     1      36.039   0.802 163.003  1.00  0.00     0.293 HD
ENDBRANCH  16  19
BRANCH  18  21
ATOM     21  O   UNL     1      35.615   3.611 164.265  1.00  0.00    -0.504 OA
ATOM     22  H   UNL     1      36.500   3.304 163.880  1.00  0.00     0.293 HD
ENDBRANCH  18  21
ENDBRANCH   3  13
BRANCH   9  23
ATOM     23  O   UNL     1      27.397  -1.994 168.287  1.00  0.00    -0.507 OA
ATOM     24  H   UNL     1      26.394  -1.869 168.256  1.00  0.00     0.293 HD
ENDBRANCH   9  23
BRANCH   7  25
ATOM     25  O   UNL     1      28.167  -4.130 164.050  1.00  0.00    -0.508 OA
ATOM     26  H   UNL     1      27.243  -4.544 164.071  1.00  0.00     0.293 HD
ENDBRANCH   7  25
TORSDOF 6
ENDMDL
MODEL 2
REMARK VINA RESULT:    -6.962      1.669      3.118
REMARK INTER + INTRA:          -8.161
REMARK INTER:                  -7.788
REMARK INTRA:                  -0.373
REMARK UNBOUND:                 0.225
REMARK SMILES Oc1cc(O)c2c(c1)O[C@@H](c1ccc(O)c(O)c1)[C@H](O)C2
REMARK SMILES IDX 21 1 19 2 10 3 9 4 7 5 8 6 2 7 3 8 4 9 6 10 20 11 11 13
REMARK SMILES IDX 18 14 12 15 16 16 13 17 14 18 17 19 15 21 5 23 1 25
REMARK H PARENT 20 12 17 20 15 22 5 24 1 26
REMARK Flexibility Score: inf
ROOT
ATOM      1  C   UNL     1      31.311  -1.265 164.051  1.00  0.00     0.079 C 
ATOM      2  C   UNL     1      32.709  -0.633 164.184  1.00  0.00     0.164 C 
ATOM      3  C   UNL     1      32.617   0.716 164.925  1.00  0.00     0.232 C 
ATOM      4  O   UNL     1      31.997   0.524 166.196  1.00  0.00    -0.482 OA
ATOM      5  C   UNL     1      30.929  -0.361 166.382  1.00  0.00     0.131 A 
ATOM      6  C   UNL     1      30.254  -0.357 167.605  1.00  0.00     0.093 A 
ATOM      7  C   UNL     1      29.172  -1.220 167.816  1.00  0.00     0.122 A 
ATOM      8  C   UNL     1      28.763  -2.081 166.796  1.00  0.00     0.092 A 
ATOM      9  C   UNL     1      29.427  -2.099 165.565  1.00  0.00     0.126 A 
ATOM     10  C   UNL     1      30.549  -1.259 165.360  1.00  0.00     0.039 A 
ENDROOT
BRANCH   2  11
ATOM     11  O   UNL     1      33.306  -0.484 162.918  1.00  0.00    -0.389 OA
ATOM     12  H   UNL     1      33.882  -1.276 162.762  1.00  0.00     0.211 HD
ENDBRANCH   2  11
BRANCH   3  13
ATOM     13  C   UNL     1      33.984   1.331 165.112  1.00  0.00    -0.001 A 
ATOM     14  C   UNL     1      34.956   0.687 165.899  1.00  0.00     0.057 A 
ATOM     15  C   UNL     1      34.315   2.529 164.461  1.00  0.00     0.012 A 
ATOM     16  C   UNL     1      36.232   1.241 166.051  1.00  0.00     0.157 A 
ATOM     17  C   UNL     1      35.589   3.085 164.610  1.00  0.00     0.050 A 
ATOM     18  C   UNL     1      36.551   2.448 165.405  1.00  0.00     0.157 A 
BRANCH  16  19
ATOM     19  O   UNL     1      37.167   0.578 166.844  1.00  0.00    -0.504 OA
ATOM     20  H   UNL     1      37.298   0.803 167.823  1.00  0.00     0.293 HD
ENDBRANCH  16  19
BRANCH  18  21
ATOM     21  O   UNL     1      37.819   3.005 165.553  1.00  0.00    -0.504 OA
ATOM     22  H   UNL     1      38.659   2.461 165.392  1.00  0.00     0.293 HD
ENDBRANCH  18  21
ENDBRANCH   3  13
BRANCH   9  23
ATOM     23  O   UNL     1      28.943  -2.950 164.570  1.00  0.00    -0.507 OA
ATOM     24  H   UNL     1      28.478  -3.826 164.764  1.00  0.00     0.293 HD
ENDBRANCH   9  23
BRANCH   7  25
ATOM     25  O   UNL     1      28.495  -1.223 169.033  1.00  0.00    -0.508 OA
ATOM     26  H   UNL     1      28.953  -1.495 169.895  1.00  0.00     0.293 HD
ENDBRANCH   7  25
TORSDOF 6
ENDMDL
MODEL 3
REMARK VINA RESULT:    -6.838      2.121      3.944
REMARK INTER + INTRA:          -8.011
REMARK INTER:                  -7.638
REMARK INTRA:                  -0.374
REMARK UNBOUND:                 0.225
REMARK SMILES Oc1cc(O)c2c(c1)O[C@@H](c1ccc(O)c(O)c1)[C@H](O)C2
REMARK SMILES IDX 21 1 19 2 10 3 9 4 7 5 8 6 2 7 3 8 4 9 6 10 20 11 11 13
REMARK SMILES IDX 18 14 12 15 16 16 13 17 14 18 17 19 15 21 5 23 1 25
REMARK H PARENT 20 12 17 20 15 22 5 24 1 26
REMARK Flexibility Score: inf
ROOT
ATOM      1  C   UNL     1      32.379  -0.710 164.981  1.00  0.00     0.079 C 
ATOM      2  C   UNL     1      33.746  -0.012 164.858  1.00  0.00     0.164 C 
ATOM      3  C   UNL     1      33.579   1.515 164.990  1.00  0.00     0.232 C 
ATOM      4  O   UNL     1      32.936   1.822 166.227  1.00  0.00    -0.482 OA
ATOM      5  C   UNL     1      31.900   1.037 166.746  1.00  0.00     0.131 A 
ATOM      6  C   UNL     1      31.193   1.500 167.859  1.00  0.00     0.093 A 
ATOM      7  C   UNL     1      30.143   0.745 168.393  1.00  0.00     0.122 A 
ATOM      8  C   UNL     1      29.796  -0.472 167.804  1.00  0.00     0.092 A 
ATOM      9  C   UNL     1      30.492  -0.953 166.690  1.00  0.00     0.126 A 
ATOM     10  C   UNL     1      31.584  -0.214 166.171  1.00  0.00     0.039 A 
ENDROOT
BRANCH   2  11
ATOM     11  O   UNL     1      34.369  -0.358 163.644  1.00  0.00    -0.389 OA
ATOM     12  H   UNL     1      34.063  -1.268 163.397  1.00  0.00     0.211 HD
ENDBRANCH   2  11
BRANCH   3  13
ATOM     13  C   UNL     1      34.915   2.218 164.923  1.00  0.00    -0.001 A 
ATOM     14  C   UNL     1      35.905   1.965 165.890  1.00  0.00     0.057 A 
ATOM     15  C   UNL     1      35.199   3.095 163.865  1.00  0.00     0.012 A 
ATOM     16  C   UNL     1      37.153   2.593 165.813  1.00  0.00     0.157 A 
ATOM     17  C   UNL     1      36.445   3.725 163.786  1.00  0.00     0.050 A 
ATOM     18  C   UNL     1      37.425   3.481 164.757  1.00  0.00     0.157 A 
BRANCH  16  19
ATOM     19  O   UNL     1      38.108   2.323 166.792  1.00  0.00    -0.504 OA
ATOM     20  H   UNL     1      38.074   1.485 167.359  1.00  0.00     0.293 HD
ENDBRANCH  16  19
BRANCH  18  21
ATOM     21  O   UNL     1      38.665   4.111 164.676  1.00  0.00    -0.504 OA
ATOM     22  H   UNL     1      39.036   4.652 165.448  1.00  0.00     0.293 HD
ENDBRANCH  18  21
ENDBRANCH   3  13
BRANCH   9  23
ATOM     23  O   UNL     1      30.069  -2.155 166.119  1.00  0.00    -0.507 OA
ATOM     24  H   UNL     1      29.098  -2.377 165.945  1.00  0.00     0.293 HD
ENDBRANCH   9  23
BRANCH   7  25
ATOM     25  O   UNL     1      29.435   1.200 169.502  1.00  0.00    -0.508 OA
ATOM     26  H   UNL     1      29.119   2.161 169.572  1.00  0.00     0.293 HD
ENDBRANCH   7  25
TORSDOF 6
ENDMDL
MODEL 4
REMARK VINA RESULT:    -6.584      2.100      3.992
REMARK INTER + INTRA:          -7.706
REMARK INTER:                  -7.345
REMARK INTRA:                  -0.361
REMARK UNBOUND:                 0.225
REMARK SMILES Oc1cc(O)c2c(c1)O[C@@H](c1ccc(O)c(O)c1)[C@H](O)C2
REMARK SMILES IDX 21 1 19 2 10 3 9 4 7 5 8 6 2 7 3 8 4 9 6 10 20 11 11 13
REMARK SMILES IDX 18 14 12 15 16 16 13 17 14 18 17 19 15 21 5 23 1 25
REMARK H PARENT 20 12 17 20 15 22 5 24 1 26
REMARK Flexibility Score: inf
ROOT
ATOM      1  C   UNL     1      32.175  -0.844 164.898  1.00  0.00     0.079 C 
ATOM      2  C   UNL     1      33.529  -0.165 164.621  1.00  0.00     0.164 C 
ATOM      3  C   UNL     1      33.378   1.369 164.673  1.00  0.00     0.232 C 
ATOM      4  O   UNL     1      32.838   1.755 165.937  1.00  0.00    -0.482 OA
ATOM      5  C   UNL     1      31.847   1.011 166.586  1.00  0.00     0.131 A 
ATOM      6  C   UNL     1      31.235   1.546 167.722  1.00  0.00     0.093 A 
ATOM      7  C   UNL     1      30.231   0.833 168.386  1.00  0.00     0.122 A 
ATOM      8  C   UNL     1      29.833  -0.415 167.903  1.00  0.00     0.092 A 
ATOM      9  C   UNL     1      30.434  -0.968 166.767  1.00  0.00     0.126 A 
ATOM     10  C   UNL     1      31.482  -0.270 166.117  1.00  0.00     0.039 A 
ENDROOT
BRANCH   2  11
ATOM     11  O   UNL     1      34.049  -0.588 163.384  1.00  0.00    -0.389 OA
ATOM     12  H   UNL     1      34.891  -1.081 163.563  1.00  0.00     0.211 HD
ENDBRANCH   2  11
BRANCH   3  13
ATOM     13  C   UNL     1      34.705   2.056 164.454  1.00  0.00    -0.001 A 
ATOM     14  C   UNL     1      34.850   3.029 163.448  1.00  0.00     0.057 A 
ATOM     15  C   UNL     1      35.796   1.767 165.288  1.00  0.00     0.012 A 
ATOM     16  C   UNL     1      36.071   3.687 163.264  1.00  0.00     0.157 A 
ATOM     17  C   UNL     1      37.018   2.422 165.106  1.00  0.00     0.050 A 
ATOM     18  C   UNL     1      37.162   3.382 164.096  1.00  0.00     0.157 A 
BRANCH  16  19
ATOM     19  O   UNL     1      36.180   4.641 162.253  1.00  0.00    -0.504 OA
ATOM     20  H   UNL     1      36.197   5.634 162.450  1.00  0.00     0.293 HD
ENDBRANCH  16  19
BRANCH  18  21
ATOM     21  O   UNL     1      38.381   4.033 163.916  1.00  0.00    -0.504 OA
ATOM     22  H   UNL     1      38.714   4.290 162.994  1.00  0.00     0.293 HD
ENDBRANCH  18  21
ENDBRANCH   3  13
BRANCH   9  23
ATOM     23  O   UNL     1      29.963  -2.199 166.307  1.00  0.00    -0.507 OA
ATOM     24  H   UNL     1      29.663  -2.359 165.354  1.00  0.00     0.293 HD
ENDBRANCH   9  23
BRANCH   7  25
ATOM     25  O   UNL     1      29.617   1.360 169.519  1.00  0.00    -0.508 OA
ATOM     26  H   UNL     1      29.878   1.060 170.451  1.00  0.00     0.293 HD
ENDBRANCH   7  25
TORSDOF 6
ENDMDL
MODEL 5
REMARK VINA RESULT:    -6.454      2.199      4.136
REMARK INTER + INTRA:          -7.550
REMARK INTER:                  -7.269
REMARK INTRA:                  -0.281
REMARK UNBOUND:                 0.225
REMARK SMILES Oc1cc(O)c2c(c1)O[C@@H](c1ccc(O)c(O)c1)[C@H](O)C2
REMARK SMILES IDX 21 1 19 2 10 3 9 4 7 5 8 6 2 7 3 8 4 9 6 10 20 11 11 13
REMARK SMILES IDX 18 14 12 15 16 16 13 17 14 18 17 19 15 21 5 23 1 25
REMARK H PARENT 20 12 17 20 15 22 5 24 1 26
REMARK Flexibility Score: inf
ROOT
ATOM      1  C   UNL     1      32.995   0.150 164.691  1.00  0.00     0.079 C 
ATOM      2  C   UNL     1      34.163   1.101 165.011  1.00  0.00     0.164 C 
ATOM      3  C   UNL     1      33.626   2.460 165.504  1.00  0.00     0.232 C 
ATOM      4  O   UNL     1      32.779   2.258 166.635  1.00  0.00    -0.482 OA
ATOM      5  C   UNL     1      31.902   1.172 166.730  1.00  0.00     0.131 A 
ATOM      6  C   UNL     1      30.972   1.143 167.773  1.00  0.00     0.093 A 
ATOM      7  C   UNL     1      30.072   0.077 167.886  1.00  0.00     0.122 A 
ATOM      8  C   UNL     1      30.098  -0.954 166.946  1.00  0.00     0.092 A 
ATOM      9  C   UNL     1      31.021  -0.942 165.895  1.00  0.00     0.126 A 
ATOM     10  C   UNL     1      31.964   0.111 165.800  1.00  0.00     0.039 A 
ENDROOT
BRANCH   2  11
ATOM     11  O   UNL     1      34.997   1.255 163.888  1.00  0.00    -0.389 OA
ATOM     12  H   UNL     1      34.416   1.435 163.104  1.00  0.00     0.211 HD
ENDBRANCH   2  11
BRANCH   3  13
ATOM     13  C   UNL     1      34.755   3.392 165.873  1.00  0.00    -0.001 A 
ATOM     14  C   UNL     1      35.858   2.923 166.611  1.00  0.00     0.057 A 
ATOM     15  C   UNL     1      34.739   4.728 165.440  1.00  0.00     0.012 A 
ATOM     16  C   UNL     1      36.918   3.779 166.929  1.00  0.00     0.157 A 
ATOM     17  C   UNL     1      35.797   5.585 165.757  1.00  0.00     0.050 A 
ATOM     18  C   UNL     1      36.888   5.118 166.502  1.00  0.00     0.157 A 
BRANCH  16  19
ATOM     19  O   UNL     1      37.991   3.282 167.667  1.00  0.00    -0.504 OA
ATOM     20  H   UNL     1      38.844   3.812 167.799  1.00  0.00     0.293 HD
ENDBRANCH  16  19
BRANCH  18  21
ATOM     21  O   UNL     1      37.940   5.976 166.817  1.00  0.00    -0.504 OA
ATOM     22  H   UNL     1      38.131   6.805 166.266  1.00  0.00     0.293 HD
ENDBRANCH  18  21
ENDBRANCH   3  13
BRANCH   9  23
ATOM     23  O   UNL     1      30.968  -1.979 164.961  1.00  0.00    -0.507 OA
ATOM     24  H   UNL     1      31.486  -2.843 165.059  1.00  0.00     0.293 HD
ENDBRANCH   9  23
BRANCH   7  25
ATOM     25  O   UNL     1      29.144   0.040 168.923  1.00  0.00    -0.508 OA
ATOM     26  H   UNL     1      28.550  -0.767 169.075  1.00  0.00     0.293 HD
ENDBRANCH   7  25
TORSDOF 6
ENDMDL
MODEL 6
REMARK VINA RESULT:    -6.432      1.432      7.181
REMARK INTER + INTRA:          -7.523
REMARK INTER:                  -7.851
REMARK INTRA:                   0.328
REMARK UNBOUND:                 0.225
REMARK SMILES Oc1cc(O)c2c(c1)O[C@@H](c1ccc(O)c(O)c1)[C@H](O)C2
REMARK SMILES IDX 21 1 19 2 10 3 9 4 7 5 8 6 2 7 3 8 4 9 6 10 20 11 11 13
REMARK SMILES IDX 18 14 12 15 16 16 13 17 14 18 17 19 15 21 5 23 1 25
REMARK H PARENT 20 12 17 20 15 22 5 24 1 26
REMARK Flexibility Score: inf
ROOT
ATOM      1  C   UNL     1      33.586  -0.339 163.824  1.00  0.00     0.079 C 
ATOM      2  C   UNL     1      32.266  -0.807 164.466  1.00  0.00     0.164 C 
ATOM      3  C   UNL     1      32.220  -0.398 165.952  1.00  0.00     0.232 C 
ATOM      4  O   UNL     1      32.394   1.015 166.065  1.00  0.00    -0.482 OA
ATOM      5  C   UNL     1      33.283   1.727 165.252  1.00  0.00     0.131 A 
ATOM      6  C   UNL     1      33.540   3.069 165.545  1.00  0.00     0.093 A 
ATOM      7  C   UNL     1      34.435   3.804 164.760  1.00  0.00     0.122 A 
ATOM      8  C   UNL     1      35.079   3.190 163.684  1.00  0.00     0.092 A 
ATOM      9  C   UNL     1      34.834   1.847 163.375  1.00  0.00     0.126 A 
ATOM     10  C   UNL     1      33.897   1.110 164.140  1.00  0.00     0.039 A 
ENDROOT
BRANCH   2  11
ATOM     11  O   UNL     1      32.108  -2.197 164.311  1.00  0.00    -0.389 OA
ATOM     12  H   UNL     1      31.169  -2.365 164.036  1.00  0.00     0.211 HD
ENDBRANCH   2  11
BRANCH   3  13
ATOM     13  C   UNL     1      30.912  -0.802 166.589  1.00  0.00    -0.001 A 
ATOM     14  C   UNL     1      29.980  -1.581 165.879  1.00  0.00     0.057 A 
ATOM     15  C   UNL     1      30.634  -0.446 167.919  1.00  0.00     0.012 A 
ATOM     16  C   UNL     1      28.781  -1.980 166.479  1.00  0.00     0.157 A 
ATOM     17  C   UNL     1      29.436  -0.843 168.520  1.00  0.00     0.050 A 
ATOM     18  C   UNL     1      28.505  -1.608 167.806  1.00  0.00     0.157 A 
BRANCH  16  19
ATOM     19  O   UNL     1      27.878  -2.745 165.742  1.00  0.00    -0.504 OA
ATOM     20  H   UNL     1      27.099  -2.328 165.245  1.00  0.00     0.293 HD
ENDBRANCH  16  19
BRANCH  18  21
ATOM     21  O   UNL     1      27.311  -2.001 168.408  1.00  0.00    -0.504 OA
ATOM     22  H   UNL     1      26.413  -1.684 168.062  1.00  0.00     0.293 HD
ENDBRANCH  18  21
ENDBRANCH   3  13
BRANCH   9  23
ATOM     23  O   UNL     1      35.542   1.277 162.315  1.00  0.00    -0.507 OA
ATOM     24  H   UNL     1      35.179   1.215 161.373  1.00  0.00     0.293 HD
ENDBRANCH   9  23
BRANCH   7  25
ATOM     25  O   UNL     1      34.695   5.142 165.045  1.00  0.00    -0.508 OA
ATOM     26  H   UNL     1      35.280   5.708 164.442  1.00  0.00     0.293 HD
ENDBRANCH   7  25
TORSDOF 6
ENDMDL
MODEL 7
REMARK VINA RESULT:    -6.401      1.739      2.169
REMARK INTER + INTRA:          -7.485
REMARK INTER:                  -7.279
REMARK INTRA:                  -0.206
REMARK UNBOUND:                 0.225
REMARK SMILES Oc1cc(O)c2c(c1)O[C@@H](c1ccc(O)c(O)c1)[C@H](O)C2
REMARK SMILES IDX 21 1 19 2 10 3 9 4 7 5 8 6 2 7 3 8 4 9 6 10 20 11 11 13
REMARK SMILES IDX 18 14 12 15 16 16 13 17 14 18 17 19 15 21 5 23 1 25
REMARK H PARENT 20 12 17 20 15 22 5 24 1 26
REMARK Flexibility Score: inf
ROOT
ATOM      1  C   UNL     1      31.227   0.520 167.238  1.00  0.00     0.079 C 
ATOM      2  C   UNL     1      32.086   1.098 166.097  1.00  0.00     0.164 C 
ATOM      3  C   UNL     1      32.730  -0.042 165.284  1.00  0.00     0.232 C 
ATOM      4  O   UNL     1      31.713  -0.915 164.793  1.00  0.00    -0.482 OA
ATOM      5  C   UNL     1      30.587  -1.253 165.552  1.00  0.00     0.131 A 
ATOM      6  C   UNL     1      29.733  -2.255 165.085  1.00  0.00     0.093 A 
ATOM      7  C   UNL     1      28.606  -2.626 165.828  1.00  0.00     0.122 A 
ATOM      8  C   UNL     1      28.342  -1.996 167.046  1.00  0.00     0.092 A 
ATOM      9  C   UNL     1      29.185  -0.990 167.530  1.00  0.00     0.126 A 
ATOM     10  C   UNL     1      30.303  -0.581 166.761  1.00  0.00     0.039 A 
ENDROOT
BRANCH   2  11
ATOM     11  O   UNL     1      33.059   1.977 166.608  1.00  0.00    -0.389 OA
ATOM     12  H   UNL     1      33.949   1.574 166.439  1.00  0.00     0.211 HD
ENDBRANCH   2  11
BRANCH   3  13
ATOM     13  C   UNL     1      33.537   0.500 164.128  1.00  0.00    -0.001 A 
ATOM     14  C   UNL     1      34.898   0.817 164.291  1.00  0.00     0.057 A 
ATOM     15  C   UNL     1      32.947   0.645 162.862  1.00  0.00     0.012 A 
ATOM     16  C   UNL     1      35.653   1.292 163.213  1.00  0.00     0.157 A 
ATOM     17  C   UNL     1      33.699   1.120 161.783  1.00  0.00     0.050 A 
ATOM     18  C   UNL     1      35.051   1.447 161.952  1.00  0.00     0.157 A 
BRANCH  16  19
ATOM     19  O   UNL     1      36.997   1.603 163.414  1.00  0.00    -0.504 OA
ATOM     20  H   UNL     1      37.388   2.498 163.143  1.00  0.00     0.293 HD
ENDBRANCH  16  19
BRANCH  18  21
ATOM     21  O   UNL     1      35.798   1.920 160.875  1.00  0.00    -0.504 OA
ATOM     22  H   UNL     1      35.994   1.338 160.069  1.00  0.00     0.293 HD
ENDBRANCH  18  21
ENDBRANCH   3  13
BRANCH   9  23
ATOM     23  O   UNL     1      28.893  -0.430 168.775  1.00  0.00    -0.507 OA
ATOM     24  H   UNL     1      28.079   0.145 168.949  1.00  0.00     0.293 HD
ENDBRANCH   9  23
BRANCH   7  25
ATOM     25  O   UNL     1      27.750  -3.623 165.369  1.00  0.00    -0.508 OA
ATOM     26  H   UNL     1      27.250  -4.229 166.009  1.00  0.00     0.293 HD
ENDBRANCH   7  25
TORSDOF 6
ENDMDL
MODEL 8
REMARK VINA RESULT:    -6.183      2.502      7.530
REMARK INTER + INTRA:          -7.223
REMARK INTER:                  -6.850
REMARK INTRA:                  -0.373
REMARK UNBOUND:                 0.225
REMARK SMILES Oc1cc(O)c2c(c1)O[C@@H](c1ccc(O)c(O)c1)[C@H](O)C2
REMARK SMILES IDX 21 1 19 2 10 3 9 4 7 5 8 6 2 7 3 8 4 9 6 10 20 11 11 13
REMARK SMILES IDX 18 14 12 15 16 16 13 17 14 18 17 19 15 21 5 23 1 25
REMARK H PARENT 20 12 17 20 15 22 5 24 1 26
REMARK Flexibility Score: inf
ROOT
ATOM      1  C   UNL     1      34.238   1.000 163.263  1.00  0.00     0.079 C 
ATOM      2  C   UNL     1      33.016   0.906 164.196  1.00  0.00     0.164 C 
ATOM      3  C   UNL     1      33.407   0.223 165.522  1.00  0.00     0.232 C 
ATOM      4  O   UNL     1      34.486   0.936 166.128  1.00  0.00    -0.482 OA
ATOM      5  C   UNL     1      35.532   1.487 165.381  1.00  0.00     0.131 A 
ATOM      6  C   UNL     1      36.644   2.003 166.052  1.00  0.00     0.093 A 
ATOM      7  C   UNL     1      37.713   2.548 165.332  1.00  0.00     0.122 A 
ATOM      8  C   UNL     1      37.671   2.567 163.937  1.00  0.00     0.092 A 
ATOM      9  C   UNL     1      36.567   2.055 163.247  1.00  0.00     0.126 A 
ATOM     10  C   UNL     1      35.462   1.542 163.971  1.00  0.00     0.039 A 
ENDROOT
BRANCH   2  11
ATOM     11  O   UNL     1      31.960   0.227 163.561  1.00  0.00    -0.389 OA
ATOM     12  H   UNL     1      32.132  -0.746 163.648  1.00  0.00     0.211 HD
ENDBRANCH   2  11
BRANCH   3  13
ATOM     13  C   UNL     1      32.236   0.167 166.474  1.00  0.00    -0.001 A 
ATOM     14  C   UNL     1      31.655   1.350 166.964  1.00  0.00     0.057 A 
ATOM     15  C   UNL     1      31.682  -1.070 166.840  1.00  0.00     0.012 A 
ATOM     16  C   UNL     1      30.552   1.299 167.823  1.00  0.00     0.157 A 
ATOM     17  C   UNL     1      30.581  -1.124 167.699  1.00  0.00     0.050 A 
ATOM     18  C   UNL     1      30.012   0.056 168.195  1.00  0.00     0.157 A 
BRANCH  16  19
ATOM     19  O   UNL     1      30.006   2.493 168.295  1.00  0.00    -0.504 OA
ATOM     20  H   UNL     1      30.210   2.847 169.222  1.00  0.00     0.293 HD
ENDBRANCH  16  19
BRANCH  18  21
ATOM     21  O   UNL     1      28.914  -0.001 169.052  1.00  0.00    -0.504 OA
ATOM     22  H   UNL     1      28.948   0.394 169.984  1.00  0.00     0.293 HD
ENDBRANCH  18  21
ENDBRANCH   3  13
BRANCH   9  23
ATOM     23  O   UNL     1      36.603   2.061 161.851  1.00  0.00    -0.507 OA
ATOM     24  H   UNL     1      36.042   2.682 161.283  1.00  0.00     0.293 HD
ENDBRANCH   9  23
BRANCH   7  25
ATOM     25  O   UNL     1      38.823   3.065 165.995  1.00  0.00    -0.508 OA
ATOM     26  H   UNL     1      38.740   3.834 166.650  1.00  0.00     0.293 HD
ENDBRANCH   7  25
TORSDOF 6
ENDMDL
MODEL 9
REMARK VINA RESULT:    -6.031      2.073      6.688
REMARK INTER + INTRA:          -7.039
REMARK INTER:                  -7.359
REMARK INTRA:                   0.320
REMARK UNBOUND:                 0.225
REMARK SMILES Oc1cc(O)c2c(c1)O[C@@H](c1ccc(O)c(O)c1)[C@H](O)C2
REMARK SMILES IDX 21 1 19 2 10 3 9 4 7 5 8 6 2 7 3 8 4 9 6 10 20 11 11 13
REMARK SMILES IDX 18 14 12 15 16 16 13 17 14 18 17 19 15 21 5 23 1 25
REMARK H PARENT 20 12 17 20 15 22 5 24 1 26
REMARK Flexibility Score: inf
ROOT
ATOM      1  C   UNL     1      34.388   2.388 164.948  1.00  0.00     0.079 C 
ATOM      2  C   UNL     1      33.436   1.800 166.007  1.00  0.00     0.164 C 
ATOM      3  C   UNL     1      32.248   1.094 165.322  1.00  0.00     0.232 C 
ATOM      4  O   UNL     1      32.735   0.091 164.431  1.00  0.00    -0.482 OA
ATOM      5  C   UNL     1      33.881   0.278 163.649  1.00  0.00     0.131 A 
ATOM      6  C   UNL     1      34.189  -0.666 162.665  1.00  0.00     0.093 A 
ATOM      7  C   UNL     1      35.319  -0.500 161.858  1.00  0.00     0.122 A 
ATOM      8  C   UNL     1      36.137   0.619 162.031  1.00  0.00     0.092 A 
ATOM      9  C   UNL     1      35.844   1.574 163.010  1.00  0.00     0.126 A 
ATOM     10  C   UNL     1      34.726   1.389 163.860  1.00  0.00     0.039 A 
ENDROOT
BRANCH   2  11
ATOM     11  O   UNL     1      32.997   2.805 166.888  1.00  0.00    -0.389 OA
ATOM     12  H   UNL     1      32.233   2.440 167.405  1.00  0.00     0.211 HD
ENDBRANCH   2  11
BRANCH   3  13
ATOM     13  C   UNL     1      31.327   0.465 166.341  1.00  0.00    -0.001 A 
ATOM     14  C   UNL     1      30.899   1.194 167.465  1.00  0.00     0.057 A 
ATOM     15  C   UNL     1      30.847  -0.840 166.148  1.00  0.00     0.012 A 
ATOM     16  C   UNL     1      30.023   0.622 168.394  1.00  0.00     0.157 A 
ATOM     17  C   UNL     1      29.972  -1.414 167.075  1.00  0.00     0.050 A 
ATOM     18  C   UNL     1      29.557  -0.690 168.200  1.00  0.00     0.157 A 
BRANCH  16  19
ATOM     19  O   UNL     1      29.625   1.372 169.500  1.00  0.00    -0.504 OA
ATOM     20  H   UNL     1      30.113   1.322 170.387  1.00  0.00     0.293 HD
ENDBRANCH  16  19
BRANCH  18  21
ATOM     21  O   UNL     1      28.685  -1.266 169.122  1.00  0.00    -0.504 OA
ATOM     22  H   UNL     1      28.181  -2.120 168.914  1.00  0.00     0.293 HD
ENDBRANCH  18  21
ENDBRANCH   3  13
BRANCH   9  23
ATOM     23  O   UNL     1      36.674   2.693 163.105  1.00  0.00    -0.507 OA
ATOM     24  H   UNL     1      36.339   3.615 163.350  1.00  0.00     0.293 HD
ENDBRANCH   9  23
BRANCH   7  25
ATOM     25  O   UNL     1      35.634  -1.436 160.876  1.00  0.00    -0.508 OA
ATOM     26  H   UNL     1      35.927  -1.154 159.948  1.00  0.00     0.293 HD
ENDBRANCH   7  25
TORSDOF 6
ENDMDL
