MODEL 1
REMARK VINA RESULT:    -5.322      0.000      0.000
REMARK INTER + INTRA:          -8.931
REMARK INTER:                  -7.811
REMARK INTRA:                  -1.120
REMARK UNBOUND:                -1.120
REMARK SMILES Cc1cc2c(C(C)C)c(O)c(O)c(C=O)c2c(O)c1-c1c(C)cc2c(C(C)C)c(O)c(O)c(C=O)c2c1O
REMARK SMILES IDX 1 1 2 2 3 3 4 4 16 5 13 6 11 7 9 8 5 9 17 10 19 11 20 12
REMARK SMILES IDX 37 13 21 14 36 15 23 16 22 17 24 18 33 19 25 20 31 21 29 22
REMARK SMILES IDX 38 23 34 25 35 26 26 27 27 28 28 29 32 30 30 32 18 34 6 36
REMARK SMILES IDX 7 37 8 38 14 39 15 40 10 41 12 43
REMARK H PARENT 38 24 32 31 30 33 18 35 10 42 12 44
REMARK Flexibility Score: inf
ROOT
ATOM      1  C   UNL     1      -0.650   4.182   7.903  1.00  0.00     0.045 C 
ATOM      2  C   UNL     1      -1.670   5.228   7.518  1.00  0.00    -0.039 A 
ATOM      3  C   UNL     1      -3.025   4.901   7.559  1.00  0.00     0.013 A 
ATOM      4  C   UNL     1      -4.028   5.823   7.188  1.00  0.00    -0.006 A 
ATOM      5  C   UNL     1      -3.647   7.164   6.873  1.00  0.00     0.039 A 
ATOM      6  C   UNL     1      -4.669   8.128   6.616  1.00  0.00     0.072 A 
ATOM      7  C   UNL     1      -6.025   7.766   6.743  1.00  0.00     0.169 A 
ATOM      8  C   UNL     1      -6.384   6.451   7.052  1.00  0.00     0.162 A 
ATOM      9  C   UNL     1      -5.405   5.440   7.162  1.00  0.00     0.008 A 
ATOM     10  C   UNL     1      -2.257   7.504   6.870  1.00  0.00     0.132 A 
ATOM     11  C   UNL     1      -1.281   6.533   7.178  1.00  0.00     0.031 A 
ENDROOT
BRANCH  11  12
ATOM     12  C   UNL     1       0.161   6.893   7.169  1.00  0.00     0.031 A 
ATOM     13  C   UNL     1       0.916   6.771   5.984  1.00  0.00     0.132 A 
ATOM     14  C   UNL     1       0.772   7.363   8.343  1.00  0.00    -0.039 A 
ATOM     15  C   UNL     1       2.291   7.147   5.964  1.00  0.00     0.039 A 
ATOM     16  C   UNL     1       2.146   7.609   8.350  1.00  0.00     0.013 A 
ATOM     17  C   UNL     1      -0.028   7.576   9.606  1.00  0.00     0.045 C 
ATOM     18  C   UNL     1       2.942   7.445   7.198  1.00  0.00    -0.006 A 
ATOM     19  C   UNL     1       3.034   7.219   4.754  1.00  0.00     0.072 A 
ATOM     20  C   UNL     1       4.367   7.575   7.242  1.00  0.00     0.008 A 
ATOM     21  C   UNL     1       4.420   7.454   4.792  1.00  0.00     0.169 A 
ATOM     22  C   UNL     1       5.089   7.571   6.024  1.00  0.00     0.162 A 
BRANCH  13  23
ATOM     23  O   UNL     1       0.316   6.232   4.841  1.00  0.00    -0.507 OA
ATOM     24  H   UNL     1       0.653   6.390   3.899  1.00  0.00     0.293 HD
ENDBRANCH  13  23
BRANCH  19  25
ATOM     25  C   UNL     1       2.371   7.213   3.427  1.00  0.00     0.264 C 
ATOM     26  O   UNL     1       2.369   8.238   2.694  1.00  0.00    -0.298 OA
ENDBRANCH  19  25
BRANCH  20  27
ATOM     27  C   UNL     1       5.176   7.690   8.553  1.00  0.00     0.017 C 
ATOM     28  C   UNL     1       4.588   8.738   9.508  1.00  0.00     0.012 C 
ATOM     29  C   UNL     1       5.471   6.341   9.241  1.00  0.00     0.012 C 
ENDBRANCH  20  27
BRANCH  21  30
ATOM     30  O   UNL     1       5.105   7.610   3.581  1.00  0.00    -0.504 OA
ATOM     31  H   UNL     1       5.277   8.496   3.129  1.00  0.00     0.293 HD
ENDBRANCH  21  30
BRANCH  22  32
ATOM     32  O   UNL     1       6.485   7.691   6.061  1.00  0.00    -0.504 OA
ATOM     33  H   UNL     1       6.996   8.208   6.760  1.00  0.00     0.293 HD
ENDBRANCH  22  32
ENDBRANCH  11  12
BRANCH  10  34
ATOM     34  O   UNL     1      -1.847   8.810   6.580  1.00  0.00    -0.507 OA
ATOM     35  H   UNL     1      -0.944   9.048   6.190  1.00  0.00     0.293 HD
ENDBRANCH  10  34
BRANCH   9  36
ATOM     36  C   UNL     1      -5.841   3.967   7.272  1.00  0.00     0.017 C 
ATOM     37  C   UNL     1      -6.498   3.693   8.627  1.00  0.00     0.012 C 
ATOM     38  C   UNL     1      -6.738   3.494   6.111  1.00  0.00     0.012 C 
ENDBRANCH   9  36
BRANCH   6  39
ATOM     39  C   UNL     1      -4.354   9.517   6.223  1.00  0.00     0.264 C 
ATOM     40  O   UNL     1      -5.074  10.125   5.387  1.00  0.00    -0.298 OA
ENDBRANCH   6  39
BRANCH   8  41
ATOM     41  O   UNL     1      -7.732   6.140   7.249  1.00  0.00    -0.504 OA
ATOM     42  H   UNL     1      -8.089   5.193   7.235  1.00  0.00     0.293 HD
ENDBRANCH   8  41
BRANCH   7  43
ATOM     43  O   UNL     1      -7.055   8.693   6.536  1.00  0.00    -0.504 OA
ATOM     44  H   UNL     1      -6.907   9.676   6.358  1.00  0.00     0.293 HD
ENDBRANCH   7  43
TORSDOF 11
ENDMDL
MODEL 2
REMARK VINA RESULT:    -5.214      0.489      8.888
REMARK INTER + INTRA:          -8.772
REMARK INTER:                  -7.561
REMARK INTRA:                  -1.210
REMARK UNBOUND:                -1.120
REMARK SMILES Cc1cc2c(C(C)C)c(O)c(O)c(C=O)c2c(O)c1-c1c(C)cc2c(C(C)C)c(O)c(O)c(C=O)c2c1O
REMARK SMILES IDX 1 1 2 2 3 3 4 4 16 5 13 6 11 7 9 8 5 9 17 10 19 11 20 12
REMARK SMILES IDX 37 13 21 14 36 15 23 16 22 17 24 18 33 19 25 20 31 21 29 22
REMARK SMILES IDX 38 23 34 25 35 26 26 27 27 28 28 29 32 30 30 32 18 34 6 36
REMARK SMILES IDX 7 37 8 38 14 39 15 40 10 41 12 43
REMARK H PARENT 38 24 32 31 30 33 18 35 10 42 12 44
REMARK Flexibility Score: inf
ROOT
ATOM      1  C   UNL     1       0.064   6.288   9.514  1.00  0.00     0.045 C 
ATOM      2  C   UNL     1       0.800   6.607   8.234  1.00  0.00    -0.039 A 
ATOM      3  C   UNL     1       2.174   6.841   8.282  1.00  0.00     0.013 A 
ATOM      4  C   UNL     1       2.918   7.168   7.127  1.00  0.00    -0.006 A 
ATOM      5  C   UNL     1       2.262   7.146   5.858  1.00  0.00     0.039 A 
ATOM      6  C   UNL     1       3.038   7.357   4.677  1.00  0.00     0.072 A 
ATOM      7  C   UNL     1       4.435   7.514   4.774  1.00  0.00     0.169 A 
ATOM      8  C   UNL     1       5.065   7.534   6.022  1.00  0.00     0.162 A 
ATOM      9  C   UNL     1       4.310   7.480   7.213  1.00  0.00     0.008 A 
ATOM     10  C   UNL     1       0.859   6.868   5.810  1.00  0.00     0.132 A 
ATOM     11  C   UNL     1       0.138   6.616   6.996  1.00  0.00     0.031 A 
ENDROOT
BRANCH  11  12
ATOM     12  C   UNL     1      -1.320   6.331   6.939  1.00  0.00     0.031 A 
ATOM     13  C   UNL     1      -2.251   7.390   6.967  1.00  0.00     0.132 A 
ATOM     14  C   UNL     1      -1.771   5.005   6.850  1.00  0.00    -0.039 A 
ATOM     15  C   UNL     1      -3.648   7.123   6.879  1.00  0.00     0.039 A 
ATOM     16  C   UNL     1      -3.141   4.742   6.892  1.00  0.00     0.013 A 
ATOM     17  C   UNL     1      -0.797   3.856   6.743  1.00  0.00     0.045 C 
ATOM     18  C   UNL     1      -4.100   5.773   6.975  1.00  0.00    -0.006 A 
ATOM     19  C   UNL     1      -4.605   8.162   6.712  1.00  0.00     0.072 A 
ATOM     20  C   UNL     1      -5.494   5.494   7.145  1.00  0.00     0.008 A 
ATOM     21  C   UNL     1      -5.979   7.870   6.773  1.00  0.00     0.169 A 
ATOM     22  C   UNL     1      -6.418   6.562   7.046  1.00  0.00     0.162 A 
BRANCH  13  23
ATOM     23  O   UNL     1      -1.794   8.702   7.130  1.00  0.00    -0.507 OA
ATOM     24  H   UNL     1      -0.817   8.966   7.111  1.00  0.00     0.293 HD
ENDBRANCH  13  23
BRANCH  19  25
ATOM     25  C   UNL     1      -4.207   9.535   6.315  1.00  0.00     0.264 C 
ATOM     26  O   UNL     1      -4.770  10.125   5.355  1.00  0.00    -0.298 OA
ENDBRANCH  19  25
BRANCH  20  27
ATOM     27  C   UNL     1      -6.053   4.090   7.465  1.00  0.00     0.017 C 
ATOM     28  C   UNL     1      -5.978   3.147   6.256  1.00  0.00     0.012 C 
ATOM     29  C   UNL     1      -5.498   3.462   8.760  1.00  0.00     0.012 C 
ENDBRANCH  20  27
BRANCH  21  30
ATOM     30  O   UNL     1      -6.892   8.899   6.515  1.00  0.00    -0.504 OA
ATOM     31  H   UNL     1      -7.651   8.840   5.852  1.00  0.00     0.293 HD
ENDBRANCH  21  30
BRANCH  22  32
ATOM     32  O   UNL     1      -7.783   6.297   7.220  1.00  0.00    -0.504 OA
ATOM     33  H   UNL     1      -8.457   6.966   7.559  1.00  0.00     0.293 HD
ENDBRANCH  22  32
ENDBRANCH  11  12
BRANCH  10  34
ATOM     34  O   UNL     1       0.186   6.824   4.584  1.00  0.00    -0.507 OA
ATOM     35  H   UNL     1      -0.800   7.025   4.471  1.00  0.00     0.293 HD
ENDBRANCH  10  34
BRANCH   9  36
ATOM     36  C   UNL     1       5.003   7.736   8.565  1.00  0.00     0.017 C 
ATOM     37  C   UNL     1       4.167   8.677   9.436  1.00  0.00     0.012 C 
ATOM     38  C   UNL     1       5.374   6.450   9.328  1.00  0.00     0.012 C 
ENDBRANCH   9  36
BRANCH   6  39
ATOM     39  C   UNL     1       2.423   7.412   3.335  1.00  0.00     0.264 C 
ATOM     40  O   UNL     1       2.335   8.504   2.714  1.00  0.00    -0.298 OA
ENDBRANCH   6  39
BRANCH   8  41
ATOM     41  O   UNL     1       6.458   7.612   6.082  1.00  0.00    -0.504 OA
ATOM     42  H   UNL     1       7.023   6.995   6.652  1.00  0.00     0.293 HD
ENDBRANCH   8  41
BRANCH   7  43
ATOM     43  O   UNL     1       5.235   7.686   3.636  1.00  0.00    -0.504 OA
ATOM     44  H   UNL     1       4.876   7.761   2.695  1.00  0.00     0.293 HD
ENDBRANCH   7  43
TORSDOF 11
ENDMDL
MODEL 3
REMARK VINA RESULT:    -5.179      1.690      3.247
REMARK INTER + INTRA:          -8.720
REMARK INTER:                  -7.212
REMARK INTRA:                  -1.508
REMARK UNBOUND:                -1.120
REMARK SMILES Cc1cc2c(C(C)C)c(O)c(O)c(C=O)c2c(O)c1-c1c(C)cc2c(C(C)C)c(O)c(O)c(C=O)c2c1O
REMARK SMILES IDX 1 1 2 2 3 3 4 4 16 5 13 6 11 7 9 8 5 9 17 10 19 11 20 12
REMARK SMILES IDX 37 13 21 14 36 15 23 16 22 17 24 18 33 19 25 20 31 21 29 22
REMARK SMILES IDX 38 23 34 25 35 26 26 27 27 28 28 29 32 30 30 32 18 34 6 36
REMARK SMILES IDX 7 37 8 38 14 39 15 40 10 41 12 43
REMARK H PARENT 38 24 32 31 30 33 18 35 10 42 12 44
REMARK Flexibility Score: inf
ROOT
ATOM      1  C   UNL     1      -0.687  10.027   7.467  1.00  0.00     0.045 C 
ATOM      2  C   UNL     1      -1.415   8.716   7.284  1.00  0.00    -0.039 A 
ATOM      3  C   UNL     1      -2.751   8.732   6.888  1.00  0.00     0.013 A 
ATOM      4  C   UNL     1      -3.497   7.544   6.722  1.00  0.00    -0.006 A 
ATOM      5  C   UNL     1      -2.827   6.288   6.854  1.00  0.00     0.039 A 
ATOM      6  C   UNL     1      -3.549   5.089   6.568  1.00  0.00     0.072 A 
ATOM      7  C   UNL     1      -4.876   5.163   6.098  1.00  0.00     0.169 A 
ATOM      8  C   UNL     1      -5.519   6.397   5.974  1.00  0.00     0.162 A 
ATOM      9  C   UNL     1      -4.887   7.588   6.392  1.00  0.00     0.008 A 
ATOM     10  C   UNL     1      -1.445   6.278   7.223  1.00  0.00     0.132 A 
ATOM     11  C   UNL     1      -0.755   7.488   7.449  1.00  0.00     0.031 A 
ENDROOT
BRANCH  11  12
ATOM     12  C   UNL     1       0.680   7.469   7.836  1.00  0.00     0.031 A 
ATOM     13  C   UNL     1       1.683   7.475   6.844  1.00  0.00     0.132 A 
ATOM     14  C   UNL     1       1.039   7.452   9.193  1.00  0.00    -0.039 A 
ATOM     15  C   UNL     1       3.060   7.491   7.212  1.00  0.00     0.039 A 
ATOM     16  C   UNL     1       2.385   7.339   9.546  1.00  0.00     0.013 A 
ATOM     17  C   UNL     1      -0.011   7.521  10.277  1.00  0.00     0.045 C 
ATOM     18  C   UNL     1       3.410   7.287   8.580  1.00  0.00    -0.006 A 
ATOM     19  C   UNL     1       4.093   7.688   6.254  1.00  0.00     0.072 A 
ATOM     20  C   UNL     1       4.774   7.044   8.941  1.00  0.00     0.008 A 
ATOM     21  C   UNL     1       5.440   7.554   6.635  1.00  0.00     0.169 A 
ATOM     22  C   UNL     1       5.775   7.178   7.949  1.00  0.00     0.162 A 
BRANCH  13  23
ATOM     23  O   UNL     1       1.315   7.418   5.495  1.00  0.00    -0.507 OA
ATOM     24  H   UNL     1       1.802   7.908   4.756  1.00  0.00     0.293 HD
ENDBRANCH  13  23
BRANCH  19  25
ATOM     25  C   UNL     1       3.808   8.191   4.888  1.00  0.00     0.264 C 
ATOM     26  O   UNL     1       4.065   7.494   3.871  1.00  0.00    -0.298 OA
ENDBRANCH  19  25
BRANCH  20  27
ATOM     27  C   UNL     1       5.221   6.610  10.354  1.00  0.00     0.017 C 
ATOM     28  C   UNL     1       5.122   7.756  11.371  1.00  0.00     0.012 C 
ATOM     29  C   UNL     1       4.577   5.300  10.853  1.00  0.00     0.012 C 
ENDBRANCH  20  27
BRANCH  21  30
ATOM     30  O   UNL     1       6.433   7.844   5.691  1.00  0.00    -0.504 OA
ATOM     31  H   UNL     1       6.971   8.697   5.670  1.00  0.00     0.293 HD
ENDBRANCH  21  30
BRANCH  22  32
ATOM     32  O   UNL     1       7.111   6.933   8.294  1.00  0.00    -0.504 OA
ATOM     33  H   UNL     1       7.879   6.930   7.641  1.00  0.00     0.293 HD
ENDBRANCH  22  32
ENDBRANCH  11  12
BRANCH  10  34
ATOM     34  O   UNL     1      -0.753   5.068   7.348  1.00  0.00    -0.507 OA
ATOM     35  H   UNL     1       0.207   4.931   7.057  1.00  0.00     0.293 HD
ENDBRANCH  10  34
BRANCH   9  36
ATOM     36  C   UNL     1      -5.697   8.896   6.460  1.00  0.00     0.017 C 
ATOM     37  C   UNL     1      -5.893   9.339   7.913  1.00  0.00     0.012 C 
ATOM     38  C   UNL     1      -5.115  10.036   5.602  1.00  0.00     0.012 C 
ENDBRANCH   9  36
BRANCH   6  39
ATOM     39  C   UNL     1      -2.945   3.752   6.741  1.00  0.00     0.264 C 
ATOM     40  O   UNL     1      -2.574   3.082   5.741  1.00  0.00    -0.298 OA
ENDBRANCH   6  39
BRANCH   8  41
ATOM     41  O   UNL     1      -6.806   6.444   5.432  1.00  0.00    -0.504 OA
ATOM     42  H   UNL     1      -7.594   5.952   5.833  1.00  0.00     0.293 HD
ENDBRANCH   8  41
BRANCH   7  43
ATOM     43  O   UNL     1      -5.604   4.011   5.771  1.00  0.00    -0.504 OA
ATOM     44  H   UNL     1      -6.007   3.382   6.452  1.00  0.00     0.293 HD
ENDBRANCH   7  43
TORSDOF 11
ENDMDL
MODEL 4
REMARK VINA RESULT:    -5.125      1.671      8.964
REMARK INTER + INTRA:          -8.642
REMARK INTER:                  -7.052
REMARK INTRA:                  -1.591
REMARK UNBOUND:                -1.120
REMARK SMILES Cc1cc2c(C(C)C)c(O)c(O)c(C=O)c2c(O)c1-c1c(C)cc2c(C(C)C)c(O)c(O)c(C=O)c2c1O
REMARK SMILES IDX 1 1 2 2 3 3 4 4 16 5 13 6 11 7 9 8 5 9 17 10 19 11 20 12
REMARK SMILES IDX 37 13 21 14 36 15 23 16 22 17 24 18 33 19 25 20 31 21 29 22
REMARK SMILES IDX 38 23 34 25 35 26 26 27 27 28 28 29 32 30 30 32 18 34 6 36
REMARK SMILES IDX 7 37 8 38 14 39 15 40 10 41 12 43
REMARK H PARENT 38 24 32 31 30 33 18 35 10 42 12 44
REMARK Flexibility Score: inf
ROOT
ATOM      1  C   UNL     1       0.341   6.552  10.588  1.00  0.00     0.045 C 
ATOM      2  C   UNL     1       1.293   6.926   9.476  1.00  0.00    -0.039 A 
ATOM      3  C   UNL     1       2.666   6.849   9.705  1.00  0.00     0.013 A 
ATOM      4  C   UNL     1       3.610   7.208   8.717  1.00  0.00    -0.006 A 
ATOM      5  C   UNL     1       3.142   7.548   7.410  1.00  0.00     0.039 A 
ATOM      6  C   UNL     1       4.098   7.793   6.378  1.00  0.00     0.072 A 
ATOM      7  C   UNL     1       5.473   7.630   6.641  1.00  0.00     0.169 A 
ATOM      8  C   UNL     1       5.918   7.296   7.924  1.00  0.00     0.162 A 
ATOM      9  C   UNL     1       5.011   7.196   9.000  1.00  0.00     0.008 A 
ATOM     10  C   UNL     1       1.732   7.588   7.170  1.00  0.00     0.132 A 
ATOM     11  C   UNL     1       0.820   7.292   8.206  1.00  0.00     0.031 A 
ENDROOT
BRANCH  11  12
ATOM     12  C   UNL     1      -0.643   7.339   7.950  1.00  0.00     0.031 A 
ATOM     13  C   UNL     1      -1.320   6.191   7.488  1.00  0.00     0.132 A 
ATOM     14  C   UNL     1      -1.355   8.528   8.174  1.00  0.00    -0.039 A 
ATOM     15  C   UNL     1      -2.728   6.223   7.273  1.00  0.00     0.039 A 
ATOM     16  C   UNL     1      -2.709   8.590   7.841  1.00  0.00     0.013 A 
ATOM     17  C   UNL     1      -0.671   9.750   8.739  1.00  0.00     0.045 C 
ATOM     18  C   UNL     1      -3.406   7.477   7.326  1.00  0.00    -0.006 A 
ATOM     19  C   UNL     1      -3.475   5.045   6.993  1.00  0.00     0.072 A 
ATOM     20  C   UNL     1      -4.758   7.581   6.869  1.00  0.00     0.008 A 
ATOM     21  C   UNL     1      -4.834   5.139   6.647  1.00  0.00     0.169 A 
ATOM     22  C   UNL     1      -5.454   6.396   6.527  1.00  0.00     0.162 A 
BRANCH  13  23
ATOM     23  O   UNL     1      -0.589   5.033   7.197  1.00  0.00    -0.507 OA
ATOM     24  H   UNL     1      -0.321   4.346   7.891  1.00  0.00     0.293 HD
ENDBRANCH  13  23
BRANCH  19  25
ATOM     25  C   UNL     1      -2.908   3.690   7.207  1.00  0.00     0.264 C 
ATOM     26  O   UNL     1      -2.615   2.946   6.234  1.00  0.00    -0.298 OA
ENDBRANCH  19  25
BRANCH  20  27
ATOM     27  C   UNL     1      -5.502   8.923   6.693  1.00  0.00     0.017 C 
ATOM     28  C   UNL     1      -5.933   9.528   8.036  1.00  0.00     0.012 C 
ATOM     29  C   UNL     1      -4.785   9.935   5.775  1.00  0.00     0.012 C 
ENDBRANCH  20  27
BRANCH  21  30
ATOM     30  O   UNL     1      -5.561   3.956   6.466  1.00  0.00    -0.504 OA
ATOM     31  H   UNL     1      -5.227   3.151   5.957  1.00  0.00     0.293 HD
ENDBRANCH  21  30
BRANCH  22  32
ATOM     32  O   UNL     1      -6.776   6.492   6.071  1.00  0.00    -0.504 OA
ATOM     33  H   UNL     1      -7.562   6.752   6.647  1.00  0.00     0.293 HD
ENDBRANCH  22  32
ENDBRANCH  11  12
BRANCH  10  34
ATOM     34  O   UNL     1       1.237   7.905   5.900  1.00  0.00    -0.507 OA
ATOM     35  H   UNL     1       1.606   8.645   5.316  1.00  0.00     0.293 HD
ENDBRANCH  10  34
BRANCH   9  36
ATOM     36  C   UNL     1       5.548   7.058  10.437  1.00  0.00     0.017 C 
ATOM     37  C   UNL     1       6.092   5.648  10.682  1.00  0.00     0.012 C 
ATOM     38  C   UNL     1       6.585   8.131  10.821  1.00  0.00     0.012 C 
ENDBRANCH   9  36
BRANCH   6  39
ATOM     39  C   UNL     1       3.695   8.211   5.020  1.00  0.00     0.264 C 
ATOM     40  O   UNL     1       3.881   7.450   4.033  1.00  0.00    -0.298 OA
ENDBRANCH   6  39
BRANCH   8  41
ATOM     41  O   UNL     1       7.279   7.064   8.135  1.00  0.00    -0.504 OA
ATOM     42  H   UNL     1       7.990   7.279   7.447  1.00  0.00     0.293 HD
ENDBRANCH   8  41
BRANCH   7  43
ATOM     43  O   UNL     1       6.440   7.824   5.645  1.00  0.00    -0.504 OA
ATOM     44  H   UNL     1       7.063   7.102   5.310  1.00  0.00     0.293 HD
ENDBRANCH   7  43
TORSDOF 11
ENDMDL
MODEL 5
REMARK VINA RESULT:    -5.065      6.386      9.827
REMARK INTER + INTRA:          -8.554
REMARK INTER:                  -7.080
REMARK INTRA:                  -1.473
REMARK UNBOUND:                -1.120
REMARK SMILES Cc1cc2c(C(C)C)c(O)c(O)c(C=O)c2c(O)c1-c1c(C)cc2c(C(C)C)c(O)c(O)c(C=O)c2c1O
REMARK SMILES IDX 1 1 2 2 3 3 4 4 16 5 13 6 11 7 9 8 5 9 17 10 19 11 20 12
REMARK SMILES IDX 37 13 21 14 36 15 23 16 22 17 24 18 33 19 25 20 31 21 29 22
REMARK SMILES IDX 38 23 34 25 35 26 26 27 27 28 28 29 32 30 30 32 18 34 6 36
REMARK SMILES IDX 7 37 8 38 14 39 15 40 10 41 12 43
REMARK H PARENT 38 24 32 31 30 33 18 35 10 42 12 44
REMARK Flexibility Score: inf
ROOT
ATOM      1  C   UNL     1       3.172   1.508   7.189  1.00  0.00     0.045 C 
ATOM      2  C   UNL     1       3.983   2.743   7.501  1.00  0.00    -0.039 A 
ATOM      3  C   UNL     1       3.320   3.933   7.799  1.00  0.00     0.013 A 
ATOM      4  C   UNL     1       4.018   5.129   8.076  1.00  0.00    -0.006 A 
ATOM      5  C   UNL     1       5.444   5.088   8.165  1.00  0.00     0.039 A 
ATOM      6  C   UNL     1       6.143   6.269   8.564  1.00  0.00     0.072 A 
ATOM      7  C   UNL     1       5.423   7.424   8.927  1.00  0.00     0.169 A 
ATOM      8  C   UNL     1       4.028   7.451   8.836  1.00  0.00     0.162 A 
ATOM      9  C   UNL     1       3.317   6.354   8.301  1.00  0.00     0.008 A 
ATOM     10  C   UNL     1       6.118   3.856   7.896  1.00  0.00     0.132 A 
ATOM     11  C   UNL     1       5.386   2.699   7.553  1.00  0.00     0.031 A 
ENDROOT
BRANCH  11  12
ATOM     12  C   UNL     1       6.093   1.422   7.271  1.00  0.00     0.031 A 
ATOM     13  C   UNL     1       6.537   1.131   5.965  1.00  0.00     0.132 A 
ATOM     14  C   UNL     1       6.326   0.507   8.310  1.00  0.00    -0.039 A 
ATOM     15  C   UNL     1       7.245  -0.077   5.698  1.00  0.00     0.039 A 
ATOM     16  C   UNL     1       6.906  -0.729   8.018  1.00  0.00     0.013 A 
ATOM     17  C   UNL     1       5.929   0.826   9.732  1.00  0.00     0.045 C 
ATOM     18  C   UNL     1       7.312  -1.076   6.714  1.00  0.00    -0.006 A 
ATOM     19  C   UNL     1       7.872  -0.322   4.444  1.00  0.00     0.072 A 
ATOM     20  C   UNL     1       7.788  -2.389   6.398  1.00  0.00     0.008 A 
ATOM     21  C   UNL     1       8.436  -1.580   4.173  1.00  0.00     0.169 A 
ATOM     22  C   UNL     1       8.342  -2.621   5.115  1.00  0.00     0.162 A 
BRANCH  13  23
ATOM     23  O   UNL     1       6.235   2.015   4.923  1.00  0.00    -0.507 OA
ATOM     24  H   UNL     1       5.312   2.119   4.520  1.00  0.00     0.293 HD
ENDBRANCH  13  23
BRANCH  19  25
ATOM     25  C   UNL     1       8.097   0.764   3.458  1.00  0.00     0.264 C 
ATOM     26  O   UNL     1       7.454   0.803   2.375  1.00  0.00    -0.298 OA
ENDBRANCH  19  25
BRANCH  20  27
ATOM     27  C   UNL     1       7.705  -3.586   7.369  1.00  0.00     0.017 C 
ATOM     28  C   UNL     1       8.706  -3.466   8.526  1.00  0.00     0.012 C 
ATOM     29  C   UNL     1       6.276  -3.930   7.837  1.00  0.00     0.012 C 
ENDBRANCH  20  27
BRANCH  21  30
ATOM     30  O   UNL     1       9.124  -1.758   2.967  1.00  0.00    -0.504 OA
ATOM     31  H   UNL     1       9.765  -1.088   2.569  1.00  0.00     0.293 HD
ENDBRANCH  21  30
BRANCH  22  32
ATOM     32  O   UNL     1       8.803  -3.906   4.797  1.00  0.00    -0.504 OA
ATOM     33  H   UNL     1       9.675  -4.101   4.329  1.00  0.00     0.293 HD
ENDBRANCH  22  32
ENDBRANCH  11  12
BRANCH  10  34
ATOM     34  O   UNL     1       7.512   3.774   7.987  1.00  0.00    -0.507 OA
ATOM     35  H   UNL     1       8.113   3.471   7.231  1.00  0.00     0.293 HD
ENDBRANCH  10  34
BRANCH   9  36
ATOM     36  C   UNL     1       1.814   6.498   7.997  1.00  0.00     0.017 C 
ATOM     37  C   UNL     1       1.001   6.568   9.292  1.00  0.00     0.012 C 
ATOM     38  C   UNL     1       1.477   7.675   7.061  1.00  0.00     0.012 C 
ENDBRANCH   9  36
BRANCH   6  39
ATOM     39  C   UNL     1       7.619   6.324   8.619  1.00  0.00     0.264 C 
ATOM     40  O   UNL     1       8.297   6.395   7.560  1.00  0.00    -0.298 OA
ENDBRANCH   6  39
BRANCH   8  41
ATOM     41  O   UNL     1       3.337   8.581   9.276  1.00  0.00    -0.504 OA
ATOM     42  H   UNL     1       3.219   8.812  10.255  1.00  0.00     0.293 HD
ENDBRANCH   8  41
BRANCH   7  43
ATOM     43  O   UNL     1       6.071   8.589   9.359  1.00  0.00    -0.504 OA
ATOM     44  H   UNL     1       7.060   8.648   9.557  1.00  0.00     0.293 HD
ENDBRANCH   7  43
TORSDOF 11
ENDMDL
MODEL 6
REMARK VINA RESULT:    -4.984      6.732     10.642
REMARK INTER + INTRA:          -8.434
REMARK INTER:                  -7.149
REMARK INTRA:                  -1.285
REMARK UNBOUND:                -1.120
REMARK SMILES Cc1cc2c(C(C)C)c(O)c(O)c(C=O)c2c(O)c1-c1c(C)cc2c(C(C)C)c(O)c(O)c(C=O)c2c1O
REMARK SMILES IDX 1 1 2 2 3 3 4 4 16 5 13 6 11 7 9 8 5 9 17 10 19 11 20 12
REMARK SMILES IDX 37 13 21 14 36 15 23 16 22 17 24 18 33 19 25 20 31 21 29 22
REMARK SMILES IDX 38 23 34 25 35 26 26 27 27 28 28 29 32 30 30 32 18 34 6 36
REMARK SMILES IDX 7 37 8 38 14 39 15 40 10 41 12 43
REMARK H PARENT 38 24 32 31 30 33 18 35 10 42 12 44
REMARK Flexibility Score: inf
ROOT
ATOM      1  C   UNL     1       7.845   1.942   9.328  1.00  0.00     0.045 C 
ATOM      2  C   UNL     1       7.020   3.036   8.694  1.00  0.00    -0.039 A 
ATOM      3  C   UNL     1       6.929   4.274   9.330  1.00  0.00     0.013 A 
ATOM      4  C   UNL     1       6.155   5.331   8.804  1.00  0.00    -0.006 A 
ATOM      5  C   UNL     1       5.540   5.162   7.524  1.00  0.00     0.039 A 
ATOM      6  C   UNL     1       4.858   6.271   6.936  1.00  0.00     0.072 A 
ATOM      7  C   UNL     1       4.860   7.522   7.586  1.00  0.00     0.169 A 
ATOM      8  C   UNL     1       5.464   7.673   8.837  1.00  0.00     0.162 A 
ATOM      9  C   UNL     1       6.013   6.563   9.514  1.00  0.00     0.008 A 
ATOM     10  C   UNL     1       5.668   3.903   6.857  1.00  0.00     0.132 A 
ATOM     11  C   UNL     1       6.393   2.848   7.452  1.00  0.00     0.031 A 
ENDROOT
BRANCH  11  12
ATOM     12  C   UNL     1       6.518   1.541   6.754  1.00  0.00     0.031 A 
ATOM     13  C   UNL     1       5.517   0.559   6.902  1.00  0.00     0.132 A 
ATOM     14  C   UNL     1       7.633   1.286   5.941  1.00  0.00    -0.039 A 
ATOM     15  C   UNL     1       5.618  -0.682   6.209  1.00  0.00     0.039 A 
ATOM     16  C   UNL     1       7.790   0.024   5.366  1.00  0.00     0.013 A 
ATOM     17  C   UNL     1       8.683   2.346   5.704  1.00  0.00     0.045 C 
ATOM     18  C   UNL     1       6.836  -1.000   5.537  1.00  0.00    -0.006 A 
ATOM     19  C   UNL     1       4.546  -1.618   6.179  1.00  0.00     0.072 A 
ATOM     20  C   UNL     1       7.061  -2.328   5.053  1.00  0.00     0.008 A 
ATOM     21  C   UNL     1       4.737  -2.887   5.606  1.00  0.00     0.169 A 
ATOM     22  C   UNL     1       5.997  -3.261   5.102  1.00  0.00     0.162 A 
BRANCH  13  23
ATOM     23  O   UNL     1       4.447   0.794   7.773  1.00  0.00    -0.507 OA
ATOM     24  H   UNL     1       3.853   0.065   8.147  1.00  0.00     0.293 HD
ENDBRANCH  13  23
BRANCH  19  25
ATOM     25  C   UNL     1       3.171  -1.245   6.593  1.00  0.00     0.264 C 
ATOM     26  O   UNL     1       2.653  -1.723   7.637  1.00  0.00    -0.298 OA
ENDBRANCH  19  25
BRANCH  20  27
ATOM     27  C   UNL     1       8.418  -2.820   4.504  1.00  0.00     0.017 C 
ATOM     28  C   UNL     1       9.009  -3.956   5.349  1.00  0.00     0.012 C 
ATOM     29  C   UNL     1       8.421  -3.125   2.991  1.00  0.00     0.012 C 
ENDBRANCH  20  27
BRANCH  21  30
ATOM     30  O   UNL     1       3.637  -3.749   5.511  1.00  0.00    -0.504 OA
ATOM     31  H   UNL     1       3.266  -4.290   6.278  1.00  0.00     0.293 HD
ENDBRANCH  21  30
BRANCH  22  32
ATOM     32  O   UNL     1       6.213  -4.565   4.638  1.00  0.00    -0.504 OA
ATOM     33  H   UNL     1       7.111  -5.025   4.622  1.00  0.00     0.293 HD
ENDBRANCH  22  32
ENDBRANCH  11  12
BRANCH  10  34
ATOM     34  O   UNL     1       5.092   3.705   5.598  1.00  0.00    -0.507 OA
ATOM     35  H   UNL     1       4.431   4.342   5.170  1.00  0.00     0.293 HD
ENDBRANCH  10  34
BRANCH   9  36
ATOM     36  C   UNL     1       6.462   6.712  10.980  1.00  0.00     0.017 C 
ATOM     37  C   UNL     1       7.474   7.852  11.127  1.00  0.00     0.012 C 
ATOM     38  C   UNL     1       5.296   6.868  11.976  1.00  0.00     0.012 C 
ENDBRANCH   9  36
BRANCH   6  39
ATOM     39  C   UNL     1       4.146   6.157   5.647  1.00  0.00     0.264 C 
ATOM     40  O   UNL     1       4.584   6.739   4.619  1.00  0.00    -0.298 OA
ENDBRANCH   6  39
BRANCH   8  41
ATOM     41  O   UNL     1       5.518   8.942   9.420  1.00  0.00    -0.504 OA
ATOM     42  H   UNL     1       4.980   9.198  10.238  1.00  0.00     0.293 HD
ENDBRANCH   8  41
BRANCH   7  43
ATOM     43  O   UNL     1       4.234   8.642   7.023  1.00  0.00    -0.504 OA
ATOM     44  H   UNL     1       4.527   9.596   7.183  1.00  0.00     0.293 HD
ENDBRANCH   7  43
TORSDOF 11
ENDMDL
MODEL 7
REMARK VINA RESULT:    -4.893      2.199      3.961
REMARK INTER + INTRA:          -8.302
REMARK INTER:                  -6.789
REMARK INTRA:                  -1.512
REMARK UNBOUND:                -1.120
REMARK SMILES Cc1cc2c(C(C)C)c(O)c(O)c(C=O)c2c(O)c1-c1c(C)cc2c(C(C)C)c(O)c(O)c(C=O)c2c1O
REMARK SMILES IDX 1 1 2 2 3 3 4 4 16 5 13 6 11 7 9 8 5 9 17 10 19 11 20 12
REMARK SMILES IDX 37 13 21 14 36 15 23 16 22 17 24 18 33 19 25 20 31 21 29 22
REMARK SMILES IDX 38 23 34 25 35 26 26 27 27 28 28 29 32 30 30 32 18 34 6 36
REMARK SMILES IDX 7 37 8 38 14 39 15 40 10 41 12 43
REMARK H PARENT 38 24 32 31 30 33 18 35 10 42 12 44
REMARK Flexibility Score: inf
ROOT
ATOM      1  C   UNL     1      -3.042   4.162   7.723  1.00  0.00     0.045 C 
ATOM      2  C   UNL     1      -4.041   4.971   6.929  1.00  0.00    -0.039 A 
ATOM      3  C   UNL     1      -5.400   4.687   7.059  1.00  0.00     0.013 A 
ATOM      4  C   UNL     1      -6.384   5.388   6.328  1.00  0.00    -0.006 A 
ATOM      5  C   UNL     1      -5.981   6.495   5.519  1.00  0.00     0.039 A 
ATOM      6  C   UNL     1      -6.986   7.280   4.875  1.00  0.00     0.072 A 
ATOM      7  C   UNL     1      -8.349   6.998   5.099  1.00  0.00     0.169 A 
ATOM      8  C   UNL     1      -8.730   5.912   5.892  1.00  0.00     0.162 A 
ATOM      9  C   UNL     1      -7.764   5.027   6.419  1.00  0.00     0.008 A 
ATOM     10  C   UNL     1      -4.588   6.806   5.419  1.00  0.00     0.132 A 
ATOM     11  C   UNL     1      -3.630   6.035   6.111  1.00  0.00     0.031 A 
ENDROOT
BRANCH  11  12
ATOM     12  C   UNL     1      -2.184   6.362   5.999  1.00  0.00     0.031 A 
ATOM     13  C   UNL     1      -1.567   7.185   6.963  1.00  0.00     0.132 A 
ATOM     14  C   UNL     1      -1.430   5.846   4.934  1.00  0.00    -0.039 A 
ATOM     15  C   UNL     1      -0.174   7.474   6.878  1.00  0.00     0.039 A 
ATOM     16  C   UNL     1      -0.098   6.234   4.784  1.00  0.00     0.013 A 
ATOM     17  C   UNL     1      -2.047   4.901   3.929  1.00  0.00     0.045 C 
ATOM     18  C   UNL     1       0.537   7.099   5.699  1.00  0.00    -0.006 A 
ATOM     19  C   UNL     1       0.524   8.138   7.925  1.00  0.00     0.072 A 
ATOM     20  C   UNL     1       1.861   7.594   5.473  1.00  0.00     0.008 A 
ATOM     21  C   UNL     1       1.861   8.530   7.741  1.00  0.00     0.169 A 
ATOM     22  C   UNL     1       2.505   8.314   6.508  1.00  0.00     0.162 A 
BRANCH  13  23
ATOM     23  O   UNL     1      -2.343   7.755   7.979  1.00  0.00    -0.507 OA
ATOM     24  H   UNL     1      -2.643   8.722   7.985  1.00  0.00     0.293 HD
ENDBRANCH  13  23
BRANCH  19  25
ATOM     25  C   UNL     1      -0.062   8.295   9.279  1.00  0.00     0.264 C 
ATOM     26  O   UNL     1      -0.451   9.419   9.694  1.00  0.00    -0.298 OA
ENDBRANCH  19  25
BRANCH  20  27
ATOM     27  C   UNL     1       2.626   7.415   4.143  1.00  0.00     0.017 C 
ATOM     28  C   UNL     1       3.053   5.959   3.911  1.00  0.00     0.012 C 
ATOM     29  C   UNL     1       1.933   8.047   2.918  1.00  0.00     0.012 C 
ENDBRANCH  20  27
BRANCH  21  30
ATOM     30  O   UNL     1       2.545   9.099   8.822  1.00  0.00    -0.504 OA
ATOM     31  H   UNL     1       3.126   9.922   8.763  1.00  0.00     0.293 HD
ENDBRANCH  21  30
BRANCH  22  32
ATOM     32  O   UNL     1       3.797   8.808   6.290  1.00  0.00    -0.504 OA
ATOM     33  H   UNL     1       4.017   9.776   6.106  1.00  0.00     0.293 HD
ENDBRANCH  22  32
ENDBRANCH  11  12
BRANCH  10  34
ATOM     34  O   UNL     1      -4.157   7.891   4.647  1.00  0.00    -0.507 OA
ATOM     35  H   UNL     1      -4.687   8.289   3.882  1.00  0.00     0.293 HD
ENDBRANCH  10  34
BRANCH   9  36
ATOM     36  C   UNL     1      -8.219   3.718   7.090  1.00  0.00     0.017 C 
ATOM     37  C   UNL     1      -9.065   4.007   8.332  1.00  0.00     0.012 C 
ATOM     38  C   UNL     1      -8.941   2.746   6.136  1.00  0.00     0.012 C 
ENDBRANCH   9  36
BRANCH   6  39
ATOM     39  C   UNL     1      -6.646   8.400   3.973  1.00  0.00     0.264 C 
ATOM     40  O   UNL     1      -6.674   8.247   2.723  1.00  0.00    -0.298 OA
ENDBRANCH   6  39
BRANCH   8  41
ATOM     41  O   UNL     1     -10.085   5.705   6.160  1.00  0.00    -0.504 OA
ATOM     42  H   UNL     1     -10.489   5.807   7.082  1.00  0.00     0.293 HD
ENDBRANCH   8  41
BRANCH   7  43
ATOM     43  O   UNL     1      -9.363   7.768   4.515  1.00  0.00    -0.504 OA
ATOM     44  H   UNL     1      -9.341   8.776   4.443  1.00  0.00     0.293 HD
ENDBRANCH   7  43
TORSDOF 11
ENDMDL
MODEL 8
REMARK VINA RESULT:    -4.859      6.757     10.455
REMARK INTER + INTRA:          -8.252
REMARK INTER:                  -6.710
REMARK INTRA:                  -1.542
REMARK UNBOUND:                -1.120
REMARK SMILES Cc1cc2c(C(C)C)c(O)c(O)c(C=O)c2c(O)c1-c1c(C)cc2c(C(C)C)c(O)c(O)c(C=O)c2c1O
REMARK SMILES IDX 1 1 2 2 3 3 4 4 16 5 13 6 11 7 9 8 5 9 17 10 19 11 20 12
REMARK SMILES IDX 37 13 21 14 36 15 23 16 22 17 24 18 33 19 25 20 31 21 29 22
REMARK SMILES IDX 38 23 34 25 35 26 26 27 27 28 28 29 32 30 30 32 18 34 6 36
REMARK SMILES IDX 7 37 8 38 14 39 15 40 10 41 12 43
REMARK H PARENT 38 24 32 31 30 33 18 35 10 42 12 44
REMARK Flexibility Score: inf
ROOT
ATOM      1  C   UNL     1       2.694   1.467   7.883  1.00  0.00     0.045 C 
ATOM      2  C   UNL     1       3.631   2.643   8.028  1.00  0.00    -0.039 A 
ATOM      3  C   UNL     1       3.098   3.909   8.271  1.00  0.00     0.013 A 
ATOM      4  C   UNL     1       3.916   5.053   8.392  1.00  0.00    -0.006 A 
ATOM      5  C   UNL     1       5.336   4.889   8.380  1.00  0.00     0.039 A 
ATOM      6  C   UNL     1       6.164   6.027   8.623  1.00  0.00     0.072 A 
ATOM      7  C   UNL     1       5.576   7.269   8.938  1.00  0.00     0.169 A 
ATOM      8  C   UNL     1       4.186   7.417   8.947  1.00  0.00     0.162 A 
ATOM      9  C   UNL     1       3.343   6.352   8.563  1.00  0.00     0.008 A 
ATOM     10  C   UNL     1       5.878   3.582   8.168  1.00  0.00     0.132 A 
ATOM     11  C   UNL     1       5.023   2.474   7.980  1.00  0.00     0.031 A 
ENDROOT
BRANCH  11  12
ATOM     12  C   UNL     1       5.594   1.119   7.757  1.00  0.00     0.031 A 
ATOM     13  C   UNL     1       5.916   0.296   8.856  1.00  0.00     0.132 A 
ATOM     14  C   UNL     1       5.807   0.656   6.449  1.00  0.00    -0.039 A 
ATOM     15  C   UNL     1       6.432  -1.016   8.645  1.00  0.00     0.039 A 
ATOM     16  C   UNL     1       6.430  -0.577   6.251  1.00  0.00     0.013 A 
ATOM     17  C   UNL     1       5.401   1.485   5.254  1.00  0.00     0.045 C 
ATOM     18  C   UNL     1       6.815  -1.403   7.327  1.00  0.00    -0.006 A 
ATOM     19  C   UNL     1       6.590  -1.943   9.713  1.00  0.00     0.072 A 
ATOM     20  C   UNL     1       7.565  -2.605   7.122  1.00  0.00     0.008 A 
ATOM     21  C   UNL     1       7.234  -3.172   9.487  1.00  0.00     0.169 A 
ATOM     22  C   UNL     1       7.769  -3.475   8.221  1.00  0.00     0.162 A 
BRANCH  13  23
ATOM     23  O   UNL     1       5.770   0.796  10.155  1.00  0.00    -0.507 OA
ATOM     24  H   UNL     1       6.293   0.456  10.952  1.00  0.00     0.293 HD
ENDBRANCH  13  23
BRANCH  19  25
ATOM     25  C   UNL     1       5.955  -1.729  11.036  1.00  0.00     0.264 C 
ATOM     26  O   UNL     1       6.647  -1.470  12.056  1.00  0.00    -0.298 OA
ENDBRANCH  19  25
BRANCH  20  27
ATOM     27  C   UNL     1       8.199  -2.999   5.771  1.00  0.00     0.017 C 
ATOM     28  C   UNL     1       7.160  -3.533   4.776  1.00  0.00     0.012 C 
ATOM     29  C   UNL     1       9.125  -1.925   5.163  1.00  0.00     0.012 C 
ENDBRANCH  20  27
BRANCH  21  30
ATOM     30  O   UNL     1       7.292  -4.098  10.535  1.00  0.00    -0.504 OA
ATOM     31  H   UNL     1       7.945  -4.867  10.585  1.00  0.00     0.293 HD
ENDBRANCH  21  30
BRANCH  22  32
ATOM     32  O   UNL     1       8.509  -4.649   8.029  1.00  0.00    -0.504 OA
ATOM     33  H   UNL     1       8.359  -5.509   8.534  1.00  0.00     0.293 HD
ENDBRANCH  22  32
ENDBRANCH  11  12
BRANCH  10  34
ATOM     34  O   UNL     1       7.262   3.380   8.162  1.00  0.00    -0.507 OA
ATOM     35  H   UNL     1       7.750   2.777   8.813  1.00  0.00     0.293 HD
ENDBRANCH  10  34
BRANCH   9  36
ATOM     36  C   UNL     1       1.838   6.609   8.359  1.00  0.00     0.017 C 
ATOM     37  C   UNL     1       1.140   6.851   9.700  1.00  0.00     0.012 C 
ATOM     38  C   UNL     1       1.529   7.738   7.357  1.00  0.00     0.012 C 
ENDBRANCH   9  36
BRANCH   6  39
ATOM     39  C   UNL     1       7.638   5.950   8.564  1.00  0.00     0.264 C 
ATOM     40  O   UNL     1       8.260   6.344   7.542  1.00  0.00    -0.298 OA
ENDBRANCH   6  39
BRANCH   8  41
ATOM     41  O   UNL     1       3.632   8.637   9.340  1.00  0.00    -0.504 OA
ATOM     42  H   UNL     1       3.121   8.761  10.204  1.00  0.00     0.293 HD
ENDBRANCH   8  41
BRANCH   7  43
ATOM     43  O   UNL     1       6.355   8.399   9.220  1.00  0.00    -0.504 OA
ATOM     44  H   UNL     1       6.709   9.034   8.519  1.00  0.00     0.293 HD
ENDBRANCH   7  43
TORSDOF 11
ENDMDL
MODEL 9
REMARK VINA RESULT:    -4.814      1.913      2.347
REMARK INTER + INTRA:          -8.186
REMARK INTER:                  -6.751
REMARK INTRA:                  -1.435
REMARK UNBOUND:                -1.120
REMARK SMILES Cc1cc2c(C(C)C)c(O)c(O)c(C=O)c2c(O)c1-c1c(C)cc2c(C(C)C)c(O)c(O)c(C=O)c2c1O
REMARK SMILES IDX 1 1 2 2 3 3 4 4 16 5 13 6 11 7 9 8 5 9 17 10 19 11 20 12
REMARK SMILES IDX 37 13 21 14 36 15 23 16 22 17 24 18 33 19 25 20 31 21 29 22
REMARK SMILES IDX 38 23 34 25 35 26 26 27 27 28 28 29 32 30 30 32 18 34 6 36
REMARK SMILES IDX 7 37 8 38 14 39 15 40 10 41 12 43
REMARK H PARENT 38 24 32 31 30 33 18 35 10 42 12 44
REMARK Flexibility Score: inf
ROOT
ATOM      1  C   UNL     1      -0.800   4.207   6.919  1.00  0.00     0.045 C 
ATOM      2  C   UNL     1      -1.571   5.441   7.324  1.00  0.00    -0.039 A 
ATOM      3  C   UNL     1      -2.946   5.488   7.093  1.00  0.00     0.013 A 
ATOM      4  C   UNL     1      -3.722   6.620   7.424  1.00  0.00    -0.006 A 
ATOM      5  C   UNL     1      -3.098   7.701   8.120  1.00  0.00     0.039 A 
ATOM      6  C   UNL     1      -3.906   8.793   8.563  1.00  0.00     0.072 A 
ATOM      7  C   UNL     1      -5.302   8.758   8.371  1.00  0.00     0.169 A 
ATOM      8  C   UNL     1      -5.900   7.694   7.689  1.00  0.00     0.162 A 
ATOM      9  C   UNL     1      -5.114   6.676   7.106  1.00  0.00     0.008 A 
ATOM     10  C   UNL     1      -1.695   7.632   8.389  1.00  0.00     0.132 A 
ATOM     11  C   UNL     1      -0.941   6.512   7.977  1.00  0.00     0.031 A 
ENDROOT
BRANCH  11  12
ATOM     12  C   UNL     1       0.518   6.449   8.257  1.00  0.00     0.031 A 
ATOM     13  C   UNL     1       1.444   6.921   7.304  1.00  0.00     0.132 A 
ATOM     14  C   UNL     1       0.974   5.923   9.475  1.00  0.00    -0.039 A 
ATOM     15  C   UNL     1       2.841   6.892   7.582  1.00  0.00     0.039 A 
ATOM     16  C   UNL     1       2.346   5.780   9.690  1.00  0.00     0.013 A 
ATOM     17  C   UNL     1       0.004   5.479  10.544  1.00  0.00     0.045 C 
ATOM     18  C   UNL     1       3.300   6.191   8.737  1.00  0.00    -0.006 A 
ATOM     19  C   UNL     1       3.791   7.529   6.736  1.00  0.00     0.072 A 
ATOM     20  C   UNL     1       4.697   5.927   8.906  1.00  0.00     0.008 A 
ATOM     21  C   UNL     1       5.167   7.356   6.968  1.00  0.00     0.169 A 
ATOM     22  C   UNL     1       5.616   6.516   8.004  1.00  0.00     0.162 A 
BRANCH  13  23
ATOM     23  O   UNL     1       0.982   7.375   6.063  1.00  0.00    -0.507 OA
ATOM     24  H   UNL     1       1.450   7.191   5.185  1.00  0.00     0.293 HD
ENDBRANCH  13  23
BRANCH  19  25
ATOM     25  C   UNL     1       3.383   8.508   5.699  1.00  0.00     0.264 C 
ATOM     26  O   UNL     1       2.930   9.640   6.015  1.00  0.00    -0.298 OA
ENDBRANCH  19  25
BRANCH  20  27
ATOM     27  C   UNL     1       5.266   5.005  10.006  1.00  0.00     0.017 C 
ATOM     28  C   UNL     1       5.250   5.671  11.389  1.00  0.00     0.012 C 
ATOM     29  C   UNL     1       4.675   3.580  10.012  1.00  0.00     0.012 C 
ENDBRANCH  20  27
BRANCH  21  30
ATOM     30  O   UNL     1       6.073   8.068   6.172  1.00  0.00    -0.504 OA
ATOM     31  H   UNL     1       6.590   8.879   6.479  1.00  0.00     0.293 HD
ENDBRANCH  21  30
BRANCH  22  32
ATOM     32  O   UNL     1       6.983   6.256   8.160  1.00  0.00    -0.504 OA
ATOM     33  H   UNL     1       7.583   6.723   8.824  1.00  0.00     0.293 HD
ENDBRANCH  22  32
ENDBRANCH  11  12
BRANCH  10  34
ATOM     34  O   UNL     1      -1.052   8.666   9.080  1.00  0.00    -0.507 OA
ATOM     35  H   UNL     1      -0.334   8.520   9.778  1.00  0.00     0.293 HD
ENDBRANCH  10  34
BRANCH   9  36
ATOM     36  C   UNL     1      -5.775   5.648   6.169  1.00  0.00     0.017 C 
ATOM     37  C   UNL     1      -6.707   4.718   6.950  1.00  0.00     0.012 C 
ATOM     38  C   UNL     1      -6.498   6.279   4.963  1.00  0.00     0.012 C 
ENDBRANCH   9  36
BRANCH   6  39
ATOM     39  C   UNL     1      -3.326   9.976   9.232  1.00  0.00     0.264 C 
ATOM     40  O   UNL     1      -3.431  10.121  10.479  1.00  0.00    -0.298 OA
ENDBRANCH   6  39
BRANCH   8  41
ATOM     41  O   UNL     1      -7.291   7.647   7.583  1.00  0.00    -0.504 OA
ATOM     42  H   UNL     1      -7.913   8.040   8.279  1.00  0.00     0.293 HD
ENDBRANCH   8  41
BRANCH   7  43
ATOM     43  O   UNL     1      -6.132   9.791   8.824  1.00  0.00    -0.504 OA
ATOM     44  H   UNL     1      -7.140   9.731   8.871  1.00  0.00     0.293 HD
ENDBRANCH   7  43
TORSDOF 11
ENDMDL
