MODEL 1
REMARK VINA RESULT:    -3.699      0.000      0.000
REMARK INTER + INTRA:          -5.720
REMARK INTER:                  -4.996
REMARK INTRA:                  -0.724
REMARK UNBOUND:                -0.724
REMARK SMILES O=C[C@@H](O)[C@@H](O)[C@H](O)CO
REMARK SMILES IDX 7 1 9 2 10 3 5 5 3 6 2 7 1 8 4 9 6 11 8 13
REMARK H PARENT 10 4 4 10 6 12 8 14
REMARK Flexibility Score: inf
ROOT
ATOM      1  C   UNL     1      -0.087   2.104  41.245  1.00  0.00     0.171 C 
ENDROOT
BRANCH   1   2
ATOM      2  C   UNL     1      -1.530   1.628  40.995  1.00  0.00     0.190 C 
BRANCH   2   3
ATOM      3  O   UNL     1      -1.944   1.980  39.702  1.00  0.00    -0.394 OA
ATOM      4  H   UNL     1      -1.126   2.006  39.139  1.00  0.00     0.210 HD
ENDBRANCH   2   3
ENDBRANCH   1   2
BRANCH   1   5
ATOM      5  C   UNL     1       0.041   3.640  41.433  1.00  0.00     0.181 C 
BRANCH   5   6
ATOM      6  C   UNL     1       1.467   4.131  41.800  1.00  0.00     0.209 C 
BRANCH   6   7
ATOM      7  C   UNL     1       2.144   4.841  40.660  1.00  0.00     0.258 C 
ATOM      8  O   UNL     1       2.360   4.256  39.610  1.00  0.00    -0.300 OA
ENDBRANCH   6   7
BRANCH   6   9
ATOM      9  O   UNL     1       1.390   5.027  42.878  1.00  0.00    -0.383 OA
ATOM     10  H   UNL     1       0.566   4.804  43.383  1.00  0.00     0.211 HD
ENDBRANCH   6   9
ENDBRANCH   5   6
BRANCH   5  11
ATOM     11  O   UNL     1      -0.430   4.323  40.297  1.00  0.00    -0.387 OA
ATOM     12  H   UNL     1      -1.419   4.374  40.377  1.00  0.00     0.211 HD
ENDBRANCH   5  11
ENDBRANCH   1   5
BRANCH   1  13
ATOM     13  O   UNL     1       0.746   1.688  40.192  1.00  0.00    -0.388 OA
ATOM     14  H   UNL     1       0.627   0.707  40.098  1.00  0.00     0.211 HD
ENDBRANCH   1  13
TORSDOF 8
ENDMDL
MODEL 2
REMARK VINA RESULT:    -3.500      8.249     10.360
REMARK INTER + INTRA:          -5.452
REMARK INTER:                  -4.982
REMARK INTRA:                  -0.470
REMARK UNBOUND:                -0.724
REMARK SMILES O=C[C@@H](O)[C@@H](O)[C@H](O)CO
REMARK SMILES IDX 7 1 9 2 10 3 5 5 3 6 2 7 1 8 4 9 6 11 8 13
REMARK H PARENT 10 4 4 10 6 12 8 14
REMARK Flexibility Score: inf
ROOT
ATOM      1  C   UNL     1       5.337   8.084  32.802  1.00  0.00     0.171 C 
ENDROOT
BRANCH   1   2
ATOM      2  C   UNL     1       6.300   9.014  33.563  1.00  0.00     0.190 C 
BRANCH   2   3
ATOM      3  O   UNL     1       7.051   9.782  32.662  1.00  0.00    -0.394 OA
ATOM      4  H   UNL     1       6.718   9.561  31.753  1.00  0.00     0.210 HD
ENDBRANCH   2   3
ENDBRANCH   1   2
BRANCH   1   5
ATOM      5  C   UNL     1       3.888   8.094  33.359  1.00  0.00     0.181 C 
BRANCH   5   6
ATOM      6  C   UNL     1       2.895   7.175  32.598  1.00  0.00     0.209 C 
BRANCH   6   7
ATOM      7  C   UNL     1       2.430   6.013  33.432  1.00  0.00     0.258 C 
ATOM      8  O   UNL     1       3.226   5.167  33.808  1.00  0.00    -0.300 OA
ENDBRANCH   6   7
BRANCH   6   9
ATOM      9  O   UNL     1       1.762   7.916  32.227  1.00  0.00    -0.383 OA
ATOM     10  H   UNL     1       0.967   7.383  32.490  1.00  0.00     0.211 HD
ENDBRANCH   6   9
ENDBRANCH   5   6
BRANCH   5  11
ATOM     11  O   UNL     1       3.880   7.787  34.732  1.00  0.00    -0.387 OA
ATOM     12  H   UNL     1       4.247   6.869  34.827  1.00  0.00     0.211 HD
ENDBRANCH   5  11
ENDBRANCH   1   5
BRANCH   1  13
ATOM     13  O   UNL     1       5.834   6.769  32.806  1.00  0.00    -0.388 OA
ATOM     14  H   UNL     1       6.587   6.746  33.451  1.00  0.00     0.211 HD
ENDBRANCH   1  13
TORSDOF 8
ENDMDL
MODEL 3
REMARK VINA RESULT:    -3.491      1.966      3.276
REMARK INTER + INTRA:          -5.440
REMARK INTER:                  -4.971
REMARK INTRA:                  -0.470
REMARK UNBOUND:                -0.724
REMARK SMILES O=C[C@@H](O)[C@@H](O)[C@H](O)CO
REMARK SMILES IDX 7 1 9 2 10 3 5 5 3 6 2 7 1 8 4 9 6 11 8 13
REMARK H PARENT 10 4 4 10 6 12 8 14
REMARK Flexibility Score: inf
ROOT
ATOM      1  C   UNL     1      -1.585   1.480  40.805  1.00  0.00     0.171 C 
ENDROOT
BRANCH   1   2
ATOM      2  C   UNL     1      -2.807   1.028  41.626  1.00  0.00     0.190 C 
BRANCH   2   3
ATOM      3  O   UNL     1      -2.459  -0.029  42.479  1.00  0.00    -0.394 OA
ATOM      4  H   UNL     1      -3.077   0.016  43.255  1.00  0.00     0.210 HD
ENDBRANCH   2   3
ENDBRANCH   1   2
BRANCH   1   5
ATOM      5  C   UNL     1      -0.551   2.301  41.622  1.00  0.00     0.181 C 
BRANCH   5   6
ATOM      6  C   UNL     1       0.924   1.860  41.429  1.00  0.00     0.209 C 
BRANCH   6   7
ATOM      7  C   UNL     1       1.279   0.655  42.256  1.00  0.00     0.258 C 
ATOM      8  O   UNL     1       0.529   0.271  43.139  1.00  0.00    -0.300 OA
ENDBRANCH   6   7
BRANCH   6   9
ATOM      9  O   UNL     1       1.142   1.533  40.081  1.00  0.00    -0.383 OA
ATOM     10  H   UNL     1       0.441   1.998  39.553  1.00  0.00     0.211 HD
ENDBRANCH   6   9
ENDBRANCH   5   6
BRANCH   5  11
ATOM     11  O   UNL     1      -0.686   3.676  41.359  1.00  0.00    -0.387 OA
ATOM     12  H   UNL     1      -0.564   4.151  42.223  1.00  0.00     0.211 HD
ENDBRANCH   5  11
ENDBRANCH   1   5
BRANCH   1  13
ATOM     13  O   UNL     1      -2.005   2.227  39.691  1.00  0.00    -0.388 OA
ATOM     14  H   UNL     1      -2.096   3.169  39.991  1.00  0.00     0.211 HD
ENDBRANCH   1  13
TORSDOF 8
ENDMDL
MODEL 4
REMARK VINA RESULT:    -3.419      2.248      2.982
REMARK INTER + INTRA:          -5.343
REMARK INTER:                  -4.733
REMARK INTRA:                  -0.609
REMARK UNBOUND:                -0.724
REMARK SMILES O=C[C@@H](O)[C@@H](O)[C@H](O)CO
REMARK SMILES IDX 7 1 9 2 10 3 5 5 3 6 2 7 1 8 4 9 6 11 8 13
REMARK H PARENT 10 4 4 10 6 12 8 14
REMARK Flexibility Score: inf
ROOT
ATOM      1  C   UNL     1       0.654   1.904  41.745  1.00  0.00     0.171 C 
ENDROOT
BRANCH   1   2
ATOM      2  C   UNL     1      -0.774   2.324  41.349  1.00  0.00     0.190 C 
BRANCH   2   3
ATOM      3  O   UNL     1      -1.184   1.636  40.198  1.00  0.00    -0.394 OA
ATOM      4  H   UNL     1      -1.147   0.668  40.417  1.00  0.00     0.210 HD
ENDBRANCH   2   3
ENDBRANCH   1   2
BRANCH   1   5
ATOM      5  C   UNL     1       1.714   2.183  40.645  1.00  0.00     0.181 C 
BRANCH   5   6
ATOM      6  C   UNL     1       2.017   0.976  39.717  1.00  0.00     0.209 C 
BRANCH   6   7
ATOM      7  C   UNL     1       2.748   1.380  38.466  1.00  0.00     0.258 C 
ATOM      8  O   UNL     1       3.530   2.318  38.485  1.00  0.00    -0.300 OA
ENDBRANCH   6   7
BRANCH   6   9
ATOM      9  O   UNL     1       2.819   0.049  40.402  1.00  0.00    -0.383 OA
ATOM     10  H   UNL     1       3.648  -0.068  39.868  1.00  0.00     0.211 HD
ENDBRANCH   6   9
ENDBRANCH   5   6
BRANCH   5  11
ATOM     11  O   UNL     1       1.354   3.307  39.879  1.00  0.00    -0.387 OA
ATOM     12  H   UNL     1       0.485   3.633  40.231  1.00  0.00     0.211 HD
ENDBRANCH   5  11
ENDBRANCH   1   5
BRANCH   1  13
ATOM     13  O   UNL     1       0.678   0.542  42.087  1.00  0.00    -0.388 OA
ATOM     14  H   UNL     1      -0.016   0.092  41.538  1.00  0.00     0.211 HD
ENDBRANCH   1  13
TORSDOF 8
ENDMDL
MODEL 5
REMARK VINA RESULT:    -3.405      1.492      3.964
REMARK INTER + INTRA:          -5.324
REMARK INTER:                  -4.678
REMARK INTRA:                  -0.645
REMARK UNBOUND:                -0.724
REMARK SMILES O=C[C@@H](O)[C@@H](O)[C@H](O)CO
REMARK SMILES IDX 7 1 9 2 10 3 5 5 3 6 2 7 1 8 4 9 6 11 8 13
REMARK H PARENT 10 4 4 10 6 12 8 14
REMARK Flexibility Score: inf
ROOT
ATOM      1  C   UNL     1       1.113   4.715  40.452  1.00  0.00     0.171 C 
ENDROOT
BRANCH   1   2
ATOM      2  C   UNL     1       2.313   4.452  39.524  1.00  0.00     0.190 C 
BRANCH   2   3
ATOM      3  O   UNL     1       3.438   5.163  39.967  1.00  0.00    -0.394 OA
ATOM      4  H   UNL     1       3.101   6.011  40.360  1.00  0.00     0.210 HD
ENDBRANCH   2   3
ENDBRANCH   1   2
BRANCH   1   5
ATOM      5  C   UNL     1       0.977   3.685  41.606  1.00  0.00     0.181 C 
BRANCH   5   6
ATOM      6  C   UNL     1       1.039   2.200  41.158  1.00  0.00     0.209 C 
BRANCH   6   7
ATOM      7  C   UNL     1       0.947   1.245  42.317  1.00  0.00     0.258 C 
ATOM      8  O   UNL     1       1.900   1.085  43.062  1.00  0.00    -0.300 OA
ENDBRANCH   6   7
BRANCH   6   9
ATOM      9  O   UNL     1      -0.032   1.927  40.292  1.00  0.00    -0.383 OA
ATOM     10  H   UNL     1       0.289   2.106  39.369  1.00  0.00     0.211 HD
ENDBRANCH   6   9
ENDBRANCH   5   6
BRANCH   5  11
ATOM     11  O   UNL     1       1.933   3.930  42.609  1.00  0.00    -0.387 OA
ATOM     12  H   UNL     1       2.588   3.185  42.575  1.00  0.00     0.211 HD
ENDBRANCH   5  11
ENDBRANCH   1   5
BRANCH   1  13
ATOM     13  O   UNL     1      -0.077   4.744  39.704  1.00  0.00    -0.388 OA
ATOM     14  H   UNL     1      -0.007   5.510  39.077  1.00  0.00     0.211 HD
ENDBRANCH   1  13
TORSDOF 8
ENDMDL
MODEL 6
REMARK VINA RESULT:    -3.350      8.147      9.189
REMARK INTER + INTRA:          -5.249
REMARK INTER:                  -4.288
REMARK INTRA:                  -0.961
REMARK UNBOUND:                -0.724
REMARK SMILES O=C[C@@H](O)[C@@H](O)[C@H](O)CO
REMARK SMILES IDX 7 1 9 2 10 3 5 5 3 6 2 7 1 8 4 9 6 11 8 13
REMARK H PARENT 10 4 4 10 6 12 8 14
REMARK Flexibility Score: inf
ROOT
ATOM      1  C   UNL     1       1.953   6.827  32.452  1.00  0.00     0.171 C 
ENDROOT
BRANCH   1   2
ATOM      2  C   UNL     1       0.767   6.738  33.431  1.00  0.00     0.190 C 
BRANCH   2   3
ATOM      3  O   UNL     1       0.832   7.775  34.373  1.00  0.00    -0.394 OA
ATOM      4  H   UNL     1       0.179   7.552  35.087  1.00  0.00     0.210 HD
ENDBRANCH   2   3
ENDBRANCH   1   2
BRANCH   1   5
ATOM      5  C   UNL     1       3.313   6.416  33.079  1.00  0.00     0.181 C 
BRANCH   5   6
ATOM      6  C   UNL     1       4.438   7.476  32.938  1.00  0.00     0.209 C 
BRANCH   6   7
ATOM      7  C   UNL     1       4.555   8.357  34.152  1.00  0.00     0.258 C 
ATOM      8  O   UNL     1       3.588   8.982  34.556  1.00  0.00    -0.300 OA
ENDBRANCH   6   7
BRANCH   6   9
ATOM      9  O   UNL     1       5.670   6.829  32.756  1.00  0.00    -0.383 OA
ATOM     10  H   UNL     1       6.168   6.910  33.611  1.00  0.00     0.211 HD
ENDBRANCH   6   9
ENDBRANCH   5   6
BRANCH   5  11
ATOM     11  O   UNL     1       3.151   6.056  34.429  1.00  0.00    -0.387 OA
ATOM     12  H   UNL     1       2.495   6.690  34.823  1.00  0.00     0.211 HD
ENDBRANCH   5  11
ENDBRANCH   1   5
BRANCH   1  13
ATOM     13  O   UNL     1       2.049   8.128  31.930  1.00  0.00    -0.388 OA
ATOM     14  H   UNL     1       1.200   8.593  32.149  1.00  0.00     0.211 HD
ENDBRANCH   1  13
TORSDOF 8
ENDMDL
MODEL 7
REMARK VINA RESULT:    -3.317      1.462      2.529
REMARK INTER + INTRA:          -5.205
REMARK INTER:                  -4.289
REMARK INTRA:                  -0.916
REMARK UNBOUND:                -0.724
REMARK SMILES O=C[C@@H](O)[C@@H](O)[C@H](O)CO
REMARK SMILES IDX 7 1 9 2 10 3 5 5 3 6 2 7 1 8 4 9 6 11 8 13
REMARK H PARENT 10 4 4 10 6 12 8 14
REMARK Flexibility Score: inf
ROOT
ATOM      1  C   UNL     1       0.744   4.614  41.782  1.00  0.00     0.171 C 
ENDROOT
BRANCH   1   2
ATOM      2  C   UNL     1      -0.265   3.493  41.468  1.00  0.00     0.190 C 
BRANCH   2   3
ATOM      3  O   UNL     1       0.332   2.509  40.667  1.00  0.00    -0.394 OA
ATOM      4  H   UNL     1      -0.108   2.560  39.778  1.00  0.00     0.210 HD
ENDBRANCH   2   3
ENDBRANCH   1   2
BRANCH   1   5
ATOM      5  C   UNL     1       1.198   5.414  40.531  1.00  0.00     0.181 C 
BRANCH   5   6
ATOM      6  C   UNL     1       2.689   5.219  40.144  1.00  0.00     0.209 C 
BRANCH   6   7
ATOM      7  C   UNL     1       2.861   4.319  38.950  1.00  0.00     0.258 C 
ATOM      8  O   UNL     1       2.615   3.127  39.035  1.00  0.00    -0.300 OA
ENDBRANCH   6   7
BRANCH   6   9
ATOM      9  O   UNL     1       3.257   6.463  39.828  1.00  0.00    -0.383 OA
ATOM     10  H   UNL     1       4.235   6.380  39.975  1.00  0.00     0.211 HD
ENDBRANCH   6   9
ENDBRANCH   5   6
BRANCH   5  11
ATOM     11  O   UNL     1       0.369   5.131  39.430  1.00  0.00    -0.387 OA
ATOM     12  H   UNL     1      -0.115   4.289  39.639  1.00  0.00     0.211 HD
ENDBRANCH   5  11
ENDBRANCH   1   5
BRANCH   1  13
ATOM     13  O   UNL     1       1.869   4.079  42.433  1.00  0.00    -0.388 OA
ATOM     14  H   UNL     1       2.592   4.756  42.366  1.00  0.00     0.211 HD
ENDBRANCH   1  13
TORSDOF 8
ENDMDL
MODEL 8
REMARK VINA RESULT:    -3.299      1.731      2.453
REMARK INTER + INTRA:          -5.181
REMARK INTER:                  -4.490
REMARK INTRA:                  -0.691
REMARK UNBOUND:                -0.724
REMARK SMILES O=C[C@@H](O)[C@@H](O)[C@H](O)CO
REMARK SMILES IDX 7 1 9 2 10 3 5 5 3 6 2 7 1 8 4 9 6 11 8 13
REMARK H PARENT 10 4 4 10 6 12 8 14
REMARK Flexibility Score: inf
ROOT
ATOM      1  C   UNL     1       1.661   3.108  40.580  1.00  0.00     0.171 C 
ENDROOT
BRANCH   1   2
ATOM      2  C   UNL     1       0.493   2.328  41.213  1.00  0.00     0.190 C 
BRANCH   2   3
ATOM      3  O   UNL     1      -0.290   1.727  40.218  1.00  0.00    -0.394 OA
ATOM      4  H   UNL     1      -0.473   0.799  40.521  1.00  0.00     0.210 HD
ENDBRANCH   2   3
ENDBRANCH   1   2
BRANCH   1   5
ATOM      5  C   UNL     1       1.327   4.593  40.276  1.00  0.00     0.181 C 
BRANCH   5   6
ATOM      6  C   UNL     1       2.307   5.289  39.293  1.00  0.00     0.209 C 
BRANCH   6   7
ATOM      7  C   UNL     1       2.093   6.776  39.222  1.00  0.00     0.258 C 
ATOM      8  O   UNL     1       1.058   7.229  38.758  1.00  0.00    -0.300 OA
ENDBRANCH   6   7
BRANCH   6   9
ATOM      9  O   UNL     1       3.628   5.065  39.712  1.00  0.00    -0.383 OA
ATOM     10  H   UNL     1       4.146   4.797  38.908  1.00  0.00     0.211 HD
ENDBRANCH   6   9
ENDBRANCH   5   6
BRANCH   5  11
ATOM     11  O   UNL     1       0.004   4.724  39.817  1.00  0.00    -0.387 OA
ATOM     12  H   UNL     1      -0.270   5.663  39.982  1.00  0.00     0.211 HD
ENDBRANCH   5  11
ENDBRANCH   1   5
BRANCH   1  13
ATOM     13  O   UNL     1       2.083   2.469  39.401  1.00  0.00    -0.388 OA
ATOM     14  H   UNL     1       3.070   2.561  39.359  1.00  0.00     0.211 HD
ENDBRANCH   1  13
TORSDOF 8
ENDMDL
MODEL 9
REMARK VINA RESULT:    -3.188      1.278      2.128
REMARK INTER + INTRA:          -5.031
REMARK INTER:                  -4.510
REMARK INTRA:                  -0.522
REMARK UNBOUND:                -0.724
REMARK SMILES O=C[C@@H](O)[C@@H](O)[C@H](O)CO
REMARK SMILES IDX 7 1 9 2 10 3 5 5 3 6 2 7 1 8 4 9 6 11 8 13
REMARK H PARENT 10 4 4 10 6 12 8 14
REMARK Flexibility Score: inf
ROOT
ATOM      1  C   UNL     1       0.944   2.247  41.206  1.00  0.00     0.171 C 
ENDROOT
BRANCH   1   2
ATOM      2  C   UNL     1      -0.546   1.917  41.422  1.00  0.00     0.190 C 
BRANCH   2   3
ATOM      3  O   UNL     1      -1.187   1.727  40.190  1.00  0.00    -0.394 OA
ATOM      4  H   UNL     1      -0.472   1.670  39.503  1.00  0.00     0.210 HD
ENDBRANCH   2   3
ENDBRANCH   1   2
BRANCH   1   5
ATOM      5  C   UNL     1       1.288   3.747  41.414  1.00  0.00     0.181 C 
BRANCH   5   6
ATOM      6  C   UNL     1       0.129   4.728  41.089  1.00  0.00     0.209 C 
BRANCH   6   7
ATOM      7  C   UNL     1       0.451   6.146  41.474  1.00  0.00     0.258 C 
ATOM      8  O   UNL     1       1.576   6.590  41.308  1.00  0.00    -0.300 OA
ENDBRANCH   6   7
BRANCH   6   9
ATOM      9  O   UNL     1      -0.130   4.706  39.710  1.00  0.00    -0.383 OA
ATOM     10  H   UNL     1      -1.112   4.604  39.601  1.00  0.00     0.211 HD
ENDBRANCH   6   9
ENDBRANCH   5   6
BRANCH   5  11
ATOM     11  O   UNL     1       1.765   3.973  42.717  1.00  0.00    -0.387 OA
ATOM     12  H   UNL     1       1.475   3.202  43.271  1.00  0.00     0.211 HD
ENDBRANCH   5  11
ENDBRANCH   1   5
BRANCH   1  13
ATOM     13  O   UNL     1       1.344   1.846  39.920  1.00  0.00    -0.388 OA
ATOM     14  H   UNL     1       0.522   1.586  39.428  1.00  0.00     0.211 HD
ENDBRANCH   1  13
TORSDOF 8
ENDMDL
