MODEL 1
REMARK VINA RESULT:    -3.740      0.000      0.000
REMARK INTER + INTRA:          -4.267
REMARK INTER:                  -4.178
REMARK INTRA:                  -0.090
REMARK UNBOUND:                -0.090
REMARK SMILES CCc1ccc(O)cc1O
REMARK SMILES IDX 3 1 9 2 8 3 6 4 5 5 4 6 2 7 1 8 10 9 7 11
REMARK H PARENT 10 10 7 12
REMARK Flexibility Score: inf
ROOT
ATOM      1  C   UNL     1      35.823  -3.367  58.500  1.00  0.00    -0.006 A 
ATOM      2  C   UNL     1      35.133  -4.091  59.493  1.00  0.00     0.122 A 
ATOM      3  C   UNL     1      33.939  -3.582  60.025  1.00  0.00     0.092 A 
ATOM      4  C   UNL     1      33.433  -2.355  59.585  1.00  0.00     0.119 A 
ATOM      5  C   UNL     1      34.126  -1.629  58.609  1.00  0.00     0.047 A 
ATOM      6  C   UNL     1      35.316  -2.128  58.074  1.00  0.00     0.011 A 
ENDROOT
BRANCH   1   7
ATOM      7  C   UNL     1      37.125  -3.875  57.934  1.00  0.00     0.036 C 
ATOM      8  C   UNL     1      37.093  -3.864  56.409  1.00  0.00     0.009 C 
ENDBRANCH   1   7
BRANCH   2   9
ATOM      9  O   UNL     1      35.635  -5.309  59.950  1.00  0.00    -0.508 OA
ATOM     10  H   UNL     1      35.724  -5.510  60.940  1.00  0.00     0.293 HD
ENDBRANCH   2   9
BRANCH   4  11
ATOM     11  O   UNL     1      32.246  -1.867  60.125  1.00  0.00    -0.508 OA
ATOM     12  H   UNL     1      32.244  -1.243  60.923  1.00  0.00     0.293 HD
ENDBRANCH   4  11
TORSDOF 3
ENDMDL
MODEL 2
REMARK VINA RESULT:    -3.706      1.765      2.383
REMARK INTER + INTRA:          -4.229
REMARK INTER:                  -4.128
REMARK INTRA:                  -0.100
REMARK UNBOUND:                -0.090
REMARK SMILES CCc1ccc(O)cc1O
REMARK SMILES IDX 3 1 9 2 8 3 6 4 5 5 4 6 2 7 1 8 10 9 7 11
REMARK H PARENT 10 10 7 12
REMARK Flexibility Score: inf
ROOT
ATOM      1  C   UNL     1      35.948  -3.475  59.114  1.00  0.00    -0.006 A 
ATOM      2  C   UNL     1      35.809  -2.903  57.833  1.00  0.00     0.122 A 
ATOM      3  C   UNL     1      34.690  -2.110  57.540  1.00  0.00     0.092 A 
ATOM      4  C   UNL     1      33.704  -1.891  58.506  1.00  0.00     0.119 A 
ATOM      5  C   UNL     1      33.834  -2.469  59.774  1.00  0.00     0.047 A 
ATOM      6  C   UNL     1      34.945  -3.261  60.075  1.00  0.00     0.011 A 
ENDROOT
BRANCH   1   7
ATOM      7  C   UNL     1      37.125  -4.357  59.445  1.00  0.00     0.036 C 
ATOM      8  C   UNL     1      36.816  -5.815  59.123  1.00  0.00     0.009 C 
ENDBRANCH   1   7
BRANCH   2   9
ATOM      9  O   UNL     1      36.778  -3.127  56.855  1.00  0.00    -0.508 OA
ATOM     10  H   UNL     1      37.746  -3.309  57.098  1.00  0.00     0.293 HD
ENDBRANCH   2   9
BRANCH   4  11
ATOM     11  O   UNL     1      32.600  -1.100  58.196  1.00  0.00    -0.508 OA
ATOM     12  H   UNL     1      32.112  -1.195  57.313  1.00  0.00     0.293 HD
ENDBRANCH   4  11
TORSDOF 3
ENDMDL
MODEL 3
REMARK VINA RESULT:    -3.684      2.228      3.794
REMARK INTER + INTRA:          -4.204
REMARK INTER:                  -4.118
REMARK INTRA:                  -0.086
REMARK UNBOUND:                -0.090
REMARK SMILES CCc1ccc(O)cc1O
REMARK SMILES IDX 3 1 9 2 8 3 6 4 5 5 4 6 2 7 1 8 10 9 7 11
REMARK H PARENT 10 10 7 12
REMARK Flexibility Score: inf
ROOT
ATOM      1  C   UNL     1      34.574  -3.070  58.886  1.00  0.00    -0.006 A 
ATOM      2  C   UNL     1      33.851  -2.014  58.294  1.00  0.00     0.122 A 
ATOM      3  C   UNL     1      34.365  -1.363  57.164  1.00  0.00     0.092 A 
ATOM      4  C   UNL     1      35.597  -1.746  56.625  1.00  0.00     0.119 A 
ATOM      5  C   UNL     1      36.322  -2.785  57.220  1.00  0.00     0.047 A 
ATOM      6  C   UNL     1      35.817  -3.439  58.346  1.00  0.00     0.011 A 
ENDROOT
BRANCH   1   7
ATOM      7  C   UNL     1      34.058  -3.766  60.120  1.00  0.00     0.036 C 
ATOM      8  C   UNL     1      34.470  -5.234  60.125  1.00  0.00     0.009 C 
ENDBRANCH   1   7
BRANCH   2   9
ATOM      9  O   UNL     1      32.628  -1.613  58.832  1.00  0.00    -0.508 OA
ATOM     10  H   UNL     1      32.156  -2.158  59.545  1.00  0.00     0.293 HD
ENDBRANCH   2   9
BRANCH   4  11
ATOM     11  O   UNL     1      36.091  -1.088  55.501  1.00  0.00    -0.508 OA
ATOM     12  H   UNL     1      36.638  -1.574  54.800  1.00  0.00     0.293 HD
ENDBRANCH   4  11
TORSDOF 3
ENDMDL
MODEL 4
REMARK VINA RESULT:    -3.636      6.195      8.193
REMARK INTER + INTRA:          -4.151
REMARK INTER:                  -4.061
REMARK INTRA:                  -0.090
REMARK UNBOUND:                -0.090
REMARK SMILES CCc1ccc(O)cc1O
REMARK SMILES IDX 3 1 9 2 8 3 6 4 5 5 4 6 2 7 1 8 10 9 7 11
REMARK H PARENT 10 10 7 12
REMARK Flexibility Score: inf
ROOT
ATOM      1  C   UNL     1      36.648  -8.196  54.228  1.00  0.00    -0.006 A 
ATOM      2  C   UNL     1      36.482  -9.179  55.224  1.00  0.00     0.122 A 
ATOM      3  C   UNL     1      36.039 -10.462  54.871  1.00  0.00     0.092 A 
ATOM      4  C   UNL     1      35.749 -10.770  53.538  1.00  0.00     0.119 A 
ATOM      5  C   UNL     1      35.900  -9.790  52.551  1.00  0.00     0.047 A 
ATOM      6  C   UNL     1      36.341  -8.509  52.893  1.00  0.00     0.011 A 
ENDROOT
BRANCH   1   7
ATOM      7  C   UNL     1      37.094  -6.800  54.584  1.00  0.00     0.036 C 
ATOM      8  C   UNL     1      36.248  -5.760  53.858  1.00  0.00     0.009 C 
ENDBRANCH   1   7
BRANCH   2   9
ATOM      9  O   UNL     1      36.755  -8.880  56.559  1.00  0.00    -0.508 OA
ATOM     10  H   UNL     1      36.359  -8.064  57.012  1.00  0.00     0.293 HD
ENDBRANCH   2   9
BRANCH   4  11
ATOM     11  O   UNL     1      35.310 -12.050  53.208  1.00  0.00    -0.508 OA
ATOM     12  H   UNL     1      35.114 -12.743  53.921  1.00  0.00     0.293 HD
ENDBRANCH   4  11
TORSDOF 3
ENDMDL
MODEL 5
REMARK VINA RESULT:    -3.617     20.795     21.379
REMARK INTER + INTRA:          -4.129
REMARK INTER:                  -4.039
REMARK INTRA:                  -0.091
REMARK UNBOUND:                -0.090
REMARK SMILES CCc1ccc(O)cc1O
REMARK SMILES IDX 3 1 9 2 8 3 6 4 5 5 4 6 2 7 1 8 10 9 7 11
REMARK H PARENT 10 10 7 12
REMARK Flexibility Score: inf
ROOT
ATOM      1  C   UNL     1      22.036  -4.400  41.053  1.00  0.00    -0.006 A 
ATOM      2  C   UNL     1      23.024  -4.799  41.976  1.00  0.00     0.122 A 
ATOM      3  C   UNL     1      23.389  -3.942  43.024  1.00  0.00     0.092 A 
ATOM      4  C   UNL     1      22.787  -2.686  43.154  1.00  0.00     0.119 A 
ATOM      5  C   UNL     1      21.815  -2.283  42.230  1.00  0.00     0.047 A 
ATOM      6  C   UNL     1      21.446  -3.131  41.183  1.00  0.00     0.011 A 
ENDROOT
BRANCH   1   7
ATOM      7  C   UNL     1      21.648  -5.289  39.900  1.00  0.00     0.036 C 
ATOM      8  C   UNL     1      20.140  -5.518  39.876  1.00  0.00     0.009 C 
ENDBRANCH   1   7
BRANCH   2   9
ATOM      9  O   UNL     1      23.642  -6.043  41.848  1.00  0.00    -0.508 OA
ATOM     10  H   UNL     1      23.251  -6.877  42.272  1.00  0.00     0.293 HD
ENDBRANCH   2   9
BRANCH   4  11
ATOM     11  O   UNL     1      23.162  -1.849  44.202  1.00  0.00    -0.508 OA
ATOM     12  H   UNL     1      24.106  -1.853  44.571  1.00  0.00     0.293 HD
ENDBRANCH   4  11
TORSDOF 3
ENDMDL
MODEL 6
REMARK VINA RESULT:    -3.515      1.884      3.772
REMARK INTER + INTRA:          -4.016
REMARK INTER:                  -3.908
REMARK INTRA:                  -0.108
REMARK UNBOUND:                -0.090
REMARK SMILES CCc1ccc(O)cc1O
REMARK SMILES IDX 3 1 9 2 8 3 6 4 5 5 4 6 2 7 1 8 10 9 7 11
REMARK H PARENT 10 10 7 12
REMARK Flexibility Score: inf
ROOT
ATOM      1  C   UNL     1      35.178  -2.122  58.888  1.00  0.00    -0.006 A 
ATOM      2  C   UNL     1      35.918  -3.322  58.929  1.00  0.00     0.122 A 
ATOM      3  C   UNL     1      36.526  -3.807  57.762  1.00  0.00     0.092 A 
ATOM      4  C   UNL     1      36.394  -3.115  56.554  1.00  0.00     0.119 A 
ATOM      5  C   UNL     1      35.647  -1.932  56.510  1.00  0.00     0.047 A 
ATOM      6  C   UNL     1      35.038  -1.441  57.667  1.00  0.00     0.011 A 
ENDROOT
BRANCH   1   7
ATOM      7  C   UNL     1      34.489  -1.595  60.121  1.00  0.00     0.036 C 
ATOM      8  C   UNL     1      33.012  -1.975  60.120  1.00  0.00     0.009 C 
ENDBRANCH   1   7
BRANCH   2   9
ATOM      9  O   UNL     1      36.044  -4.028  60.125  1.00  0.00    -0.508 OA
ATOM     10  H   UNL     1      36.428  -4.966  60.150  1.00  0.00     0.293 HD
ENDBRANCH   2   9
BRANCH   4  11
ATOM     11  O   UNL     1      37.005  -3.613  55.406  1.00  0.00    -0.508 OA
ATOM     12  H   UNL     1      36.563  -4.327  54.837  1.00  0.00     0.293 HD
ENDBRANCH   4  11
TORSDOF 3
ENDMDL
MODEL 7
REMARK VINA RESULT:    -3.496     13.309     15.045
REMARK INTER + INTRA:          -3.994
REMARK INTER:                  -3.902
REMARK INTRA:                  -0.092
REMARK UNBOUND:                -0.090
REMARK SMILES CCc1ccc(O)cc1O
REMARK SMILES IDX 3 1 9 2 8 3 6 4 5 5 4 6 2 7 1 8 10 9 7 11
REMARK H PARENT 10 10 7 12
REMARK Flexibility Score: inf
ROOT
ATOM      1  C   UNL     1      20.569  -2.321  58.314  1.00  0.00    -0.006 A 
ATOM      2  C   UNL     1      20.115  -3.635  58.548  1.00  0.00     0.122 A 
ATOM      3  C   UNL     1      19.503  -4.357  57.514  1.00  0.00     0.092 A 
ATOM      4  C   UNL     1      19.329  -3.779  56.253  1.00  0.00     0.119 A 
ATOM      5  C   UNL     1      19.766  -2.469  56.023  1.00  0.00     0.047 A 
ATOM      6  C   UNL     1      20.377  -1.743  57.049  1.00  0.00     0.011 A 
ENDROOT
BRANCH   1   7
ATOM      7  C   UNL     1      21.202  -1.512  59.418  1.00  0.00     0.036 C 
ATOM      8  C   UNL     1      22.584  -1.018  59.002  1.00  0.00     0.009 C 
ENDBRANCH   1   7
BRANCH   2   9
ATOM      9  O   UNL     1      20.271  -4.218  59.806  1.00  0.00    -0.508 OA
ATOM     10  H   UNL     1      20.722  -3.725  60.568  1.00  0.00     0.293 HD
ENDBRANCH   2   9
BRANCH   4  11
ATOM     11  O   UNL     1      18.719  -4.512  55.238  1.00  0.00    -0.508 OA
ATOM     12  H   UNL     1      18.893  -5.505  55.124  1.00  0.00     0.293 HD
ENDBRANCH   4  11
TORSDOF 3
ENDMDL
MODEL 8
REMARK VINA RESULT:    -3.420      6.712      8.265
REMARK INTER + INTRA:          -3.910
REMARK INTER:                  -3.825
REMARK INTRA:                  -0.085
REMARK UNBOUND:                -0.090
REMARK SMILES CCc1ccc(O)cc1O
REMARK SMILES IDX 3 1 9 2 8 3 6 4 5 5 4 6 2 7 1 8 10 9 7 11
REMARK H PARENT 10 10 7 12
REMARK Flexibility Score: inf
ROOT
ATOM      1  C   UNL     1      36.246  -9.867  54.030  1.00  0.00    -0.006 A 
ATOM      2  C   UNL     1      36.527  -8.871  54.988  1.00  0.00     0.122 A 
ATOM      3  C   UNL     1      36.815  -7.563  54.571  1.00  0.00     0.092 A 
ATOM      4  C   UNL     1      36.837  -7.242  53.210  1.00  0.00     0.119 A 
ATOM      5  C   UNL     1      36.572  -8.233  52.258  1.00  0.00     0.047 A 
ATOM      6  C   UNL     1      36.284  -9.539  52.665  1.00  0.00     0.011 A 
ENDROOT
BRANCH   1   7
ATOM      7  C   UNL     1      35.964 -11.287  54.450  1.00  0.00     0.036 C 
ATOM      8  C   UNL     1      35.217 -12.037  53.352  1.00  0.00     0.009 C 
ENDBRANCH   1   7
BRANCH   2   9
ATOM      9  O   UNL     1      36.522  -9.183  56.347  1.00  0.00    -0.508 OA
ATOM     10  H   UNL     1      36.830 -10.087  56.686  1.00  0.00     0.293 HD
ENDBRANCH   2   9
BRANCH   4  11
ATOM     11  O   UNL     1      37.125  -5.937  52.816  1.00  0.00    -0.508 OA
ATOM     12  H   UNL     1      37.268  -5.198  53.495  1.00  0.00     0.293 HD
ENDBRANCH   4  11
TORSDOF 3
ENDMDL
MODEL 9
REMARK VINA RESULT:    -3.324     20.140     20.888
REMARK INTER + INTRA:          -3.802
REMARK INTER:                  -3.711
REMARK INTRA:                  -0.091
REMARK UNBOUND:                -0.090
REMARK SMILES CCc1ccc(O)cc1O
REMARK SMILES IDX 3 1 9 2 8 3 6 4 5 5 4 6 2 7 1 8 10 9 7 11
REMARK H PARENT 10 10 7 12
REMARK Flexibility Score: inf
ROOT
ATOM      1  C   UNL     1      22.852  -2.699  42.788  1.00  0.00    -0.006 A 
ATOM      2  C   UNL     1      23.397  -3.976  43.030  1.00  0.00     0.122 A 
ATOM      3  C   UNL     1      23.298  -4.975  42.050  1.00  0.00     0.092 A 
ATOM      4  C   UNL     1      22.652  -4.716  40.838  1.00  0.00     0.119 A 
ATOM      5  C   UNL     1      22.099  -3.452  40.602  1.00  0.00     0.047 A 
ATOM      6  C   UNL     1      22.193  -2.451  41.573  1.00  0.00     0.011 A 
ENDROOT
BRANCH   1   7
ATOM      7  C   UNL     1      22.918  -1.617  43.837  1.00  0.00     0.036 C 
ATOM      8  C   UNL     1      21.561  -0.941  44.002  1.00  0.00     0.009 C 
ENDBRANCH   1   7
BRANCH   2   9
ATOM      9  O   UNL     1      24.031  -4.251  44.242  1.00  0.00    -0.508 OA
ATOM     10  H   UNL     1      23.523  -4.624  45.035  1.00  0.00     0.293 HD
ENDBRANCH   2   9
BRANCH   4  11
ATOM     11  O   UNL     1      22.564  -5.720  39.876  1.00  0.00    -0.508 OA
ATOM     12  H   UNL     1      21.889  -6.472  39.956  1.00  0.00     0.293 HD
ENDBRANCH   4  11
TORSDOF 3
ENDMDL
