MODEL 1
REMARK VINA RESULT:    -5.381      0.000      0.000
REMARK INTER + INTRA:          -8.157
REMARK INTER:                  -7.268
REMARK INTRA:                  -0.889
REMARK UNBOUND:                -0.889
REMARK SMILES O=c1c(-c2ccc(O)cc2)coc2c([C@@H]3O[C@@H](CO)[C@H](O)[C@H](O)[C@@H]3O)c(O)ccc12
REMARK SMILES IDX 3 1 11 2 12 3 13 4 30 5 2 6 1 7 29 8 28 9 26 10 14 11 4 12
REMARK SMILES IDX 5 13 6 14 7 15 10 16 9 17 8 18 15 20 24 21 16 22 22 23 17 24
REMARK SMILES IDX 20 25 25 26 23 28 18 30 19 31 21 33 27 35
REMARK H PARENT 8 19 25 27 23 29 19 32 21 34 27 36
REMARK Flexibility Score: inf
ROOT
ATOM      1  C   UNL     1      -5.300  90.991 -10.354  1.00  0.00     0.065 A 
ATOM      2  C   UNL     1      -5.876  89.804 -10.829  1.00  0.00     0.208 A 
ATOM      3  O   UNL     1      -5.821  88.687 -10.115  1.00  0.00    -0.463 OA
ATOM      4  C   UNL     1      -5.229  88.609  -8.926  1.00  0.00     0.147 A 
ATOM      5  C   UNL     1      -4.623  89.760  -8.371  1.00  0.00     0.066 A 
ATOM      6  C   UNL     1      -4.654  90.960  -9.105  1.00  0.00     0.200 A 
ATOM      7  O   UNL     1      -4.094  91.997  -8.654  1.00  0.00    -0.288 OA
ATOM      8  C   UNL     1      -4.012  89.683  -7.110  1.00  0.00     0.020 A 
ATOM      9  C   UNL     1      -4.017  88.485  -6.401  1.00  0.00     0.047 A 
ATOM     10  C   UNL     1      -4.619  87.340  -6.936  1.00  0.00     0.125 A 
ATOM     11  C   UNL     1      -5.211  87.381  -8.219  1.00  0.00     0.069 A 
ENDROOT
BRANCH   1  12
ATOM     12  C   UNL     1      -5.379  92.230 -11.169  1.00  0.00    -0.011 A 
ATOM     13  C   UNL     1      -4.403  92.511 -12.141  1.00  0.00     0.013 A 
ATOM     14  C   UNL     1      -4.478  93.685 -12.899  1.00  0.00     0.047 A 
ATOM     15  C   UNL     1      -5.522  94.591 -12.693  1.00  0.00     0.115 A 
ATOM     16  C   UNL     1      -6.424  93.149 -10.962  1.00  0.00     0.013 A 
ATOM     17  C   UNL     1      -6.496  94.320 -11.722  1.00  0.00     0.047 A 
BRANCH  15  18
ATOM     18  O   UNL     1      -5.585  95.754 -13.456  1.00  0.00    -0.508 OA
ATOM     19  H   UNL     1      -6.362  96.399 -13.375  1.00  0.00     0.293 HD
ENDBRANCH  15  18
ENDBRANCH   1  12
BRANCH  11  20
ATOM     20  C   UNL     1      -5.880  86.133  -8.782  1.00  0.00     0.188 C 
ATOM     21  C   UNL     1      -4.859  85.275  -9.565  1.00  0.00     0.179 C 
ATOM     22  O   UNL     1      -6.496  85.396  -7.735  1.00  0.00    -0.362 OA
ATOM     23  C   UNL     1      -5.557  84.024 -10.125  1.00  0.00     0.177 C 
ATOM     24  C   UNL     1      -7.236  84.274  -8.203  1.00  0.00     0.176 C 
ATOM     25  C   UNL     1      -6.363  83.292  -9.034  1.00  0.00     0.177 C 
BRANCH  21  26
ATOM     26  O   UNL     1      -3.782  84.898  -8.744  1.00  0.00    -0.387 OA
ATOM     27  H   UNL     1      -4.040  84.053  -8.290  1.00  0.00     0.211 HD
ENDBRANCH  21  26
BRANCH  23  28
ATOM     28  O   UNL     1      -4.616  83.147 -10.690  1.00  0.00    -0.387 OA
ATOM     29  H   UNL     1      -4.396  83.504 -11.590  1.00  0.00     0.211 HD
ENDBRANCH  23  28
BRANCH  24  30
ATOM     30  C   UNL     1      -8.541  84.690  -8.919  1.00  0.00     0.191 C 
BRANCH  30  31
ATOM     31  O   UNL     1      -9.002  83.655  -9.746  1.00  0.00    -0.394 OA
ATOM     32  H   UNL     1      -8.366  82.901  -9.643  1.00  0.00     0.210 HD
ENDBRANCH  30  31
ENDBRANCH  24  30
BRANCH  25  33
ATOM     33  O   UNL     1      -5.515  82.535  -8.200  1.00  0.00    -0.388 OA
ATOM     34  H   UNL     1      -5.672  82.810  -7.261  1.00  0.00     0.211 HD
ENDBRANCH  25  33
ENDBRANCH  11  20
BRANCH  10  35
ATOM     35  O   UNL     1      -4.631  86.160  -6.191  1.00  0.00    -0.507 OA
ATOM     36  H   UNL     1      -5.316  85.997  -5.462  1.00  0.00     0.293 HD
ENDBRANCH  10  35
TORSDOF 9
ENDMDL
MODEL 2
REMARK VINA RESULT:    -5.361      2.816      8.815
REMARK INTER + INTRA:          -8.130
REMARK INTER:                  -7.319
REMARK INTRA:                  -0.811
REMARK UNBOUND:                -0.889
REMARK SMILES O=c1c(-c2ccc(O)cc2)coc2c([C@@H]3O[C@@H](CO)[C@H](O)[C@H](O)[C@@H]3O)c(O)ccc12
REMARK SMILES IDX 3 1 11 2 12 3 13 4 30 5 2 6 1 7 29 8 28 9 26 10 14 11 4 12
REMARK SMILES IDX 5 13 6 14 7 15 10 16 9 17 8 18 15 20 24 21 16 22 22 23 17 24
REMARK SMILES IDX 20 25 25 26 23 28 18 30 19 31 21 33 27 35
REMARK H PARENT 8 19 25 27 23 29 19 32 21 34 27 36
REMARK Flexibility Score: inf
ROOT
ATOM      1  C   UNL     1      -6.580  88.419 -10.816  1.00  0.00     0.065 A 
ATOM      2  C   UNL     1      -6.564  88.548 -12.212  1.00  0.00     0.208 A 
ATOM      3  O   UNL     1      -6.040  89.622 -12.791  1.00  0.00    -0.463 OA
ATOM      4  C   UNL     1      -5.505  90.631 -12.108  1.00  0.00     0.147 A 
ATOM      5  C   UNL     1      -5.478  90.582 -10.694  1.00  0.00     0.066 A 
ATOM      6  C   UNL     1      -6.033  89.463 -10.048  1.00  0.00     0.200 A 
ATOM      7  O   UNL     1      -6.056  89.402  -8.787  1.00  0.00    -0.288 OA
ATOM      8  C   UNL     1      -4.900  91.639  -9.975  1.00  0.00     0.020 A 
ATOM      9  C   UNL     1      -4.340  92.722 -10.647  1.00  0.00     0.047 A 
ATOM     10  C   UNL     1      -4.356  92.780 -12.046  1.00  0.00     0.125 A 
ATOM     11  C   UNL     1      -4.962  91.745 -12.795  1.00  0.00     0.069 A 
ENDROOT
BRANCH   1  12
ATOM     12  C   UNL     1      -7.167  87.206 -10.192  1.00  0.00    -0.011 A 
ATOM     13  C   UNL     1      -6.487  85.976 -10.240  1.00  0.00     0.013 A 
ATOM     14  C   UNL     1      -7.049  84.835  -9.659  1.00  0.00     0.047 A 
ATOM     15  C   UNL     1      -8.295  84.906  -9.028  1.00  0.00     0.115 A 
ATOM     16  C   UNL     1      -8.423  87.270  -9.562  1.00  0.00     0.013 A 
ATOM     17  C   UNL     1      -8.981  86.128  -8.981  1.00  0.00     0.047 A 
BRANCH  15  18
ATOM     18  O   UNL     1      -8.841  83.762  -8.452  1.00  0.00    -0.508 OA
ATOM     19  H   UNL     1      -9.253  83.779  -7.527  1.00  0.00     0.293 HD
ENDBRANCH  15  18
ENDBRANCH   1  12
BRANCH  11  20
ATOM     20  C   UNL     1      -4.954  91.811 -14.317  1.00  0.00     0.188 C 
ATOM     21  C   UNL     1      -6.166  92.621 -14.833  1.00  0.00     0.179 C 
ATOM     22  O   UNL     1      -3.723  92.353 -14.775  1.00  0.00    -0.362 OA
ATOM     23  C   UNL     1      -6.137  92.672 -16.369  1.00  0.00     0.177 C 
ATOM     24  C   UNL     1      -3.601  92.342 -16.193  1.00  0.00     0.176 C 
ATOM     25  C   UNL     1      -4.756  93.110 -16.894  1.00  0.00     0.177 C 
BRANCH  21  26
ATOM     26  O   UNL     1      -6.160  93.926 -14.309  1.00  0.00    -0.387 OA
ATOM     27  H   UNL     1      -5.581  93.917 -13.503  1.00  0.00     0.211 HD
ENDBRANCH  21  26
BRANCH  23  28
ATOM     28  O   UNL     1      -7.128  93.544 -16.852  1.00  0.00    -0.387 OA
ATOM     29  H   UNL     1      -7.385  93.215 -17.753  1.00  0.00     0.211 HD
ENDBRANCH  23  28
BRANCH  24  30
ATOM     30  C   UNL     1      -3.385  90.916 -16.750  1.00  0.00     0.191 C 
BRANCH  30  31
ATOM     31  O   UNL     1      -3.652  90.878 -18.126  1.00  0.00    -0.394 OA
ATOM     32  H   UNL     1      -2.774  90.895 -18.589  1.00  0.00     0.210 HD
ENDBRANCH  30  31
ENDBRANCH  24  30
BRANCH  25  33
ATOM     33  O   UNL     1      -4.587  94.504 -16.773  1.00  0.00    -0.388 OA
ATOM     34  H   UNL     1      -3.619  94.696 -16.677  1.00  0.00     0.211 HD
ENDBRANCH  25  33
ENDBRANCH  11  20
BRANCH  10  35
ATOM     35  O   UNL     1      -3.763  93.866 -12.693  1.00  0.00    -0.507 OA
ATOM     36  H   UNL     1      -4.088  94.814 -12.547  1.00  0.00     0.293 HD
ENDBRANCH  10  35
TORSDOF 9
ENDMDL
MODEL 3
REMARK VINA RESULT:    -5.345      2.026      2.218
REMARK INTER + INTRA:          -8.109
REMARK INTER:                  -7.271
REMARK INTRA:                  -0.838
REMARK UNBOUND:                -0.889
REMARK SMILES O=c1c(-c2ccc(O)cc2)coc2c([C@@H]3O[C@@H](CO)[C@H](O)[C@H](O)[C@@H]3O)c(O)ccc12
REMARK SMILES IDX 3 1 11 2 12 3 13 4 30 5 2 6 1 7 29 8 28 9 26 10 14 11 4 12
REMARK SMILES IDX 5 13 6 14 7 15 10 16 9 17 8 18 15 20 24 21 16 22 22 23 17 24
REMARK SMILES IDX 20 25 25 26 23 28 18 30 19 31 21 33 27 35
REMARK H PARENT 8 19 25 27 23 29 19 32 21 34 27 36
REMARK Flexibility Score: inf
ROOT
ATOM      1  C   UNL     1      -6.578  90.312 -12.484  1.00  0.00     0.065 A 
ATOM      2  C   UNL     1      -6.934  88.961 -12.599  1.00  0.00     0.208 A 
ATOM      3  O   UNL     1      -6.685  88.105 -11.615  1.00  0.00    -0.463 OA
ATOM      4  C   UNL     1      -6.095  88.456 -10.476  1.00  0.00     0.147 A 
ATOM      5  C   UNL     1      -5.704  89.800 -10.275  1.00  0.00     0.066 A 
ATOM      6  C   UNL     1      -5.943  90.732 -11.301  1.00  0.00     0.200 A 
ATOM      7  O   UNL     1      -5.578  91.933 -11.169  1.00  0.00    -0.288 OA
ATOM      8  C   UNL     1      -5.096  90.173  -9.067  1.00  0.00     0.020 A 
ATOM      9  C   UNL     1      -4.893  89.230  -8.064  1.00  0.00     0.047 A 
ATOM     10  C   UNL     1      -5.280  87.897  -8.247  1.00  0.00     0.125 A 
ATOM     11  C   UNL     1      -5.863  87.487  -9.468  1.00  0.00     0.069 A 
ENDROOT
BRANCH   1  12
ATOM     12  C   UNL     1      -6.871  91.252 -13.596  1.00  0.00    -0.011 A 
ATOM     13  C   UNL     1      -5.996  91.359 -14.692  1.00  0.00     0.013 A 
ATOM     14  C   UNL     1      -6.272  92.253 -15.732  1.00  0.00     0.047 A 
ATOM     15  C   UNL     1      -7.420  93.051 -15.690  1.00  0.00     0.115 A 
ATOM     16  C   UNL     1      -8.020  92.062 -13.556  1.00  0.00     0.013 A 
ATOM     17  C   UNL     1      -8.293  92.953 -14.597  1.00  0.00     0.047 A 
BRANCH  15  18
ATOM     18  O   UNL     1      -7.683  93.935 -16.733  1.00  0.00    -0.508 OA
ATOM     19  H   UNL     1      -8.346  93.709 -17.464  1.00  0.00     0.293 HD
ENDBRANCH  15  18
ENDBRANCH   1  12
BRANCH  11  20
ATOM     20  C   UNL     1      -6.299  86.037  -9.647  1.00  0.00     0.188 C 
ATOM     21  C   UNL     1      -5.120  85.174 -10.153  1.00  0.00     0.179 C 
ATOM     22  O   UNL     1      -6.837  85.536  -8.430  1.00  0.00    -0.362 OA
ATOM     23  C   UNL     1      -5.583  83.719 -10.328  1.00  0.00     0.177 C 
ATOM     24  C   UNL     1      -7.365  84.221  -8.555  1.00  0.00     0.176 C 
ATOM     25  C   UNL     1      -6.310  83.202  -9.071  1.00  0.00     0.177 C 
BRANCH  21  26
ATOM     26  O   UNL     1      -4.035  85.229  -9.260  1.00  0.00    -0.387 OA
ATOM     27  H   UNL     1      -3.633  84.322  -9.229  1.00  0.00     0.211 HD
ENDBRANCH  21  26
BRANCH  23  28
ATOM     28  O   UNL     1      -4.490  82.885 -10.620  1.00  0.00    -0.387 OA
ATOM     29  H   UNL     1      -4.759  82.319 -11.390  1.00  0.00     0.211 HD
ENDBRANCH  23  28
BRANCH  24  30
ATOM     30  C   UNL     1      -8.687  84.194  -9.356  1.00  0.00     0.191 C 
BRANCH  30  31
ATOM     31  O   UNL     1      -8.841  82.966 -10.014  1.00  0.00    -0.394 OA
ATOM     32  H   UNL     1      -8.852  82.264  -9.312  1.00  0.00     0.210 HD
ENDBRANCH  30  31
ENDBRANCH  24  30
BRANCH  25  33
ATOM     33  O   UNL     1      -5.391  82.865  -8.057  1.00  0.00    -0.388 OA
ATOM     34  H   UNL     1      -5.097  83.699  -7.610  1.00  0.00     0.211 HD
ENDBRANCH  25  33
ENDBRANCH  11  20
BRANCH  10  35
ATOM     35  O   UNL     1      -5.087  86.979  -7.213  1.00  0.00    -0.507 OA
ATOM     36  H   UNL     1      -4.723  87.261  -6.311  1.00  0.00     0.293 HD
ENDBRANCH  10  35
TORSDOF 9
ENDMDL
MODEL 4
REMARK VINA RESULT:    -5.337      5.586      9.515
REMARK INTER + INTRA:          -8.097
REMARK INTER:                  -7.280
REMARK INTRA:                  -0.818
REMARK UNBOUND:                -0.889
REMARK SMILES O=c1c(-c2ccc(O)cc2)coc2c([C@@H]3O[C@@H](CO)[C@H](O)[C@H](O)[C@@H]3O)c(O)ccc12
REMARK SMILES IDX 3 1 11 2 12 3 13 4 30 5 2 6 1 7 29 8 28 9 26 10 14 11 4 12
REMARK SMILES IDX 5 13 6 14 7 15 10 16 9 17 8 18 15 20 24 21 16 22 22 23 17 24
REMARK SMILES IDX 20 25 25 26 23 28 18 30 19 31 21 33 27 35
REMARK H PARENT 8 19 25 27 23 29 19 32 21 34 27 36
REMARK Flexibility Score: inf
ROOT
ATOM      1  C   UNL     1      -8.566  84.387  -8.885  1.00  0.00     0.065 A 
ATOM      2  C   UNL     1      -9.333  85.539  -8.664  1.00  0.00     0.208 A 
ATOM      3  O   UNL     1     -10.659  85.483  -8.655  1.00  0.00    -0.463 OA
ATOM      4  C   UNL     1     -11.343  84.359  -8.851  1.00  0.00     0.147 A 
ATOM      5  C   UNL     1     -10.648  83.148  -9.079  1.00  0.00     0.066 A 
ATOM      6  C   UNL     1      -9.242  83.173  -9.105  1.00  0.00     0.200 A 
ATOM      7  O   UNL     1      -8.590  82.117  -9.339  1.00  0.00    -0.288 OA
ATOM      8  C   UNL     1     -11.368  81.959  -9.270  1.00  0.00     0.020 A 
ATOM      9  C   UNL     1     -12.759  81.967  -9.217  1.00  0.00     0.047 A 
ATOM     10  C   UNL     1     -13.459  83.157  -8.986  1.00  0.00     0.125 A 
ATOM     11  C   UNL     1     -12.760  84.375  -8.826  1.00  0.00     0.069 A 
ENDROOT
BRANCH   1  12
ATOM     12  C   UNL     1      -7.083  84.474  -8.884  1.00  0.00    -0.011 A 
ATOM     13  C   UNL     1      -6.400  85.054  -9.968  1.00  0.00     0.013 A 
ATOM     14  C   UNL     1      -5.003  85.124  -9.967  1.00  0.00     0.047 A 
ATOM     15  C   UNL     1      -4.273  84.614  -8.889  1.00  0.00     0.115 A 
ATOM     16  C   UNL     1      -6.343  83.956  -7.806  1.00  0.00     0.013 A 
ATOM     17  C   UNL     1      -4.947  84.029  -7.808  1.00  0.00     0.047 A 
BRANCH  15  18
ATOM     18  O   UNL     1      -2.882  84.692  -8.901  1.00  0.00    -0.508 OA
ATOM     19  H   UNL     1      -2.328  84.161  -9.562  1.00  0.00     0.293 HD
ENDBRANCH  15  18
ENDBRANCH   1  12
BRANCH  11  20
ATOM     20  C   UNL     1     -13.533  85.660  -8.554  1.00  0.00     0.188 C 
ATOM     21  C   UNL     1     -13.895  86.366  -9.882  1.00  0.00     0.179 C 
ATOM     22  O   UNL     1     -14.687  85.379  -7.774  1.00  0.00    -0.362 OA
ATOM     23  C   UNL     1     -14.672  87.659  -9.584  1.00  0.00     0.177 C 
ATOM     24  C   UNL     1     -15.399  86.550  -7.390  1.00  0.00     0.176 C 
ATOM     25  C   UNL     1     -15.840  87.404  -8.611  1.00  0.00     0.177 C 
BRANCH  21  26
ATOM     26  O   UNL     1     -14.661  85.525 -10.708  1.00  0.00    -0.387 OA
ATOM     27  H   UNL     1     -14.723  85.962 -11.597  1.00  0.00     0.211 HD
ENDBRANCH  21  26
BRANCH  23  28
ATOM     28  O   UNL     1     -15.160  88.227 -10.773  1.00  0.00    -0.387 OA
ATOM     29  H   UNL     1     -16.094  88.512 -10.593  1.00  0.00     0.211 HD
ENDBRANCH  23  28
BRANCH  24  30
ATOM     30  C   UNL     1     -14.648  87.363  -6.310  1.00  0.00     0.191 C 
BRANCH  30  31
ATOM     31  O   UNL     1     -15.202  88.645  -6.184  1.00  0.00    -0.394 OA
ATOM     32  H   UNL     1     -16.000  88.557  -5.601  1.00  0.00     0.210 HD
ENDBRANCH  30  31
ENDBRANCH  24  30
BRANCH  25  33
ATOM     33  O   UNL     1     -16.934  86.815  -9.275  1.00  0.00    -0.388 OA
ATOM     34  H   UNL     1     -17.763  87.273  -8.984  1.00  0.00     0.211 HD
ENDBRANCH  25  33
ENDBRANCH  11  20
BRANCH  10  35
ATOM     35  O   UNL     1     -14.853  83.128  -8.913  1.00  0.00    -0.507 OA
ATOM     36  H   UNL     1     -15.393  82.371  -9.315  1.00  0.00     0.293 HD
ENDBRANCH  10  35
TORSDOF 9
ENDMDL
MODEL 5
REMARK VINA RESULT:    -5.310      4.091      7.265
REMARK INTER + INTRA:          -8.061
REMARK INTER:                  -7.248
REMARK INTRA:                  -0.813
REMARK UNBOUND:                -0.889
REMARK SMILES O=c1c(-c2ccc(O)cc2)coc2c([C@@H]3O[C@@H](CO)[C@H](O)[C@H](O)[C@@H]3O)c(O)ccc12
REMARK SMILES IDX 3 1 11 2 12 3 13 4 30 5 2 6 1 7 29 8 28 9 26 10 14 11 4 12
REMARK SMILES IDX 5 13 6 14 7 15 10 16 9 17 8 18 15 20 24 21 16 22 22 23 17 24
REMARK SMILES IDX 20 25 25 26 23 28 18 30 19 31 21 33 27 35
REMARK H PARENT 8 19 25 27 23 29 19 32 21 34 27 36
REMARK Flexibility Score: inf
ROOT
ATOM      1  C   UNL     1      -8.621  87.613  -8.863  1.00  0.00     0.065 A 
ATOM      2  C   UNL     1      -8.705  86.222  -8.707  1.00  0.00     0.208 A 
ATOM      3  O   UNL     1      -9.844  85.579  -8.931  1.00  0.00    -0.463 OA
ATOM      4  C   UNL     1     -10.964  86.189  -9.310  1.00  0.00     0.147 A 
ATOM      5  C   UNL     1     -10.968  87.592  -9.493  1.00  0.00     0.066 A 
ATOM      6  C   UNL     1      -9.780  88.306  -9.255  1.00  0.00     0.200 A 
ATOM      7  O   UNL     1      -9.757  89.563  -9.376  1.00  0.00    -0.288 OA
ATOM      8  C   UNL     1     -12.144  88.234  -9.908  1.00  0.00     0.020 A 
ATOM      9  C   UNL     1     -13.297  87.494 -10.156  1.00  0.00     0.047 A 
ATOM     10  C   UNL     1     -13.305  86.105  -9.984  1.00  0.00     0.125 A 
ATOM     11  C   UNL     1     -12.144  85.437  -9.533  1.00  0.00     0.069 A 
ENDROOT
BRANCH   1  12
ATOM     12  C   UNL     1      -7.333  88.309  -8.611  1.00  0.00    -0.011 A 
ATOM     13  C   UNL     1      -6.505  88.692  -9.681  1.00  0.00     0.013 A 
ATOM     14  C   UNL     1      -5.289  89.339  -9.438  1.00  0.00     0.047 A 
ATOM     15  C   UNL     1      -4.884  89.607  -8.127  1.00  0.00     0.115 A 
ATOM     16  C   UNL     1      -6.917  88.575  -7.294  1.00  0.00     0.013 A 
ATOM     17  C   UNL     1      -5.701  89.222  -7.055  1.00  0.00     0.047 A 
BRANCH  15  18
ATOM     18  O   UNL     1      -3.671  90.253  -7.900  1.00  0.00    -0.508 OA
ATOM     19  H   UNL     1      -2.951  89.838  -7.320  1.00  0.00     0.293 HD
ENDBRANCH  15  18
ENDBRANCH   1  12
BRANCH  11  20
ATOM     20  C   UNL     1     -12.159  83.921  -9.369  1.00  0.00     0.188 C 
ATOM     21  C   UNL     1     -12.526  83.536  -7.918  1.00  0.00     0.179 C 
ATOM     22  O   UNL     1     -13.049  83.339 -10.312  1.00  0.00    -0.362 OA
ATOM     23  C   UNL     1     -12.534  82.005  -7.776  1.00  0.00     0.177 C 
ATOM     24  C   UNL     1     -13.032  81.916 -10.290  1.00  0.00     0.176 C 
ATOM     25  C   UNL     1     -13.371  81.339  -8.887  1.00  0.00     0.177 C 
BRANCH  21  26
ATOM     26  O   UNL     1     -13.782  84.058  -7.559  1.00  0.00    -0.387 OA
ATOM     27  H   UNL     1     -13.620  84.803  -6.923  1.00  0.00     0.211 HD
ENDBRANCH  21  26
BRANCH  23  28
ATOM     28  O   UNL     1     -13.031  81.628  -6.517  1.00  0.00    -0.387 OA
ATOM     29  H   UNL     1     -13.061  82.451  -5.962  1.00  0.00     0.211 HD
ENDBRANCH  23  28
BRANCH  24  30
ATOM     30  C   UNL     1     -11.732  81.337 -10.893  1.00  0.00     0.191 C 
BRANCH  30  31
ATOM     31  O   UNL     1     -11.801  81.323 -12.294  1.00  0.00    -0.394 OA
ATOM     32  H   UNL     1     -12.537  80.703 -12.538  1.00  0.00     0.210 HD
ENDBRANCH  30  31
ENDBRANCH  24  30
BRANCH  25  33
ATOM     33  O   UNL     1     -14.750  81.444  -8.614  1.00  0.00    -0.388 OA
ATOM     34  H   UNL     1     -14.864  81.941  -7.763  1.00  0.00     0.211 HD
ENDBRANCH  25  33
ENDBRANCH  11  20
BRANCH  10  35
ATOM     35  O   UNL     1     -14.468  85.386 -10.264  1.00  0.00    -0.507 OA
ATOM     36  H   UNL     1     -15.378  85.831 -10.280  1.00  0.00     0.293 HD
ENDBRANCH  10  35
TORSDOF 9
ENDMDL
MODEL 6
REMARK VINA RESULT:    -5.236      5.074      9.211
REMARK INTER + INTRA:          -7.961
REMARK INTER:                  -7.106
REMARK INTRA:                  -0.855
REMARK UNBOUND:                -0.889
REMARK SMILES O=c1c(-c2ccc(O)cc2)coc2c([C@@H]3O[C@@H](CO)[C@H](O)[C@H](O)[C@@H]3O)c(O)ccc12
REMARK SMILES IDX 3 1 11 2 12 3 13 4 30 5 2 6 1 7 29 8 28 9 26 10 14 11 4 12
REMARK SMILES IDX 5 13 6 14 7 15 10 16 9 17 8 18 15 20 24 21 16 22 22 23 17 24
REMARK SMILES IDX 20 25 25 26 23 28 18 30 19 31 21 33 27 35
REMARK H PARENT 8 19 25 27 23 29 19 32 21 34 27 36
REMARK Flexibility Score: inf
ROOT
ATOM      1  C   UNL     1      -9.662  90.419 -12.546  1.00  0.00     0.065 A 
ATOM      2  C   UNL     1      -9.478  91.209 -13.690  1.00  0.00     0.208 A 
ATOM      3  O   UNL     1      -8.302  91.254 -14.304  1.00  0.00    -0.463 OA
ATOM      4  C   UNL     1      -7.237  90.571 -13.891  1.00  0.00     0.147 A 
ATOM      5  C   UNL     1      -7.335  89.748 -12.745  1.00  0.00     0.066 A 
ATOM      6  C   UNL     1      -8.564  89.684 -12.064  1.00  0.00     0.200 A 
ATOM      7  O   UNL     1      -8.678  88.985 -11.019  1.00  0.00    -0.288 OA
ATOM      8  C   UNL     1      -6.217  89.016 -12.319  1.00  0.00     0.020 A 
ATOM      9  C   UNL     1      -5.021  89.085 -13.029  1.00  0.00     0.047 A 
ATOM     10  C   UNL     1      -4.912  89.892 -14.168  1.00  0.00     0.125 A 
ATOM     11  C   UNL     1      -6.013  90.667 -14.599  1.00  0.00     0.069 A 
ENDROOT
BRANCH   1  12
ATOM     12  C   UNL     1     -10.989  90.381 -11.880  1.00  0.00    -0.011 A 
ATOM     13  C   UNL     1     -11.913  89.365 -12.180  1.00  0.00     0.013 A 
ATOM     14  C   UNL     1     -13.165  89.340 -11.557  1.00  0.00     0.047 A 
ATOM     15  C   UNL     1     -13.510  90.328 -10.631  1.00  0.00     0.115 A 
ATOM     16  C   UNL     1     -11.345  91.377 -10.953  1.00  0.00     0.013 A 
ATOM     17  C   UNL     1     -12.596  91.349 -10.330  1.00  0.00     0.047 A 
BRANCH  15  18
ATOM     18  O   UNL     1     -14.759  90.290 -10.016  1.00  0.00    -0.508 OA
ATOM     19  H   UNL     1     -15.604  90.539 -10.518  1.00  0.00     0.293 HD
ENDBRANCH  15  18
ENDBRANCH   1  12
BRANCH  11  20
ATOM     20  C   UNL     1      -5.887  91.525 -15.853  1.00  0.00     0.188 C 
ATOM     21  C   UNL     1      -5.467  92.967 -15.484  1.00  0.00     0.179 C 
ATOM     22  O   UNL     1      -4.976  90.926 -16.764  1.00  0.00    -0.362 OA
ATOM     23  C   UNL     1      -5.349  93.813 -16.761  1.00  0.00     0.177 C 
ATOM     24  C   UNL     1      -4.893  91.618 -18.005  1.00  0.00     0.176 C 
ATOM     25  C   UNL     1      -4.488  93.108 -17.828  1.00  0.00     0.177 C 
BRANCH  21  26
ATOM     26  O   UNL     1      -4.245  92.974 -14.788  1.00  0.00    -0.387 OA
ATOM     27  H   UNL     1      -3.523  92.868 -15.460  1.00  0.00     0.211 HD
ENDBRANCH  21  26
BRANCH  23  28
ATOM     28  O   UNL     1      -4.804  95.075 -16.469  1.00  0.00    -0.387 OA
ATOM     29  H   UNL     1      -4.530  95.477 -17.334  1.00  0.00     0.211 HD
ENDBRANCH  23  28
BRANCH  24  30
ATOM     30  C   UNL     1      -6.160  91.425 -18.869  1.00  0.00     0.191 C 
BRANCH  30  31
ATOM     31  O   UNL     1      -6.171  92.330 -19.940  1.00  0.00    -0.394 OA
ATOM     32  H   UNL     1      -5.899  93.211 -19.572  1.00  0.00     0.210 HD
ENDBRANCH  30  31
ENDBRANCH  24  30
BRANCH  25  33
ATOM     33  O   UNL     1      -3.115  93.231 -17.533  1.00  0.00    -0.388 OA
ATOM     34  H   UNL     1      -2.675  93.710 -18.281  1.00  0.00     0.211 HD
ENDBRANCH  25  33
ENDBRANCH  11  20
BRANCH  10  35
ATOM     35  O   UNL     1      -3.708  89.921 -14.874  1.00  0.00    -0.507 OA
ATOM     36  H   UNL     1      -3.052  90.687 -14.777  1.00  0.00     0.293 HD
ENDBRANCH  10  35
TORSDOF 9
ENDMDL
MODEL 7
REMARK VINA RESULT:    -5.191      3.366      6.371
REMARK INTER + INTRA:          -7.901
REMARK INTER:                  -7.006
REMARK INTRA:                  -0.895
REMARK UNBOUND:                -0.889
REMARK SMILES O=c1c(-c2ccc(O)cc2)coc2c([C@@H]3O[C@@H](CO)[C@H](O)[C@H](O)[C@@H]3O)c(O)ccc12
REMARK SMILES IDX 3 1 11 2 12 3 13 4 30 5 2 6 1 7 29 8 28 9 26 10 14 11 4 12
REMARK SMILES IDX 5 13 6 14 7 15 10 16 9 17 8 18 15 20 24 21 16 22 22 23 17 24
REMARK SMILES IDX 20 25 25 26 23 28 18 30 19 31 21 33 27 35
REMARK H PARENT 8 19 25 27 23 29 19 32 21 34 27 36
REMARK Flexibility Score: inf
ROOT
ATOM      1  C   UNL     1      -7.615  87.314  -9.610  1.00  0.00     0.065 A 
ATOM      2  C   UNL     1      -8.997  87.373  -9.380  1.00  0.00     0.208 A 
ATOM      3  O   UNL     1      -9.702  86.266  -9.180  1.00  0.00    -0.463 OA
ATOM      4  C   UNL     1      -9.165  85.049  -9.184  1.00  0.00     0.147 A 
ATOM      5  C   UNL     1      -7.776  84.898  -9.407  1.00  0.00     0.066 A 
ATOM      6  C   UNL     1      -7.000  86.049  -9.632  1.00  0.00     0.200 A 
ATOM      7  O   UNL     1      -5.764  85.949  -9.868  1.00  0.00    -0.288 OA
ATOM      8  C   UNL     1      -7.207  83.616  -9.396  1.00  0.00     0.020 A 
ATOM      9  C   UNL     1      -8.000  82.498  -9.149  1.00  0.00     0.047 A 
ATOM     10  C   UNL     1      -9.374  82.635  -8.921  1.00  0.00     0.125 A 
ATOM     11  C   UNL     1      -9.980  83.911  -8.961  1.00  0.00     0.069 A 
ENDROOT
BRANCH   1  12
ATOM     12  C   UNL     1      -6.847  88.567  -9.826  1.00  0.00    -0.011 A 
ATOM     13  C   UNL     1      -6.295  89.265  -8.737  1.00  0.00     0.013 A 
ATOM     14  C   UNL     1      -5.581  90.450  -8.945  1.00  0.00     0.047 A 
ATOM     15  C   UNL     1      -5.413  90.953 -10.239  1.00  0.00     0.115 A 
ATOM     16  C   UNL     1      -6.681  89.082 -11.124  1.00  0.00     0.013 A 
ATOM     17  C   UNL     1      -5.966  90.266 -11.329  1.00  0.00     0.047 A 
BRANCH  15  18
ATOM     18  O   UNL     1      -4.699  92.133 -10.431  1.00  0.00    -0.508 OA
ATOM     19  H   UNL     1      -5.029  93.017 -10.064  1.00  0.00     0.293 HD
ENDBRANCH  15  18
ENDBRANCH   1  12
BRANCH  11  20
ATOM     20  C   UNL     1     -11.474  84.048  -8.691  1.00  0.00     0.188 C 
ATOM     21  C   UNL     1     -12.284  83.816  -9.988  1.00  0.00     0.179 C 
ATOM     22  O   UNL     1     -11.865  83.155  -7.657  1.00  0.00    -0.362 OA
ATOM     23  C   UNL     1     -13.785  83.961  -9.691  1.00  0.00     0.177 C 
ATOM     24  C   UNL     1     -13.228  83.306  -7.276  1.00  0.00     0.176 C 
ATOM     25  C   UNL     1     -14.204  83.117  -8.471  1.00  0.00     0.177 C 
BRANCH  21  26
ATOM     26  O   UNL     1     -12.020  82.545 -10.527  1.00  0.00    -0.387 OA
ATOM     27  H   UNL     1     -12.588  81.894 -10.038  1.00  0.00     0.211 HD
ENDBRANCH  21  26
BRANCH  23  28
ATOM     28  O   UNL     1     -14.547  83.586 -10.811  1.00  0.00    -0.387 OA
ATOM     29  H   UNL     1     -14.925  82.689 -10.615  1.00  0.00     0.211 HD
ENDBRANCH  23  28
BRANCH  24  30
ATOM     30  C   UNL     1     -13.473  84.611  -6.485  1.00  0.00     0.191 C 
BRANCH  30  31
ATOM     31  O   UNL     1     -14.843  84.907  -6.431  1.00  0.00    -0.394 OA
ATOM     32  H   UNL     1     -15.020  85.577  -7.142  1.00  0.00     0.210 HD
ENDBRANCH  30  31
ENDBRANCH  24  30
BRANCH  25  33
ATOM     33  O   UNL     1     -14.328  81.756  -8.815  1.00  0.00    -0.388 OA
ATOM     34  H   UNL     1     -14.101  81.209  -8.020  1.00  0.00     0.211 HD
ENDBRANCH  25  33
ENDBRANCH  11  20
BRANCH  10  35
ATOM     35  O   UNL     1     -10.140  81.499  -8.650  1.00  0.00    -0.507 OA
ATOM     36  H   UNL     1     -11.014  81.319  -9.129  1.00  0.00     0.293 HD
ENDBRANCH  10  35
TORSDOF 9
ENDMDL
MODEL 8
REMARK VINA RESULT:    -5.042      2.834      8.184
REMARK INTER + INTRA:          -7.700
REMARK INTER:                  -6.918
REMARK INTRA:                  -0.782
REMARK UNBOUND:                -0.889
REMARK SMILES O=c1c(-c2ccc(O)cc2)coc2c([C@@H]3O[C@@H](CO)[C@H](O)[C@H](O)[C@@H]3O)c(O)ccc12
REMARK SMILES IDX 3 1 11 2 12 3 13 4 30 5 2 6 1 7 29 8 28 9 26 10 14 11 4 12
REMARK SMILES IDX 5 13 6 14 7 15 10 16 9 17 8 18 15 20 24 21 16 22 22 23 17 24
REMARK SMILES IDX 20 25 25 26 23 28 18 30 19 31 21 33 27 35
REMARK H PARENT 8 19 25 27 23 29 19 32 21 34 27 36
REMARK Flexibility Score: inf
ROOT
ATOM      1  C   UNL     1      -4.714  85.275  -8.511  1.00  0.00     0.065 A 
ATOM      2  C   UNL     1      -5.415  85.403  -9.717  1.00  0.00     0.208 A 
ATOM      3  O   UNL     1      -5.773  86.597 -10.174  1.00  0.00    -0.463 OA
ATOM      4  C   UNL     1      -5.500  87.733  -9.538  1.00  0.00     0.147 A 
ATOM      5  C   UNL     1      -4.793  87.696  -8.313  1.00  0.00     0.066 A 
ATOM      6  C   UNL     1      -4.408  86.446  -7.795  1.00  0.00     0.200 A 
ATOM      7  O   UNL     1      -3.805  86.374  -6.688  1.00  0.00    -0.288 OA
ATOM      8  C   UNL     1      -4.491  88.895  -7.649  1.00  0.00     0.020 A 
ATOM      9  C   UNL     1      -4.869  90.116  -8.201  1.00  0.00     0.047 A 
ATOM     10  C   UNL     1      -5.563  90.167  -9.415  1.00  0.00     0.125 A 
ATOM     11  C   UNL     1      -5.911  88.973 -10.088  1.00  0.00     0.069 A 
ENDROOT
BRANCH   1  12
ATOM     12  C   UNL     1      -4.321  83.928  -8.023  1.00  0.00    -0.011 A 
ATOM     13  C   UNL     1      -4.994  83.334  -6.941  1.00  0.00     0.013 A 
ATOM     14  C   UNL     1      -4.613  82.070  -6.480  1.00  0.00     0.047 A 
ATOM     15  C   UNL     1      -3.556  81.387  -7.088  1.00  0.00     0.115 A 
ATOM     16  C   UNL     1      -3.253  83.239  -8.626  1.00  0.00     0.013 A 
ATOM     17  C   UNL     1      -2.876  81.976  -8.163  1.00  0.00     0.047 A 
BRANCH  15  18
ATOM     18  O   UNL     1      -3.189  80.128  -6.619  1.00  0.00    -0.508 OA
ATOM     19  H   UNL     1      -3.398  79.834  -5.672  1.00  0.00     0.293 HD
ENDBRANCH  15  18
ENDBRANCH   1  12
BRANCH  11  20
ATOM     20  C   UNL     1      -6.649  89.043 -11.419  1.00  0.00     0.188 C 
ATOM     21  C   UNL     1      -8.172  89.177 -11.189  1.00  0.00     0.179 C 
ATOM     22  O   UNL     1      -6.138  90.112 -12.204  1.00  0.00    -0.362 OA
ATOM     23  C   UNL     1      -8.896  89.244 -12.544  1.00  0.00     0.177 C 
ATOM     24  C   UNL     1      -6.707  90.169 -13.507  1.00  0.00     0.176 C 
ATOM     25  C   UNL     1      -8.256  90.294 -13.474  1.00  0.00     0.177 C 
BRANCH  21  26
ATOM     26  O   UNL     1      -8.469  90.322 -10.429  1.00  0.00    -0.387 OA
ATOM     27  H   UNL     1      -7.938  91.071 -10.805  1.00  0.00     0.211 HD
ENDBRANCH  21  26
BRANCH  23  28
ATOM     28  O   UNL     1     -10.257  89.538 -12.362  1.00  0.00    -0.387 OA
ATOM     29  H   UNL     1     -10.604  89.850 -13.240  1.00  0.00     0.211 HD
ENDBRANCH  23  28
BRANCH  24  30
ATOM     30  C   UNL     1      -6.203  89.024 -14.416  1.00  0.00     0.191 C 
BRANCH  30  31
ATOM     31  O   UNL     1      -5.144  89.465 -15.223  1.00  0.00    -0.394 OA
ATOM     32  H   UNL     1      -4.619  88.660 -15.471  1.00  0.00     0.210 HD
ENDBRANCH  30  31
ENDBRANCH  24  30
BRANCH  25  33
ATOM     33  O   UNL     1      -8.653  91.598 -13.115  1.00  0.00    -0.388 OA
ATOM     34  H   UNL     1      -7.856  92.091 -12.792  1.00  0.00     0.211 HD
ENDBRANCH  25  33
ENDBRANCH  11  20
BRANCH  10  35
ATOM     35  O   UNL     1      -5.906  91.407  -9.956  1.00  0.00    -0.507 OA
ATOM     36  H   UNL     1      -6.856  91.758  -9.925  1.00  0.00     0.293 HD
ENDBRANCH  10  35
TORSDOF 9
ENDMDL
