MODEL 1
REMARK VINA RESULT:    -5.686      0.000      0.000
REMARK INTER + INTRA:          -6.830
REMARK INTER:                  -6.517
REMARK INTRA:                  -0.312
REMARK UNBOUND:                -0.312
REMARK SMILES COc1ccc(C(C)=O)c(O)c1
REMARK SMILES IDX 6 1 10 2 12 3 3 4 4 5 5 6 7 7 8 8 9 9 11 10 2 12 1 13
REMARK H PARENT 11 11
REMARK Flexibility Score: inf
ROOT
ATOM      1  C   UNL     1      13.382  19.810  18.005  1.00  0.00     0.059 A 
ATOM      2  C   UNL     1      13.038  21.003  17.327  1.00  0.00     0.130 A 
ATOM      3  C   UNL     1      11.923  21.747  17.744  1.00  0.00     0.093 A 
ATOM      4  C   UNL     1      11.130  21.318  18.812  1.00  0.00     0.122 A 
ATOM      5  C   UNL     1      11.461  20.124  19.473  1.00  0.00     0.047 A 
ATOM      6  C   UNL     1      12.571  19.380  19.070  1.00  0.00     0.019 A 
ENDROOT
BRANCH   1   7
ATOM      7  C   UNL     1      14.562  18.987  17.624  1.00  0.00     0.163 C 
ATOM      8  C   UNL     1      15.734  18.790  18.537  1.00  0.00     0.093 C 
ATOM      9  O   UNL     1      14.586  18.429  16.493  1.00  0.00    -0.294 OA
ENDBRANCH   1   7
BRANCH   2  10
ATOM     10  O   UNL     1      13.779  21.445  16.233  1.00  0.00    -0.507 OA
ATOM     11  H   UNL     1      13.670  22.379  15.856  1.00  0.00     0.293 HD
ENDBRANCH   2  10
BRANCH   4  12
ATOM     12  O   UNL     1      10.027  22.102  19.181  1.00  0.00    -0.497 OA
ATOM     13  C   UNL     1       8.856  21.596  19.812  1.00  0.00     0.278 C 
ENDBRANCH   4  12
TORSDOF 3
ENDMDL
MODEL 2
REMARK VINA RESULT:    -5.671      1.819      2.319
REMARK INTER + INTRA:          -6.813
REMARK INTER:                  -6.484
REMARK INTRA:                  -0.329
REMARK UNBOUND:                -0.312
REMARK SMILES COc1ccc(C(C)=O)c(O)c1
REMARK SMILES IDX 6 1 10 2 12 3 3 4 4 5 5 6 7 7 8 8 9 9 11 10 2 12 1 13
REMARK H PARENT 11 11
REMARK Flexibility Score: inf
ROOT
ATOM      1  C   UNL     1      12.053  20.319  16.672  1.00  0.00     0.059 A 
ATOM      2  C   UNL     1      12.668  21.118  17.664  1.00  0.00     0.130 A 
ATOM      3  C   UNL     1      11.906  21.611  18.735  1.00  0.00     0.093 A 
ATOM      4  C   UNL     1      10.539  21.340  18.831  1.00  0.00     0.122 A 
ATOM      5  C   UNL     1       9.925  20.563  17.835  1.00  0.00     0.047 A 
ATOM      6  C   UNL     1      10.674  20.062  16.769  1.00  0.00     0.019 A 
ENDROOT
BRANCH   1   7
ATOM      7  C   UNL     1      12.809  19.750  15.522  1.00  0.00     0.163 C 
ATOM      8  C   UNL     1      12.446  20.041  14.098  1.00  0.00     0.093 C 
ATOM      9  O   UNL     1      13.793  18.994  15.745  1.00  0.00    -0.294 OA
ENDBRANCH   1   7
BRANCH   2  10
ATOM     10  O   UNL     1      14.021  21.444  17.585  1.00  0.00    -0.507 OA
ATOM     11  H   UNL     1      14.705  21.038  18.210  1.00  0.00     0.293 HD
ENDBRANCH   2  10
BRANCH   4  12
ATOM     12  O   UNL     1       9.830  21.863  19.922  1.00  0.00    -0.497 OA
ATOM     13  C   UNL     1       8.493  21.508  20.257  1.00  0.00     0.278 C 
ENDBRANCH   4  12
TORSDOF 3
ENDMDL
MODEL 3
REMARK VINA RESULT:    -5.498      1.137      2.005
REMARK INTER + INTRA:          -6.614
REMARK INTER:                  -6.484
REMARK INTRA:                  -0.131
REMARK UNBOUND:                -0.312
REMARK SMILES COc1ccc(C(C)=O)c(O)c1
REMARK SMILES IDX 6 1 10 2 12 3 3 4 4 5 5 6 7 7 8 8 9 9 11 10 2 12 1 13
REMARK H PARENT 11 11
REMARK Flexibility Score: inf
ROOT
ATOM      1  C   UNL     1      13.573  19.779  18.055  1.00  0.00     0.059 A 
ATOM      2  C   UNL     1      12.631  19.437  19.053  1.00  0.00     0.130 A 
ATOM      3  C   UNL     1      11.523  20.267  19.283  1.00  0.00     0.093 A 
ATOM      4  C   UNL     1      11.342  21.443  18.550  1.00  0.00     0.122 A 
ATOM      5  C   UNL     1      12.287  21.792  17.572  1.00  0.00     0.047 A 
ATOM      6  C   UNL     1      13.389  20.970  17.331  1.00  0.00     0.019 A 
ENDROOT
BRANCH   1   7
ATOM      7  C   UNL     1      14.758  18.931  17.750  1.00  0.00     0.163 C 
ATOM      8  C   UNL     1      15.949  18.857  18.656  1.00  0.00     0.093 C 
ATOM      9  O   UNL     1      14.769  18.244  16.692  1.00  0.00    -0.294 OA
ENDBRANCH   1   7
BRANCH   2  10
ATOM     10  O   UNL     1      12.796  18.293  19.833  1.00  0.00    -0.507 OA
ATOM     11  H   UNL     1      12.045  17.920  20.399  1.00  0.00     0.293 HD
ENDBRANCH   2  10
BRANCH   4  12
ATOM     12  O   UNL     1      10.217  22.234  18.826  1.00  0.00    -0.497 OA
ATOM     13  C   UNL     1       9.186  21.877  19.741  1.00  0.00     0.278 C 
ENDBRANCH   4  12
TORSDOF 3
ENDMDL
MODEL 4
REMARK VINA RESULT:    -5.427      1.257      4.539
REMARK INTER + INTRA:          -6.532
REMARK INTER:                  -6.214
REMARK INTRA:                  -0.319
REMARK UNBOUND:                -0.312
REMARK SMILES COc1ccc(C(C)=O)c(O)c1
REMARK SMILES IDX 6 1 10 2 12 3 3 4 4 5 5 6 7 7 8 8 9 9 11 10 2 12 1 13
REMARK H PARENT 11 11
REMARK Flexibility Score: inf
ROOT
ATOM      1  C   UNL     1      11.623  20.165  18.511  1.00  0.00     0.059 A 
ATOM      2  C   UNL     1      12.442  20.570  17.431  1.00  0.00     0.130 A 
ATOM      3  C   UNL     1      13.724  20.019  17.281  1.00  0.00     0.093 A 
ATOM      4  C   UNL     1      14.216  19.083  18.194  1.00  0.00     0.122 A 
ATOM      5  C   UNL     1      13.410  18.694  19.276  1.00  0.00     0.047 A 
ATOM      6  C   UNL     1      12.131  19.232  19.431  1.00  0.00     0.019 A 
ENDROOT
BRANCH   1   7
ATOM      7  C   UNL     1      10.248  20.698  18.714  1.00  0.00     0.163 C 
ATOM      8  C   UNL     1       9.849  21.442  19.952  1.00  0.00     0.093 C 
ATOM      9  O   UNL     1       9.379  20.521  17.817  1.00  0.00    -0.294 OA
ENDBRANCH   1   7
BRANCH   2  10
ATOM     10  O   UNL     1      12.004  21.531  16.521  1.00  0.00    -0.507 OA
ATOM     11  H   UNL     1      11.695  22.447  16.819  1.00  0.00     0.293 HD
ENDBRANCH   2  10
BRANCH   4  12
ATOM     12  O   UNL     1      15.505  18.568  17.993  1.00  0.00    -0.497 OA
ATOM     13  C   UNL     1      16.621  18.844  18.833  1.00  0.00     0.278 C 
ENDBRANCH   4  12
TORSDOF 3
ENDMDL
MODEL 5
REMARK VINA RESULT:    -5.426      2.171      2.742
REMARK INTER + INTRA:          -6.531
REMARK INTER:                  -6.190
REMARK INTRA:                  -0.342
REMARK UNBOUND:                -0.312
REMARK SMILES COc1ccc(C(C)=O)c(O)c1
REMARK SMILES IDX 6 1 10 2 12 3 3 4 4 5 5 6 7 7 8 8 9 9 11 10 2 12 1 13
REMARK H PARENT 11 11
REMARK Flexibility Score: inf
ROOT
ATOM      1  C   UNL     1      11.716  20.311  16.590  1.00  0.00     0.059 A 
ATOM      2  C   UNL     1      10.349  20.042  16.830  1.00  0.00     0.130 A 
ATOM      3  C   UNL     1       9.723  20.567  17.971  1.00  0.00     0.093 A 
ATOM      4  C   UNL     1      10.435  21.342  18.890  1.00  0.00     0.122 A 
ATOM      5  C   UNL     1      11.798  21.594  18.661  1.00  0.00     0.047 A 
ATOM      6  C   UNL     1      12.428  21.081  17.526  1.00  0.00     0.019 A 
ENDROOT
BRANCH   1   7
ATOM      7  C   UNL     1      12.433  19.799  15.389  1.00  0.00     0.163 C 
ATOM      8  C   UNL     1      13.719  19.038  15.484  1.00  0.00     0.093 C 
ATOM      9  O   UNL     1      11.945  20.009  14.245  1.00  0.00    -0.294 OA
ENDBRANCH   1   7
BRANCH   2  10
ATOM     10  O   UNL     1       9.612  19.241  15.959  1.00  0.00    -0.507 OA
ATOM     11  H   UNL     1       8.601  19.200  15.997  1.00  0.00     0.293 HD
ENDBRANCH   2  10
BRANCH   4  12
ATOM     12  O   UNL     1       9.756  21.838  20.013  1.00  0.00    -0.497 OA
ATOM     13  C   UNL     1       8.399  21.545  20.327  1.00  0.00     0.278 C 
ENDBRANCH   4  12
TORSDOF 3
ENDMDL
MODEL 6
REMARK VINA RESULT:    -5.379      2.515      3.882
REMARK INTER + INTRA:          -6.478
REMARK INTER:                  -6.161
REMARK INTRA:                  -0.317
REMARK UNBOUND:                -0.312
REMARK SMILES COc1ccc(C(C)=O)c(O)c1
REMARK SMILES IDX 6 1 10 2 12 3 3 4 4 5 5 6 7 7 8 8 9 9 11 10 2 12 1 13
REMARK H PARENT 11 11
REMARK Flexibility Score: inf
ROOT
ATOM      1  C   UNL     1      13.993  19.116  17.297  1.00  0.00     0.059 A 
ATOM      2  C   UNL     1      12.998  20.121  17.249  1.00  0.00     0.130 A 
ATOM      3  C   UNL     1      12.387  20.441  16.027  1.00  0.00     0.093 A 
ATOM      4  C   UNL     1      12.758  19.794  14.846  1.00  0.00     0.122 A 
ATOM      5  C   UNL     1      13.759  18.809  14.890  1.00  0.00     0.047 A 
ATOM      6  C   UNL     1      14.369  18.479  16.102  1.00  0.00     0.019 A 
ENDROOT
BRANCH   1   7
ATOM      7  C   UNL     1      14.665  18.718  18.564  1.00  0.00     0.163 C 
ATOM      8  C   UNL     1      16.145  18.842  18.764  1.00  0.00     0.093 C 
ATOM      9  O   UNL     1      13.972  18.258  19.512  1.00  0.00    -0.294 OA
ENDBRANCH   1   7
BRANCH   2  10
ATOM     10  O   UNL     1      12.627  20.818  18.398  1.00  0.00    -0.507 OA
ATOM     11  H   UNL     1      13.270  21.433  18.880  1.00  0.00     0.293 HD
ENDBRANCH   2  10
BRANCH   4  12
ATOM     12  O   UNL     1      12.114  20.158  13.654  1.00  0.00    -0.497 OA
ATOM     13  C   UNL     1      11.124  19.370  13.001  1.00  0.00     0.278 C 
ENDBRANCH   4  12
TORSDOF 3
ENDMDL
MODEL 7
REMARK VINA RESULT:    -5.302     10.155     11.699
REMARK INTER + INTRA:          -6.389
REMARK INTER:                  -6.052
REMARK INTRA:                  -0.337
REMARK UNBOUND:                -0.312
REMARK SMILES COc1ccc(C(C)=O)c(O)c1
REMARK SMILES IDX 6 1 10 2 12 3 3 4 4 5 5 6 7 7 8 8 9 9 11 10 2 12 1 13
REMARK H PARENT 11 11
REMARK Flexibility Score: inf
ROOT
ATOM      1  C   UNL     1       8.447  23.674   7.840  1.00  0.00     0.059 A 
ATOM      2  C   UNL     1       7.731  22.714   8.593  1.00  0.00     0.130 A 
ATOM      3  C   UNL     1       8.414  21.642   9.189  1.00  0.00     0.093 A 
ATOM      4  C   UNL     1       9.794  21.494   9.035  1.00  0.00     0.122 A 
ATOM      5  C   UNL     1      10.502  22.436   8.271  1.00  0.00     0.047 A 
ATOM      6  C   UNL     1       9.834  23.510   7.680  1.00  0.00     0.019 A 
ENDROOT
BRANCH   1   7
ATOM      7  C   UNL     1       7.785  24.843   7.200  1.00  0.00     0.163 C 
ATOM      8  C   UNL     1       8.054  25.244   5.782  1.00  0.00     0.093 C 
ATOM      9  O   UNL     1       6.963  25.529   7.869  1.00  0.00    -0.294 OA
ENDBRANCH   1   7
BRANCH   2  10
ATOM     10  O   UNL     1       6.348  22.804   8.739  1.00  0.00    -0.507 OA
ATOM     11  H   UNL     1       5.761  23.216   8.024  1.00  0.00     0.293 HD
ENDBRANCH   2  10
BRANCH   4  12
ATOM     12  O   UNL     1      10.421  20.400   9.651  1.00  0.00    -0.497 OA
ATOM     13  C   UNL     1      10.444  20.173  11.056  1.00  0.00     0.278 C 
ENDBRANCH   4  12
TORSDOF 3
ENDMDL
MODEL 8
REMARK VINA RESULT:    -5.248     10.293     11.232
REMARK INTER + INTRA:          -6.327
REMARK INTER:                  -6.063
REMARK INTRA:                  -0.264
REMARK UNBOUND:                -0.312
REMARK SMILES COc1ccc(C(C)=O)c(O)c1
REMARK SMILES IDX 6 1 10 2 12 3 3 4 4 5 5 6 7 7 8 8 9 9 11 10 2 12 1 13
REMARK H PARENT 11 11
REMARK Flexibility Score: inf
ROOT
ATOM      1  C   UNL     1       9.690  22.257   8.110  1.00  0.00     0.059 A 
ATOM      2  C   UNL     1       8.329  22.085   8.457  1.00  0.00     0.130 A 
ATOM      3  C   UNL     1       7.425  23.145   8.285  1.00  0.00     0.093 A 
ATOM      4  C   UNL     1       7.850  24.381   7.792  1.00  0.00     0.122 A 
ATOM      5  C   UNL     1       9.205  24.558   7.466  1.00  0.00     0.047 A 
ATOM      6  C   UNL     1      10.111  23.508   7.626  1.00  0.00     0.019 A 
ENDROOT
BRANCH   1   7
ATOM      7  C   UNL     1      10.694  21.167   8.250  1.00  0.00     0.163 C 
ATOM      8  C   UNL     1      11.983  21.158   7.487  1.00  0.00     0.093 C 
ATOM      9  O   UNL     1      10.460  20.211   9.039  1.00  0.00    -0.294 OA
ENDBRANCH   1   7
BRANCH   2  10
ATOM     10  O   UNL     1       7.872  20.881   8.989  1.00  0.00    -0.507 OA
ATOM     11  H   UNL     1       7.684  20.076   8.404  1.00  0.00     0.293 HD
ENDBRANCH   2  10
BRANCH   4  12
ATOM     12  O   UNL     1       6.901  25.403   7.645  1.00  0.00    -0.497 OA
ATOM     13  C   UNL     1       5.875  25.690   8.589  1.00  0.00     0.278 C 
ENDBRANCH   4  12
TORSDOF 3
ENDMDL
MODEL 9
REMARK VINA RESULT:    -5.134      9.024     11.138
REMARK INTER + INTRA:          -6.197
REMARK INTER:                  -5.992
REMARK INTRA:                  -0.205
REMARK UNBOUND:                -0.312
REMARK SMILES COc1ccc(C(C)=O)c(O)c1
REMARK SMILES IDX 6 1 10 2 12 3 3 4 4 5 5 6 7 7 8 8 9 9 11 10 2 12 1 13
REMARK H PARENT 11 11
REMARK Flexibility Score: inf
ROOT
ATOM      1  C   UNL     1      21.810  19.413  11.075  1.00  0.00     0.059 A 
ATOM      2  C   UNL     1      21.515  18.180  11.703  1.00  0.00     0.130 A 
ATOM      3  C   UNL     1      20.183  17.842  11.986  1.00  0.00     0.093 A 
ATOM      4  C   UNL     1      19.137  18.713  11.673  1.00  0.00     0.122 A 
ATOM      5  C   UNL     1      19.431  19.945  11.066  1.00  0.00     0.047 A 
ATOM      6  C   UNL     1      20.753  20.289  10.775  1.00  0.00     0.019 A 
ENDROOT
BRANCH   1   7
ATOM      7  C   UNL     1      23.200  19.822  10.732  1.00  0.00     0.163 C 
ATOM      8  C   UNL     1      23.764  19.676   9.352  1.00  0.00     0.093 C 
ATOM      9  O   UNL     1      23.938  20.312  11.630  1.00  0.00    -0.294 OA
ENDBRANCH   1   7
BRANCH   2  10
ATOM     10  O   UNL     1      22.532  17.300  12.068  1.00  0.00    -0.507 OA
ATOM     11  H   UNL     1      22.631  16.390  11.635  1.00  0.00     0.293 HD
ENDBRANCH   2  10
BRANCH   4  12
ATOM     12  O   UNL     1      17.826  18.321  11.982  1.00  0.00    -0.497 OA
ATOM     13  C   UNL     1      16.798  19.211  12.405  1.00  0.00     0.278 C 
ENDBRANCH   4  12
TORSDOF 3
ENDMDL
