MODEL 1
REMARK VINA RESULT:     6.732      0.000      0.000
REMARK INTER + INTRA:          15.881
REMARK INTER:                  16.964
REMARK INTRA:                  -1.083
REMARK UNBOUND:                -1.083
REMARK SMILES CCCCCCCCCCCCCCCCCCCCCCCCCCCC(=O)[O-]
REMARK SMILES IDX 15 1 16 2 17 3 18 4 19 5 20 6 21 7 22 8 23 9 24 10 25 11
REMARK SMILES IDX 26 12 27 13 28 14 29 15 30 16 14 17 13 18 12 19 11 20 10 21
REMARK SMILES IDX 9 22 8 23 7 24 6 25 5 26 4 27 3 28 2 29 1 30
REMARK H PARENT
REMARK Flexibility Score: inf
ROOT
ATOM      1  C   UNL     1      10.892  12.224 -13.182  1.00  0.00     0.000 C 
ENDROOT
BRANCH   1   2
ATOM      2  C   UNL     1      12.025  11.567 -13.994  1.00  0.00     0.000 C 
BRANCH   2   3
ATOM      3  C   UNL     1      13.297  11.225 -13.195  1.00  0.00     0.000 C 
BRANCH   3   4
ATOM      4  C   UNL     1      14.310  10.346 -13.960  1.00  0.00     0.000 C 
BRANCH   4   5
ATOM      5  C   UNL     1      13.845   8.887 -14.105  1.00  0.00     0.000 C 
BRANCH   5   6
ATOM      6  C   UNL     1      15.014   7.921 -14.359  1.00  0.00     0.000 C 
BRANCH   6   7
ATOM      7  C   UNL     1      16.384   8.608 -14.214  1.00  0.00     0.000 C 
BRANCH   7   8
ATOM      8  C   UNL     1      17.496   7.885 -14.994  1.00  0.00     0.000 C 
BRANCH   8   9
ATOM      9  C   UNL     1      18.194   8.751 -16.059  1.00  0.00     0.000 C 
BRANCH   9  10
ATOM     10  C   UNL     1      19.100   9.828 -15.439  1.00  0.00     0.000 C 
BRANCH  10  11
ATOM     11  C   UNL     1      18.958  11.201 -16.125  1.00  0.00     0.000 C 
BRANCH  11  12
ATOM     12  C   UNL     1      18.929  12.409 -15.171  1.00  0.00     0.006 C 
BRANCH  12  13
ATOM     13  C   UNL     1      20.243  12.600 -14.401  1.00  0.00     0.053 C 
BRANCH  13  14
ATOM     14  C   UNL     1      20.919  13.870 -14.815  1.00  0.00     0.041 C 
ATOM     15  O   UNL     1      22.124  14.075 -14.510  1.00  0.00    -0.550 OA
ATOM     16  O   UNL     1      20.228  14.812 -15.567  1.00  0.00    -0.550 OA
ENDBRANCH  13  14
ENDBRANCH  12  13
ENDBRANCH  11  12
ENDBRANCH  10  11
ENDBRANCH   9  10
ENDBRANCH   8   9
ENDBRANCH   7   8
ENDBRANCH   6   7
ENDBRANCH   5   6
ENDBRANCH   4   5
ENDBRANCH   3   4
ENDBRANCH   2   3
ENDBRANCH   1   2
BRANCH   1  17
ATOM     17  C   UNL     1       9.467  11.951 -13.706  1.00  0.00     0.000 C 
BRANCH  17  18
ATOM     18  C   UNL     1       8.551  11.187 -12.731  1.00  0.00     0.000 C 
BRANCH  18  19
ATOM     19  C   UNL     1       7.133  10.902 -13.263  1.00  0.00     0.000 C 
BRANCH  19  20
ATOM     20  C   UNL     1       6.864   9.432 -13.649  1.00  0.00     0.000 C 
BRANCH  20  21
ATOM     21  C   UNL     1       6.931   8.433 -12.480  1.00  0.00     0.000 C 
BRANCH  21  22
ATOM     22  C   UNL     1       5.945   8.775 -11.349  1.00  0.00    -0.000 C 
BRANCH  22  23
ATOM     23  C   UNL     1       4.477   8.675 -11.792  1.00  0.00    -0.000 C 
BRANCH  23  24
ATOM     24  C   UNL     1       4.336   8.316 -13.281  1.00  0.00    -0.000 C 
BRANCH  24  25
ATOM     25  C   UNL     1       3.097   8.955 -13.931  1.00  0.00    -0.000 C 
BRANCH  25  26
ATOM     26  C   UNL     1       3.265   9.157 -15.447  1.00  0.00    -0.000 C 
BRANCH  26  27
ATOM     27  C   UNL     1       4.213  10.320 -15.796  1.00  0.00    -0.000 C 
BRANCH  27  28
ATOM     28  C   UNL     1       3.519  11.667 -16.079  1.00  0.00    -0.000 C 
BRANCH  28  29
ATOM     29  C   UNL     1       2.841  12.264 -14.838  1.00  0.00    -0.003 C 
ATOM     30  C   UNL     1       3.817  13.122 -14.038  1.00  0.00     0.004 C 
ENDBRANCH  28  29
ENDBRANCH  27  28
ENDBRANCH  26  27
ENDBRANCH  25  26
ENDBRANCH  24  25
ENDBRANCH  23  24
ENDBRANCH  22  23
ENDBRANCH  21  22
ENDBRANCH  20  21
ENDBRANCH  19  20
ENDBRANCH  18  19
ENDBRANCH  17  18
ENDBRANCH   1  17
TORSDOF 26
ENDMDL
MODEL 2
REMARK VINA RESULT:     6.905      4.749     13.673
REMARK INTER + INTRA:          16.317
REMARK INTER:                  17.527
REMARK INTRA:                  -1.210
REMARK UNBOUND:                -1.083
REMARK SMILES CCCCCCCCCCCCCCCCCCCCCCCCCCCC(=O)[O-]
REMARK SMILES IDX 15 1 16 2 17 3 18 4 19 5 20 6 21 7 22 8 23 9 24 10 25 11
REMARK SMILES IDX 26 12 27 13 28 14 29 15 30 16 14 17 13 18 12 19 11 20 10 21
REMARK SMILES IDX 9 22 8 23 7 24 6 25 5 26 4 27 3 28 2 29 1 30
REMARK H PARENT
REMARK Flexibility Score: inf
ROOT
ATOM      1  C   UNL     1      12.952  11.636 -13.926  1.00  0.00     0.000 C 
ENDROOT
BRANCH   1   2
ATOM      2  C   UNL     1      11.703  11.956 -13.083  1.00  0.00     0.000 C 
BRANCH   2   3
ATOM      3  C   UNL     1      10.398  12.143 -13.881  1.00  0.00     0.000 C 
BRANCH   3   4
ATOM      4  C   UNL     1       9.113  11.985 -13.041  1.00  0.00     0.000 C 
BRANCH   4   5
ATOM      5  C   UNL     1       8.217  10.834 -13.532  1.00  0.00     0.000 C 
BRANCH   5   6
ATOM      6  C   UNL     1       6.746  11.019 -13.123  1.00  0.00     0.000 C 
BRANCH   6   7
ATOM      7  C   UNL     1       5.781  10.822 -14.307  1.00  0.00     0.000 C 
BRANCH   7   8
ATOM      8  C   UNL     1       5.672   9.350 -14.744  1.00  0.00     0.000 C 
BRANCH   8   9
ATOM      9  C   UNL     1       5.037   8.418 -13.696  1.00  0.00     0.000 C 
BRANCH   9  10
ATOM     10  C   UNL     1       3.530   8.210 -13.931  1.00  0.00     0.000 C 
BRANCH  10  11
ATOM     11  C   UNL     1       2.661   9.270 -13.229  1.00  0.00     0.000 C 
BRANCH  11  12
ATOM     12  C   UNL     1       2.842   9.360 -11.703  1.00  0.00     0.006 C 
BRANCH  12  13
ATOM     13  C   UNL     1       3.242   8.023 -11.063  1.00  0.00     0.053 C 
BRANCH  13  14
ATOM     14  C   UNL     1       4.338   8.222 -10.063  1.00  0.00     0.041 C 
ATOM     15  O   UNL     1       4.150   7.931  -8.851  1.00  0.00    -0.550 OA
ATOM     16  O   UNL     1       5.576   8.700 -10.474  1.00  0.00    -0.550 OA
ENDBRANCH  13  14
ENDBRANCH  12  13
ENDBRANCH  11  12
ENDBRANCH  10  11
ENDBRANCH   9  10
ENDBRANCH   8   9
ENDBRANCH   7   8
ENDBRANCH   6   7
ENDBRANCH   5   6
ENDBRANCH   4   5
ENDBRANCH   3   4
ENDBRANCH   2   3
ENDBRANCH   1   2
BRANCH   1  17
ATOM     17  C   UNL     1      13.794  10.445 -13.425  1.00  0.00     0.000 C 
BRANCH  17  18
ATOM     18  C   UNL     1      13.944   9.286 -14.431  1.00  0.00     0.000 C 
BRANCH  18  19
ATOM     19  C   UNL     1      14.648   8.033 -13.874  1.00  0.00     0.000 C 
BRANCH  19  20
ATOM     20  C   UNL     1      16.184   8.138 -13.773  1.00  0.00     0.000 C 
BRANCH  20  21
ATOM     21  C   UNL     1      16.846   9.010 -14.855  1.00  0.00     0.000 C 
BRANCH  21  22
ATOM     22  C   UNL     1      17.902   8.244 -15.672  1.00  0.00    -0.000 C 
BRANCH  22  23
ATOM     23  C   UNL     1      19.130   9.104 -16.008  1.00  0.00    -0.000 C 
BRANCH  23  24
ATOM     24  C   UNL     1      19.656   9.880 -14.788  1.00  0.00    -0.000 C 
BRANCH  24  25
ATOM     25  C   UNL     1      21.187  10.018 -14.787  1.00  0.00    -0.000 C 
BRANCH  25  26
ATOM     26  C   UNL     1      21.732  10.555 -16.123  1.00  0.00    -0.000 C 
BRANCH  26  27
ATOM     27  C   UNL     1      21.911  12.086 -16.125  1.00  0.00    -0.000 C 
BRANCH  27  28
ATOM     28  C   UNL     1      20.626  12.895 -15.862  1.00  0.00    -0.000 C 
BRANCH  28  29
ATOM     29  C   UNL     1      20.697  13.730 -14.576  1.00  0.00    -0.003 C 
ATOM     30  C   UNL     1      21.879  14.694 -14.611  1.00  0.00     0.004 C 
ENDBRANCH  28  29
ENDBRANCH  27  28
ENDBRANCH  26  27
ENDBRANCH  25  26
ENDBRANCH  24  25
ENDBRANCH  23  24
ENDBRANCH  22  23
ENDBRANCH  21  22
ENDBRANCH  20  21
ENDBRANCH  19  20
ENDBRANCH  18  19
ENDBRANCH  17  18
ENDBRANCH   1  17
TORSDOF 26
ENDMDL
MODEL 3
REMARK VINA RESULT:     7.251      4.862     13.546
REMARK INTER + INTRA:          17.189
REMARK INTER:                  18.416
REMARK INTRA:                  -1.227
REMARK UNBOUND:                -1.083
REMARK SMILES CCCCCCCCCCCCCCCCCCCCCCCCCCCC(=O)[O-]
REMARK SMILES IDX 15 1 16 2 17 3 18 4 19 5 20 6 21 7 22 8 23 9 24 10 25 11
REMARK SMILES IDX 26 12 27 13 28 14 29 15 30 16 14 17 13 18 12 19 11 20 10 21
REMARK SMILES IDX 9 22 8 23 7 24 6 25 5 26 4 27 3 28 2 29 1 30
REMARK H PARENT
REMARK Flexibility Score: inf
ROOT
ATOM      1  C   UNL     1      11.738  12.011 -14.040  1.00  0.00     0.000 C 
ENDROOT
BRANCH   1   2
ATOM      2  C   UNL     1      10.511  12.075 -13.110  1.00  0.00     0.000 C 
BRANCH   2   3
ATOM      3  C   UNL     1       9.151  11.840 -13.794  1.00  0.00     0.000 C 
BRANCH   3   4
ATOM      4  C   UNL     1       8.029  11.385 -12.836  1.00  0.00     0.000 C 
BRANCH   4   5
ATOM      5  C   UNL     1       7.175  10.244 -13.416  1.00  0.00     0.000 C 
BRANCH   5   6
ATOM      6  C   UNL     1       6.554   9.361 -12.321  1.00  0.00     0.000 C 
BRANCH   6   7
ATOM      7  C   UNL     1       5.219   8.733 -12.763  1.00  0.00     0.000 C 
BRANCH   7   8
ATOM      8  C   UNL     1       4.876   9.041 -14.232  1.00  0.00     0.000 C 
BRANCH   8   9
ATOM      9  C   UNL     1       3.464   8.601 -14.662  1.00  0.00     0.000 C 
BRANCH   9  10
ATOM     10  C   UNL     1       2.557   9.795 -15.008  1.00  0.00     0.000 C 
BRANCH  10  11
ATOM     11  C   UNL     1       3.210  10.780 -15.996  1.00  0.00     0.000 C 
BRANCH  11  12
ATOM     12  C   UNL     1       3.553  12.163 -15.412  1.00  0.00     0.006 C 
BRANCH  12  13
ATOM     13  C   UNL     1       2.830  13.314 -16.125  1.00  0.00     0.053 C 
BRANCH  13  14
ATOM     14  C   UNL     1       2.622  14.466 -15.192  1.00  0.00     0.041 C 
ATOM     15  O   UNL     1       2.893  15.639 -15.564  1.00  0.00    -0.550 OA
ATOM     16  O   UNL     1       2.100  14.248 -13.923  1.00  0.00    -0.550 OA
ENDBRANCH  13  14
ENDBRANCH  12  13
ENDBRANCH  11  12
ENDBRANCH  10  11
ENDBRANCH   9  10
ENDBRANCH   8   9
ENDBRANCH   7   8
ENDBRANCH   6   7
ENDBRANCH   5   6
ENDBRANCH   4   5
ENDBRANCH   3   4
ENDBRANCH   2   3
ENDBRANCH   1   2
BRANCH   1  17
ATOM     17  C   UNL     1      13.085  12.357 -13.373  1.00  0.00     0.000 C 
BRANCH  17  18
ATOM     18  C   UNL     1      13.889  11.144 -12.865  1.00  0.00     0.000 C 
BRANCH  18  19
ATOM     19  C   UNL     1      15.331  11.052 -13.402  1.00  0.00     0.000 C 
BRANCH  19  20
ATOM     20  C   UNL     1      15.795   9.632 -13.786  1.00  0.00     0.000 C 
BRANCH  20  21
ATOM     21  C   UNL     1      17.135   9.570 -14.541  1.00  0.00     0.000 C 
BRANCH  21  22
ATOM     22  C   UNL     1      17.229   8.359 -15.485  1.00  0.00    -0.000 C 
BRANCH  22  23
ATOM     23  C   UNL     1      18.651   8.136 -16.024  1.00  0.00    -0.000 C 
BRANCH  23  24
ATOM     24  C   UNL     1      19.683   9.063 -15.359  1.00  0.00    -0.000 C 
BRANCH  24  25
ATOM     25  C   UNL     1      21.068   8.981 -16.021  1.00  0.00    -0.000 C 
BRANCH  25  26
ATOM     26  C   UNL     1      22.105   9.888 -15.335  1.00  0.00    -0.000 C 
BRANCH  26  27
ATOM     27  C   UNL     1      21.722  11.379 -15.383  1.00  0.00    -0.000 C 
BRANCH  27  28
ATOM     28  C   UNL     1      20.742  11.840 -14.287  1.00  0.00    -0.000 C 
BRANCH  28  29
ATOM     29  C   UNL     1      19.894  13.047 -14.710  1.00  0.00    -0.003 C 
ATOM     30  C   UNL     1      18.537  12.604 -15.249  1.00  0.00     0.004 C 
ENDBRANCH  28  29
ENDBRANCH  27  28
ENDBRANCH  26  27
ENDBRANCH  25  26
ENDBRANCH  24  25
ENDBRANCH  23  24
ENDBRANCH  22  23
ENDBRANCH  21  22
ENDBRANCH  20  21
ENDBRANCH  19  20
ENDBRANCH  18  19
ENDBRANCH  17  18
ENDBRANCH   1  17
TORSDOF 26
ENDMDL
MODEL 4
REMARK VINA RESULT:     7.265      4.474     13.311
REMARK INTER + INTRA:          17.223
REMARK INTER:                  18.571
REMARK INTRA:                  -1.347
REMARK UNBOUND:                -1.083
REMARK SMILES CCCCCCCCCCCCCCCCCCCCCCCCCCCC(=O)[O-]
REMARK SMILES IDX 15 1 16 2 17 3 18 4 19 5 20 6 21 7 22 8 23 9 24 10 25 11
REMARK SMILES IDX 26 12 27 13 28 14 29 15 30 16 14 17 13 18 12 19 11 20 10 21
REMARK SMILES IDX 9 22 8 23 7 24 6 25 5 26 4 27 3 28 2 29 1 30
REMARK H PARENT
REMARK Flexibility Score: inf
ROOT
ATOM      1  C   UNL     1      11.384  12.000 -13.440  1.00  0.00     0.000 C 
ENDROOT
BRANCH   1   2
ATOM      2  C   UNL     1       9.942  11.710 -13.897  1.00  0.00     0.000 C 
BRANCH   2   3
ATOM      3  C   UNL     1       8.840  12.099 -12.892  1.00  0.00     0.000 C 
BRANCH   3   4
ATOM      4  C   UNL     1       7.767  11.012 -12.674  1.00  0.00     0.000 C 
BRANCH   4   5
ATOM      5  C   UNL     1       7.069  10.592 -13.979  1.00  0.00     0.000 C 
BRANCH   5   6
ATOM      6  C   UNL     1       6.089   9.425 -13.771  1.00  0.00     0.000 C 
BRANCH   6   7
ATOM      7  C   UNL     1       5.500   9.401 -12.349  1.00  0.00     0.000 C 
BRANCH   7   8
ATOM      8  C   UNL     1       4.486   8.261 -12.146  1.00  0.00     0.000 C 
BRANCH   8   9
ATOM      9  C   UNL     1       3.091   8.535 -12.737  1.00  0.00     0.000 C 
BRANCH   9  10
ATOM     10  C   UNL     1       2.951   8.016 -14.179  1.00  0.00     0.000 C 
BRANCH  10  11
ATOM     11  C   UNL     1       2.778   9.146 -15.211  1.00  0.00     0.000 C 
BRANCH  11  12
ATOM     12  C   UNL     1       2.090  10.418 -14.680  1.00  0.00     0.006 C 
BRANCH  12  13
ATOM     13  C   UNL     1       3.062  11.388 -13.995  1.00  0.00     0.053 C 
BRANCH  13  14
ATOM     14  C   UNL     1       3.630  12.355 -14.987  1.00  0.00     0.041 C 
ATOM     15  O   UNL     1       3.342  13.579 -14.915  1.00  0.00    -0.550 OA
ATOM     16  O   UNL     1       4.504  11.909 -15.971  1.00  0.00    -0.550 OA
ENDBRANCH  13  14
ENDBRANCH  12  13
ENDBRANCH  11  12
ENDBRANCH  10  11
ENDBRANCH   9  10
ENDBRANCH   8   9
ENDBRANCH   7   8
ENDBRANCH   6   7
ENDBRANCH   5   6
ENDBRANCH   4   5
ENDBRANCH   3   4
ENDBRANCH   2   3
ENDBRANCH   1   2
BRANCH   1  17
ATOM     17  C   UNL     1      12.484  11.273 -14.241  1.00  0.00     0.000 C 
BRANCH  17  18
ATOM     18  C   UNL     1      13.875  11.269 -13.579  1.00  0.00     0.000 C 
BRANCH  18  19
ATOM     19  C   UNL     1      14.377   9.882 -13.133  1.00  0.00     0.000 C 
BRANCH  19  20
ATOM     20  C   UNL     1      14.549   8.853 -14.270  1.00  0.00     0.000 C 
BRANCH  20  21
ATOM     21  C   UNL     1      15.931   8.178 -14.331  1.00  0.00     0.000 C 
BRANCH  21  22
ATOM     22  C   UNL     1      16.836   8.775 -15.423  1.00  0.00    -0.000 C 
BRANCH  22  23
ATOM     23  C   UNL     1      18.308   8.362 -15.264  1.00  0.00    -0.000 C 
BRANCH  23  24
ATOM     24  C   UNL     1      19.260   9.259 -16.074  1.00  0.00    -0.000 C 
BRANCH  24  25
ATOM     25  C   UNL     1      19.140  10.745 -15.697  1.00  0.00    -0.000 C 
BRANCH  25  26
ATOM     26  C   UNL     1      19.231  10.977 -14.179  1.00  0.00    -0.000 C 
BRANCH  26  27
ATOM     27  C   UNL     1      19.900  12.317 -13.816  1.00  0.00    -0.000 C 
BRANCH  27  28
ATOM     28  C   UNL     1      20.055  13.308 -14.985  1.00  0.00    -0.000 C 
BRANCH  28  29
ATOM     29  C   UNL     1      21.487  13.839 -15.135  1.00  0.00    -0.003 C 
ATOM     30  C   UNL     1      22.097  14.166 -13.775  1.00  0.00     0.004 C 
ENDBRANCH  28  29
ENDBRANCH  27  28
ENDBRANCH  26  27
ENDBRANCH  25  26
ENDBRANCH  24  25
ENDBRANCH  23  24
ENDBRANCH  22  23
ENDBRANCH  21  22
ENDBRANCH  20  21
ENDBRANCH  19  20
ENDBRANCH  18  19
ENDBRANCH  17  18
ENDBRANCH   1  17
TORSDOF 26
ENDMDL
MODEL 5
REMARK VINA RESULT:     7.338      4.860     13.841
REMARK INTER + INTRA:          17.409
REMARK INTER:                  18.175
REMARK INTRA:                  -0.766
REMARK UNBOUND:                -1.083
REMARK SMILES CCCCCCCCCCCCCCCCCCCCCCCCCCCC(=O)[O-]
REMARK SMILES IDX 15 1 16 2 17 3 18 4 19 5 20 6 21 7 22 8 23 9 24 10 25 11
REMARK SMILES IDX 26 12 27 13 28 14 29 15 30 16 14 17 13 18 12 19 11 20 10 21
REMARK SMILES IDX 9 22 8 23 7 24 6 25 5 26 4 27 3 28 2 29 1 30
REMARK H PARENT
REMARK Flexibility Score: inf
ROOT
ATOM      1  C   UNL     1      12.959  11.735 -13.991  1.00  0.00     0.000 C 
ENDROOT
BRANCH   1   2
ATOM      2  C   UNL     1      11.731  12.048 -13.115  1.00  0.00     0.000 C 
BRANCH   2   3
ATOM      3  C   UNL     1      10.384  12.100 -13.861  1.00  0.00     0.000 C 
BRANCH   3   4
ATOM      4  C   UNL     1       9.147  11.948 -12.950  1.00  0.00     0.000 C 
BRANCH   4   5
ATOM      5  C   UNL     1       8.171  10.866 -13.442  1.00  0.00     0.000 C 
BRANCH   5   6
ATOM      6  C   UNL     1       6.749  11.063 -12.892  1.00  0.00     0.000 C 
BRANCH   6   7
ATOM      7  C   UNL     1       5.692  11.126 -14.010  1.00  0.00     0.000 C 
BRANCH   7   8
ATOM      8  C   UNL     1       5.355   9.738 -14.586  1.00  0.00     0.000 C 
BRANCH   8   9
ATOM      9  C   UNL     1       4.560   8.828 -13.632  1.00  0.00     0.000 C 
BRANCH   9  10
ATOM     10  C   UNL     1       3.071   8.741 -14.009  1.00  0.00     0.000 C 
BRANCH  10  11
ATOM     11  C   UNL     1       2.795   9.143 -15.470  1.00  0.00     0.000 C 
BRANCH  11  12
ATOM     12  C   UNL     1       1.984  10.439 -15.651  1.00  0.00     0.006 C 
BRANCH  12  13
ATOM     13  C   UNL     1       2.161  11.427 -14.491  1.00  0.00     0.053 C 
BRANCH  13  14
ATOM     14  C   UNL     1       2.367  12.817 -15.006  1.00  0.00     0.041 C 
ATOM     15  O   UNL     1       1.875  13.163 -16.114  1.00  0.00    -0.550 OA
ATOM     16  O   UNL     1       3.077  13.741 -14.249  1.00  0.00    -0.550 OA
ENDBRANCH  13  14
ENDBRANCH  12  13
ENDBRANCH  11  12
ENDBRANCH  10  11
ENDBRANCH   9  10
ENDBRANCH   8   9
ENDBRANCH   7   8
ENDBRANCH   6   7
ENDBRANCH   5   6
ENDBRANCH   4   5
ENDBRANCH   3   4
ENDBRANCH   2   3
ENDBRANCH   1   2
BRANCH   1  17
ATOM     17  C   UNL     1      13.936  10.698 -13.401  1.00  0.00     0.000 C 
BRANCH  17  18
ATOM     18  C   UNL     1      14.322   9.551 -14.356  1.00  0.00     0.000 C 
BRANCH  18  19
ATOM     19  C   UNL     1      15.019   8.353 -13.681  1.00  0.00     0.000 C 
BRANCH  19  20
ATOM     20  C   UNL     1      16.509   8.178 -14.040  1.00  0.00     0.000 C 
BRANCH  20  21
ATOM     21  C   UNL     1      17.274   9.491 -14.288  1.00  0.00     0.000 C 
BRANCH  21  22
ATOM     22  C   UNL     1      17.735   9.644 -15.748  1.00  0.00    -0.000 C 
BRANCH  22  23
ATOM     23  C   UNL     1      19.184  10.142 -15.863  1.00  0.00    -0.000 C 
BRANCH  23  24
ATOM     24  C   UNL     1      20.178   9.237 -15.114  1.00  0.00    -0.000 C 
BRANCH  24  25
ATOM     25  C   UNL     1      21.637   9.692 -15.282  1.00  0.00    -0.000 C 
BRANCH  25  26
ATOM     26  C   UNL     1      21.866  11.132 -14.787  1.00  0.00    -0.000 C 
BRANCH  26  27
ATOM     27  C   UNL     1      20.585  11.788 -14.238  1.00  0.00    -0.000 C 
BRANCH  27  28
ATOM     28  C   UNL     1      20.639  13.322 -14.108  1.00  0.00    -0.000 C 
BRANCH  28  29
ATOM     29  C   UNL     1      21.698  13.963 -15.017  1.00  0.00    -0.003 C 
ATOM     30  C   UNL     1      21.141  15.194 -15.727  1.00  0.00     0.004 C 
ENDBRANCH  28  29
ENDBRANCH  27  28
ENDBRANCH  26  27
ENDBRANCH  25  26
ENDBRANCH  24  25
ENDBRANCH  23  24
ENDBRANCH  22  23
ENDBRANCH  21  22
ENDBRANCH  20  21
ENDBRANCH  19  20
ENDBRANCH  18  19
ENDBRANCH  17  18
ENDBRANCH   1  17
TORSDOF 26
ENDMDL
MODEL 6
REMARK VINA RESULT:     8.290      4.741     13.952
REMARK INTER + INTRA:          19.808
REMARK INTER:                  20.406
REMARK INTRA:                  -0.598
REMARK UNBOUND:                -1.083
REMARK SMILES CCCCCCCCCCCCCCCCCCCCCCCCCCCC(=O)[O-]
REMARK SMILES IDX 15 1 16 2 17 3 18 4 19 5 20 6 21 7 22 8 23 9 24 10 25 11
REMARK SMILES IDX 26 12 27 13 28 14 29 15 30 16 14 17 13 18 12 19 11 20 10 21
REMARK SMILES IDX 9 22 8 23 7 24 6 25 5 26 4 27 3 28 2 29 1 30
REMARK H PARENT
REMARK Flexibility Score: inf
ROOT
ATOM      1  C   UNL     1      13.318  11.435 -13.282  1.00  0.00     0.000 C 
ENDROOT
BRANCH   1   2
ATOM      2  C   UNL     1      12.072  12.144 -13.849  1.00  0.00     0.000 C 
BRANCH   2   3
ATOM      3  C   UNL     1      10.839  12.148 -12.926  1.00  0.00     0.000 C 
BRANCH   3   4
ATOM      4  C   UNL     1       9.509  11.832 -13.643  1.00  0.00     0.000 C 
BRANCH   4   5
ATOM      5  C   UNL     1       8.275  12.168 -12.788  1.00  0.00     0.000 C 
BRANCH   5   6
ATOM      6  C   UNL     1       7.498  10.912 -12.359  1.00  0.00     0.000 C 
BRANCH   6   7
ATOM      7  C   UNL     1       6.692  10.298 -13.518  1.00  0.00     0.000 C 
BRANCH   7   8
ATOM      8  C   UNL     1       6.280   8.839 -13.247  1.00  0.00     0.000 C 
BRANCH   8   9
ATOM      9  C   UNL     1       5.920   8.540 -11.780  1.00  0.00     0.000 C 
BRANCH   9  10
ATOM     10  C   UNL     1       4.549   9.115 -11.383  1.00  0.00     0.000 C 
BRANCH  10  11
ATOM     11  C   UNL     1       3.378   8.440 -12.121  1.00  0.00     0.000 C 
BRANCH  11  12
ATOM     12  C   UNL     1       3.264   8.778 -13.619  1.00  0.00     0.006 C 
BRANCH  12  13
ATOM     13  C   UNL     1       2.241   9.885 -13.910  1.00  0.00     0.053 C 
BRANCH  13  14
ATOM     14  C   UNL     1       2.892  11.037 -14.609  1.00  0.00     0.041 C 
ATOM     15  O   UNL     1       2.188  11.916 -15.174  1.00  0.00    -0.550 OA
ATOM     16  O   UNL     1       4.277  11.156 -14.611  1.00  0.00    -0.550 OA
ENDBRANCH  13  14
ENDBRANCH  12  13
ENDBRANCH  11  12
ENDBRANCH  10  11
ENDBRANCH   9  10
ENDBRANCH   8   9
ENDBRANCH   7   8
ENDBRANCH   6   7
ENDBRANCH   5   6
ENDBRANCH   4   5
ENDBRANCH   3   4
ENDBRANCH   2   3
ENDBRANCH   1   2
BRANCH   1  17
ATOM     17  C   UNL     1      14.453  12.372 -12.823  1.00  0.00     0.000 C 
BRANCH  17  18
ATOM     18  C   UNL     1      15.840  12.052 -13.413  1.00  0.00     0.000 C 
BRANCH  18  19
ATOM     19  C   UNL     1      16.857  11.482 -12.405  1.00  0.00     0.000 C 
BRANCH  19  20
ATOM     20  C   UNL     1      18.065  10.757 -13.035  1.00  0.00     0.000 C 
BRANCH  20  21
ATOM     21  C   UNL     1      18.277  11.034 -14.535  1.00  0.00     0.000 C 
BRANCH  21  22
ATOM     22  C   UNL     1      18.494   9.749 -15.352  1.00  0.00    -0.000 C 
BRANCH  22  23
ATOM     23  C   UNL     1      19.907   9.657 -15.948  1.00  0.00    -0.000 C 
BRANCH  23  24
ATOM     24  C   UNL     1      20.984  10.202 -14.994  1.00  0.00    -0.000 C 
BRANCH  24  25
ATOM     25  C   UNL     1      22.124  10.920 -15.734  1.00  0.00    -0.000 C 
BRANCH  25  26
ATOM     26  C   UNL     1      21.758  12.364 -16.121  1.00  0.00    -0.000 C 
BRANCH  26  27
ATOM     27  C   UNL     1      20.928  13.083 -15.040  1.00  0.00    -0.000 C 
BRANCH  27  28
ATOM     28  C   UNL     1      21.405  14.504 -14.687  1.00  0.00    -0.000 C 
BRANCH  28  29
ATOM     29  C   UNL     1      21.293  15.484 -15.863  1.00  0.00    -0.003 C 
ATOM     30  C   UNL     1      22.116  16.744 -15.610  1.00  0.00     0.004 C 
ENDBRANCH  28  29
ENDBRANCH  27  28
ENDBRANCH  26  27
ENDBRANCH  25  26
ENDBRANCH  24  25
ENDBRANCH  23  24
ENDBRANCH  22  23
ENDBRANCH  21  22
ENDBRANCH  20  21
ENDBRANCH  19  20
ENDBRANCH  18  19
ENDBRANCH  17  18
ENDBRANCH   1  17
TORSDOF 26
ENDMDL
MODEL 7
REMARK VINA RESULT:     8.411      4.606     13.076
REMARK INTER + INTRA:          20.112
REMARK INTER:                  21.572
REMARK INTRA:                  -1.459
REMARK UNBOUND:                -1.083
REMARK SMILES CCCCCCCCCCCCCCCCCCCCCCCCCCCC(=O)[O-]
REMARK SMILES IDX 15 1 16 2 17 3 18 4 19 5 20 6 21 7 22 8 23 9 24 10 25 11
REMARK SMILES IDX 26 12 27 13 28 14 29 15 30 16 14 17 13 18 12 19 11 20 10 21
REMARK SMILES IDX 9 22 8 23 7 24 6 25 5 26 4 27 3 28 2 29 1 30
REMARK H PARENT
REMARK Flexibility Score: inf
ROOT
ATOM      1  C   UNL     1      12.003  11.858 -13.059  1.00  0.00     0.000 C 
ENDROOT
BRANCH   1   2
ATOM      2  C   UNL     1      10.743  12.566 -13.592  1.00  0.00     0.000 C 
BRANCH   2   3
ATOM      3  C   UNL     1       9.464  12.354 -12.758  1.00  0.00     0.000 C 
BRANCH   3   4
ATOM      4  C   UNL     1       8.759  11.005 -13.010  1.00  0.00     0.000 C 
BRANCH   4   5
ATOM      5  C   UNL     1       7.329  11.171 -13.553  1.00  0.00     0.000 C 
BRANCH   5   6
ATOM      6  C   UNL     1       6.320  10.253 -12.842  1.00  0.00     0.000 C 
BRANCH   6   7
ATOM      7  C   UNL     1       5.870   9.078 -13.729  1.00  0.00     0.000 C 
BRANCH   7   8
ATOM      8  C   UNL     1       5.551   9.513 -15.171  1.00  0.00     0.000 C 
BRANCH   8   9
ATOM      9  C   UNL     1       4.405   8.726 -15.835  1.00  0.00     0.000 C 
BRANCH   9  10
ATOM     10  C   UNL     1       3.080   8.855 -15.063  1.00  0.00     0.000 C 
BRANCH  10  11
ATOM     11  C   UNL     1       1.950   9.472 -15.908  1.00  0.00     0.000 C 
BRANCH  11  12
ATOM     12  C   UNL     1       1.944  11.010 -15.971  1.00  0.00     0.006 C 
BRANCH  12  13
ATOM     13  C   UNL     1       1.907  11.669 -14.585  1.00  0.00     0.053 C 
BRANCH  13  14
ATOM     14  C   UNL     1       2.915  12.772 -14.497  1.00  0.00     0.041 C 
ATOM     15  O   UNL     1       4.075  12.538 -14.064  1.00  0.00    -0.550 OA
ATOM     16  O   UNL     1       2.583  14.053 -14.921  1.00  0.00    -0.550 OA
ENDBRANCH  13  14
ENDBRANCH  12  13
ENDBRANCH  11  12
ENDBRANCH  10  11
ENDBRANCH   9  10
ENDBRANCH   8   9
ENDBRANCH   7   8
ENDBRANCH   6   7
ENDBRANCH   5   6
ENDBRANCH   4   5
ENDBRANCH   3   4
ENDBRANCH   2   3
ENDBRANCH   1   2
BRANCH   1  17
ATOM     17  C   UNL     1      12.925  11.259 -14.140  1.00  0.00     0.000 C 
BRANCH  17  18
ATOM     18  C   UNL     1      13.991  10.278 -13.615  1.00  0.00     0.000 C 
BRANCH  18  19
ATOM     19  C   UNL     1      13.950   8.875 -14.252  1.00  0.00     0.000 C 
BRANCH  19  20
ATOM     20  C   UNL     1      15.276   8.089 -14.188  1.00  0.00     0.000 C 
BRANCH  20  21
ATOM     21  C   UNL     1      16.236   8.342 -15.365  1.00  0.00     0.000 C 
BRANCH  21  22
ATOM     22  C   UNL     1      17.701   8.031 -15.014  1.00  0.00    -0.000 C 
BRANCH  22  23
ATOM     23  C   UNL     1      18.679   8.446 -16.125  1.00  0.00    -0.000 C 
BRANCH  23  24
ATOM     24  C   UNL     1      19.113   9.917 -16.004  1.00  0.00    -0.000 C 
BRANCH  24  25
ATOM     25  C   UNL     1      20.360  10.096 -15.122  1.00  0.00    -0.000 C 
BRANCH  25  26
ATOM     26  C   UNL     1      20.791  11.569 -15.003  1.00  0.00    -0.000 C 
BRANCH  26  27
ATOM     27  C   UNL     1      19.861  12.394 -14.092  1.00  0.00    -0.000 C 
BRANCH  27  28
ATOM     28  C   UNL     1      18.369  12.017 -14.167  1.00  0.00    -0.000 C 
BRANCH  28  29
ATOM     29  C   UNL     1      17.827  11.451 -12.847  1.00  0.00    -0.003 C 
ATOM     30  C   UNL     1      16.748  12.357 -12.262  1.00  0.00     0.004 C 
ENDBRANCH  28  29
ENDBRANCH  27  28
ENDBRANCH  26  27
ENDBRANCH  25  26
ENDBRANCH  24  25
ENDBRANCH  23  24
ENDBRANCH  22  23
ENDBRANCH  21  22
ENDBRANCH  20  21
ENDBRANCH  19  20
ENDBRANCH  18  19
ENDBRANCH  17  18
ENDBRANCH   1  17
TORSDOF 26
ENDMDL
MODEL 8
REMARK VINA RESULT:     8.886      0.981      1.706
REMARK INTER + INTRA:          21.309
REMARK INTER:                  21.153
REMARK INTRA:                   0.155
REMARK UNBOUND:                -1.083
REMARK SMILES CCCCCCCCCCCCCCCCCCCCCCCCCCCC(=O)[O-]
REMARK SMILES IDX 15 1 16 2 17 3 18 4 19 5 20 6 21 7 22 8 23 9 24 10 25 11
REMARK SMILES IDX 26 12 27 13 28 14 29 15 30 16 14 17 13 18 12 19 11 20 10 21
REMARK SMILES IDX 9 22 8 23 7 24 6 25 5 26 4 27 3 28 2 29 1 30
REMARK H PARENT
REMARK Flexibility Score: inf
ROOT
ATOM      1  C   UNL     1      11.832  11.559 -14.395  1.00  0.00     0.000 C 
ENDROOT
BRANCH   1   2
ATOM      2  C   UNL     1      12.992  10.820 -13.701  1.00  0.00     0.000 C 
BRANCH   2   3
ATOM      3  C   UNL     1      13.616   9.666 -14.509  1.00  0.00     0.000 C 
BRANCH   3   4
ATOM      4  C   UNL     1      14.728   8.898 -13.764  1.00  0.00     0.000 C 
BRANCH   4   5
ATOM      5  C   UNL     1      16.137   9.421 -14.089  1.00  0.00     0.000 C 
BRANCH   5   6
ATOM      6  C   UNL     1      17.151   8.284 -14.303  1.00  0.00     0.000 C 
BRANCH   6   7
ATOM      7  C   UNL     1      17.578   8.149 -15.776  1.00  0.00     0.000 C 
BRANCH   7   8
ATOM      8  C   UNL     1      18.794   9.027 -16.124  1.00  0.00     0.000 C 
BRANCH   8   9
ATOM      9  C   UNL     1      19.717   9.338 -14.932  1.00  0.00     0.000 C 
BRANCH   9  10
ATOM     10  C   UNL     1      20.378  10.723 -15.048  1.00  0.00     0.000 C 
BRANCH  10  11
ATOM     11  C   UNL     1      19.752  11.768 -14.104  1.00  0.00     0.000 C 
BRANCH  11  12
ATOM     12  C   UNL     1      19.096  12.972 -14.804  1.00  0.00     0.006 C 
BRANCH  12  13
ATOM     13  C   UNL     1      20.108  13.883 -15.512  1.00  0.00     0.053 C 
BRANCH  13  14
ATOM     14  C   UNL     1      21.395  13.936 -14.750  1.00  0.00     0.041 C 
ATOM     15  O   UNL     1      21.967  15.040 -14.548  1.00  0.00    -0.550 OA
ATOM     16  O   UNL     1      21.947  12.769 -14.235  1.00  0.00    -0.550 OA
ENDBRANCH  13  14
ENDBRANCH  12  13
ENDBRANCH  11  12
ENDBRANCH  10  11
ENDBRANCH   9  10
ENDBRANCH   8   9
ENDBRANCH   7   8
ENDBRANCH   6   7
ENDBRANCH   5   6
ENDBRANCH   4   5
ENDBRANCH   3   4
ENDBRANCH   2   3
ENDBRANCH   1   2
BRANCH   1  17
ATOM     17  C   UNL     1      11.207  12.710 -13.579  1.00  0.00     0.000 C 
BRANCH  17  18
ATOM     18  C   UNL     1       9.939  12.334 -12.789  1.00  0.00     0.000 C 
BRANCH  18  19
ATOM     19  C   UNL     1       8.824  11.678 -13.628  1.00  0.00     0.000 C 
BRANCH  19  20
ATOM     20  C   UNL     1       7.800  10.853 -12.822  1.00  0.00     0.000 C 
BRANCH  20  21
ATOM     21  C   UNL     1       6.951   9.879 -13.658  1.00  0.00     0.000 C 
BRANCH  21  22
ATOM     22  C   UNL     1       6.532   8.627 -12.867  1.00  0.00    -0.000 C 
BRANCH  22  23
ATOM     23  C   UNL     1       5.267   7.963 -13.434  1.00  0.00    -0.000 C 
BRANCH  23  24
ATOM     24  C   UNL     1       3.991   8.405 -12.697  1.00  0.00    -0.000 C 
BRANCH  24  25
ATOM     25  C   UNL     1       2.787   8.565 -13.639  1.00  0.00    -0.000 C 
BRANCH  25  26
ATOM     26  C   UNL     1       3.207   8.717 -15.112  1.00  0.00    -0.000 C 
BRANCH  26  27
ATOM     27  C   UNL     1       2.272   9.647 -15.909  1.00  0.00    -0.000 C 
BRANCH  27  28
ATOM     28  C   UNL     1       2.797  11.080 -16.116  1.00  0.00    -0.000 C 
BRANCH  28  29
ATOM     29  C   UNL     1       3.990  11.419 -15.210  1.00  0.00    -0.003 C 
ATOM     30  C   UNL     1       3.762  12.733 -14.469  1.00  0.00     0.004 C 
ENDBRANCH  28  29
ENDBRANCH  27  28
ENDBRANCH  26  27
ENDBRANCH  25  26
ENDBRANCH  24  25
ENDBRANCH  23  24
ENDBRANCH  22  23
ENDBRANCH  21  22
ENDBRANCH  20  21
ENDBRANCH  19  20
ENDBRANCH  18  19
ENDBRANCH  17  18
ENDBRANCH   1  17
TORSDOF 26
ENDMDL
