MODEL 1
REMARK VINA RESULT:     5.357      0.000      0.000
REMARK INTER + INTRA:           8.258
REMARK INTER:                   8.176
REMARK INTRA:                   0.082
REMARK UNBOUND:                 0.082
REMARK SMILES CC(=O)CCC=C(C)CCC=C(C)CCC=C(C)C
REMARK SMILES IDX 10 1 11 2 12 3 13 4 14 5 15 6 16 7 18 8 17 9 19 10 9 11 7 12
REMARK SMILES IDX 6 13 8 14 5 15 4 16 2 17 3 18 1 19
REMARK H PARENT
REMARK Flexibility Score: inf
ROOT
ATOM      1  C   UNL     1      -5.979  15.095   5.961  1.00  0.00     0.032 C 
ENDROOT
BRANCH   1   2
ATOM      2  C   UNL     1      -5.545  13.687   6.281  1.00  0.00    -0.028 C 
ATOM      3  C   UNL     1      -5.579  13.138   7.517  1.00  0.00    -0.077 C 
ATOM      4  C   UNL     1      -6.015  13.928   8.729  1.00  0.00     0.039 C 
BRANCH   3   5
ATOM      5  C   UNL     1      -5.151  11.698   7.693  1.00  0.00     0.034 C 
BRANCH   5   6
ATOM      6  C   UNL     1      -4.657  11.448   9.123  1.00  0.00     0.032 C 
BRANCH   6   7
ATOM      7  C   UNL     1      -3.394  10.623   9.116  1.00  0.00    -0.028 C 
ATOM      8  C   UNL     1      -2.536  11.662   7.005  1.00  0.00     0.039 C 
ATOM      9  C   UNL     1      -2.417  10.732   8.187  1.00  0.00    -0.080 C 
ATOM     10  C   UNL     1      -1.182   9.877   8.295  1.00  0.00     0.039 C 
ENDBRANCH   6   7
ENDBRANCH   5   6
ENDBRANCH   3   5
ENDBRANCH   1   2
BRANCH   1  11
ATOM     11  C   UNL     1      -4.767  15.980   5.647  1.00  0.00     0.034 C 
BRANCH  11  12
ATOM     12  C   UNL     1      -4.025  15.463   4.434  1.00  0.00    -0.077 C 
ATOM     13  C   UNL     1      -4.515  15.733   3.201  1.00  0.00    -0.028 C 
ATOM     14  C   UNL     1      -2.753  14.674   4.632  1.00  0.00     0.039 C 
BRANCH  13  15
ATOM     15  C   UNL     1      -3.903  15.236   1.915  1.00  0.00     0.035 C 
BRANCH  15  16
ATOM     16  C   UNL     1      -4.990  14.759   0.948  1.00  0.00     0.079 C 
BRANCH  16  17
ATOM     17  C   UNL     1      -5.396  13.343   1.261  1.00  0.00     0.130 C 
ATOM     18  O   UNL     1      -5.675  13.037   2.411  1.00  0.00    -0.300 OA
ATOM     19  C   UNL     1      -5.459  12.293   0.192  1.00  0.00     0.087 C 
ENDBRANCH  16  17
ENDBRANCH  15  16
ENDBRANCH  13  15
ENDBRANCH  11  12
ENDBRANCH   1  11
TORSDOF 9
ENDMDL
MODEL 2
REMARK VINA RESULT:     5.472      1.927      6.831
REMARK INTER + INTRA:           8.434
REMARK INTER:                   9.606
REMARK INTRA:                  -1.172
REMARK UNBOUND:                 0.082
REMARK SMILES CC(=O)CCC=C(C)CCC=C(C)CCC=C(C)C
REMARK SMILES IDX 10 1 11 2 12 3 13 4 14 5 15 6 16 7 18 8 17 9 19 10 9 11 7 12
REMARK SMILES IDX 6 13 8 14 5 15 4 16 2 17 3 18 1 19
REMARK H PARENT
REMARK Flexibility Score: inf
ROOT
ATOM      1  C   UNL     1      -5.255  15.500   6.215  1.00  0.00     0.032 C 
ENDROOT
BRANCH   1   2
ATOM      2  C   UNL     1      -4.829  15.711   4.784  1.00  0.00    -0.028 C 
ATOM      3  C   UNL     1      -3.731  15.155   4.223  1.00  0.00    -0.077 C 
ATOM      4  C   UNL     1      -2.776  14.295   5.018  1.00  0.00     0.039 C 
BRANCH   3   5
ATOM      5  C   UNL     1      -3.440  15.419   2.761  1.00  0.00     0.034 C 
BRANCH   5   6
ATOM      6  C   UNL     1      -4.739  15.475   1.949  1.00  0.00     0.032 C 
BRANCH   6   7
ATOM      7  C   UNL     1      -4.874  14.256   1.071  1.00  0.00    -0.028 C 
ATOM      8  C   UNL     1      -6.179  12.972   2.780  1.00  0.00     0.039 C 
ATOM      9  C   UNL     1      -5.546  13.135   1.420  1.00  0.00    -0.080 C 
ATOM     10  C   UNL     1      -5.642  11.987   0.450  1.00  0.00     0.039 C 
ENDBRANCH   6   7
ENDBRANCH   5   6
ENDBRANCH   3   5
ENDBRANCH   1   2
BRANCH   1  11
ATOM     11  C   UNL     1      -5.986  14.163   6.373  1.00  0.00     0.034 C 
BRANCH  11  12
ATOM     12  C   UNL     1      -5.699  13.551   7.728  1.00  0.00    -0.077 C 
ATOM     13  C   UNL     1      -4.959  12.421   7.793  1.00  0.00    -0.028 C 
ATOM     14  C   UNL     1      -6.235  14.227   8.967  1.00  0.00     0.039 C 
BRANCH  13  15
ATOM     15  C   UNL     1      -4.643  11.684   9.071  1.00  0.00     0.035 C 
BRANCH  15  16
ATOM     16  C   UNL     1      -3.538  10.649   8.838  1.00  0.00     0.079 C 
BRANCH  16  17
ATOM     17  C   UNL     1      -2.179  11.273   9.014  1.00  0.00     0.130 C 
ATOM     18  O   UNL     1      -2.080  12.489   9.088  1.00  0.00    -0.300 OA
ATOM     19  C   UNL     1      -0.938  10.435   9.093  1.00  0.00     0.087 C 
ENDBRANCH  16  17
ENDBRANCH  15  16
ENDBRANCH  13  15
ENDBRANCH  11  12
ENDBRANCH   1  11
TORSDOF 9
ENDMDL
MODEL 3
REMARK VINA RESULT:     5.547      1.595      3.212
REMARK INTER + INTRA:           8.548
REMARK INTER:                   7.159
REMARK INTRA:                   1.388
REMARK UNBOUND:                 0.082
REMARK SMILES CC(=O)CCC=C(C)CCC=C(C)CCC=C(C)C
REMARK SMILES IDX 10 1 11 2 12 3 13 4 14 5 15 6 16 7 18 8 17 9 19 10 9 11 7 12
REMARK SMILES IDX 6 13 8 14 5 15 4 16 2 17 3 18 1 19
REMARK H PARENT
REMARK Flexibility Score: inf
ROOT
ATOM      1  C   UNL     1      -6.516  11.925   7.286  1.00  0.00     0.032 C 
ENDROOT
BRANCH   1   2
ATOM      2  C   UNL     1      -5.383  11.063   7.786  1.00  0.00    -0.028 C 
ATOM      3  C   UNL     1      -4.416  11.487   8.631  1.00  0.00    -0.077 C 
ATOM      4  C   UNL     1      -4.352  12.915   9.119  1.00  0.00     0.039 C 
BRANCH   3   5
ATOM      5  C   UNL     1      -3.358  10.506   9.087  1.00  0.00     0.034 C 
BRANCH   5   6
ATOM      6  C   UNL     1      -2.032  10.759   8.359  1.00  0.00     0.032 C 
BRANCH   6   7
ATOM      7  C   UNL     1      -2.272  11.068   6.902  1.00  0.00    -0.028 C 
ATOM      8  C   UNL     1      -2.341  13.544   7.273  1.00  0.00     0.039 C 
ATOM      9  C   UNL     1      -2.381  12.317   6.395  1.00  0.00    -0.080 C 
ATOM     10  C   UNL     1      -2.591  12.510   4.916  1.00  0.00     0.039 C 
ENDBRANCH   6   7
ENDBRANCH   5   6
ENDBRANCH   3   5
ENDBRANCH   1   2
BRANCH   1  11
ATOM     11  C   UNL     1      -6.125  12.636   5.986  1.00  0.00     0.034 C 
BRANCH  11  12
ATOM     12  C   UNL     1      -5.875  14.108   6.234  1.00  0.00    -0.077 C 
ATOM     13  C   UNL     1      -5.609  14.915   5.180  1.00  0.00    -0.028 C 
ATOM     14  C   UNL     1      -5.942  14.637   7.647  1.00  0.00     0.039 C 
BRANCH  13  15
ATOM     15  C   UNL     1      -5.292  16.385   5.294  1.00  0.00     0.035 C 
BRANCH  15  16
ATOM     16  C   UNL     1      -4.462  16.853   4.095  1.00  0.00     0.079 C 
BRANCH  16  17
ATOM     17  C   UNL     1      -3.872  15.675   3.365  1.00  0.00     0.130 C 
ATOM     18  O   UNL     1      -2.977  15.030   3.888  1.00  0.00    -0.300 OA
ATOM     19  C   UNL     1      -4.356  15.279   2.001  1.00  0.00     0.087 C 
ENDBRANCH  16  17
ENDBRANCH  15  16
ENDBRANCH  13  15
ENDBRANCH  11  12
ENDBRANCH   1  11
TORSDOF 9
ENDMDL
MODEL 4
REMARK VINA RESULT:     5.565      3.105      4.322
REMARK INTER + INTRA:           8.576
REMARK INTER:                   9.289
REMARK INTRA:                  -0.714
REMARK UNBOUND:                 0.082
REMARK SMILES CC(=O)CCC=C(C)CCC=C(C)CCC=C(C)C
REMARK SMILES IDX 10 1 11 2 12 3 13 4 14 5 15 6 16 7 18 8 17 9 19 10 9 11 7 12
REMARK SMILES IDX 6 13 8 14 5 15 4 16 2 17 3 18 1 19
REMARK H PARENT
REMARK Flexibility Score: inf
ROOT
ATOM      1  C   UNL     1      -4.633  15.008   5.406  1.00  0.00     0.032 C 
ENDROOT
BRANCH   1   2
ATOM      2  C   UNL     1      -5.121  14.586   6.770  1.00  0.00    -0.028 C 
ATOM      3  C   UNL     1      -5.882  13.494   7.006  1.00  0.00    -0.077 C 
ATOM      4  C   UNL     1      -6.373  12.606   5.887  1.00  0.00     0.039 C 
BRANCH   3   5
ATOM      5  C   UNL     1      -6.270  13.163   8.431  1.00  0.00     0.034 C 
BRANCH   5   6
ATOM      6  C   UNL     1      -5.389  12.039   8.988  1.00  0.00     0.032 C 
BRANCH   6   7
ATOM      7  C   UNL     1      -4.443  11.526   7.930  1.00  0.00    -0.028 C 
ATOM      8  C   UNL     1      -2.407  12.398   9.099  1.00  0.00     0.039 C 
ATOM      9  C   UNL     1      -3.097  11.653   7.983  1.00  0.00    -0.080 C 
ATOM     10  C   UNL     1      -2.246  11.076   6.883  1.00  0.00     0.039 C 
ENDBRANCH   6   7
ENDBRANCH   5   6
ENDBRANCH   3   5
ENDBRANCH   1   2
BRANCH   1  11
ATOM     11  C   UNL     1      -3.234  14.447   5.132  1.00  0.00     0.034 C 
BRANCH  11  12
ATOM     12  C   UNL     1      -2.632  15.087   3.899  1.00  0.00    -0.077 C 
ATOM     13  C   UNL     1      -1.303  15.337   3.872  1.00  0.00    -0.028 C 
ATOM     14  C   UNL     1      -3.530  15.414   2.729  1.00  0.00     0.039 C 
BRANCH  13  15
ATOM     15  C   UNL     1      -0.587  16.013   2.729  1.00  0.00     0.035 C 
BRANCH  15  16
ATOM     16  C   UNL     1       0.929  15.847   2.867  1.00  0.00     0.079 C 
BRANCH  16  17
ATOM     17  C   UNL     1       1.578  17.158   3.226  1.00  0.00     0.130 C 
ATOM     18  O   UNL     1       1.032  18.205   2.913  1.00  0.00    -0.300 OA
ATOM     19  C   UNL     1       2.887  17.208   3.955  1.00  0.00     0.087 C 
ENDBRANCH  16  17
ENDBRANCH  15  16
ENDBRANCH  13  15
ENDBRANCH  11  12
ENDBRANCH   1  11
TORSDOF 9
ENDMDL
MODEL 5
REMARK VINA RESULT:     5.703      3.065      5.003
REMARK INTER + INTRA:           8.786
REMARK INTER:                   9.277
REMARK INTRA:                  -0.492
REMARK UNBOUND:                 0.082
REMARK SMILES CC(=O)CCC=C(C)CCC=C(C)CCC=C(C)C
REMARK SMILES IDX 10 1 11 2 12 3 13 4 14 5 15 6 16 7 18 8 17 9 19 10 9 11 7 12
REMARK SMILES IDX 6 13 8 14 5 15 4 16 2 17 3 18 1 19
REMARK H PARENT
REMARK Flexibility Score: inf
ROOT
ATOM      1  C   UNL     1      -2.201  13.559   5.839  1.00  0.00     0.032 C 
ENDROOT
BRANCH   1   2
ATOM      2  C   UNL     1      -2.697  13.177   7.211  1.00  0.00    -0.028 C 
ATOM      3  C   UNL     1      -2.703  11.916   7.699  1.00  0.00    -0.077 C 
ATOM      4  C   UNL     1      -2.254  10.736   6.868  1.00  0.00     0.039 C 
BRANCH   3   5
ATOM      5  C   UNL     1      -3.192  11.677   9.110  1.00  0.00     0.034 C 
BRANCH   5   6
ATOM      6  C   UNL     1      -4.700  11.398   9.124  1.00  0.00     0.032 C 
BRANCH   6   7
ATOM      7  C   UNL     1      -5.305  11.659   7.767  1.00  0.00    -0.028 C 
ATOM      8  C   UNL     1      -6.096  13.954   8.384  1.00  0.00     0.039 C 
ATOM      9  C   UNL     1      -5.908  12.816   7.411  1.00  0.00    -0.080 C 
ATOM     10  C   UNL     1      -6.452  12.979   6.016  1.00  0.00     0.039 C 
ENDBRANCH   6   7
ENDBRANCH   5   6
ENDBRANCH   3   5
ENDBRANCH   1   2
BRANCH   1  11
ATOM     11  C   UNL     1      -3.227  14.435   5.114  1.00  0.00     0.034 C 
BRANCH  11  12
ATOM     12  C   UNL     1      -2.616  15.072   3.884  1.00  0.00    -0.077 C 
ATOM     13  C   UNL     1      -1.272  15.215   3.819  1.00  0.00    -0.028 C 
ATOM     14  C   UNL     1      -3.521  15.517   2.760  1.00  0.00     0.039 C 
BRANCH  13  15
ATOM     15  C   UNL     1      -0.541  15.877   2.677  1.00  0.00     0.035 C 
BRANCH  15  16
ATOM     16  C   UNL     1       0.974  15.794   2.885  1.00  0.00     0.079 C 
BRANCH  16  17
ATOM     17  C   UNL     1       1.534  17.141   3.256  1.00  0.00     0.130 C 
ATOM     18  O   UNL     1       0.878  18.147   3.033  1.00  0.00    -0.300 OA
ATOM     19  C   UNL     1       2.888  17.278   3.887  1.00  0.00     0.087 C 
ENDBRANCH  16  17
ENDBRANCH  15  16
ENDBRANCH  13  15
ENDBRANCH  11  12
ENDBRANCH   1  11
TORSDOF 9
ENDMDL
MODEL 6
REMARK VINA RESULT:     5.899      1.022      2.952
REMARK INTER + INTRA:           9.085
REMARK INTER:                  10.002
REMARK INTRA:                  -0.917
REMARK UNBOUND:                 0.082
REMARK SMILES CC(=O)CCC=C(C)CCC=C(C)CCC=C(C)C
REMARK SMILES IDX 10 1 11 2 12 3 13 4 14 5 15 6 16 7 18 8 17 9 19 10 9 11 7 12
REMARK SMILES IDX 6 13 8 14 5 15 4 16 2 17 3 18 1 19
REMARK H PARENT
REMARK Flexibility Score: inf
ROOT
ATOM      1  C   UNL     1      -2.492  13.125   5.582  1.00  0.00     0.032 C 
ENDROOT
BRANCH   1   2
ATOM      2  C   UNL     1      -2.923  12.042   6.540  1.00  0.00    -0.028 C 
ATOM      3  C   UNL     1      -2.679  12.058   7.870  1.00  0.00    -0.077 C 
ATOM      4  C   UNL     1      -1.883  13.163   8.524  1.00  0.00     0.039 C 
BRANCH   3   5
ATOM      5  C   UNL     1      -3.203  10.925   8.726  1.00  0.00     0.034 C 
BRANCH   5   6
ATOM      6  C   UNL     1      -4.730  10.997   8.848  1.00  0.00     0.032 C 
BRANCH   6   7
ATOM      7  C   UNL     1      -5.179  12.410   9.125  1.00  0.00    -0.028 C 
ATOM      8  C   UNL     1      -6.365  12.633   6.930  1.00  0.00     0.039 C 
ATOM      9  C   UNL     1      -5.942  13.146   8.284  1.00  0.00    -0.080 C 
ATOM     10  C   UNL     1      -6.357  14.540   8.676  1.00  0.00     0.039 C 
ENDBRANCH   6   7
ENDBRANCH   5   6
ENDBRANCH   3   5
ENDBRANCH   1   2
BRANCH   1  11
ATOM     11  C   UNL     1      -3.057  14.484   6.006  1.00  0.00     0.034 C 
BRANCH  11  12
ATOM     12  C   UNL     1      -4.033  15.005   4.973  1.00  0.00    -0.077 C 
ATOM     13  C   UNL     1      -3.679  14.983   3.667  1.00  0.00    -0.028 C 
ATOM     14  C   UNL     1      -5.378  15.521   5.427  1.00  0.00     0.039 C 
BRANCH  13  15
ATOM     15  C   UNL     1      -4.535  15.517   2.545  1.00  0.00     0.035 C 
BRANCH  15  16
ATOM     16  C   UNL     1      -4.571  14.528   1.376  1.00  0.00     0.079 C 
BRANCH  16  17
ATOM     17  C   UNL     1      -5.446  13.347   1.705  1.00  0.00     0.130 C 
ATOM     18  O   UNL     1      -6.035  13.314   2.774  1.00  0.00    -0.300 OA
ATOM     19  C   UNL     1      -5.604  12.202   0.749  1.00  0.00     0.087 C 
ENDBRANCH  16  17
ENDBRANCH  15  16
ENDBRANCH  13  15
ENDBRANCH  11  12
ENDBRANCH   1  11
TORSDOF 9
ENDMDL
MODEL 7
REMARK VINA RESULT:     5.985      2.851      4.190
REMARK INTER + INTRA:           9.216
REMARK INTER:                   8.915
REMARK INTRA:                   0.301
REMARK UNBOUND:                 0.082
REMARK SMILES CC(=O)CCC=C(C)CCC=C(C)CCC=C(C)C
REMARK SMILES IDX 10 1 11 2 12 3 13 4 14 5 15 6 16 7 18 8 17 9 19 10 9 11 7 12
REMARK SMILES IDX 6 13 8 14 5 15 4 16 2 17 3 18 1 19
REMARK H PARENT
REMARK Flexibility Score: inf
ROOT
ATOM      1  C   UNL     1      -6.639  12.529   6.202  1.00  0.00     0.032 C 
ENDROOT
BRANCH   1   2
ATOM      2  C   UNL     1      -5.696  11.707   7.045  1.00  0.00    -0.028 C 
ATOM      3  C   UNL     1      -5.474  11.911   8.364  1.00  0.00    -0.077 C 
ATOM      4  C   UNL     1      -6.125  13.048   9.117  1.00  0.00     0.039 C 
BRANCH   3   5
ATOM      5  C   UNL     1      -4.530  10.987   9.101  1.00  0.00     0.034 C 
BRANCH   5   6
ATOM      6  C   UNL     1      -3.110  11.563   9.124  1.00  0.00     0.032 C 
BRANCH   6   7
ATOM      7  C   UNL     1      -2.978  12.700   8.140  1.00  0.00    -0.028 C 
ATOM      8  C   UNL     1      -2.301  11.199   6.253  1.00  0.00     0.039 C 
ATOM      9  C   UNL     1      -2.646  12.546   6.838  1.00  0.00    -0.080 C 
ATOM     10  C   UNL     1      -2.571  13.751   5.937  1.00  0.00     0.039 C 
ENDBRANCH   6   7
ENDBRANCH   5   6
ENDBRANCH   3   5
ENDBRANCH   1   2
BRANCH   1  11
ATOM     11  C   UNL     1      -5.861  13.419   5.227  1.00  0.00     0.034 C 
BRANCH  11  12
ATOM     12  C   UNL     1      -5.784  14.840   5.744  1.00  0.00    -0.077 C 
ATOM     13  C   UNL     1      -5.564  15.846   4.866  1.00  0.00    -0.028 C 
ATOM     14  C   UNL     1      -5.969  15.096   7.221  1.00  0.00     0.039 C 
BRANCH  13  15
ATOM     15  C   UNL     1      -5.416  17.296   5.253  1.00  0.00     0.035 C 
BRANCH  15  16
ATOM     16  C   UNL     1      -4.029  17.819   4.866  1.00  0.00     0.079 C 
BRANCH  16  17
ATOM     17  C   UNL     1      -3.931  19.301   5.115  1.00  0.00     0.130 C 
ATOM     18  O   UNL     1      -4.950  19.974   5.150  1.00  0.00    -0.300 OA
ATOM     19  C   UNL     1      -2.606  19.974   5.316  1.00  0.00     0.087 C 
ENDBRANCH  16  17
ENDBRANCH  15  16
ENDBRANCH  13  15
ENDBRANCH  11  12
ENDBRANCH   1  11
TORSDOF 9
ENDMDL
MODEL 8
REMARK VINA RESULT:     6.696      2.938      6.981
REMARK INTER + INTRA:          10.301
REMARK INTER:                  11.110
REMARK INTRA:                  -0.809
REMARK UNBOUND:                 0.082
REMARK SMILES CC(=O)CCC=C(C)CCC=C(C)CCC=C(C)C
REMARK SMILES IDX 10 1 11 2 12 3 13 4 14 5 15 6 16 7 18 8 17 9 19 10 9 11 7 12
REMARK SMILES IDX 6 13 8 14 5 15 4 16 2 17 3 18 1 19
REMARK H PARENT
REMARK Flexibility Score: inf
ROOT
ATOM      1  C   UNL     1      -5.462  14.967   5.724  1.00  0.00     0.032 C 
ENDROOT
BRANCH   1   2
ATOM      2  C   UNL     1      -3.976  14.784   5.537  1.00  0.00    -0.028 C 
ATOM      3  C   UNL     1      -3.324  14.968   4.367  1.00  0.00    -0.077 C 
ATOM      4  C   UNL     1      -4.054  15.328   3.094  1.00  0.00     0.039 C 
BRANCH   3   5
ATOM      5  C   UNL     1      -1.822  14.788   4.327  1.00  0.00     0.034 C 
BRANCH   5   6
ATOM      6  C   UNL     1      -1.205  15.617   3.195  1.00  0.00     0.032 C 
BRANCH   6   7
ATOM      7  C   UNL     1       0.123  16.195   3.618  1.00  0.00    -0.028 C 
ATOM      8  C   UNL     1       1.035  16.223   1.285  1.00  0.00     0.039 C 
ATOM      9  C   UNL     1       1.127  16.502   2.765  1.00  0.00    -0.080 C 
ATOM     10  C   UNL     1       2.402  17.104   3.295  1.00  0.00     0.039 C 
ENDBRANCH   6   7
ENDBRANCH   5   6
ENDBRANCH   3   5
ENDBRANCH   1   2
BRANCH   1  11
ATOM     11  C   UNL     1      -6.120  13.657   6.170  1.00  0.00     0.034 C 
BRANCH  11  12
ATOM     12  C   UNL     1      -5.683  13.288   7.572  1.00  0.00    -0.077 C 
ATOM     13  C   UNL     1      -5.028  12.121   7.769  1.00  0.00    -0.028 C 
ATOM     14  C   UNL     1      -5.977  14.240   8.707  1.00  0.00     0.039 C 
BRANCH  13  15
ATOM     15  C   UNL     1      -4.584  11.611   9.117  1.00  0.00     0.035 C 
BRANCH  15  16
ATOM     16  C   UNL     1      -3.609  10.441   8.958  1.00  0.00     0.079 C 
BRANCH  16  17
ATOM     17  C   UNL     1      -2.190  10.938   8.881  1.00  0.00     0.130 C 
ATOM     18  O   UNL     1      -1.949  12.111   9.122  1.00  0.00    -0.300 OA
ATOM     19  C   UNL     1      -1.061  10.024   8.506  1.00  0.00     0.087 C 
ENDBRANCH  16  17
ENDBRANCH  15  16
ENDBRANCH  13  15
ENDBRANCH  11  12
ENDBRANCH   1  11
TORSDOF 9
ENDMDL
MODEL 9
REMARK VINA RESULT:     6.772      2.472      4.597
REMARK INTER + INTRA:          10.418
REMARK INTER:                  10.206
REMARK INTRA:                   0.212
REMARK UNBOUND:                 0.082
REMARK SMILES CC(=O)CCC=C(C)CCC=C(C)CCC=C(C)C
REMARK SMILES IDX 10 1 11 2 12 3 13 4 14 5 15 6 16 7 18 8 17 9 19 10 9 11 7 12
REMARK SMILES IDX 6 13 8 14 5 15 4 16 2 17 3 18 1 19
REMARK H PARENT
REMARK Flexibility Score: inf
ROOT
ATOM      1  C   UNL     1      -2.243  13.565   6.261  1.00  0.00     0.032 C 
ENDROOT
BRANCH   1   2
ATOM      2  C   UNL     1      -2.797  12.909   7.502  1.00  0.00    -0.028 C 
ATOM      3  C   UNL     1      -2.751  11.581   7.750  1.00  0.00    -0.077 C 
ATOM      4  C   UNL     1      -2.174  10.601   6.754  1.00  0.00     0.039 C 
BRANCH   3   5
ATOM      5  C   UNL     1      -3.310  11.058   9.055  1.00  0.00     0.034 C 
BRANCH   5   6
ATOM      6  C   UNL     1      -4.826  11.277   9.125  1.00  0.00     0.032 C 
BRANCH   6   7
ATOM      7  C   UNL     1      -5.411  11.413   7.741  1.00  0.00    -0.028 C 
ATOM      8  C   UNL     1      -6.352  13.690   8.189  1.00  0.00     0.039 C 
ATOM      9  C   UNL     1      -6.072  12.507   7.297  1.00  0.00    -0.080 C 
ATOM     10  C   UNL     1      -6.590  12.546   5.883  1.00  0.00     0.039 C 
ENDBRANCH   6   7
ENDBRANCH   5   6
ENDBRANCH   3   5
ENDBRANCH   1   2
BRANCH   1  11
ATOM     11  C   UNL     1      -3.243  13.472   5.104  1.00  0.00     0.034 C 
BRANCH  11  12
ATOM     12  C   UNL     1      -3.841  14.829   4.802  1.00  0.00    -0.077 C 
ATOM     13  C   UNL     1      -4.639  15.414   5.725  1.00  0.00    -0.028 C 
ATOM     14  C   UNL     1      -3.518  15.498   3.487  1.00  0.00     0.039 C 
BRANCH  13  15
ATOM     15  C   UNL     1      -5.337  16.738   5.530  1.00  0.00     0.035 C 
BRANCH  15  16
ATOM     16  C   UNL     1      -4.554  17.623   4.555  1.00  0.00     0.079 C 
BRANCH  16  17
ATOM     17  C   UNL     1      -4.534  19.051   5.032  1.00  0.00     0.130 C 
ATOM     18  O   UNL     1      -5.586  19.656   5.164  1.00  0.00    -0.300 OA
ATOM     19  C   UNL     1      -3.245  19.752   5.343  1.00  0.00     0.087 C 
ENDBRANCH  16  17
ENDBRANCH  15  16
ENDBRANCH  13  15
ENDBRANCH  11  12
ENDBRANCH   1  11
TORSDOF 9
ENDMDL
