MODEL 1
REMARK VINA RESULT:     0.000      0.000      0.000
REMARK INTER + INTRA:          -0.151
REMARK INTER:                   0.000
REMARK INTRA:                  -0.151
REMARK UNBOUND:                -0.151
REMARK SMILES CC[C@@H](C)[C@H]([NH3+])C(=O)[O-]
REMARK SMILES IDX 3 1 4 2 5 3 6 4 7 8 8 9 9 10 2 11 1 12
REMARK H PARENT 6 5 6 6 6 7
REMARK Flexibility Score: inf
ROOT
ATOM      1  C   UNL     1       9.695  14.520 -44.835  1.00  0.00     0.050 C 
ATOM      2  C   UNL     1      10.865  13.517 -44.837  1.00  0.00     0.014 C 
ENDROOT
BRANCH   1   3
ATOM      3  C   UNL     1      10.133  15.963 -44.424  1.00  0.00     0.230 C 
BRANCH   3   4
ATOM      4  N   UNL     1      10.910  15.995 -43.176  1.00  0.00    -0.350 N 
ATOM      5  H   UNL     1      10.328  15.707 -42.357  1.00  0.00     0.345 HD
ATOM      6  H   UNL     1      11.261  16.966 -43.007  1.00  0.00     0.345 HD
ATOM      7  H   UNL     1      11.744  15.372 -43.248  1.00  0.00     0.345 HD
ENDBRANCH   3   4
BRANCH   3   8
ATOM      8  C   UNL     1       8.942  16.887 -44.339  1.00  0.00     0.099 C 
ATOM      9  O   UNL     1       8.905  17.932 -45.041  1.00  0.00    -0.544 OA
ATOM     10  O   UNL     1       7.859  16.575 -43.523  1.00  0.00    -0.544 OA
ENDBRANCH   3   8
ENDBRANCH   1   3
BRANCH   1  11
ATOM     11  C   UNL     1       8.962  14.453 -46.199  1.00  0.00     0.006 C 
ATOM     12  C   UNL     1       7.557  13.858 -46.107  1.00  0.00     0.004 C 
ENDBRANCH   1  11
TORSDOF 4
ENDMDL
MODEL 2
REMARK VINA RESULT:     0.000      9.469     10.098
REMARK INTER + INTRA:          -0.151
REMARK INTER:                   0.000
REMARK INTRA:                  -0.151
REMARK UNBOUND:                -0.151
REMARK SMILES CC[C@@H](C)[C@H]([NH3+])C(=O)[O-]
REMARK SMILES IDX 3 1 4 2 5 3 6 4 7 8 8 9 9 10 2 11 1 12
REMARK H PARENT 6 5 6 6 6 7
REMARK Flexibility Score: inf
ROOT
ATOM      1  C   UNL     1       0.409  13.501 -42.278  1.00  0.00     0.050 C 
ATOM      2  C   UNL     1       0.215  14.094 -43.686  1.00  0.00     0.014 C 
ENDROOT
BRANCH   1   3
ATOM      3  C   UNL     1       0.156  14.544 -41.140  1.00  0.00     0.230 C 
BRANCH   3   4
ATOM      4  N   UNL     1       0.896  15.799 -41.335  1.00  0.00    -0.350 N 
ATOM      5  H   UNL     1       0.709  16.477 -40.561  1.00  0.00     0.345 HD
ATOM      6  H   UNL     1       0.606  16.239 -42.239  1.00  0.00     0.345 HD
ATOM      7  H   UNL     1       1.922  15.613 -41.396  1.00  0.00     0.345 HD
ENDBRANCH   3   4
BRANCH   3   8
ATOM      8  C   UNL     1       0.455  13.950 -39.785  1.00  0.00     0.099 C 
ATOM      9  O   UNL     1      -0.441  13.921 -38.900  1.00  0.00    -0.544 OA
ATOM     10  O   UNL     1       1.699  13.391 -39.514  1.00  0.00    -0.544 OA
ENDBRANCH   3   8
ENDBRANCH   1   3
BRANCH   1  11
ATOM     11  C   UNL     1      -0.438  12.211 -42.143  1.00  0.00     0.006 C 
ATOM     12  C   UNL     1       0.402  10.937 -42.052  1.00  0.00     0.004 C 
ENDBRANCH   1  11
TORSDOF 4
ENDMDL
MODEL 3
REMARK VINA RESULT:     0.000     13.096     13.897
REMARK INTER + INTRA:          -0.151
REMARK INTER:                   0.000
REMARK INTRA:                  -0.151
REMARK UNBOUND:                -0.151
REMARK SMILES CC[C@@H](C)[C@H]([NH3+])C(=O)[O-]
REMARK SMILES IDX 3 1 4 2 5 3 6 4 7 8 8 9 9 10 2 11 1 12
REMARK H PARENT 6 5 6 6 6 7
REMARK Flexibility Score: inf
ROOT
ATOM      1  C   UNL     1      -0.916  22.806 -46.823  1.00  0.00     0.050 C 
ATOM      2  C   UNL     1       0.594  23.056 -46.997  1.00  0.00     0.014 C 
ENDROOT
BRANCH   1   3
ATOM      3  C   UNL     1      -1.795  23.888 -47.531  1.00  0.00     0.230 C 
BRANCH   3   4
ATOM      4  N   UNL     1      -1.404  25.263 -47.186  1.00  0.00    -0.350 N 
ATOM      5  H   UNL     1      -1.663  25.499 -46.202  1.00  0.00     0.345 HD
ATOM      6  H   UNL     1      -1.887  25.935 -47.827  1.00  0.00     0.345 HD
ATOM      7  H   UNL     1      -0.376  25.394 -47.317  1.00  0.00     0.345 HD
ENDBRANCH   3   4
BRANCH   3   8
ATOM      8  C   UNL     1      -3.262  23.662 -47.251  1.00  0.00     0.099 C 
ATOM      9  O   UNL     1      -4.065  23.496 -48.206  1.00  0.00    -0.544 OA
ATOM     10  O   UNL     1      -3.732  23.590 -45.944  1.00  0.00    -0.544 OA
ENDBRANCH   3   8
ENDBRANCH   1   3
BRANCH   1  11
ATOM     11  C   UNL     1      -1.248  21.354 -47.249  1.00  0.00     0.006 C 
ATOM     12  C   UNL     1      -1.658  20.455 -46.083  1.00  0.00     0.004 C 
ENDBRANCH   1  11
TORSDOF 4
ENDMDL
MODEL 4
REMARK VINA RESULT:     0.000     13.000     13.866
REMARK INTER + INTRA:          -0.151
REMARK INTER:                   0.000
REMARK INTRA:                  -0.151
REMARK UNBOUND:                -0.151
REMARK SMILES CC[C@@H](C)[C@H]([NH3+])C(=O)[O-]
REMARK SMILES IDX 3 1 4 2 5 3 6 4 7 8 8 9 9 10 2 11 1 12
REMARK H PARENT 6 5 6 6 6 7
REMARK Flexibility Score: inf
ROOT
ATOM      1  C   UNL     1      -2.071  21.991 -45.518  1.00  0.00     0.050 C 
ATOM      2  C   UNL     1      -1.035  22.074 -46.655  1.00  0.00     0.014 C 
ENDROOT
BRANCH   1   3
ATOM      3  C   UNL     1      -2.144  23.301 -44.666  1.00  0.00     0.230 C 
BRANCH   3   4
ATOM      4  N   UNL     1      -0.827  23.759 -44.201  1.00  0.00    -0.350 N 
ATOM      5  H   UNL     1      -0.053  23.257 -44.692  1.00  0.00     0.345 HD
ATOM      6  H   UNL     1      -0.738  23.581 -43.173  1.00  0.00     0.345 HD
ATOM      7  H   UNL     1      -0.725  24.788 -44.347  1.00  0.00     0.345 HD
ENDBRANCH   3   4
BRANCH   3   8
ATOM      8  C   UNL     1      -3.097  23.140 -43.506  1.00  0.00     0.099 C 
ATOM      9  O   UNL     1      -4.075  23.924 -43.382  1.00  0.00    -0.544 OA
ATOM     10  O   UNL     1      -2.933  22.105 -42.592  1.00  0.00    -0.544 OA
ENDBRANCH   3   8
ENDBRANCH   1   3
BRANCH   1  11
ATOM     11  C   UNL     1      -3.437  21.548 -46.100  1.00  0.00     0.006 C 
ATOM     12  C   UNL     1      -3.858  20.144 -45.666  1.00  0.00     0.004 C 
ENDBRANCH   1  11
TORSDOF 4
ENDMDL
MODEL 5
REMARK VINA RESULT:     0.000      6.072      6.943
REMARK INTER + INTRA:          -0.151
REMARK INTER:                   0.000
REMARK INTRA:                  -0.151
REMARK UNBOUND:                -0.151
REMARK SMILES CC[C@@H](C)[C@H]([NH3+])C(=O)[O-]
REMARK SMILES IDX 3 1 4 2 5 3 6 4 7 8 8 9 9 10 2 11 1 12
REMARK H PARENT 6 5 6 6 6 7
REMARK Flexibility Score: inf
ROOT
ATOM      1  C   UNL     1       6.816   9.799 -44.823  1.00  0.00     0.050 C 
ATOM      2  C   UNL     1       8.298   9.928 -44.421  1.00  0.00     0.014 C 
ENDROOT
BRANCH   1   3
ATOM      3  C   UNL     1       6.503  10.455 -46.208  1.00  0.00     0.230 C 
BRANCH   3   4
ATOM      4  N   UNL     1       7.005  11.833 -46.318  1.00  0.00    -0.350 N 
ATOM      5  H   UNL     1       6.404  12.501 -45.786  1.00  0.00     0.345 HD
ATOM      6  H   UNL     1       7.013  12.122 -47.324  1.00  0.00     0.345 HD
ATOM      7  H   UNL     1       7.988  11.893 -45.971  1.00  0.00     0.345 HD
ENDBRANCH   3   4
BRANCH   3   8
ATOM      8  C   UNL     1       5.026  10.395 -46.514  1.00  0.00     0.099 C 
ATOM      9  O   UNL     1       4.624   9.825 -47.562  1.00  0.00    -0.544 OA
ATOM     10  O   UNL     1       4.095  10.926 -45.627  1.00  0.00    -0.544 OA
ENDBRANCH   3   8
ENDBRANCH   1   3
BRANCH   1  11
ATOM     11  C   UNL     1       6.384   8.315 -44.722  1.00  0.00     0.006 C 
ATOM     12  C   UNL     1       5.394   8.043 -43.590  1.00  0.00     0.004 C 
ENDBRANCH   1  11
TORSDOF 4
ENDMDL
MODEL 6
REMARK VINA RESULT:     0.000      3.856      4.646
REMARK INTER + INTRA:          -0.151
REMARK INTER:                   0.000
REMARK INTRA:                  -0.151
REMARK UNBOUND:                -0.151
REMARK SMILES CC[C@@H](C)[C@H]([NH3+])C(=O)[O-]
REMARK SMILES IDX 3 1 4 2 5 3 6 4 7 8 8 9 9 10 2 11 1 12
REMARK H PARENT 6 5 6 6 6 7
REMARK Flexibility Score: inf
ROOT
ATOM      1  C   UNL     1       7.551  16.262 -48.029  1.00  0.00     0.050 C 
ATOM      2  C   UNL     1       6.429  15.375 -48.602  1.00  0.00     0.014 C 
ENDROOT
BRANCH   1   3
ATOM      3  C   UNL     1       8.956  15.924 -48.626  1.00  0.00     0.230 C 
BRANCH   3   4
ATOM      4  N   UNL     1       9.278  14.490 -48.563  1.00  0.00    -0.350 N 
ATOM      5  H   UNL     1       9.406  14.171 -47.576  1.00  0.00     0.345 HD
ATOM      6  H   UNL     1      10.164  14.308 -49.088  1.00  0.00     0.345 HD
ATOM      7  H   UNL     1       8.526  13.927 -49.018  1.00  0.00     0.345 HD
ENDBRANCH   3   4
BRANCH   3   8
ATOM      8  C   UNL     1      10.037  16.746 -47.965  1.00  0.00     0.099 C 
ATOM      9  O   UNL     1      10.776  17.489 -48.663  1.00  0.00    -0.544 OA
ATOM     10  O   UNL     1      10.199  16.726 -46.584  1.00  0.00    -0.544 OA
ENDBRANCH   3   8
ENDBRANCH   1   3
BRANCH   1  11
ATOM     11  C   UNL     1       7.152  17.752 -48.177  1.00  0.00     0.006 C 
ATOM     12  C   UNL     1       6.860  18.439 -46.843  1.00  0.00     0.004 C 
ENDBRANCH   1  11
TORSDOF 4
ENDMDL
MODEL 7
REMARK VINA RESULT:     0.000     13.012     14.016
REMARK INTER + INTRA:          -0.151
REMARK INTER:                   0.000
REMARK INTRA:                  -0.151
REMARK UNBOUND:                -0.151
REMARK SMILES CC[C@@H](C)[C@H]([NH3+])C(=O)[O-]
REMARK SMILES IDX 3 1 4 2 5 3 6 4 7 8 8 9 9 10 2 11 1 12
REMARK H PARENT 6 5 6 6 6 7
REMARK Flexibility Score: inf
ROOT
ATOM      1  C   UNL     1      -0.107  19.653 -52.345  1.00  0.00     0.050 C 
ATOM      2  C   UNL     1       0.812  19.789 -51.116  1.00  0.00     0.014 C 
ENDROOT
BRANCH   1   3
ATOM      3  C   UNL     1      -1.439  18.899 -52.026  1.00  0.00     0.230 C 
BRANCH   3   4
ATOM      4  N   UNL     1      -1.225  17.620 -51.333  1.00  0.00    -0.350 N 
ATOM      5  H   UNL     1      -0.473  17.058 -51.792  1.00  0.00     0.345 HD
ATOM      6  H   UNL     1      -2.111  17.063 -51.344  1.00  0.00     0.345 HD
ATOM      7  H   UNL     1      -0.976  17.784 -50.332  1.00  0.00     0.345 HD
ENDBRANCH   3   4
BRANCH   3   8
ATOM      8  C   UNL     1      -2.262  18.700 -53.276  1.00  0.00     0.099 C 
ATOM      9  O   UNL     1      -3.436  19.152 -53.335  1.00  0.00    -0.544 OA
ATOM     10  O   UNL     1      -1.722  18.058 -54.386  1.00  0.00    -0.544 OA
ENDBRANCH   3   8
ENDBRANCH   1   3
BRANCH   1  11
ATOM     11  C   UNL     1      -0.317  21.048 -52.986  1.00  0.00     0.006 C 
ATOM     12  C   UNL     1       0.350  21.197 -54.353  1.00  0.00     0.004 C 
ENDBRANCH   1  11
TORSDOF 4
ENDMDL
MODEL 8
REMARK VINA RESULT:     0.000      7.533      8.757
REMARK INTER + INTRA:          -0.151
REMARK INTER:                   0.000
REMARK INTRA:                  -0.151
REMARK UNBOUND:                -0.151
REMARK SMILES CC[C@@H](C)[C@H]([NH3+])C(=O)[O-]
REMARK SMILES IDX 3 1 4 2 5 3 6 4 7 8 8 9 9 10 2 11 1 12
REMARK H PARENT 6 5 6 6 6 7
REMARK Flexibility Score: inf
ROOT
ATOM      1  C   UNL     1       7.299  21.477 -48.362  1.00  0.00     0.050 C 
ATOM      2  C   UNL     1       7.961  20.207 -47.792  1.00  0.00     0.014 C 
ENDROOT
BRANCH   1   3
ATOM      3  C   UNL     1       6.249  21.166 -49.478  1.00  0.00     0.230 C 
BRANCH   3   4
ATOM      4  N   UNL     1       6.770  20.278 -50.527  1.00  0.00    -0.350 N 
ATOM      5  H   UNL     1       6.923  20.794 -51.423  1.00  0.00     0.345 HD
ATOM      6  H   UNL     1       6.087  19.505 -50.701  1.00  0.00     0.345 HD
ATOM      7  H   UNL     1       7.666  19.837 -50.221  1.00  0.00     0.345 HD
ENDBRANCH   3   4
BRANCH   3   8
ATOM      8  C   UNL     1       5.702  22.440 -50.076  1.00  0.00     0.099 C 
ATOM      9  O   UNL     1       4.463  22.664 -50.051  1.00  0.00    -0.544 OA
ATOM     10  O   UNL     1       6.557  23.394 -50.618  1.00  0.00    -0.544 OA
ENDBRANCH   3   8
ENDBRANCH   1   3
BRANCH   1  11
ATOM     11  C   UNL     1       6.739  22.330 -47.196  1.00  0.00     0.006 C 
ATOM     12  C   UNL     1       7.493  23.643 -46.984  1.00  0.00     0.004 C 
ENDBRANCH   1  11
TORSDOF 4
ENDMDL
MODEL 9
REMARK VINA RESULT:     0.000      7.241      8.512
REMARK INTER + INTRA:          -0.151
REMARK INTER:                   0.000
REMARK INTRA:                  -0.151
REMARK UNBOUND:                -0.151
REMARK SMILES CC[C@@H](C)[C@H]([NH3+])C(=O)[O-]
REMARK SMILES IDX 3 1 4 2 5 3 6 4 7 8 8 9 9 10 2 11 1 12
REMARK H PARENT 6 5 6 6 6 7
REMARK Flexibility Score: inf
ROOT
ATOM      1  C   UNL     1       4.457  18.834 -38.715  1.00  0.00     0.050 C 
ATOM      2  C   UNL     1       2.997  18.383 -38.912  1.00  0.00     0.014 C 
ENDROOT
BRANCH   1   3
ATOM      3  C   UNL     1       5.130  19.307 -40.045  1.00  0.00     0.230 C 
BRANCH   3   4
ATOM      4  N   UNL     1       4.978  18.340 -41.143  1.00  0.00    -0.350 N 
ATOM      5  H   UNL     1       4.848  18.822 -42.061  1.00  0.00     0.345 HD
ATOM      6  H   UNL     1       4.143  17.736 -40.963  1.00  0.00     0.345 HD
ATOM      7  H   UNL     1       5.810  17.711 -41.193  1.00  0.00     0.345 HD
ENDBRANCH   3   4
BRANCH   3   8
ATOM      8  C   UNL     1       6.585  19.644 -39.825  1.00  0.00     0.099 C 
ATOM      9  O   UNL     1       7.013  20.795 -40.104  1.00  0.00    -0.544 OA
ATOM     10  O   UNL     1       7.455  18.709 -39.275  1.00  0.00    -0.544 OA
ENDBRANCH   3   8
ENDBRANCH   1   3
BRANCH   1  11
ATOM     11  C   UNL     1       4.521  19.882 -37.576  1.00  0.00     0.006 C 
ATOM     12  C   UNL     1       5.226  19.373 -36.319  1.00  0.00     0.004 C 
ENDBRANCH   1  11
TORSDOF 4
ENDMDL
