MODEL 1
REMARK VINA RESULT:    -3.764      0.000      0.000
REMARK INTER + INTRA:          -4.489
REMARK INTER:                  -4.424
REMARK INTRA:                  -0.065
REMARK UNBOUND:                -0.065
REMARK SMILES CCCCC(=O)[O-]
REMARK SMILES IDX 4 1 5 2 6 3 7 4 3 5 2 6 1 7
REMARK H PARENT
REMARK Flexibility Score: inf
ROOT
ATOM      1  C   UNL     1      14.871  34.597  13.476  1.00  0.00     0.053 C 
ENDROOT
BRANCH   1   2
ATOM      2  C   UNL     1      13.777  35.543  13.086  1.00  0.00     0.041 C 
ATOM      3  O   UNL     1      12.798  35.733  13.856  1.00  0.00    -0.550 OA
ATOM      4  O   UNL     1      13.818  36.192  11.858  1.00  0.00    -0.550 OA
ENDBRANCH   1   2
BRANCH   1   5
ATOM      5  C   UNL     1      14.337  33.326  14.157  1.00  0.00     0.006 C 
BRANCH   5   6
ATOM      6  C   UNL     1      13.528  32.410  13.220  1.00  0.00    -0.003 C 
ATOM      7  C   UNL     1      12.485  31.569  13.953  1.00  0.00     0.004 C 
ENDBRANCH   5   6
ENDBRANCH   1   5
TORSDOF 3
ENDMDL
MODEL 2
REMARK VINA RESULT:    -3.759      2.375      3.845
REMARK INTER + INTRA:          -4.484
REMARK INTER:                  -4.434
REMARK INTRA:                  -0.049
REMARK UNBOUND:                -0.065
REMARK SMILES CCCCC(=O)[O-]
REMARK SMILES IDX 4 1 5 2 6 3 7 4 3 5 2 6 1 7
REMARK H PARENT
REMARK Flexibility Score: inf
ROOT
ATOM      1  C   UNL     1      13.952  33.471  14.188  1.00  0.00     0.053 C 
ENDROOT
BRANCH   1   2
ATOM      2  C   UNL     1      13.398  32.314  13.413  1.00  0.00     0.041 C 
ATOM      3  O   UNL     1      13.874  32.020  12.285  1.00  0.00    -0.550 OA
ATOM      4  O   UNL     1      12.332  31.580  13.919  1.00  0.00    -0.550 OA
ENDBRANCH   1   2
BRANCH   1   5
ATOM      5  C   UNL     1      13.256  34.798  13.845  1.00  0.00     0.006 C 
BRANCH   5   6
ATOM      6  C   UNL     1      13.952  35.597  12.729  1.00  0.00    -0.003 C 
ATOM      7  C   UNL     1      13.179  36.846  12.310  1.00  0.00     0.004 C 
ENDBRANCH   5   6
ENDBRANCH   1   5
TORSDOF 3
ENDMDL
MODEL 3
REMARK VINA RESULT:    -3.607      1.435      2.171
REMARK INTER + INTRA:          -4.305
REMARK INTER:                  -4.220
REMARK INTRA:                  -0.085
REMARK UNBOUND:                -0.065
REMARK SMILES CCCCC(=O)[O-]
REMARK SMILES IDX 4 1 5 2 6 3 7 4 3 5 2 6 1 7
REMARK H PARENT
REMARK Flexibility Score: inf
ROOT
ATOM      1  C   UNL     1      13.462  33.227  13.870  1.00  0.00     0.053 C 
ENDROOT
BRANCH   1   2
ATOM      2  C   UNL     1      13.757  34.671  13.597  1.00  0.00     0.041 C 
ATOM      3  O   UNL     1      14.874  35.012  13.126  1.00  0.00    -0.550 OA
ATOM      4  O   UNL     1      12.812  35.646  13.894  1.00  0.00    -0.550 OA
ENDBRANCH   1   2
BRANCH   1   5
ATOM      5  C   UNL     1      13.396  32.386  12.585  1.00  0.00     0.006 C 
BRANCH   5   6
ATOM      6  C   UNL     1      14.591  31.432  12.403  1.00  0.00    -0.003 C 
ATOM      7  C   UNL     1      15.638  31.560  13.508  1.00  0.00     0.004 C 
ENDBRANCH   5   6
ENDBRANCH   1   5
TORSDOF 3
ENDMDL
MODEL 4
REMARK VINA RESULT:    -3.589      2.748      3.876
REMARK INTER + INTRA:          -4.284
REMARK INTER:                  -4.225
REMARK INTRA:                  -0.059
REMARK UNBOUND:                -0.065
REMARK SMILES CCCCC(=O)[O-]
REMARK SMILES IDX 4 1 5 2 6 3 7 4 3 5 2 6 1 7
REMARK H PARENT
REMARK Flexibility Score: inf
ROOT
ATOM      1  C   UNL     1      13.366  32.439  13.636  1.00  0.00     0.053 C 
ENDROOT
BRANCH   1   2
ATOM      2  C   UNL     1      14.604  31.794  13.089  1.00  0.00     0.041 C 
ATOM      3  O   UNL     1      14.595  31.278  11.941  1.00  0.00    -0.550 OA
ATOM      4  O   UNL     1      15.758  31.733  13.861  1.00  0.00    -0.550 OA
ENDBRANCH   1   2
BRANCH   1   5
ATOM      5  C   UNL     1      13.635  33.842  14.205  1.00  0.00     0.006 C 
BRANCH   5   6
ATOM      6  C   UNL     1      14.336  34.791  13.216  1.00  0.00    -0.003 C 
ATOM      7  C   UNL     1      13.496  36.015  12.856  1.00  0.00     0.004 C 
ENDBRANCH   5   6
ENDBRANCH   1   5
TORSDOF 3
ENDMDL
MODEL 5
REMARK VINA RESULT:    -3.464     14.287     15.283
REMARK INTER + INTRA:          -4.137
REMARK INTER:                  -4.117
REMARK INTRA:                  -0.020
REMARK UNBOUND:                -0.065
REMARK SMILES CCCCC(=O)[O-]
REMARK SMILES IDX 4 1 5 2 6 3 7 4 3 5 2 6 1 7
REMARK H PARENT
REMARK Flexibility Score: inf
ROOT
ATOM      1  C   UNL     1       4.214  46.106  10.720  1.00  0.00     0.053 C 
ENDROOT
BRANCH   1   2
ATOM      2  C   UNL     1       4.198  44.676  11.170  1.00  0.00     0.041 C 
ATOM      3  O   UNL     1       4.169  44.398  12.398  1.00  0.00    -0.550 OA
ATOM      4  O   UNL     1       4.249  43.649  10.235  1.00  0.00    -0.550 OA
ENDBRANCH   1   2
BRANCH   1   5
ATOM      5  C   UNL     1       4.875  46.283   9.344  1.00  0.00     0.006 C 
BRANCH   5   6
ATOM      6  C   UNL     1       5.551  47.653   9.149  1.00  0.00    -0.003 C 
ATOM      7  C   UNL     1       7.064  47.614   9.358  1.00  0.00     0.004 C 
ENDBRANCH   5   6
ENDBRANCH   1   5
TORSDOF 3
ENDMDL
MODEL 6
REMARK VINA RESULT:    -3.454     14.250     15.333
REMARK INTER + INTRA:          -4.125
REMARK INTER:                  -4.103
REMARK INTRA:                  -0.023
REMARK UNBOUND:                -0.065
REMARK SMILES CCCCC(=O)[O-]
REMARK SMILES IDX 4 1 5 2 6 3 7 4 3 5 2 6 1 7
REMARK H PARENT
REMARK Flexibility Score: inf
ROOT
ATOM      1  C   UNL     1       4.172  46.063  10.704  1.00  0.00     0.053 C 
ENDROOT
BRANCH   1   2
ATOM      2  C   UNL     1       4.227  44.633  11.148  1.00  0.00     0.041 C 
ATOM      3  O   UNL     1       4.286  43.707  10.297  1.00  0.00    -0.550 OA
ATOM      4  O   UNL     1       4.180  44.319  12.501  1.00  0.00    -0.550 OA
ENDBRANCH   1   2
BRANCH   1   5
ATOM      5  C   UNL     1       4.813  46.277   9.323  1.00  0.00     0.006 C 
BRANCH   5   6
ATOM      6  C   UNL     1       5.461  47.663   9.145  1.00  0.00    -0.003 C 
ATOM      7  C   UNL     1       6.979  47.644   9.309  1.00  0.00     0.004 C 
ENDBRANCH   5   6
ENDBRANCH   1   5
TORSDOF 3
ENDMDL
MODEL 7
REMARK VINA RESULT:    -3.433     11.805     12.941
REMARK INTER + INTRA:          -4.101
REMARK INTER:                  -4.084
REMARK INTRA:                  -0.016
REMARK UNBOUND:                -0.065
REMARK SMILES CCCCC(=O)[O-]
REMARK SMILES IDX 4 1 5 2 6 3 7 4 3 5 2 6 1 7
REMARK H PARENT
REMARK Flexibility Score: inf
ROOT
ATOM      1  C   UNL     1       2.612  40.251  12.605  1.00  0.00     0.053 C 
ENDROOT
BRANCH   1   2
ATOM      2  C   UNL     1       3.481  39.036  12.719  1.00  0.00     0.041 C 
ATOM      3  O   UNL     1       3.055  37.914  12.336  1.00  0.00    -0.550 OA
ATOM      4  O   UNL     1       4.749  39.133  13.278  1.00  0.00    -0.550 OA
ENDBRANCH   1   2
BRANCH   1   5
ATOM      5  C   UNL     1       3.361  41.459  12.019  1.00  0.00     0.006 C 
BRANCH   5   6
ATOM      6  C   UNL     1       2.517  42.303  11.046  1.00  0.00    -0.003 C 
ATOM      7  C   UNL     1       1.610  43.309  11.752  1.00  0.00     0.004 C 
ENDBRANCH   5   6
ENDBRANCH   1   5
TORSDOF 3
ENDMDL
MODEL 8
REMARK VINA RESULT:    -3.373     11.794     13.077
REMARK INTER + INTRA:          -4.029
REMARK INTER:                  -3.985
REMARK INTRA:                  -0.044
REMARK UNBOUND:                -0.065
REMARK SMILES CCCCC(=O)[O-]
REMARK SMILES IDX 4 1 5 2 6 3 7 4 3 5 2 6 1 7
REMARK H PARENT
REMARK Flexibility Score: inf
ROOT
ATOM      1  C   UNL     1       2.592  40.846  12.375  1.00  0.00     0.053 C 
ENDROOT
BRANCH   1   2
ATOM      2  C   UNL     1       3.650  39.830  12.685  1.00  0.00     0.041 C 
ATOM      3  O   UNL     1       4.833  40.197  12.912  1.00  0.00    -0.550 OA
ATOM      4  O   UNL     1       3.339  38.476  12.689  1.00  0.00    -0.550 OA
ENDBRANCH   1   2
BRANCH   1   5
ATOM      5  C   UNL     1       3.121  42.005  11.514  1.00  0.00     0.006 C 
BRANCH   5   6
ATOM      6  C   UNL     1       2.759  43.400  12.056  1.00  0.00    -0.003 C 
ATOM      7  C   UNL     1       3.963  44.333  12.170  1.00  0.00     0.004 C 
ENDBRANCH   5   6
ENDBRANCH   1   5
TORSDOF 3
ENDMDL
MODEL 9
REMARK VINA RESULT:    -3.352     12.133     12.968
REMARK INTER + INTRA:          -4.005
REMARK INTER:                  -3.983
REMARK INTRA:                  -0.022
REMARK UNBOUND:                -0.065
REMARK SMILES CCCCC(=O)[O-]
REMARK SMILES IDX 4 1 5 2 6 3 7 4 3 5 2 6 1 7
REMARK H PARENT
REMARK Flexibility Score: inf
ROOT
ATOM      1  C   UNL     1       3.333  41.439  12.007  1.00  0.00     0.053 C 
ENDROOT
BRANCH   1   2
ATOM      2  C   UNL     1       2.333  42.333  11.339  1.00  0.00     0.041 C 
ATOM      3  O   UNL     1       2.353  42.483  10.089  1.00  0.00    -0.550 OA
ATOM      4  O   UNL     1       1.398  43.027  12.098  1.00  0.00    -0.550 OA
ENDBRANCH   1   2
BRANCH   1   5
ATOM      5  C   UNL     1       2.708  40.129  12.513  1.00  0.00     0.006 C 
BRANCH   5   6
ATOM      6  C   UNL     1       3.740  39.052  12.894  1.00  0.00    -0.003 C 
ATOM      7  C   UNL     1       5.036  39.632  13.459  1.00  0.00     0.004 C 
ENDBRANCH   5   6
ENDBRANCH   1   5
TORSDOF 3
ENDMDL
