MODEL 1
REMARK VINA RESULT:    -6.034      0.000      0.000
REMARK INTER + INTRA:          -9.293
REMARK INTER:                  -8.503
REMARK INTRA:                  -0.790
REMARK UNBOUND:                -0.790
REMARK SMILES OCC1=C[C@@H](O)[C@@H]2C=CO[C@@H](O[C@H]3O[C@@H](CO)[C@H](O)[C@@H](O)[C@@H]3O)[C@H]12
REMARK SMILES IDX 12 1 11 2 8 3 9 4 7 5 10 6 24 7 5 8 3 9 4 10 6 11 2 13 1 14
REMARK SMILES IDX 13 16 22 17 14 18 20 19 15 20 18 21 23 22 21 24 16 26 17 27
REMARK SMILES IDX 19 29
REMARK H PARENT 6 12 1 15 23 23 21 25 17 28 19 30
REMARK Flexibility Score: inf
ROOT
ATOM      1  O   UNL     1     -21.104  -5.314  -7.667  1.00  0.00    -0.310 OA
ENDROOT
BRANCH   1   2
ATOM      2  C   UNL     1     -21.019  -5.329  -6.254  1.00  0.00     0.316 C 
ATOM      3  C   UNL     1     -22.044  -7.973  -6.002  1.00  0.00     0.018 C 
ATOM      4  C   UNL     1     -20.732  -7.748  -5.915  1.00  0.00     0.186 C 
ATOM      5  C   UNL     1     -23.067  -6.858  -5.890  1.00  0.00     0.061 C 
ATOM      6  O   UNL     1     -20.235  -6.445  -5.838  1.00  0.00    -0.472 OA
ATOM      7  C   UNL     1     -22.445  -5.450  -5.689  1.00  0.00     0.096 C 
ATOM      8  C   UNL     1     -23.926  -7.073  -4.623  1.00  0.00     0.145 C 
ATOM      9  C   UNL     1     -22.540  -5.231  -4.206  1.00  0.00    -0.036 C 
ATOM     10  C   UNL     1     -23.373  -6.095  -3.640  1.00  0.00     0.007 C 
BRANCH   8  11
ATOM     11  O   UNL     1     -25.287  -6.811  -4.868  1.00  0.00    -0.388 OA
ATOM     12  H   UNL     1     -25.755  -6.776  -3.991  1.00  0.00     0.211 HD
ENDBRANCH   8  11
BRANCH   9  13
ATOM     13  C   UNL     1     -21.978  -4.036  -3.479  1.00  0.00     0.187 C 
BRANCH  13  14
ATOM     14  O   UNL     1     -20.760  -4.369  -2.871  1.00  0.00    -0.392 OA
ATOM     15  H   UNL     1     -20.714  -3.844  -2.029  1.00  0.00     0.211 HD
ENDBRANCH  13  14
ENDBRANCH   9  13
ENDBRANCH   1   2
BRANCH   1  16
ATOM     16  C   UNL     1     -20.154  -4.438  -8.250  1.00  0.00     0.286 C 
ATOM     17  C   UNL     1     -20.609  -2.965  -8.120  1.00  0.00     0.202 C 
ATOM     18  O   UNL     1     -19.912  -4.802  -9.602  1.00  0.00    -0.341 OA
ATOM     19  C   UNL     1     -21.826  -2.667  -9.007  1.00  0.00     0.179 C 
ATOM     20  C   UNL     1     -21.029  -4.629 -10.468  1.00  0.00     0.178 C 
ATOM     21  C   UNL     1     -21.619  -3.195 -10.443  1.00  0.00     0.177 C 
BRANCH  17  22
ATOM     22  O   UNL     1     -19.554  -2.075  -8.396  1.00  0.00    -0.385 OA
ATOM     23  H   UNL     1     -19.937  -1.236  -8.758  1.00  0.00     0.211 HD
ENDBRANCH  17  22
BRANCH  19  24
ATOM     24  O   UNL     1     -22.973  -3.247  -8.436  1.00  0.00    -0.387 OA
ATOM     25  H   UNL     1     -22.943  -4.216  -8.647  1.00  0.00     0.211 HD
ENDBRANCH  19  24
BRANCH  20  26
ATOM     26  C   UNL     1     -22.088  -5.740 -10.308  1.00  0.00     0.191 C 
BRANCH  26  27
ATOM     27  O   UNL     1     -22.549  -6.146 -11.571  1.00  0.00    -0.394 OA
ATOM     28  H   UNL     1     -22.468  -7.135 -11.616  1.00  0.00     0.210 HD
ENDBRANCH  26  27
ENDBRANCH  20  26
BRANCH  21  29
ATOM     29  O   UNL     1     -20.759  -2.335 -11.148  1.00  0.00    -0.387 OA
ATOM     30  H   UNL     1     -21.331  -1.756 -11.718  1.00  0.00     0.211 HD
ENDBRANCH  21  29
ENDBRANCH   1  16
TORSDOF 10
ENDMDL
MODEL 2
REMARK VINA RESULT:    -5.863      1.223      1.742
REMARK INTER + INTRA:          -9.052
REMARK INTER:                  -7.945
REMARK INTRA:                  -1.108
REMARK UNBOUND:                -0.790
REMARK SMILES OCC1=C[C@@H](O)[C@@H]2C=CO[C@@H](O[C@H]3O[C@@H](CO)[C@H](O)[C@@H](O)[C@@H]3O)[C@H]12
REMARK SMILES IDX 12 1 11 2 8 3 9 4 7 5 10 6 24 7 5 8 3 9 4 10 6 11 2 13 1 14
REMARK SMILES IDX 13 16 22 17 14 18 20 19 15 20 18 21 23 22 21 24 16 26 17 27
REMARK SMILES IDX 19 29
REMARK H PARENT 6 12 1 15 23 23 21 25 17 28 19 30
REMARK Flexibility Score: inf
ROOT
ATOM      1  O   UNL     1     -21.794  -5.244  -7.163  1.00  0.00    -0.310 OA
ENDROOT
BRANCH   1   2
ATOM      2  C   UNL     1     -21.486  -5.462  -5.799  1.00  0.00     0.316 C 
ATOM      3  C   UNL     1     -22.756  -8.006  -5.691  1.00  0.00     0.018 C 
ATOM      4  C   UNL     1     -21.430  -7.920  -5.807  1.00  0.00     0.186 C 
ATOM      5  C   UNL     1     -23.613  -6.827  -5.270  1.00  0.00     0.061 C 
ATOM      6  O   UNL     1     -20.780  -6.693  -5.662  1.00  0.00    -0.472 OA
ATOM      7  C   UNL     1     -22.808  -5.525  -5.012  1.00  0.00     0.096 C 
ATOM      8  C   UNL     1     -24.277  -7.132  -3.908  1.00  0.00     0.145 C 
ATOM      9  C   UNL     1     -22.638  -5.504  -3.521  1.00  0.00    -0.036 C 
ATOM     10  C   UNL     1     -23.464  -6.355  -2.926  1.00  0.00     0.007 C 
BRANCH   8  11
ATOM     11  O   UNL     1     -25.619  -6.712  -3.880  1.00  0.00    -0.388 OA
ATOM     12  H   UNL     1     -25.894  -6.627  -2.928  1.00  0.00     0.211 HD
ENDBRANCH   8  11
BRANCH   9  13
ATOM     13  C   UNL     1     -21.833  -4.478  -2.764  1.00  0.00     0.187 C 
BRANCH  13  14
ATOM     14  O   UNL     1     -21.865  -3.248  -3.434  1.00  0.00    -0.392 OA
ATOM     15  H   UNL     1     -21.352  -2.608  -2.873  1.00  0.00     0.211 HD
ENDBRANCH  13  14
ENDBRANCH   9  13
ENDBRANCH   1   2
BRANCH   1  16
ATOM     16  C   UNL     1     -21.410  -3.950  -7.598  1.00  0.00     0.286 C 
ATOM     17  C   UNL     1     -22.427  -3.386  -8.617  1.00  0.00     0.202 C 
ATOM     18  O   UNL     1     -20.090  -3.979  -8.125  1.00  0.00    -0.341 OA
ATOM     19  C   UNL     1     -22.373  -4.142  -9.951  1.00  0.00     0.179 C 
ATOM     20  C   UNL     1     -19.951  -4.736  -9.323  1.00  0.00     0.178 C 
ATOM     21  C   UNL     1     -20.921  -4.300 -10.450  1.00  0.00     0.177 C 
BRANCH  17  22
ATOM     22  O   UNL     1     -22.245  -2.003  -8.813  1.00  0.00    -0.385 OA
ATOM     23  H   UNL     1     -21.950  -1.600  -7.957  1.00  0.00     0.211 HD
ENDBRANCH  17  22
BRANCH  19  24
ATOM     24  O   UNL     1     -22.975  -5.404  -9.796  1.00  0.00    -0.387 OA
ATOM     25  H   UNL     1     -23.868  -5.353 -10.226  1.00  0.00     0.211 HD
ENDBRANCH  19  24
BRANCH  20  26
ATOM     26  C   UNL     1     -19.935  -6.259  -9.070  1.00  0.00     0.191 C 
BRANCH  26  27
ATOM     27  O   UNL     1     -19.028  -6.562  -8.040  1.00  0.00    -0.394 OA
ATOM     28  H   UNL     1     -18.482  -5.750  -7.874  1.00  0.00     0.210 HD
ENDBRANCH  26  27
ENDBRANCH  20  26
BRANCH  21  29
ATOM     29  O   UNL     1     -20.469  -3.086 -10.997  1.00  0.00    -0.387 OA
ATOM     30  H   UNL     1     -21.158  -2.787 -11.648  1.00  0.00     0.211 HD
ENDBRANCH  21  29
ENDBRANCH   1  16
TORSDOF 10
ENDMDL
MODEL 3
REMARK VINA RESULT:    -5.783      1.583      6.339
REMARK INTER + INTRA:          -8.939
REMARK INTER:                  -7.768
REMARK INTRA:                  -1.171
REMARK UNBOUND:                -0.790
REMARK SMILES OCC1=C[C@@H](O)[C@@H]2C=CO[C@@H](O[C@H]3O[C@@H](CO)[C@H](O)[C@@H](O)[C@@H]3O)[C@H]12
REMARK SMILES IDX 12 1 11 2 8 3 9 4 7 5 10 6 24 7 5 8 3 9 4 10 6 11 2 13 1 14
REMARK SMILES IDX 13 16 22 17 14 18 20 19 15 20 18 21 23 22 21 24 16 26 17 27
REMARK SMILES IDX 19 29
REMARK H PARENT 6 12 1 15 23 23 21 25 17 28 19 30
REMARK Flexibility Score: inf
ROOT
ATOM      1  O   UNL     1     -21.951  -6.112  -6.419  1.00  0.00    -0.310 OA
ENDROOT
BRANCH   1   2
ATOM      2  C   UNL     1     -21.388  -6.238  -7.712  1.00  0.00     0.316 C 
ATOM      3  C   UNL     1     -19.647  -4.007  -7.411  1.00  0.00     0.018 C 
ATOM      4  C   UNL     1     -19.182  -5.249  -7.266  1.00  0.00     0.186 C 
ATOM      5  C   UNL     1     -20.985  -3.713  -8.065  1.00  0.00     0.061 C 
ATOM      6  O   UNL     1     -19.971  -6.350  -7.604  1.00  0.00    -0.472 OA
ATOM      7  C   UNL     1     -21.755  -4.981  -8.520  1.00  0.00     0.096 C 
ATOM      8  C   UNL     1     -20.756  -2.922  -9.373  1.00  0.00     0.145 C 
ATOM      9  C   UNL     1     -21.440  -5.077  -9.985  1.00  0.00    -0.036 C 
ATOM     10  C   UNL     1     -20.929  -3.943 -10.448  1.00  0.00     0.007 C 
BRANCH   8  11
ATOM     11  O   UNL     1     -21.693  -1.884  -9.522  1.00  0.00    -0.388 OA
ATOM     12  H   UNL     1     -21.980  -1.597  -8.614  1.00  0.00     0.211 HD
ENDBRANCH   8  11
BRANCH   9  13
ATOM     13  C   UNL     1     -21.877  -6.207 -10.883  1.00  0.00     0.187 C 
BRANCH  13  14
ATOM     14  O   UNL     1     -22.239  -5.711 -12.143  1.00  0.00    -0.392 OA
ATOM     15  H   UNL     1     -22.752  -6.432 -12.593  1.00  0.00     0.211 HD
ENDBRANCH  13  14
ENDBRANCH   9  13
ENDBRANCH   1   2
BRANCH   1  16
ATOM     16  C   UNL     1     -23.058  -6.977  -6.232  1.00  0.00     0.286 C 
ATOM     17  C   UNL     1     -24.152  -6.296  -5.376  1.00  0.00     0.202 C 
ATOM     18  O   UNL     1     -22.631  -8.209  -5.666  1.00  0.00    -0.341 OA
ATOM     19  C   UNL     1     -23.704  -6.118  -3.919  1.00  0.00     0.179 C 
ATOM     20  C   UNL     1     -22.124  -8.103  -4.340  1.00  0.00     0.178 C 
ATOM     21  C   UNL     1     -23.104  -7.422  -3.351  1.00  0.00     0.177 C 
BRANCH  17  22
ATOM     22  O   UNL     1     -25.371  -6.999  -5.447  1.00  0.00    -0.385 OA
ATOM     23  H   UNL     1     -25.179  -7.969  -5.388  1.00  0.00     0.211 HD
ENDBRANCH  17  22
BRANCH  19  24
ATOM     24  O   UNL     1     -22.762  -5.077  -3.846  1.00  0.00    -0.387 OA
ATOM     25  H   UNL     1     -22.979  -4.547  -3.035  1.00  0.00     0.211 HD
ENDBRANCH  19  24
BRANCH  20  26
ATOM     26  C   UNL     1     -20.691  -7.529  -4.292  1.00  0.00     0.191 C 
BRANCH  26  27
ATOM     27  O   UNL     1     -19.889  -8.167  -5.252  1.00  0.00    -0.394 OA
ATOM     28  H   UNL     1     -19.551  -7.469  -5.872  1.00  0.00     0.210 HD
ENDBRANCH  26  27
ENDBRANCH  20  26
BRANCH  21  29
ATOM     29  O   UNL     1     -24.136  -8.325  -3.037  1.00  0.00    -0.387 OA
ATOM     30  H   UNL     1     -24.571  -8.577  -3.893  1.00  0.00     0.211 HD
ENDBRANCH  21  29
ENDBRANCH   1  16
TORSDOF 10
ENDMDL
MODEL 4
REMARK VINA RESULT:    -5.533      1.604      3.346
REMARK INTER + INTRA:          -8.588
REMARK INTER:                  -8.235
REMARK INTRA:                  -0.352
REMARK UNBOUND:                -0.790
REMARK SMILES OCC1=C[C@@H](O)[C@@H]2C=CO[C@@H](O[C@H]3O[C@@H](CO)[C@H](O)[C@@H](O)[C@@H]3O)[C@H]12
REMARK SMILES IDX 12 1 11 2 8 3 9 4 7 5 10 6 24 7 5 8 3 9 4 10 6 11 2 13 1 14
REMARK SMILES IDX 13 16 22 17 14 18 20 19 15 20 18 21 23 22 21 24 16 26 17 27
REMARK SMILES IDX 19 29
REMARK H PARENT 6 12 1 15 23 23 21 25 17 28 19 30
REMARK Flexibility Score: inf
ROOT
ATOM      1  O   UNL     1     -21.072  -5.505  -7.551  1.00  0.00    -0.310 OA
ENDROOT
BRANCH   1   2
ATOM      2  C   UNL     1     -21.581  -5.925  -6.299  1.00  0.00     0.316 C 
ATOM      3  C   UNL     1     -19.757  -8.094  -6.040  1.00  0.00     0.018 C 
ATOM      4  C   UNL     1     -19.542  -6.952  -5.385  1.00  0.00     0.186 C 
ATOM      5  C   UNL     1     -21.101  -8.436  -6.656  1.00  0.00     0.061 C 
ATOM      6  O   UNL     1     -20.522  -5.958  -5.344  1.00  0.00    -0.472 OA
ATOM      7  C   UNL     1     -22.177  -7.333  -6.471  1.00  0.00     0.096 C 
ATOM      8  C   UNL     1     -21.699  -9.668  -5.939  1.00  0.00     0.145 C 
ATOM      9  C   UNL     1     -22.974  -7.812  -5.292  1.00  0.00    -0.036 C 
ATOM     10  C   UNL     1     -22.734  -9.091  -5.031  1.00  0.00     0.007 C 
BRANCH   8  11
ATOM     11  O   UNL     1     -22.285 -10.565  -6.851  1.00  0.00    -0.388 OA
ATOM     12  H   UNL     1     -22.476 -11.413  -6.367  1.00  0.00     0.211 HD
ENDBRANCH   8  11
BRANCH   9  13
ATOM     13  C   UNL     1     -24.093  -7.039  -4.643  1.00  0.00     0.187 C 
BRANCH  13  14
ATOM     14  O   UNL     1     -25.222  -7.031  -5.474  1.00  0.00    -0.392 OA
ATOM     15  H   UNL     1     -24.933  -7.410  -6.345  1.00  0.00     0.211 HD
ENDBRANCH  13  14
ENDBRANCH   9  13
ENDBRANCH   1   2
BRANCH   1  16
ATOM     16  C   UNL     1     -21.880  -5.944  -8.631  1.00  0.00     0.286 C 
ATOM     17  C   UNL     1     -21.098  -5.887  -9.964  1.00  0.00     0.202 C 
ATOM     18  O   UNL     1     -23.082  -5.187  -8.687  1.00  0.00    -0.341 OA
ATOM     19  C   UNL     1     -20.830  -4.441 -10.403  1.00  0.00     0.179 C 
ATOM     20  C   UNL     1     -22.898  -3.813  -9.009  1.00  0.00     0.178 C 
ATOM     21  C   UNL     1     -22.109  -3.582 -10.324  1.00  0.00     0.177 C 
BRANCH  17  22
ATOM     22  O   UNL     1     -21.758  -6.609 -10.978  1.00  0.00    -0.385 OA
ATOM     23  H   UNL     1     -21.500  -6.226 -11.855  1.00  0.00     0.211 HD
ENDBRANCH  17  22
BRANCH  19  24
ATOM     24  O   UNL     1     -19.821  -3.888  -9.595  1.00  0.00    -0.387 OA
ATOM     25  H   UNL     1     -19.660  -2.966  -9.923  1.00  0.00     0.211 HD
ENDBRANCH  19  24
BRANCH  20  26
ATOM     26  C   UNL     1     -22.374  -2.984  -7.817  1.00  0.00     0.191 C 
BRANCH  26  27
ATOM     27  O   UNL     1     -23.405  -2.790  -6.882  1.00  0.00    -0.394 OA
ATOM     28  H   UNL     1     -23.541  -1.812  -6.784  1.00  0.00     0.210 HD
ENDBRANCH  26  27
ENDBRANCH  20  26
BRANCH  21  29
ATOM     29  O   UNL     1     -22.948  -3.872 -11.416  1.00  0.00    -0.387 OA
ATOM     30  H   UNL     1     -22.620  -4.721 -11.815  1.00  0.00     0.211 HD
ENDBRANCH  21  29
ENDBRANCH   1  16
TORSDOF 10
ENDMDL
MODEL 5
REMARK VINA RESULT:    -5.356      1.992      3.668
REMARK INTER + INTRA:          -8.338
REMARK INTER:                  -7.136
REMARK INTRA:                  -1.202
REMARK UNBOUND:                -0.790
REMARK SMILES OCC1=C[C@@H](O)[C@@H]2C=CO[C@@H](O[C@H]3O[C@@H](CO)[C@H](O)[C@@H](O)[C@@H]3O)[C@H]12
REMARK SMILES IDX 12 1 11 2 8 3 9 4 7 5 10 6 24 7 5 8 3 9 4 10 6 11 2 13 1 14
REMARK SMILES IDX 13 16 22 17 14 18 20 19 15 20 18 21 23 22 21 24 16 26 17 27
REMARK SMILES IDX 19 29
REMARK H PARENT 6 12 1 15 23 23 21 25 17 28 19 30
REMARK Flexibility Score: inf
ROOT
ATOM      1  O   UNL     1     -21.605  -5.433  -6.735  1.00  0.00    -0.310 OA
ENDROOT
BRANCH   1   2
ATOM      2  C   UNL     1     -22.334  -5.982  -5.652  1.00  0.00     0.316 C 
ATOM      3  C   UNL     1     -20.751  -4.710  -3.657  1.00  0.00     0.018 C 
ATOM      4  C   UNL     1     -21.942  -4.211  -3.992  1.00  0.00     0.186 C 
ATOM      5  C   UNL     1     -20.327  -6.118  -4.034  1.00  0.00     0.061 C 
ATOM      6  O   UNL     1     -22.810  -4.928  -4.818  1.00  0.00    -0.472 OA
ATOM      7  C   UNL     1     -21.390  -6.898  -4.853  1.00  0.00     0.096 C 
ATOM      8  C   UNL     1     -20.147  -6.963  -2.752  1.00  0.00     0.145 C 
ATOM      9  C   UNL     1     -22.080  -7.743  -3.822  1.00  0.00    -0.036 C 
ATOM     10  C   UNL     1     -21.381  -7.801  -2.695  1.00  0.00     0.007 C 
BRANCH   8  11
ATOM     11  O   UNL     1     -19.001  -7.775  -2.823  1.00  0.00    -0.388 OA
ATOM     12  H   UNL     1     -19.214  -8.556  -3.401  1.00  0.00     0.211 HD
ENDBRANCH   8  11
BRANCH   9  13
ATOM     13  C   UNL     1     -23.271  -8.626  -4.095  1.00  0.00     0.187 C 
BRANCH  13  14
ATOM     14  O   UNL     1     -24.427  -8.064  -3.536  1.00  0.00    -0.392 OA
ATOM     15  H   UNL     1     -24.785  -8.735  -2.897  1.00  0.00     0.211 HD
ENDBRANCH  13  14
ENDBRANCH   9  13
ENDBRANCH   1   2
BRANCH   1  16
ATOM     16  C   UNL     1     -21.865  -6.111  -7.953  1.00  0.00     0.286 C 
ATOM     17  C   UNL     1     -20.567  -6.284  -8.776  1.00  0.00     0.202 C 
ATOM     18  O   UNL     1     -22.874  -5.434  -8.688  1.00  0.00    -0.341 OA
ATOM     19  C   UNL     1     -20.058  -4.943  -9.321  1.00  0.00     0.179 C 
ATOM     20  C   UNL     1     -22.497  -4.143  -9.156  1.00  0.00     0.178 C 
ATOM     21  C   UNL     1     -21.193  -4.142  -9.994  1.00  0.00     0.177 C 
BRANCH  17  22
ATOM     22  O   UNL     1     -20.738  -7.220  -9.815  1.00  0.00    -0.385 OA
ATOM     23  H   UNL     1     -20.883  -6.726 -10.661  1.00  0.00     0.211 HD
ENDBRANCH  17  22
BRANCH  19  24
ATOM     24  O   UNL     1     -19.492  -4.198  -8.272  1.00  0.00    -0.387 OA
ATOM     25  H   UNL     1     -18.890  -3.526  -8.685  1.00  0.00     0.211 HD
ENDBRANCH  19  24
BRANCH  20  26
ATOM     26  C   UNL     1     -22.522  -3.073  -8.043  1.00  0.00     0.191 C 
BRANCH  26  27
ATOM     27  O   UNL     1     -23.687  -3.216  -7.271  1.00  0.00    -0.394 OA
ATOM     28  H   UNL     1     -23.425  -3.626  -6.406  1.00  0.00     0.210 HD
ENDBRANCH  26  27
ENDBRANCH  20  26
BRANCH  21  29
ATOM     29  O   UNL     1     -21.467  -4.678 -11.265  1.00  0.00    -0.387 OA
ATOM     30  H   UNL     1     -20.750  -4.359 -11.875  1.00  0.00     0.211 HD
ENDBRANCH  21  29
ENDBRANCH   1  16
TORSDOF 10
ENDMDL
MODEL 6
REMARK VINA RESULT:    -5.334      1.836      3.379
REMARK INTER + INTRA:          -8.307
REMARK INTER:                  -7.313
REMARK INTRA:                  -0.994
REMARK UNBOUND:                -0.790
REMARK SMILES OCC1=C[C@@H](O)[C@@H]2C=CO[C@@H](O[C@H]3O[C@@H](CO)[C@H](O)[C@@H](O)[C@@H]3O)[C@H]12
REMARK SMILES IDX 12 1 11 2 8 3 9 4 7 5 10 6 24 7 5 8 3 9 4 10 6 11 2 13 1 14
REMARK SMILES IDX 13 16 22 17 14 18 20 19 15 20 18 21 23 22 21 24 16 26 17 27
REMARK SMILES IDX 19 29
REMARK H PARENT 6 12 1 15 23 23 21 25 17 28 19 30
REMARK Flexibility Score: inf
ROOT
ATOM      1  O   UNL     1     -21.649  -5.454  -6.802  1.00  0.00    -0.310 OA
ENDROOT
BRANCH   1   2
ATOM      2  C   UNL     1     -21.255  -6.349  -5.778  1.00  0.00     0.316 C 
ATOM      3  C   UNL     1     -23.445  -5.708  -4.076  1.00  0.00     0.018 C 
ATOM      4  C   UNL     1     -23.468  -6.820  -4.813  1.00  0.00     0.186 C 
ATOM      5  C   UNL     1     -22.169  -4.925  -3.828  1.00  0.00     0.061 C 
ATOM      6  O   UNL     1     -22.327  -7.247  -5.495  1.00  0.00    -0.472 OA
ATOM      7  C   UNL     1     -20.917  -5.524  -4.523  1.00  0.00     0.096 C 
ATOM      8  C   UNL     1     -21.820  -4.972  -2.323  1.00  0.00     0.145 C 
ATOM      9  C   UNL     1     -20.249  -6.310  -3.432  1.00  0.00    -0.036 C 
ATOM     10  C   UNL     1     -20.721  -5.979  -2.237  1.00  0.00     0.007 C 
BRANCH   8  11
ATOM     11  O   UNL     1     -21.381  -3.720  -1.853  1.00  0.00    -0.388 OA
ATOM     12  H   UNL     1     -21.963  -3.021  -2.254  1.00  0.00     0.211 HD
ENDBRANCH   8  11
BRANCH   9  13
ATOM     13  C   UNL     1     -19.026  -7.170  -3.621  1.00  0.00     0.187 C 
BRANCH  13  14
ATOM     14  O   UNL     1     -19.389  -8.524  -3.665  1.00  0.00    -0.392 OA
ATOM     15  H   UNL     1     -18.582  -9.040  -3.404  1.00  0.00     0.211 HD
ENDBRANCH  13  14
ENDBRANCH   9  13
ENDBRANCH   1   2
BRANCH   1  16
ATOM     16  C   UNL     1     -21.914  -6.124  -8.023  1.00  0.00     0.286 C 
ATOM     17  C   UNL     1     -20.615  -6.319  -8.839  1.00  0.00     0.202 C 
ATOM     18  O   UNL     1     -22.906  -5.425  -8.763  1.00  0.00    -0.341 OA
ATOM     19  C   UNL     1     -20.077  -4.986  -9.378  1.00  0.00     0.179 C 
ATOM     20  C   UNL     1     -22.502  -4.141  -9.224  1.00  0.00     0.178 C 
ATOM     21  C   UNL     1     -21.193  -4.161 -10.055  1.00  0.00     0.177 C 
BRANCH  17  22
ATOM     22  O   UNL     1     -20.797  -7.248  -9.882  1.00  0.00    -0.385 OA
ATOM     23  H   UNL     1     -20.500  -6.831 -10.730  1.00  0.00     0.211 HD
ENDBRANCH  17  22
BRANCH  19  24
ATOM     24  O   UNL     1     -19.504  -4.255  -8.323  1.00  0.00    -0.387 OA
ATOM     25  H   UNL     1     -19.134  -3.422  -8.715  1.00  0.00     0.211 HD
ENDBRANCH  19  24
BRANCH  20  26
ATOM     26  C   UNL     1     -22.514  -3.074  -8.108  1.00  0.00     0.191 C 
BRANCH  26  27
ATOM     27  O   UNL     1     -23.669  -3.218  -7.323  1.00  0.00    -0.394 OA
ATOM     28  H   UNL     1     -23.378  -3.363  -6.385  1.00  0.00     0.210 HD
ENDBRANCH  26  27
ENDBRANCH  20  26
BRANCH  21  29
ATOM     29  O   UNL     1     -21.469  -4.689 -11.329  1.00  0.00    -0.387 OA
ATOM     30  H   UNL     1     -21.414  -5.678 -11.252  1.00  0.00     0.211 HD
ENDBRANCH  21  29
ENDBRANCH   1  16
TORSDOF 10
ENDMDL
MODEL 7
REMARK VINA RESULT:    -5.294      1.193      2.160
REMARK INTER + INTRA:          -8.251
REMARK INTER:                  -7.657
REMARK INTRA:                  -0.594
REMARK UNBOUND:                -0.790
REMARK SMILES OCC1=C[C@@H](O)[C@@H]2C=CO[C@@H](O[C@H]3O[C@@H](CO)[C@H](O)[C@@H](O)[C@@H]3O)[C@H]12
REMARK SMILES IDX 12 1 11 2 8 3 9 4 7 5 10 6 24 7 5 8 3 9 4 10 6 11 2 13 1 14
REMARK SMILES IDX 13 16 22 17 14 18 20 19 15 20 18 21 23 22 21 24 16 26 17 27
REMARK SMILES IDX 19 29
REMARK H PARENT 6 12 1 15 23 23 21 25 17 28 19 30
REMARK Flexibility Score: inf
ROOT
ATOM      1  O   UNL     1     -21.378  -5.456  -7.833  1.00  0.00    -0.310 OA
ENDROOT
BRANCH   1   2
ATOM      2  C   UNL     1     -20.967  -6.179  -6.688  1.00  0.00     0.316 C 
ATOM      3  C   UNL     1     -23.392  -5.733  -5.266  1.00  0.00     0.018 C 
ATOM      4  C   UNL     1     -23.175  -6.898  -5.878  1.00  0.00     0.186 C 
ATOM      5  C   UNL     1     -22.277  -4.741  -4.991  1.00  0.00     0.061 C 
ATOM      6  O   UNL     1     -21.919  -7.204  -6.407  1.00  0.00    -0.472 OA
ATOM      7  C   UNL     1     -20.885  -5.200  -5.504  1.00  0.00     0.096 C 
ATOM      8  C   UNL     1     -22.083  -4.594  -3.464  1.00  0.00     0.145 C 
ATOM      9  C   UNL     1     -20.227  -5.767  -4.280  1.00  0.00    -0.036 C 
ATOM     10  C   UNL     1     -20.864  -5.405  -3.174  1.00  0.00     0.007 C 
BRANCH   8  11
ATOM     11  O   UNL     1     -21.883  -3.251  -3.095  1.00  0.00    -0.388 OA
ATOM     12  H   UNL     1     -22.490  -3.049  -2.333  1.00  0.00     0.211 HD
ENDBRANCH   8  11
BRANCH   9  13
ATOM     13  C   UNL     1     -18.878  -6.441  -4.267  1.00  0.00     0.187 C 
BRANCH  13  14
ATOM     14  O   UNL     1     -19.029  -7.828  -4.399  1.00  0.00    -0.392 OA
ATOM     15  H   UNL     1     -18.112  -8.208  -4.442  1.00  0.00     0.211 HD
ENDBRANCH  13  14
ENDBRANCH   9  13
ENDBRANCH   1   2
BRANCH   1  16
ATOM     16  C   UNL     1     -20.356  -4.602  -8.321  1.00  0.00     0.286 C 
ATOM     17  C   UNL     1     -20.755  -3.116  -8.159  1.00  0.00     0.202 C 
ATOM     18  O   UNL     1     -20.046  -4.925  -9.670  1.00  0.00    -0.341 OA
ATOM     19  C   UNL     1     -21.899  -2.730  -9.106  1.00  0.00     0.179 C 
ATOM     20  C   UNL     1     -21.098  -4.669 -10.594  1.00  0.00     0.178 C 
ATOM     21  C   UNL     1     -21.626  -3.212 -10.546  1.00  0.00     0.177 C 
BRANCH  17  22
ATOM     22  O   UNL     1     -19.646  -2.265  -8.334  1.00  0.00    -0.385 OA
ATOM     23  H   UNL     1     -18.828  -2.756  -8.065  1.00  0.00     0.211 HD
ENDBRANCH  17  22
BRANCH  19  24
ATOM     24  O   UNL     1     -23.103  -3.278  -8.629  1.00  0.00    -0.387 OA
ATOM     25  H   UNL     1     -22.861  -4.007  -8.002  1.00  0.00     0.211 HD
ENDBRANCH  19  24
BRANCH  20  26
ATOM     26  C   UNL     1     -22.213  -5.736 -10.543  1.00  0.00     0.191 C 
BRANCH  26  27
ATOM     27  O   UNL     1     -22.488  -6.199 -11.841  1.00  0.00    -0.394 OA
ATOM     28  H   UNL     1     -23.098  -5.544 -12.270  1.00  0.00     0.210 HD
ENDBRANCH  26  27
ENDBRANCH  20  26
BRANCH  21  29
ATOM     29  O   UNL     1     -20.686  -2.366 -11.163  1.00  0.00    -0.387 OA
ATOM     30  H   UNL     1     -21.200  -1.665 -11.646  1.00  0.00     0.211 HD
ENDBRANCH  21  29
ENDBRANCH   1  16
TORSDOF 10
ENDMDL
MODEL 8
REMARK VINA RESULT:    -5.225      1.664      6.038
REMARK INTER + INTRA:          -8.153
REMARK INTER:                  -7.375
REMARK INTRA:                  -0.778
REMARK UNBOUND:                -0.790
REMARK SMILES OCC1=C[C@@H](O)[C@@H]2C=CO[C@@H](O[C@H]3O[C@@H](CO)[C@H](O)[C@@H](O)[C@@H]3O)[C@H]12
REMARK SMILES IDX 12 1 11 2 8 3 9 4 7 5 10 6 24 7 5 8 3 9 4 10 6 11 2 13 1 14
REMARK SMILES IDX 13 16 22 17 14 18 20 19 15 20 18 21 23 22 21 24 16 26 17 27
REMARK SMILES IDX 19 29
REMARK H PARENT 6 12 1 15 23 23 21 25 17 28 19 30
REMARK Flexibility Score: inf
ROOT
ATOM      1  O   UNL     1     -21.261  -5.143  -5.621  1.00  0.00    -0.310 OA
ENDROOT
BRANCH   1   2
ATOM      2  C   UNL     1     -20.938  -4.171  -6.599  1.00  0.00     0.316 C 
ATOM      3  C   UNL     1     -23.337  -4.550  -8.083  1.00  0.00     0.018 C 
ATOM      4  C   UNL     1     -23.217  -3.515  -7.250  1.00  0.00     0.186 C 
ATOM      5  C   UNL     1     -22.142  -5.360  -8.549  1.00  0.00     0.061 C 
ATOM      6  O   UNL     1     -21.985  -3.205  -6.671  1.00  0.00    -0.472 OA
ATOM      7  C   UNL     1     -20.789  -4.885  -7.954  1.00  0.00     0.096 C 
ATOM      8  C   UNL     1     -21.963  -5.183 -10.074  1.00  0.00     0.145 C 
ATOM      9  C   UNL     1     -20.207  -4.027  -9.040  1.00  0.00    -0.036 C 
ATOM     10  C   UNL     1     -20.828  -4.221 -10.197  1.00  0.00     0.007 C 
BRANCH   8  11
ATOM     11  O   UNL     1     -21.648  -6.402 -10.704  1.00  0.00    -0.388 OA
ATOM     12  H   UNL     1     -21.567  -6.230 -11.680  1.00  0.00     0.211 HD
ENDBRANCH   8  11
BRANCH   9  13
ATOM     13  C   UNL     1     -18.926  -3.242  -8.919  1.00  0.00     0.187 C 
BRANCH  13  14
ATOM     14  O   UNL     1     -19.208  -1.877  -8.771  1.00  0.00    -0.392 OA
ATOM     15  H   UNL     1     -19.041  -1.656  -7.818  1.00  0.00     0.211 HD
ENDBRANCH  13  14
ENDBRANCH   9  13
ENDBRANCH   1   2
BRANCH   1  16
ATOM     16  C   UNL     1     -21.542  -4.558  -4.360  1.00  0.00     0.286 C 
ATOM     17  C   UNL     1     -20.562  -5.077  -3.281  1.00  0.00     0.202 C 
ATOM     18  O   UNL     1     -22.898  -4.788  -4.001  1.00  0.00    -0.341 OA
ATOM     19  C   UNL     1     -20.812  -6.555  -2.951  1.00  0.00     0.179 C 
ATOM     20  C   UNL     1     -23.220  -6.153  -3.761  1.00  0.00     0.178 C 
ATOM     21  C   UNL     1     -22.310  -6.831  -2.704  1.00  0.00     0.177 C 
BRANCH  17  22
ATOM     22  O   UNL     1     -20.613  -4.284  -2.117  1.00  0.00    -0.385 OA
ATOM     23  H   UNL     1     -21.084  -3.440  -2.333  1.00  0.00     0.211 HD
ENDBRANCH  17  22
BRANCH  19  24
ATOM     24  O   UNL     1     -20.337  -7.354  -4.006  1.00  0.00    -0.387 OA
ATOM     25  H   UNL     1     -19.589  -6.860  -4.430  1.00  0.00     0.211 HD
ENDBRANCH  19  24
BRANCH  20  26
ATOM     26  C   UNL     1     -23.376  -6.969  -5.063  1.00  0.00     0.191 C 
BRANCH  26  27
ATOM     27  O   UNL     1     -24.739  -7.138  -5.359  1.00  0.00    -0.394 OA
ATOM     28  H   UNL     1     -25.243  -6.446  -4.856  1.00  0.00     0.210 HD
ENDBRANCH  26  27
ENDBRANCH  20  26
BRANCH  21  29
ATOM     29  O   UNL     1     -22.676  -6.372  -1.426  1.00  0.00    -0.387 OA
ATOM     30  H   UNL     1     -23.632  -6.107  -1.476  1.00  0.00     0.211 HD
ENDBRANCH  21  29
ENDBRANCH   1  16
TORSDOF 10
ENDMDL
MODEL 9
REMARK VINA RESULT:    -5.172      2.181      6.474
REMARK INTER + INTRA:          -8.078
REMARK INTER:                  -7.029
REMARK INTRA:                  -1.050
REMARK UNBOUND:                -0.790
REMARK SMILES OCC1=C[C@@H](O)[C@@H]2C=CO[C@@H](O[C@H]3O[C@@H](CO)[C@H](O)[C@@H](O)[C@@H]3O)[C@H]12
REMARK SMILES IDX 12 1 11 2 8 3 9 4 7 5 10 6 24 7 5 8 3 9 4 10 6 11 2 13 1 14
REMARK SMILES IDX 13 16 22 17 14 18 20 19 15 20 18 21 23 22 21 24 16 26 17 27
REMARK SMILES IDX 19 29
REMARK H PARENT 6 12 1 15 23 23 21 25 17 28 19 30
REMARK Flexibility Score: inf
ROOT
ATOM      1  O   UNL     1     -21.916  -6.566  -5.170  1.00  0.00    -0.310 OA
ENDROOT
BRANCH   1   2
ATOM      2  C   UNL     1     -20.994  -5.777  -5.899  1.00  0.00     0.316 C 
ATOM      3  C   UNL     1     -22.857  -3.689  -6.418  1.00  0.00     0.018 C 
ATOM      4  C   UNL     1     -21.952  -3.558  -5.447  1.00  0.00     0.186 C 
ATOM      5  C   UNL     1     -22.741  -4.750  -7.497  1.00  0.00     0.061 C 
ATOM      6  O   UNL     1     -20.912  -4.480  -5.311  1.00  0.00    -0.472 OA
ATOM      7  C   UNL     1     -21.497  -5.666  -7.348  1.00  0.00     0.096 C 
ATOM      8  C   UNL     1     -22.543  -4.068  -8.871  1.00  0.00     0.145 C 
ATOM      9  C   UNL     1     -20.502  -5.067  -8.301  1.00  0.00    -0.036 C 
ATOM     10  C   UNL     1     -21.084  -4.226  -9.147  1.00  0.00     0.007 C 
BRANCH   8  11
ATOM     11  O   UNL     1     -23.306  -4.693  -9.874  1.00  0.00    -0.388 OA
ATOM     12  H   UNL     1     -24.113  -5.086  -9.446  1.00  0.00     0.211 HD
ENDBRANCH   8  11
BRANCH   9  13
ATOM     13  C   UNL     1     -19.080  -5.539  -8.462  1.00  0.00     0.187 C 
BRANCH  13  14
ATOM     14  O   UNL     1     -19.046  -6.931  -8.619  1.00  0.00    -0.392 OA
ATOM     15  H   UNL     1     -19.814  -7.291  -8.102  1.00  0.00     0.211 HD
ENDBRANCH  13  14
ENDBRANCH   9  13
ENDBRANCH   1   2
BRANCH   1  16
ATOM     16  C   UNL     1     -21.427  -6.909  -3.884  1.00  0.00     0.286 C 
ATOM     17  C   UNL     1     -21.376  -8.444  -3.704  1.00  0.00     0.202 C 
ATOM     18  O   UNL     1     -22.208  -6.281  -2.876  1.00  0.00    -0.341 OA
ATOM     19  C   UNL     1     -22.783  -9.053  -3.625  1.00  0.00     0.179 C 
ATOM     20  C   UNL     1     -23.553  -6.741  -2.802  1.00  0.00     0.178 C 
ATOM     21  C   UNL     1     -23.678  -8.277  -2.635  1.00  0.00     0.177 C 
BRANCH  17  22
ATOM     22  O   UNL     1     -20.606  -8.805  -2.581  1.00  0.00    -0.385 OA
ATOM     23  H   UNL     1     -19.898  -9.432  -2.874  1.00  0.00     0.211 HD
ENDBRANCH  17  22
BRANCH  19  24
ATOM     24  O   UNL     1     -23.363  -9.054  -4.906  1.00  0.00    -0.387 OA
ATOM     25  H   UNL     1     -23.767  -8.158  -5.042  1.00  0.00     0.211 HD
ENDBRANCH  19  24
BRANCH  20  26
ATOM     26  C   UNL     1     -24.446  -6.163  -3.922  1.00  0.00     0.191 C 
BRANCH  26  27
ATOM     27  O   UNL     1     -25.581  -6.973  -4.093  1.00  0.00    -0.394 OA
ATOM     28  H   UNL     1     -25.504  -7.734  -3.460  1.00  0.00     0.210 HD
ENDBRANCH  26  27
ENDBRANCH  20  26
BRANCH  21  29
ATOM     29  O   UNL     1     -23.337  -8.621  -1.314  1.00  0.00    -0.387 OA
ATOM     30  H   UNL     1     -23.627  -9.561  -1.175  1.00  0.00     0.211 HD
ENDBRANCH  21  29
ENDBRANCH   1  16
TORSDOF 10
ENDMDL
