MODEL 1
REMARK VINA RESULT:    -4.390      0.000      0.000
REMARK INTER + INTRA:         -10.807
REMARK INTER:                  -8.497
REMARK INTRA:                  -2.310
REMARK UNBOUND:                -2.310
REMARK SMILES CCCCCC=CCC=CCCCCCCCCOC(C)=O
REMARK SMILES IDX 12 1 11 2 10 3 9 4 8 5 7 6 6 7 5 8 4 9 3 10 2 11 1 12 13 13
REMARK SMILES IDX 14 14 15 15 16 16 17 17 18 18 19 19 20 20 22 21 21 22
REMARK H PARENT
REMARK Flexibility Score: inf
ROOT
ATOM      1  C   UNL     1      68.822  50.493  18.794  1.00  0.00     0.004 C 
ENDROOT
BRANCH   1   2
ATOM      2  C   UNL     1      67.418  50.250  19.361  1.00  0.00     0.027 C 
BRANCH   2   3
ATOM      3  C   UNL     1      66.398  51.158  18.718  1.00  0.00    -0.031 C 
ATOM      4  C   UNL     1      66.293  52.482  18.942  1.00  0.00    -0.027 C 
BRANCH   4   5
ATOM      5  C   UNL     1      67.147  53.261  19.911  1.00  0.00     0.054 C 
BRANCH   5   6
ATOM      6  C   UNL     1      68.296  53.930  19.208  1.00  0.00    -0.027 C 
ATOM      7  C   UNL     1      69.370  54.368  19.882  1.00  0.00    -0.031 C 
BRANCH   7   8
ATOM      8  C   UNL     1      70.545  54.985  19.174  1.00  0.00     0.027 C 
BRANCH   8   9
ATOM      9  C   UNL     1      71.696  53.984  18.982  1.00  0.00     0.004 C 
BRANCH   9  10
ATOM     10  C   UNL     1      71.512  53.128  17.717  1.00  0.00     0.000 C 
BRANCH  10  11
ATOM     11  C   UNL     1      70.857  53.911  16.568  1.00  0.00    -0.003 C 
ATOM     12  C   UNL     1      71.883  54.595  15.664  1.00  0.00     0.004 C 
ENDBRANCH  10  11
ENDBRANCH   9  10
ENDBRANCH   8   9
ENDBRANCH   7   8
ENDBRANCH   5   6
ENDBRANCH   4   5
ENDBRANCH   2   3
ENDBRANCH   1   2
BRANCH   1  13
ATOM     13  C   UNL     1      69.856  50.755  19.902  1.00  0.00     0.000 C 
BRANCH  13  14
ATOM     14  C   UNL     1      69.269  50.577  21.311  1.00  0.00     0.000 C 
BRANCH  14  15
ATOM     15  C   UNL     1      70.296  50.860  22.421  1.00  0.00     0.000 C 
BRANCH  15  16
ATOM     16  C   UNL     1      71.133  52.123  22.151  1.00  0.00     0.003 C 
BRANCH  16  17
ATOM     17  C   UNL     1      71.928  52.642  23.364  1.00  0.00     0.042 C 
BRANCH  17  18
ATOM     18  C   UNL     1      71.194  52.483  24.704  1.00  0.00     0.233 C 
BRANCH  18  19
ATOM     19  O   UNL     1      70.766  53.744  25.218  1.00  0.00    -0.466 OA
BRANCH  19  20
ATOM     20  C   UNL     1      70.718  54.044  26.582  1.00  0.00     0.302 C 
ATOM     21  O   UNL     1      69.640  53.944  27.229  1.00  0.00    -0.253 OA
ATOM     22  C   UNL     1      71.946  54.539  27.268  1.00  0.00     0.139 C 
ENDBRANCH  19  20
ENDBRANCH  18  19
ENDBRANCH  17  18
ENDBRANCH  16  17
ENDBRANCH  15  16
ENDBRANCH  14  15
ENDBRANCH  13  14
ENDBRANCH   1  13
TORSDOF 16
ENDMDL
MODEL 2
REMARK VINA RESULT:    -4.378      2.339      5.643
REMARK INTER + INTRA:         -10.782
REMARK INTER:                  -9.001
REMARK INTRA:                  -1.781
REMARK UNBOUND:                -2.310
REMARK SMILES CCCCCC=CCC=CCCCCCCCCOC(C)=O
REMARK SMILES IDX 12 1 11 2 10 3 9 4 8 5 7 6 6 7 5 8 4 9 3 10 2 11 1 12 13 13
REMARK SMILES IDX 14 14 15 15 16 16 17 17 18 18 19 19 20 20 22 21 21 22
REMARK H PARENT
REMARK Flexibility Score: inf
ROOT
ATOM      1  C   UNL     1      72.189  53.271  24.390  1.00  0.00     0.004 C 
ENDROOT
BRANCH   1   2
ATOM      2  C   UNL     1      71.043  52.264  24.545  1.00  0.00     0.027 C 
BRANCH   2   3
ATOM      3  C   UNL     1      71.514  50.850  24.300  1.00  0.00    -0.031 C 
ATOM      4  C   UNL     1      70.871  49.943  23.539  1.00  0.00    -0.027 C 
BRANCH   4   5
ATOM      5  C   UNL     1      69.552  50.180  22.849  1.00  0.00     0.054 C 
BRANCH   5   6
ATOM      6  C   UNL     1      69.720  50.236  21.356  1.00  0.00    -0.027 C 
ATOM      7  C   UNL     1      69.928  51.397  20.718  1.00  0.00    -0.031 C 
BRANCH   7   8
ATOM      8  C   UNL     1      70.154  51.447  19.231  1.00  0.00     0.027 C 
BRANCH   8   9
ATOM      9  C   UNL     1      69.181  52.409  18.530  1.00  0.00     0.004 C 
BRANCH   9  10
ATOM     10  C   UNL     1      67.763  52.328  19.121  1.00  0.00     0.000 C 
BRANCH  10  11
ATOM     11  C   UNL     1      66.898  51.262  18.431  1.00  0.00    -0.003 C 
ATOM     12  C   UNL     1      66.805  49.968  19.239  1.00  0.00     0.004 C 
ENDBRANCH  10  11
ENDBRANCH   9  10
ENDBRANCH   8   9
ENDBRANCH   7   8
ENDBRANCH   5   6
ENDBRANCH   4   5
ENDBRANCH   2   3
ENDBRANCH   1   2
BRANCH   1  13
ATOM     13  C   UNL     1      72.767  53.703  25.747  1.00  0.00     0.000 C 
BRANCH  13  14
ATOM     14  C   UNL     1      71.837  53.357  26.921  1.00  0.00     0.000 C 
BRANCH  14  15
ATOM     15  C   UNL     1      71.298  54.607  27.637  1.00  0.00     0.000 C 
BRANCH  15  16
ATOM     16  C   UNL     1      69.776  54.559  27.855  1.00  0.00     0.003 C 
BRANCH  16  17
ATOM     17  C   UNL     1      68.938  54.553  26.561  1.00  0.00     0.042 C 
BRANCH  17  18
ATOM     18  C   UNL     1      69.180  55.772  25.658  1.00  0.00     0.233 C 
BRANCH  18  19
ATOM     19  O   UNL     1      68.333  56.864  26.016  1.00  0.00    -0.466 OA
BRANCH  19  20
ATOM     20  C   UNL     1      66.944  56.843  25.866  1.00  0.00     0.302 C 
ATOM     21  O   UNL     1      66.185  57.160  26.823  1.00  0.00    -0.253 OA
ATOM     22  C   UNL     1      66.351  56.391  24.575  1.00  0.00     0.139 C 
ENDBRANCH  19  20
ENDBRANCH  18  19
ENDBRANCH  17  18
ENDBRANCH  16  17
ENDBRANCH  15  16
ENDBRANCH  14  15
ENDBRANCH  13  14
ENDBRANCH   1  13
TORSDOF 16
ENDMDL
MODEL 3
REMARK VINA RESULT:    -4.374      3.154      5.441
REMARK INTER + INTRA:         -10.775
REMARK INTER:                  -8.927
REMARK INTRA:                  -1.848
REMARK UNBOUND:                -2.310
REMARK SMILES CCCCCC=CCC=CCCCCCCCCOC(C)=O
REMARK SMILES IDX 12 1 11 2 10 3 9 4 8 5 7 6 6 7 5 8 4 9 3 10 2 11 1 12 13 13
REMARK SMILES IDX 14 14 15 15 16 16 17 17 18 18 19 19 20 20 22 21 21 22
REMARK H PARENT
REMARK Flexibility Score: inf
ROOT
ATOM      1  C   UNL     1      65.796  56.079  23.832  1.00  0.00     0.004 C 
ENDROOT
BRANCH   1   2
ATOM      2  C   UNL     1      66.748  56.292  22.650  1.00  0.00     0.027 C 
BRANCH   2   3
ATOM      3  C   UNL     1      66.333  55.471  21.452  1.00  0.00    -0.031 C 
ATOM      4  C   UNL     1      67.182  54.851  20.610  1.00  0.00    -0.027 C 
BRANCH   4   5
ATOM      5  C   UNL     1      68.685  54.918  20.700  1.00  0.00     0.054 C 
BRANCH   5   6
ATOM      6  C   UNL     1      69.315  53.628  20.253  1.00  0.00    -0.027 C 
ATOM      7  C   UNL     1      69.258  52.521  21.008  1.00  0.00    -0.031 C 
BRANCH   7   8
ATOM      8  C   UNL     1      69.838  51.215  20.536  1.00  0.00     0.027 C 
BRANCH   8   9
ATOM      9  C   UNL     1      69.133  50.691  19.275  1.00  0.00     0.004 C 
BRANCH   9  10
ATOM     10  C   UNL     1      67.674  50.288  19.553  1.00  0.00     0.000 C 
BRANCH  10  11
ATOM     11  C   UNL     1      66.671  51.098  18.717  1.00  0.00    -0.003 C 
ATOM     12  C   UNL     1      67.356  52.014  17.702  1.00  0.00     0.004 C 
ENDBRANCH  10  11
ENDBRANCH   9  10
ENDBRANCH   8   9
ENDBRANCH   7   8
ENDBRANCH   5   6
ENDBRANCH   4   5
ENDBRANCH   2   3
ENDBRANCH   1   2
BRANCH   1  13
ATOM     13  C   UNL     1      64.998  57.349  24.168  1.00  0.00     0.000 C 
BRANCH  13  14
ATOM     14  C   UNL     1      65.762  58.296  25.107  1.00  0.00     0.000 C 
BRANCH  14  15
ATOM     15  C   UNL     1      66.490  57.548  26.237  1.00  0.00     0.000 C 
BRANCH  15  16
ATOM     16  C   UNL     1      68.010  57.795  26.233  1.00  0.00     0.003 C 
BRANCH  16  17
ATOM     17  C   UNL     1      68.870  56.525  26.088  1.00  0.00     0.042 C 
BRANCH  17  18
ATOM     18  C   UNL     1      68.228  55.266  26.690  1.00  0.00     0.233 C 
BRANCH  18  19
ATOM     19  O   UNL     1      69.148  54.555  27.517  1.00  0.00    -0.466 OA
BRANCH  19  20
ATOM     20  C   UNL     1      70.430  54.183  27.102  1.00  0.00     0.302 C 
ATOM     21  O   UNL     1      70.595  53.474  26.072  1.00  0.00    -0.253 OA
ATOM     22  C   UNL     1      71.611  54.587  27.916  1.00  0.00     0.139 C 
ENDBRANCH  19  20
ENDBRANCH  18  19
ENDBRANCH  17  18
ENDBRANCH  16  17
ENDBRANCH  15  16
ENDBRANCH  14  15
ENDBRANCH  13  14
ENDBRANCH   1  13
TORSDOF 16
ENDMDL
MODEL 4
REMARK VINA RESULT:    -4.348      2.816      5.970
REMARK INTER + INTRA:         -10.725
REMARK INTER:                  -9.170
REMARK INTRA:                  -1.555
REMARK UNBOUND:                -2.310
REMARK SMILES CCCCCC=CCC=CCCCCCCCCOC(C)=O
REMARK SMILES IDX 12 1 11 2 10 3 9 4 8 5 7 6 6 7 5 8 4 9 3 10 2 11 1 12 13 13
REMARK SMILES IDX 14 14 15 15 16 16 17 17 18 18 19 19 20 20 22 21 21 22
REMARK H PARENT
REMARK Flexibility Score: inf
ROOT
ATOM      1  C   UNL     1      71.616  52.619  26.695  1.00  0.00     0.004 C 
ENDROOT
BRANCH   1   2
ATOM      2  C   UNL     1      72.311  52.215  25.390  1.00  0.00     0.027 C 
BRANCH   2   3
ATOM      3  C   UNL     1      71.633  52.831  24.189  1.00  0.00    -0.031 C 
ATOM      4  C   UNL     1      70.808  52.176  23.349  1.00  0.00    -0.027 C 
BRANCH   4   5
ATOM      5  C   UNL     1      70.470  50.710  23.444  1.00  0.00     0.054 C 
BRANCH   5   6
ATOM      6  C   UNL     1      69.612  50.273  22.290  1.00  0.00    -0.027 C 
ATOM      7  C   UNL     1      69.355  51.091  21.258  1.00  0.00    -0.031 C 
BRANCH   7   8
ATOM      8  C   UNL     1      68.545  50.636  20.074  1.00  0.00     0.027 C 
BRANCH   8   9
ATOM      9  C   UNL     1      69.280  50.871  18.745  1.00  0.00     0.004 C 
BRANCH   9  10
ATOM     10  C   UNL     1      68.700  52.064  17.967  1.00  0.00     0.000 C 
BRANCH  10  11
ATOM     11  C   UNL     1      69.794  52.962  17.368  1.00  0.00    -0.003 C 
ATOM     12  C   UNL     1      71.151  52.765  18.043  1.00  0.00     0.004 C 
ENDBRANCH  10  11
ENDBRANCH   9  10
ENDBRANCH   8   9
ENDBRANCH   7   8
ENDBRANCH   5   6
ENDBRANCH   4   5
ENDBRANCH   2   3
ENDBRANCH   1   2
BRANCH   1  13
ATOM     13  C   UNL     1      72.026  54.028  27.157  1.00  0.00     0.000 C 
BRANCH  13  14
ATOM     14  C   UNL     1      70.820  54.964  27.337  1.00  0.00     0.000 C 
BRANCH  14  15
ATOM     15  C   UNL     1      69.476  54.246  27.125  1.00  0.00     0.000 C 
BRANCH  15  16
ATOM     16  C   UNL     1      68.378  55.183  26.593  1.00  0.00     0.003 C 
BRANCH  16  17
ATOM     17  C   UNL     1      68.871  56.577  26.160  1.00  0.00     0.042 C 
BRANCH  17  18
ATOM     18  C   UNL     1      67.930  57.293  25.179  1.00  0.00     0.233 C 
BRANCH  18  19
ATOM     19  O   UNL     1      67.489  56.415  24.144  1.00  0.00    -0.466 OA
BRANCH  19  20
ATOM     20  C   UNL     1      66.170  56.367  23.683  1.00  0.00     0.302 C 
ATOM     21  O   UNL     1      65.856  56.867  22.569  1.00  0.00    -0.253 OA
ATOM     22  C   UNL     1      65.113  55.765  24.544  1.00  0.00     0.139 C 
ENDBRANCH  19  20
ENDBRANCH  18  19
ENDBRANCH  17  18
ENDBRANCH  16  17
ENDBRANCH  15  16
ENDBRANCH  14  15
ENDBRANCH  13  14
ENDBRANCH   1  13
TORSDOF 16
ENDMDL
MODEL 5
REMARK VINA RESULT:    -4.295      3.525      7.538
REMARK INTER + INTRA:         -10.622
REMARK INTER:                  -9.134
REMARK INTRA:                  -1.488
REMARK UNBOUND:                -2.310
REMARK SMILES CCCCCC=CCC=CCCCCCCCCOC(C)=O
REMARK SMILES IDX 12 1 11 2 10 3 9 4 8 5 7 6 6 7 5 8 4 9 3 10 2 11 1 12 13 13
REMARK SMILES IDX 14 14 15 15 16 16 17 17 18 18 19 19 20 20 22 21 21 22
REMARK H PARENT
REMARK Flexibility Score: inf
ROOT
ATOM      1  C   UNL     1      72.318  52.002  25.183  1.00  0.00     0.004 C 
ENDROOT
BRANCH   1   2
ATOM      2  C   UNL     1      71.639  52.360  26.510  1.00  0.00     0.027 C 
BRANCH   2   3
ATOM      3  C   UNL     1      71.890  53.800  26.889  1.00  0.00    -0.031 C 
ATOM      4  C   UNL     1      70.977  54.623  27.441  1.00  0.00    -0.027 C 
BRANCH   4   5
ATOM      5  C   UNL     1      69.544  54.252  27.723  1.00  0.00     0.054 C 
BRANCH   5   6
ATOM      6  C   UNL     1      68.628  54.760  26.644  1.00  0.00    -0.027 C 
ATOM      7  C   UNL     1      68.903  55.881  25.960  1.00  0.00    -0.031 C 
BRANCH   7   8
ATOM      8  C   UNL     1      68.018  56.358  24.841  1.00  0.00     0.027 C 
BRANCH   8   9
ATOM      9  C   UNL     1      66.545  56.456  25.271  1.00  0.00     0.004 C 
BRANCH   9  10
ATOM     10  C   UNL     1      65.584  56.077  24.131  1.00  0.00     0.000 C 
BRANCH  10  11
ATOM     11  C   UNL     1      65.962  56.743  22.799  1.00  0.00    -0.003 C 
ATOM     12  C   UNL     1      66.366  55.729  21.729  1.00  0.00     0.004 C 
ENDBRANCH  10  11
ENDBRANCH   9  10
ENDBRANCH   8   9
ENDBRANCH   7   8
ENDBRANCH   5   6
ENDBRANCH   4   5
ENDBRANCH   2   3
ENDBRANCH   1   2
BRANCH   1  13
ATOM     13  C   UNL     1      71.727  52.788  24.001  1.00  0.00     0.000 C 
BRANCH  13  14
ATOM     14  C   UNL     1      70.489  52.106  23.399  1.00  0.00     0.000 C 
BRANCH  14  15
ATOM     15  C   UNL     1      70.648  50.580  23.290  1.00  0.00     0.000 C 
BRANCH  15  16
ATOM     16  C   UNL     1      69.751  49.964  22.201  1.00  0.00     0.003 C 
BRANCH  16  17
ATOM     17  C   UNL     1      69.142  50.979  21.214  1.00  0.00     0.042 C 
BRANCH  17  18
ATOM     18  C   UNL     1      69.739  50.908  19.801  1.00  0.00     0.233 C 
BRANCH  18  19
ATOM     19  O   UNL     1      68.798  50.389  18.862  1.00  0.00    -0.466 OA
BRANCH  19  20
ATOM     20  C   UNL     1      67.413  50.476  19.030  1.00  0.00     0.302 C 
ATOM     21  O   UNL     1      66.760  49.517  19.525  1.00  0.00    -0.253 OA
ATOM     22  C   UNL     1      66.693  51.697  18.570  1.00  0.00     0.139 C 
ENDBRANCH  19  20
ENDBRANCH  18  19
ENDBRANCH  17  18
ENDBRANCH  16  17
ENDBRANCH  15  16
ENDBRANCH  14  15
ENDBRANCH  13  14
ENDBRANCH   1  13
TORSDOF 16
ENDMDL
MODEL 6
REMARK VINA RESULT:    -4.270      2.612      6.731
REMARK INTER + INTRA:         -10.574
REMARK INTER:                  -7.973
REMARK INTRA:                  -2.601
REMARK UNBOUND:                -2.310
REMARK SMILES CCCCCC=CCC=CCCCCCCCCOC(C)=O
REMARK SMILES IDX 12 1 11 2 10 3 9 4 8 5 7 6 6 7 5 8 4 9 3 10 2 11 1 12 13 13
REMARK SMILES IDX 14 14 15 15 16 16 17 17 18 18 19 19 20 20 22 21 21 22
REMARK H PARENT
REMARK Flexibility Score: inf
ROOT
ATOM      1  C   UNL     1      70.691  53.596  26.018  1.00  0.00     0.004 C 
ENDROOT
BRANCH   1   2
ATOM      2  C   UNL     1      71.726  52.551  26.451  1.00  0.00     0.027 C 
BRANCH   2   3
ATOM      3  C   UNL     1      72.763  52.322  25.377  1.00  0.00    -0.031 C 
ATOM      4  C   UNL     1      72.678  51.388  24.410  1.00  0.00    -0.027 C 
BRANCH   4   5
ATOM      5  C   UNL     1      71.558  50.389  24.274  1.00  0.00     0.054 C 
BRANCH   5   6
ATOM      6  C   UNL     1      70.542  50.844  23.264  1.00  0.00    -0.027 C 
ATOM      7  C   UNL     1      70.042  50.003  22.346  1.00  0.00    -0.031 C 
BRANCH   7   8
ATOM      8  C   UNL     1      68.983  50.441  21.371  1.00  0.00     0.027 C 
BRANCH   8   9
ATOM      9  C   UNL     1      69.584  50.917  20.038  1.00  0.00     0.004 C 
BRANCH   9  10
ATOM     10  C   UNL     1      68.788  50.401  18.828  1.00  0.00     0.000 C 
BRANCH  10  11
ATOM     11  C   UNL     1      67.285  50.278  19.122  1.00  0.00    -0.003 C 
ATOM     12  C   UNL     1      66.530  51.585  18.881  1.00  0.00     0.004 C 
ENDBRANCH  10  11
ENDBRANCH   9  10
ENDBRANCH   8   9
ENDBRANCH   7   8
ENDBRANCH   5   6
ENDBRANCH   4   5
ENDBRANCH   2   3
ENDBRANCH   1   2
BRANCH   1  13
ATOM     13  C   UNL     1      71.331  54.752  25.231  1.00  0.00     0.000 C 
BRANCH  13  14
ATOM     14  C   UNL     1      70.759  54.888  23.811  1.00  0.00     0.000 C 
BRANCH  14  15
ATOM     15  C   UNL     1      71.811  54.627  22.721  1.00  0.00     0.000 C 
BRANCH  15  16
ATOM     16  C   UNL     1      71.206  54.020  21.442  1.00  0.00     0.003 C 
BRANCH  16  17
ATOM     17  C   UNL     1      69.675  54.150  21.327  1.00  0.00     0.042 C 
BRANCH  17  18
ATOM     18  C   UNL     1      69.212  55.069  20.187  1.00  0.00     0.233 C 
BRANCH  18  19
ATOM     19  O   UNL     1      69.099  54.357  18.955  1.00  0.00    -0.466 OA
BRANCH  19  20
ATOM     20  C   UNL     1      70.032  54.457  17.918  1.00  0.00     0.302 C 
ATOM     21  O   UNL     1      70.392  55.583  17.479  1.00  0.00    -0.253 OA
ATOM     22  C   UNL     1      70.566  53.215  17.289  1.00  0.00     0.139 C 
ENDBRANCH  19  20
ENDBRANCH  18  19
ENDBRANCH  17  18
ENDBRANCH  16  17
ENDBRANCH  15  16
ENDBRANCH  14  15
ENDBRANCH  13  14
ENDBRANCH   1  13
TORSDOF 16
ENDMDL
MODEL 7
REMARK VINA RESULT:    -4.263      3.500      6.522
REMARK INTER + INTRA:         -10.560
REMARK INTER:                  -7.760
REMARK INTRA:                  -2.799
REMARK UNBOUND:                -2.310
REMARK SMILES CCCCCC=CCC=CCCCCCCCCOC(C)=O
REMARK SMILES IDX 12 1 11 2 10 3 9 4 8 5 7 6 6 7 5 8 4 9 3 10 2 11 1 12 13 13
REMARK SMILES IDX 14 14 15 15 16 16 17 17 18 18 19 19 20 20 22 21 21 22
REMARK H PARENT
REMARK Flexibility Score: inf
ROOT
ATOM      1  C   UNL     1      67.524  53.674  20.131  1.00  0.00     0.004 C 
ENDROOT
BRANCH   1   2
ATOM      2  C   UNL     1      67.481  52.992  18.758  1.00  0.00     0.027 C 
BRANCH   2   3
ATOM      3  C   UNL     1      66.988  51.568  18.865  1.00  0.00    -0.031 C 
ATOM      4  C   UNL     1      67.771  50.496  19.097  1.00  0.00    -0.027 C 
BRANCH   4   5
ATOM      5  C   UNL     1      69.271  50.541  19.239  1.00  0.00     0.054 C 
BRANCH   5   6
ATOM      6  C   UNL     1      69.676  50.795  20.664  1.00  0.00    -0.027 C 
ATOM      7  C   UNL     1      69.190  50.057  21.673  1.00  0.00    -0.031 C 
BRANCH   7   8
ATOM      8  C   UNL     1      69.639  50.273  23.093  1.00  0.00     0.027 C 
BRANCH   8   9
ATOM      9  C   UNL     1      70.971  51.035  23.169  1.00  0.00     0.004 C 
BRANCH   9  10
ATOM     10  C   UNL     1      70.826  52.381  23.899  1.00  0.00     0.000 C 
BRANCH  10  11
ATOM     11  C   UNL     1      70.867  53.579  22.938  1.00  0.00    -0.003 C 
ATOM     12  C   UNL     1      70.275  54.847  23.552  1.00  0.00     0.004 C 
ENDBRANCH  10  11
ENDBRANCH   9  10
ENDBRANCH   8   9
ENDBRANCH   7   8
ENDBRANCH   5   6
ENDBRANCH   4   5
ENDBRANCH   2   3
ENDBRANCH   1   2
BRANCH   1  13
ATOM     13  C   UNL     1      68.534  54.833  20.169  1.00  0.00     0.000 C 
BRANCH  13  14
ATOM     14  C   UNL     1      69.510  54.804  18.982  1.00  0.00     0.000 C 
BRANCH  14  15
ATOM     15  C   UNL     1      70.760  53.954  19.263  1.00  0.00     0.000 C 
BRANCH  15  16
ATOM     16  C   UNL     1      71.435  53.444  17.977  1.00  0.00     0.003 C 
BRANCH  16  17
ATOM     17  C   UNL     1      70.781  53.927  16.668  1.00  0.00     0.042 C 
BRANCH  17  18
ATOM     18  C   UNL     1      71.788  54.379  15.600  1.00  0.00     0.233 C 
BRANCH  18  19
ATOM     19  O   UNL     1      72.457  55.579  15.988  1.00  0.00    -0.466 OA
BRANCH  19  20
ATOM     20  C   UNL     1      71.807  56.672  16.567  1.00  0.00     0.302 C 
ATOM     21  O   UNL     1      70.894  57.283  15.948  1.00  0.00    -0.253 OA
ATOM     22  C   UNL     1      72.234  57.153  17.912  1.00  0.00     0.139 C 
ENDBRANCH  19  20
ENDBRANCH  18  19
ENDBRANCH  17  18
ENDBRANCH  16  17
ENDBRANCH  15  16
ENDBRANCH  14  15
ENDBRANCH  13  14
ENDBRANCH   1  13
TORSDOF 16
ENDMDL
MODEL 8
REMARK VINA RESULT:    -4.232      1.633      2.822
REMARK INTER + INTRA:         -10.500
REMARK INTER:                  -7.786
REMARK INTRA:                  -2.714
REMARK UNBOUND:                -2.310
REMARK SMILES CCCCCC=CCC=CCCCCCCCCOC(C)=O
REMARK SMILES IDX 12 1 11 2 10 3 9 4 8 5 7 6 6 7 5 8 4 9 3 10 2 11 1 12 13 13
REMARK SMILES IDX 14 14 15 15 16 16 17 17 18 18 19 19 20 20 22 21 21 22
REMARK H PARENT
REMARK Flexibility Score: inf
ROOT
ATOM      1  C   UNL     1      70.102  51.446  21.985  1.00  0.00     0.004 C 
ENDROOT
BRANCH   1   2
ATOM      2  C   UNL     1      69.713  50.388  20.945  1.00  0.00     0.027 C 
BRANCH   2   3
ATOM      3  C   UNL     1      68.257  50.499  20.563  1.00  0.00    -0.031 C 
ATOM      4  C   UNL     1      67.799  50.671  19.307  1.00  0.00    -0.027 C 
BRANCH   4   5
ATOM      5  C   UNL     1      68.672  50.829  18.089  1.00  0.00     0.054 C 
BRANCH   5   6
ATOM      6  C   UNL     1      69.013  52.274  17.847  1.00  0.00    -0.027 C 
ATOM      7  C   UNL     1      70.239  52.648  17.451  1.00  0.00    -0.031 C 
BRANCH   7   8
ATOM      8  C   UNL     1      70.565  54.086  17.153  1.00  0.00     0.027 C 
BRANCH   8   9
ATOM      9  C   UNL     1      71.776  54.222  16.215  1.00  0.00     0.004 C 
BRANCH   9  10
ATOM     10  C   UNL     1      72.701  55.379  16.631  1.00  0.00     0.000 C 
BRANCH  10  11
ATOM     11  C   UNL     1      73.285  55.187  18.039  1.00  0.00    -0.003 C 
ATOM     12  C   UNL     1      74.173  53.947  18.142  1.00  0.00     0.004 C 
ENDBRANCH  10  11
ENDBRANCH   9  10
ENDBRANCH   8   9
ENDBRANCH   7   8
ENDBRANCH   5   6
ENDBRANCH   4   5
ENDBRANCH   2   3
ENDBRANCH   1   2
BRANCH   1  13
ATOM     13  C   UNL     1      70.195  52.853  21.371  1.00  0.00     0.000 C 
BRANCH  13  14
ATOM     14  C   UNL     1      71.596  53.167  20.824  1.00  0.00     0.000 C 
BRANCH  14  15
ATOM     15  C   UNL     1      72.278  54.325  21.572  1.00  0.00     0.000 C 
BRANCH  15  16
ATOM     16  C   UNL     1      73.619  53.918  22.207  1.00  0.00     0.003 C 
BRANCH  16  17
ATOM     17  C   UNL     1      73.692  52.452  22.678  1.00  0.00     0.042 C 
BRANCH  17  18
ATOM     18  C   UNL     1      73.616  52.284  24.203  1.00  0.00     0.233 C 
BRANCH  18  19
ATOM     19  O   UNL     1      72.283  52.006  24.631  1.00  0.00    -0.466 OA
BRANCH  19  20
ATOM     20  C   UNL     1      71.496  52.916  25.344  1.00  0.00     0.302 C 
ATOM     21  O   UNL     1      70.648  53.639  24.753  1.00  0.00    -0.253 OA
ATOM     22  C   UNL     1      71.701  53.071  26.812  1.00  0.00     0.139 C 
ENDBRANCH  19  20
ENDBRANCH  18  19
ENDBRANCH  17  18
ENDBRANCH  16  17
ENDBRANCH  15  16
ENDBRANCH  14  15
ENDBRANCH  13  14
ENDBRANCH   1  13
TORSDOF 16
ENDMDL
MODEL 9
REMARK VINA RESULT:    -4.144      2.493      6.402
REMARK INTER + INTRA:         -10.330
REMARK INTER:                  -7.852
REMARK INTRA:                  -2.478
REMARK UNBOUND:                -2.310
REMARK SMILES CCCCCC=CCC=CCCCCCCCCOC(C)=O
REMARK SMILES IDX 12 1 11 2 10 3 9 4 8 5 7 6 6 7 5 8 4 9 3 10 2 11 1 12 13 13
REMARK SMILES IDX 14 14 15 15 16 16 17 17 18 18 19 19 20 20 22 21 21 22
REMARK H PARENT
REMARK Flexibility Score: inf
ROOT
ATOM      1  C   UNL     1      67.117  52.288  18.823  1.00  0.00     0.004 C 
ENDROOT
BRANCH   1   2
ATOM      2  C   UNL     1      67.635  50.866  19.073  1.00  0.00     0.027 C 
BRANCH   2   3
ATOM      3  C   UNL     1      69.133  50.851  19.268  1.00  0.00    -0.031 C 
ATOM      4  C   UNL     1      69.756  50.591  20.434  1.00  0.00    -0.027 C 
BRANCH   4   5
ATOM      5  C   UNL     1      69.057  50.321  21.741  1.00  0.00     0.054 C 
BRANCH   5   6
ATOM      6  C   UNL     1      70.028  49.865  22.794  1.00  0.00    -0.027 C 
ATOM      7  C   UNL     1      70.824  50.733  23.437  1.00  0.00    -0.031 C 
BRANCH   7   8
ATOM      8  C   UNL     1      71.755  50.286  24.531  1.00  0.00     0.027 C 
BRANCH   8   9
ATOM      9  C   UNL     1      72.034  51.406  25.546  1.00  0.00     0.004 C 
BRANCH   9  10
ATOM     10  C   UNL     1      71.319  52.716  25.173  1.00  0.00     0.000 C 
BRANCH  10  11
ATOM     11  C   UNL     1      70.986  53.574  26.403  1.00  0.00    -0.003 C 
ATOM     12  C   UNL     1      72.134  54.502  26.800  1.00  0.00     0.004 C 
ENDBRANCH  10  11
ENDBRANCH   9  10
ENDBRANCH   8   9
ENDBRANCH   7   8
ENDBRANCH   5   6
ENDBRANCH   4   5
ENDBRANCH   2   3
ENDBRANCH   1   2
BRANCH   1  13
ATOM     13  C   UNL     1      67.196  53.162  20.086  1.00  0.00     0.000 C 
BRANCH  13  14
ATOM     14  C   UNL     1      67.875  54.515  19.825  1.00  0.00     0.000 C 
BRANCH  14  15
ATOM     15  C   UNL     1      69.410  54.425  19.863  1.00  0.00     0.000 C 
BRANCH  15  16
ATOM     16  C   UNL     1      69.957  54.170  21.279  1.00  0.00     0.003 C 
BRANCH  16  17
ATOM     17  C   UNL     1      71.454  53.810  21.338  1.00  0.00     0.042 C 
BRANCH  17  18
ATOM     18  C   UNL     1      72.336  54.663  20.413  1.00  0.00     0.233 C 
BRANCH  18  19
ATOM     19  O   UNL     1      72.963  53.866  19.409  1.00  0.00    -0.466 OA
BRANCH  19  20
ATOM     20  C   UNL     1      72.653  53.956  18.048  1.00  0.00     0.302 C 
ATOM     21  O   UNL     1      73.232  54.797  17.308  1.00  0.00    -0.253 OA
ATOM     22  C   UNL     1      71.587  53.084  17.479  1.00  0.00     0.139 C 
ENDBRANCH  19  20
ENDBRANCH  18  19
ENDBRANCH  17  18
ENDBRANCH  16  17
ENDBRANCH  15  16
ENDBRANCH  14  15
ENDBRANCH  13  14
ENDBRANCH   1  13
TORSDOF 16
ENDMDL
