MODEL 1
REMARK VINA RESULT:    -4.221      0.000      0.000
REMARK INTER + INTRA:          -4.221
REMARK INTER:                  -4.221
REMARK INTRA:                   0.000
REMARK UNBOUND:                 0.000
REMARK SMILES CC1=CC[C@@H]2[C@@H](C1)C2(C)C
REMARK SMILES IDX 1 1 2 2 3 3 4 4 5 5 6 6 7 7 8 8 9 9 10 10
REMARK H PARENT
REMARK Flexibility Score: inf
ROOT
ATOM      1  C   UNL     1    -125.760 -99.400   4.974  1.00  0.00     0.039 C 
ATOM      2  C   UNL     1    -124.391 -99.802   4.506  1.00  0.00    -0.077 C 
ATOM      3  C   UNL     1    -123.462-100.210   5.419  1.00  0.00    -0.028 C 
ATOM      4  C   UNL     1    -122.045-100.607   5.008  1.00  0.00     0.031 C 
ATOM      5  C   UNL     1    -121.738 -99.934   3.666  1.00  0.00     0.003 C 
ATOM      6  C   UNL     1    -122.831-100.588   2.741  1.00  0.00     0.003 C 
ATOM      7  C   UNL     1    -124.039 -99.684   3.018  1.00  0.00     0.034 C 
ATOM      8  C   UNL     1    -121.409-100.393   2.264  1.00  0.00    -0.029 C 
ATOM      9  C   UNL     1    -120.533-101.645   2.167  1.00  0.00     0.012 C 
ATOM     10  C   UNL     1    -121.210 -99.306   1.205  1.00  0.00     0.012 C 
ENDROOT
TORSDOF 0
ENDMDL
MODEL 2
REMARK VINA RESULT:    -3.851      1.204      4.722
REMARK INTER + INTRA:          -3.851
REMARK INTER:                  -3.851
REMARK INTRA:                   0.000
REMARK UNBOUND:                 0.000
REMARK SMILES CC1=CC[C@@H]2[C@@H](C1)C2(C)C
REMARK SMILES IDX 1 1 2 2 3 3 4 4 5 5 6 6 7 7 8 8 9 9 10 10
REMARK H PARENT
REMARK Flexibility Score: inf
ROOT
ATOM      1  C   UNL     1    -118.320-101.762   0.647  1.00  0.00     0.039 C 
ATOM      2  C   UNL     1    -119.476-101.043   1.282  1.00  0.00    -0.077 C 
ATOM      3  C   UNL     1    -119.766 -99.766   0.897  1.00  0.00    -0.028 C 
ATOM      4  C   UNL     1    -120.912 -98.974   1.524  1.00  0.00     0.031 C 
ATOM      5  C   UNL     1    -121.200 -99.575   2.904  1.00  0.00     0.003 C 
ATOM      6  C   UNL     1    -121.632-101.038   2.514  1.00  0.00     0.003 C 
ATOM      7  C   UNL     1    -120.269-101.732   2.400  1.00  0.00     0.034 C 
ATOM      8  C   UNL     1    -122.372-100.255   3.576  1.00  0.00    -0.029 C 
ATOM      9  C   UNL     1    -123.754 -99.715   3.201  1.00  0.00     0.012 C 
ATOM     10  C   UNL     1    -122.165-100.734   5.015  1.00  0.00     0.012 C 
ENDROOT
TORSDOF 0
ENDMDL
MODEL 3
REMARK VINA RESULT:    -3.726      3.509      5.483
REMARK INTER + INTRA:          -3.726
REMARK INTER:                  -3.726
REMARK INTRA:                   0.000
REMARK UNBOUND:                 0.000
REMARK SMILES CC1=CC[C@@H]2[C@@H](C1)C2(C)C
REMARK SMILES IDX 1 1 2 2 3 3 4 4 5 5 6 6 7 7 8 8 9 9 10 10
REMARK H PARENT
REMARK Flexibility Score: inf
ROOT
ATOM      1  C   UNL     1    -121.435-100.698   1.996  1.00  0.00     0.039 C 
ATOM      2  C   UNL     1    -120.009-100.782   1.528  1.00  0.00    -0.077 C 
ATOM      3  C   UNL     1    -119.413-102.003   1.408  1.00  0.00    -0.028 C 
ATOM      4  C   UNL     1    -117.959-102.153   0.962  1.00  0.00     0.031 C 
ATOM      5  C   UNL     1    -117.237-100.835   1.263  1.00  0.00     0.003 C 
ATOM      6  C   UNL     1    -118.039 -99.833   0.351  1.00  0.00     0.003 C 
ATOM      7  C   UNL     1    -119.228 -99.490   1.257  1.00  0.00     0.034 C 
ATOM      8  C   UNL     1    -116.532 -99.767   0.457  1.00  0.00    -0.029 C 
ATOM      9  C   UNL     1    -115.729-100.269  -0.746  1.00  0.00     0.012 C 
ATOM     10  C   UNL     1    -115.975 -98.568   1.230  1.00  0.00     0.012 C 
ENDROOT
TORSDOF 0
ENDMDL
MODEL 4
REMARK VINA RESULT:    -3.654      1.164      4.416
REMARK INTER + INTRA:          -3.654
REMARK INTER:                  -3.654
REMARK INTRA:                   0.000
REMARK UNBOUND:                 0.000
REMARK SMILES CC1=CC[C@@H]2[C@@H](C1)C2(C)C
REMARK SMILES IDX 1 1 2 2 3 3 4 4 5 5 6 6 7 7 8 8 9 9 10 10
REMARK H PARENT
REMARK Flexibility Score: inf
ROOT
ATOM      1  C   UNL     1    -119.338 -99.174  -0.563  1.00  0.00     0.039 C 
ATOM      2  C   UNL     1    -120.013 -99.774   0.637  1.00  0.00    -0.077 C 
ATOM      3  C   UNL     1    -119.687-101.040   1.028  1.00  0.00    -0.028 C 
ATOM      4  C   UNL     1    -120.357-101.714   2.224  1.00  0.00     0.031 C 
ATOM      5  C   UNL     1    -121.711-101.034   2.450  1.00  0.00     0.003 C 
ATOM      6  C   UNL     1    -121.261 -99.561   2.774  1.00  0.00     0.003 C 
ATOM      7  C   UNL     1    -121.106 -98.978   1.363  1.00  0.00     0.034 C 
ATOM      8  C   UNL     1    -122.361-100.238   3.559  1.00  0.00    -0.029 C 
ATOM      9  C   UNL     1    -122.021-100.687   4.983  1.00  0.00     0.012 C 
ATOM     10  C   UNL     1    -123.777 -99.715   3.301  1.00  0.00     0.012 C 
ENDROOT
TORSDOF 0
ENDMDL
MODEL 5
REMARK VINA RESULT:    -3.615      1.087      2.492
REMARK INTER + INTRA:          -3.615
REMARK INTER:                  -3.615
REMARK INTRA:                   0.000
REMARK UNBOUND:                 0.000
REMARK SMILES CC1=CC[C@@H]2[C@@H](C1)C2(C)C
REMARK SMILES IDX 1 1 2 2 3 3 4 4 5 5 6 6 7 7 8 8 9 9 10 10
REMARK H PARENT
REMARK Flexibility Score: inf
ROOT
ATOM      1  C   UNL     1    -123.947 -99.940   5.215  1.00  0.00     0.039 C 
ATOM      2  C   UNL     1    -123.255-100.058   3.887  1.00  0.00    -0.077 C 
ATOM      3  C   UNL     1    -123.964 -99.855   2.739  1.00  0.00    -0.028 C 
ATOM      4  C   UNL     1    -123.324 -99.987   1.359  1.00  0.00     0.031 C 
ATOM      5  C   UNL     1    -122.092-100.887   1.495  1.00  0.00     0.003 C 
ATOM      6  C   UNL     1    -121.205-100.041   2.484  1.00  0.00     0.003 C 
ATOM      7  C   UNL     1    -121.777-100.470   3.841  1.00  0.00     0.034 C 
ATOM      8  C   UNL     1    -120.601-100.738   1.286  1.00  0.00    -0.029 C 
ATOM      9  C   UNL     1    -120.185 -99.854   0.107  1.00  0.00     0.012 C 
ATOM     10  C   UNL     1    -119.730-101.957   1.598  1.00  0.00     0.012 C 
ENDROOT
TORSDOF 0
ENDMDL
MODEL 6
REMARK VINA RESULT:    -3.609     13.400     14.931
REMARK INTER + INTRA:          -3.609
REMARK INTER:                  -3.609
REMARK INTRA:                   0.000
REMARK UNBOUND:                 0.000
REMARK SMILES CC1=CC[C@@H]2[C@@H](C1)C2(C)C
REMARK SMILES IDX 1 1 2 2 3 3 4 4 5 5 6 6 7 7 8 8 9 9 10 10
REMARK H PARENT
REMARK Flexibility Score: inf
ROOT
ATOM      1  C   UNL     1    -115.043 -92.849  14.973  1.00  0.00     0.039 C 
ATOM      2  C   UNL     1    -115.044 -94.299  15.367  1.00  0.00    -0.077 C 
ATOM      3  C   UNL     1    -114.195 -94.730  16.345  1.00  0.00    -0.028 C 
ATOM      4  C   UNL     1    -114.132 -96.195  16.772  1.00  0.00     0.031 C 
ATOM      5  C   UNL     1    -114.660 -97.047  15.612  1.00  0.00     0.003 C 
ATOM      6  C   UNL     1    -116.140 -96.524  15.500  1.00  0.00     0.003 C 
ATOM      7  C   UNL     1    -115.953 -95.282  14.619  1.00  0.00     0.034 C 
ATOM      8  C   UNL     1    -115.816 -97.997  15.392  1.00  0.00    -0.029 C 
ATOM      9  C   UNL     1    -116.185 -98.877  16.589  1.00  0.00     0.012 C 
ATOM     10  C   UNL     1    -115.959 -98.605  13.995  1.00  0.00     0.012 C 
ENDROOT
TORSDOF 0
ENDMDL
MODEL 7
REMARK VINA RESULT:    -3.597      4.200      6.043
REMARK INTER + INTRA:          -3.597
REMARK INTER:                  -3.597
REMARK INTRA:                   0.000
REMARK UNBOUND:                 0.000
REMARK SMILES CC1=CC[C@@H]2[C@@H](C1)C2(C)C
REMARK SMILES IDX 1 1 2 2 3 3 4 4 5 5 6 6 7 7 8 8 9 9 10 10
REMARK H PARENT
REMARK Flexibility Score: inf
ROOT
ATOM      1  C   UNL     1    -120.194-102.370   1.197  1.00  0.00     0.039 C 
ATOM      2  C   UNL     1    -119.302-101.162   1.144  1.00  0.00    -0.077 C 
ATOM      3  C   UNL     1    -119.839 -99.922   1.334  1.00  0.00    -0.028 C 
ATOM      4  C   UNL     1    -118.990 -98.655   1.268  1.00  0.00     0.031 C 
ATOM      5  C   UNL     1    -117.744 -98.967   0.431  1.00  0.00     0.003 C 
ATOM      6  C   UNL     1    -117.067-100.091   1.301  1.00  0.00     0.003 C 
ATOM      7  C   UNL     1    -117.815-101.338   0.812  1.00  0.00     0.034 C 
ATOM      8  C   UNL     1    -116.250 -98.990   0.664  1.00  0.00    -0.029 C 
ATOM      9  C   UNL     1    -115.708 -97.902   1.594  1.00  0.00     0.012 C 
ATOM     10  C   UNL     1    -115.370 -99.416  -0.514  1.00  0.00     0.012 C 
ENDROOT
TORSDOF 0
ENDMDL
MODEL 8
REMARK VINA RESULT:    -3.585     12.962     14.581
REMARK INTER + INTRA:          -3.585
REMARK INTER:                  -3.585
REMARK INTRA:                   0.000
REMARK UNBOUND:                 0.000
REMARK SMILES CC1=CC[C@@H]2[C@@H](C1)C2(C)C
REMARK SMILES IDX 1 1 2 2 3 3 4 4 5 5 6 6 7 7 8 8 9 9 10 10
REMARK H PARENT
REMARK Flexibility Score: inf
ROOT
ATOM      1  C   UNL     1    -115.298-100.153  16.186  1.00  0.00     0.039 C 
ATOM      2  C   UNL     1    -115.506 -98.668  16.101  1.00  0.00    -0.077 C 
ATOM      3  C   UNL     1    -115.316 -97.898  17.213  1.00  0.00    -0.028 C 
ATOM      4  C   UNL     1    -115.537 -96.387  17.197  1.00  0.00     0.031 C 
ATOM      5  C   UNL     1    -116.490 -96.062  16.042  1.00  0.00     0.003 C 
ATOM      6  C   UNL     1    -115.648 -96.554  14.806  1.00  0.00     0.003 C 
ATOM      7  C   UNL     1    -115.991 -98.048  14.784  1.00  0.00     0.034 C 
ATOM      8  C   UNL     1    -116.423 -95.256  14.765  1.00  0.00    -0.029 C 
ATOM      9  C   UNL     1    -115.611 -93.960  14.842  1.00  0.00     0.012 C 
ATOM     10  C   UNL     1    -117.670 -95.257  13.876  1.00  0.00     0.012 C 
ENDROOT
TORSDOF 0
ENDMDL
MODEL 9
REMARK VINA RESULT:    -3.485      1.582      2.698
REMARK INTER + INTRA:          -3.485
REMARK INTER:                  -3.485
REMARK INTRA:                   0.000
REMARK UNBOUND:                 0.000
REMARK SMILES CC1=CC[C@@H]2[C@@H](C1)C2(C)C
REMARK SMILES IDX 1 1 2 2 3 3 4 4 5 5 6 6 7 7 8 8 9 9 10 10
REMARK H PARENT
REMARK Flexibility Score: inf
ROOT
ATOM      1  C   UNL     1    -122.119 -98.668   5.740  1.00  0.00     0.039 C 
ATOM      2  C   UNL     1    -122.715 -99.262   4.495  1.00  0.00    -0.077 C 
ATOM      3  C   UNL     1    -124.070 -99.401   4.399  1.00  0.00    -0.028 C 
ATOM      4  C   UNL     1    -124.734-100.020   3.171  1.00  0.00     0.031 C 
ATOM      5  C   UNL     1    -123.697-100.905   2.471  1.00  0.00     0.003 C 
ATOM      6  C   UNL     1    -122.602 -99.842   2.083  1.00  0.00     0.003 C 
ATOM      7  C   UNL     1    -121.788 -99.762   3.380  1.00  0.00     0.034 C 
ATOM      8  C   UNL     1    -123.017-100.932   1.120  1.00  0.00    -0.029 C 
ATOM      9  C   UNL     1    -123.889-100.513  -0.067  1.00  0.00     0.012 C 
ATOM     10  C   UNL     1    -121.983-102.035   0.885  1.00  0.00     0.012 C 
ENDROOT
TORSDOF 0
ENDMDL
