MODEL 1
REMARK VINA RESULT:    12.619      0.000      0.000
REMARK INTER + INTRA:          13.442
REMARK INTER:                  13.725
REMARK INTRA:                  -0.284
REMARK UNBOUND:                -0.284
REMARK SMILES CC1=CCC[C@@]2(C)CC[C@@H](C(C)(C)O)C[C@@H]12
REMARK SMILES IDX 11 1 12 2 13 3 10 4 1 5 2 6 3 7 16 8 4 9 6 10 15 11 5 12
REMARK SMILES IDX 7 13 8 14 9 15 14 16
REMARK H PARENT 14 17
REMARK Flexibility Score: inf
ROOT
ATOM      1  C   UNL     1      33.729 -24.688   6.433  1.00  0.00     0.062 C 
ATOM      2  C   UNL     1      33.407 -23.861   5.172  1.00  0.00     0.042 C 
ATOM      3  C   UNL     1      33.130 -26.102   6.259  1.00  0.00     0.042 C 
ENDROOT
BRANCH   1   4
ATOM      4  C   UNL     1      35.274 -24.763   6.727  1.00  0.00     0.021 C 
ATOM      5  C   UNL     1      38.843 -24.938   3.964  1.00  0.00     0.039 C 
ATOM      6  C   UNL     1      38.552 -23.776   4.880  1.00  0.00    -0.074 C 
ATOM      7  C   UNL     1      39.121 -22.587   4.602  1.00  0.00    -0.028 C 
ATOM      8  C   UNL     1      37.610 -23.982   6.064  1.00  0.00     0.021 C 
ATOM      9  C   UNL     1      39.024 -21.392   5.506  1.00  0.00     0.028 C 
ATOM     10  C   UNL     1      37.655 -22.829   7.131  1.00  0.00    -0.026 C 
ATOM     11  C   UNL     1      36.166 -24.220   5.574  1.00  0.00     0.015 C 
ATOM     12  C   UNL     1      37.804 -21.456   6.422  1.00  0.00     0.011 C 
ATOM     13  C   UNL     1      38.854 -23.065   8.084  1.00  0.00     0.012 C 
ATOM     14  C   UNL     1      36.340 -22.789   7.984  1.00  0.00     0.008 C 
ATOM     15  C   UNL     1      35.669 -24.164   8.110  1.00  0.00     0.007 C 
ENDBRANCH   1   4
BRANCH   1  16
ATOM     16  O   UNL     1      33.079 -24.060   7.515  1.00  0.00    -0.390 OA
ATOM     17  H   UNL     1      32.150 -23.846   7.238  1.00  0.00     0.211 HD
ENDBRANCH   1  16
TORSDOF 2
ENDMDL
MODEL 2
REMARK VINA RESULT:    12.955      0.694      1.043
REMARK INTER + INTRA:          13.807
REMARK INTER:                  14.014
REMARK INTRA:                  -0.207
REMARK UNBOUND:                -0.284
REMARK SMILES CC1=CCC[C@@]2(C)CC[C@@H](C(C)(C)O)C[C@@H]12
REMARK SMILES IDX 11 1 12 2 13 3 10 4 1 5 2 6 3 7 16 8 4 9 6 10 15 11 5 12
REMARK SMILES IDX 7 13 8 14 9 15 14 16
REMARK H PARENT 14 17
REMARK Flexibility Score: inf
ROOT
ATOM      1  C   UNL     1      33.742 -24.714   6.432  1.00  0.00     0.062 C 
ATOM      2  C   UNL     1      33.125 -26.103   6.171  1.00  0.00     0.042 C 
ATOM      3  C   UNL     1      32.987 -24.054   7.607  1.00  0.00     0.042 C 
ENDROOT
BRANCH   1   4
ATOM      4  C   UNL     1      35.288 -24.787   6.726  1.00  0.00     0.021 C 
ATOM      5  C   UNL     1      38.860 -24.893   3.962  1.00  0.00     0.039 C 
ATOM      6  C   UNL     1      38.562 -23.750   4.899  1.00  0.00    -0.074 C 
ATOM      7  C   UNL     1      39.125 -22.553   4.642  1.00  0.00    -0.028 C 
ATOM      8  C   UNL     1      37.620 -23.982   6.078  1.00  0.00     0.021 C 
ATOM      9  C   UNL     1      39.022 -21.376   5.568  1.00  0.00     0.028 C 
ATOM     10  C   UNL     1      37.659 -22.849   7.166  1.00  0.00    -0.026 C 
ATOM     11  C   UNL     1      36.178 -24.218   5.583  1.00  0.00     0.015 C 
ATOM     12  C   UNL     1      37.801 -21.462   6.482  1.00  0.00     0.011 C 
ATOM     13  C   UNL     1      38.858 -23.096   8.115  1.00  0.00     0.012 C 
ATOM     14  C   UNL     1      36.343 -22.831   8.018  1.00  0.00     0.008 C 
ATOM     15  C   UNL     1      35.679 -24.211   8.119  1.00  0.00     0.007 C 
ENDBRANCH   1   4
BRANCH   1  16
ATOM     16  O   UNL     1      33.525 -23.941   5.273  1.00  0.00    -0.390 OA
ATOM     17  H   UNL     1      34.060 -23.108   5.351  1.00  0.00     0.211 HD
ENDBRANCH   1  16
TORSDOF 2
ENDMDL
MODEL 3
REMARK VINA RESULT:    13.048      1.422      1.715
REMARK INTER + INTRA:          13.909
REMARK INTER:                  14.200
REMARK INTRA:                  -0.291
REMARK UNBOUND:                -0.284
REMARK SMILES CC1=CCC[C@@]2(C)CC[C@@H](C(C)(C)O)C[C@@H]12
REMARK SMILES IDX 11 1 12 2 13 3 10 4 1 5 2 6 3 7 16 8 4 9 6 10 15 11 5 12
REMARK SMILES IDX 7 13 8 14 9 15 14 16
REMARK H PARENT 14 17
REMARK Flexibility Score: inf
ROOT
ATOM      1  C   UNL     1      33.353 -25.368   6.704  1.00  0.00     0.062 C 
ATOM      2  C   UNL     1      32.140 -25.098   7.617  1.00  0.00     0.042 C 
ATOM      3  C   UNL     1      33.134 -24.626   5.366  1.00  0.00     0.042 C 
ENDROOT
BRANCH   1   4
ATOM      4  C   UNL     1      34.715 -24.940   7.368  1.00  0.00     0.021 C 
ATOM      5  C   UNL     1      38.978 -26.168   6.518  1.00  0.00     0.039 C 
ATOM      6  C   UNL     1      38.451 -24.773   6.297  1.00  0.00    -0.074 C 
ATOM      7  C   UNL     1      39.125 -23.962   5.459  1.00  0.00    -0.028 C 
ATOM      8  C   UNL     1      37.168 -24.343   7.006  1.00  0.00     0.021 C 
ATOM      9  C   UNL     1      38.787 -22.513   5.260  1.00  0.00     0.028 C 
ATOM     10  C   UNL     1      36.910 -22.793   6.985  1.00  0.00    -0.026 C 
ATOM     11  C   UNL     1      35.953 -25.109   6.442  1.00  0.00     0.015 C 
ATOM     12  C   UNL     1      37.334 -22.203   5.613  1.00  0.00     0.011 C 
ATOM     13  C   UNL     1      37.724 -22.127   8.122  1.00  0.00     0.012 C 
ATOM     14  C   UNL     1      35.392 -22.465   7.200  1.00  0.00     0.008 C 
ATOM     15  C   UNL     1      34.663 -23.531   8.031  1.00  0.00     0.007 C 
ENDBRANCH   1   4
BRANCH   1  16
ATOM     16  O   UNL     1      33.376 -26.754   6.446  1.00  0.00    -0.390 OA
ATOM     17  H   UNL     1      33.355 -26.887   5.462  1.00  0.00     0.211 HD
ENDBRANCH   1  16
TORSDOF 2
ENDMDL
