MODEL 1
REMARK VINA RESULT:    -3.871      0.000      0.000
REMARK INTER + INTRA:          -5.559
REMARK INTER:                  -5.456
REMARK INTRA:                  -0.103
REMARK UNBOUND:                -0.103
REMARK SMILES CC1=CCC(=C(C)C)C(=O)CC(C)=CCC1
REMARK SMILES IDX 12 1 14 2 13 3 15 4 16 5 2 6 1 7 3 8 11 10 9 11 10 12 5 13
REMARK SMILES IDX 6 14 7 15 8 16 4 17
REMARK H PARENT
REMARK Flexibility Score: 60.00
ROOT
ATOM      1  C   UNL     1      18.097  46.665  20.617  1.00  0.00    -0.070 C 
ATOM      2  C   UNL     1      19.069  45.732  20.747  1.00  0.00    -0.027 C 
ATOM      3  C   UNL     1      18.488  48.029  20.110  1.00  0.00     0.039 C 
ENDROOT
BRANCH   2   4
ATOM      4  C   UNL     1      18.882  44.373  21.373  1.00  0.00     0.032 C 
BRANCH   4   5
ATOM      5  C   UNL     1      18.554  43.341  20.288  1.00  0.00     0.034 C 
BRANCH   5   6
ATOM      6  C   UNL     1      17.421  42.418  20.691  1.00  0.00    -0.077 C 
ATOM      7  C   UNL     1      17.691  41.353  21.724  1.00  0.00     0.039 C 
ATOM      8  C   UNL     1      16.153  42.538  20.226  1.00  0.00    -0.023 CG0
ATOM      9  G   UNL     1      15.650  43.484  19.149  1.00  0.00     0.000 G0
ENDBRANCH   5   6
ENDBRANCH   4   5
ENDBRANCH   2   4
BRANCH   1  10
ATOM     10  C   UNL     1      16.639  46.401  20.935  1.00  0.00     0.111 C 
BRANCH  10  11
ATOM     11  C   UNL     1      15.855  46.011  19.705  1.00  0.00     0.163 C 
ATOM     12  O   UNL     1      15.952  46.767  18.700  1.00  0.00    -0.294 OA
BRANCH  11  13
ATOM     13  C   UNL     1      15.002  44.780  19.615  1.00  0.00    -0.002 C 
ATOM     14  C   UNL     1      13.647  44.859  19.792  1.00  0.00    -0.069 C 
ATOM     15  C   UNL     1      12.729  43.698  19.483  1.00  0.00     0.039 C 
ATOM     16  C   UNL     1      12.995  46.101  20.357  1.00  0.00     0.039 C 
BRANCH  13  17
ATOM     17  C   UNL     1      15.662  43.489  19.143  1.00  0.00     0.066 CG0
ATOM     18  G   UNL     1      16.167  42.553  20.227  1.00  0.00     0.000 G0
ENDBRANCH  13  17
ENDBRANCH  11  13
ENDBRANCH  10  11
ENDBRANCH   1  10
TORSDOF 0
ENDMDL
MODEL 2
REMARK VINA RESULT:    -3.706      1.427      1.948
REMARK INTER + INTRA:          -5.326
REMARK INTER:                  -5.318
REMARK INTRA:                  -0.008
REMARK UNBOUND:                -0.103
REMARK SMILES CC1=CCC(=C(C)C)C(=O)CC(C)=CCC1
REMARK SMILES IDX 12 1 14 2 13 3 15 4 16 5 2 6 1 7 3 8 11 10 9 11 10 12 5 13
REMARK SMILES IDX 6 14 7 15 8 16 4 17
REMARK H PARENT
REMARK Flexibility Score: 60.00
ROOT
ATOM      1  C   UNL     1      18.747  47.536  20.300  1.00  0.00    -0.070 C 
ATOM      2  C   UNL     1      20.018  47.071  20.330  1.00  0.00    -0.027 C 
ATOM      3  C   UNL     1      18.490  48.853  19.613  1.00  0.00     0.039 C 
ENDROOT
BRANCH   2   4
ATOM      4  C   UNL     1      20.474  45.855  21.096  1.00  0.00     0.032 C 
BRANCH   4   5
ATOM      5  C   UNL     1      20.525  44.641  20.162  1.00  0.00     0.034 C 
BRANCH   5   6
ATOM      6  C   UNL     1      19.809  43.436  20.738  1.00  0.00    -0.077 C 
ATOM      7  C   UNL     1      20.510  42.615  21.790  1.00  0.00     0.039 C 
ATOM      8  C   UNL     1      18.539  43.091  20.413  1.00  0.00    -0.023 CG0
ATOM      9  G   UNL     1      17.654  43.720  19.350  1.00  0.00     0.000 G0
ENDBRANCH   5   6
ENDBRANCH   4   5
ENDBRANCH   2   4
BRANCH   1  10
ATOM     10  C   UNL     1      17.573  46.793  20.903  1.00  0.00     0.111 C 
BRANCH  10  11
ATOM     11  C   UNL     1      16.749  46.092  19.850  1.00  0.00     0.163 C 
ATOM     12  O   UNL     1      16.256  46.808  18.937  1.00  0.00    -0.294 OA
BRANCH  11  13
ATOM     13  C   UNL     1      16.511  44.610  19.825  1.00  0.00    -0.002 C 
ATOM     14  C   UNL     1      15.264  44.101  20.069  1.00  0.00    -0.069 C 
ATOM     15  C   UNL     1      14.931  42.646  19.828  1.00  0.00     0.039 C 
ATOM     16  C   UNL     1      14.160  44.960  20.644  1.00  0.00     0.039 C 
BRANCH  13  17
ATOM     17  C   UNL     1      17.648  43.715  19.345  1.00  0.00     0.066 CG0
ATOM     18  G   UNL     1      18.527  43.101  20.421  1.00  0.00     0.000 G0
ENDBRANCH  13  17
ENDBRANCH  11  13
ENDBRANCH  10  11
ENDBRANCH   1  10
TORSDOF 0
ENDMDL
MODEL 3
REMARK VINA RESULT:    -3.685      2.054      3.823
REMARK INTER + INTRA:          -5.296
REMARK INTER:                  -5.407
REMARK INTRA:                   0.111
REMARK UNBOUND:                -0.103
REMARK SMILES CC1=CCC(=C(C)C)C(=O)CC(C)=CCC1
REMARK SMILES IDX 12 1 14 2 13 3 15 4 16 5 2 6 1 7 3 8 11 10 9 11 10 12 5 13
REMARK SMILES IDX 6 14 7 15 8 16 4 17
REMARK H PARENT
REMARK Flexibility Score: 60.00
ROOT
ATOM      1  C   UNL     1      14.254  43.485  19.849  1.00  0.00    -0.070 C 
ATOM      2  C   UNL     1      15.503  42.965  19.843  1.00  0.00    -0.027 C 
ATOM      3  C   UNL     1      13.266  42.969  18.835  1.00  0.00     0.039 C 
ENDROOT
BRANCH   2   4
ATOM      4  C   UNL     1      16.651  43.465  20.682  1.00  0.00     0.032 C 
BRANCH   4   5
ATOM      5  C   UNL     1      17.564  44.358  19.836  1.00  0.00     0.034 C 
BRANCH   5   6
ATOM      6  C   UNL     1      17.428  45.826  20.189  1.00  0.00    -0.077 C 
ATOM      7  C   UNL     1      18.282  46.383  21.301  1.00  0.00     0.039 C 
ATOM      8  C   UNL     1      16.632  46.690  19.513  1.00  0.00    -0.023 CG0
ATOM      9  G   UNL     1      15.645  46.363  18.405  1.00  0.00     0.000 G0
ENDBRANCH   5   6
ENDBRANCH   4   5
ENDBRANCH   2   4
BRANCH   1  10
ATOM     10  C   UNL     1      13.796  44.543  20.833  1.00  0.00     0.111 C 
BRANCH  10  11
ATOM     11  C   UNL     1      13.876  45.931  20.246  1.00  0.00     0.163 C 
ATOM     12  O   UNL     1      13.689  46.898  21.034  1.00  0.00    -0.294 OA
BRANCH  11  13
ATOM     13  C   UNL     1      14.182  46.212  18.804  1.00  0.00    -0.002 C 
ATOM     14  C   UNL     1      13.174  46.484  17.919  1.00  0.00    -0.069 C 
ATOM     15  C   UNL     1      13.450  46.996  16.524  1.00  0.00     0.039 C 
ATOM     16  C   UNL     1      11.724  46.238  18.274  1.00  0.00     0.039 C 
BRANCH  13  17
ATOM     17  C   UNL     1      15.645  46.363  18.404  1.00  0.00     0.066 CG0
ATOM     18  G   UNL     1      16.622  46.688  19.521  1.00  0.00     0.000 G0
ENDBRANCH  13  17
ENDBRANCH  11  13
ENDBRANCH  10  11
ENDBRANCH   1  10
TORSDOF 0
ENDMDL
MODEL 4
REMARK VINA RESULT:    -3.458      2.538      4.735
REMARK INTER + INTRA:          -4.977
REMARK INTER:                  -4.856
REMARK INTRA:                  -0.121
REMARK UNBOUND:                -0.103
REMARK SMILES CC1=CCC(=C(C)C)C(=O)CC(C)=CCC1
REMARK SMILES IDX 12 1 14 2 13 3 15 4 16 5 2 6 1 7 3 8 11 10 9 11 10 12 5 13
REMARK SMILES IDX 6 14 7 15 8 16 4 17
REMARK H PARENT
REMARK Flexibility Score: 60.00
ROOT
ATOM      1  C   UNL     1      20.641  43.822  21.386  1.00  0.00    -0.070 C 
ATOM      2  C   UNL     1      19.940  44.964  21.196  1.00  0.00    -0.027 C 
ATOM      3  C   UNL     1      21.726  43.823  22.432  1.00  0.00     0.039 C 
ENDROOT
BRANCH   2   4
ATOM      4  C   UNL     1      18.928  45.183  20.100  1.00  0.00     0.032 C 
BRANCH   4   5
ATOM      5  C   UNL     1      17.513  45.170  20.688  1.00  0.00     0.034 C 
BRANCH   5   6
ATOM      6  C   UNL     1      16.535  44.394  19.828  1.00  0.00    -0.077 C 
ATOM      7  C   UNL     1      15.840  45.112  18.698  1.00  0.00     0.039 C 
ATOM      8  C   UNL     1      16.299  43.067  19.970  1.00  0.00    -0.023 CG0
ATOM      9  G   UNL     1      16.828  42.147  21.057  1.00  0.00     0.000 G0
ENDBRANCH   5   6
ENDBRANCH   4   5
ENDBRANCH   2   4
BRANCH   1  10
ATOM     10  C   UNL     1      20.376  42.543  20.618  1.00  0.00     0.111 C 
BRANCH  10  11
ATOM     11  C   UNL     1      19.363  41.667  21.313  1.00  0.00     0.163 C 
ATOM     12  O   UNL     1      19.656  41.258  22.469  1.00  0.00    -0.294 OA
BRANCH  11  13
ATOM     13  C   UNL     1      18.040  41.286  20.715  1.00  0.00    -0.002 C 
ATOM     14  C   UNL     1      17.903  40.116  20.018  1.00  0.00    -0.069 C 
ATOM     15  C   UNL     1      16.550  39.584  19.603  1.00  0.00     0.039 C 
ATOM     16  C   UNL     1      19.108  39.313  19.578  1.00  0.00     0.039 C 
BRANCH  13  17
ATOM     17  C   UNL     1      16.828  42.142  21.064  1.00  0.00     0.066 CG0
ATOM     18  G   UNL     1      16.307  43.055  19.968  1.00  0.00     0.000 G0
ENDBRANCH  13  17
ENDBRANCH  11  13
ENDBRANCH  10  11
ENDBRANCH   1  10
TORSDOF 0
ENDMDL
MODEL 5
REMARK VINA RESULT:    -3.424      2.077      5.149
REMARK INTER + INTRA:          -4.928
REMARK INTER:                  -4.811
REMARK INTRA:                  -0.117
REMARK UNBOUND:                -0.103
REMARK SMILES CC1=CCC(=C(C)C)C(=O)CC(C)=CCC1
REMARK SMILES IDX 12 1 14 2 13 3 15 4 16 5 2 6 1 7 3 8 11 10 9 11 10 12 5 13
REMARK SMILES IDX 6 14 7 15 8 16 4 17
REMARK H PARENT
REMARK Flexibility Score: 60.00
ROOT
ATOM      1  C   UNL     1      15.048  44.128  19.894  1.00  0.00    -0.070 C 
ATOM      2  C   UNL     1      14.910  45.473  19.824  1.00  0.00    -0.027 C 
ATOM      3  C   UNL     1      14.063  43.275  19.137  1.00  0.00     0.039 C 
ENDROOT
BRANCH   2   4
ATOM      4  C   UNL     1      15.710  46.465  20.630  1.00  0.00     0.032 C 
BRANCH   4   5
ATOM      5  C   UNL     1      16.969  46.871  19.856  1.00  0.00     0.034 C 
BRANCH   5   6
ATOM      6  C   UNL     1      18.180  47.018  20.756  1.00  0.00    -0.077 C 
ATOM      7  C   UNL     1      18.233  48.187  21.708  1.00  0.00     0.039 C 
ATOM      8  C   UNL     1      19.192  46.118  20.807  1.00  0.00    -0.023 CG0
ATOM      9  G   UNL     1      19.392  44.903  19.917  1.00  0.00     0.000 G0
ENDBRANCH   5   6
ENDBRANCH   4   5
ENDBRANCH   2   4
BRANCH   1  10
ATOM     10  C   UNL     1      16.150  43.442  20.676  1.00  0.00     0.111 C 
BRANCH  10  11
ATOM     11  C   UNL     1      17.405  43.276  19.853  1.00  0.00     0.163 C 
ATOM     12  O   UNL     1      17.264  42.862  18.670  1.00  0.00    -0.294 OA
BRANCH  11  13
ATOM     13  C   UNL     1      18.782  43.593  20.358  1.00  0.00    -0.002 C 
ATOM     14  C   UNL     1      19.500  42.658  21.053  1.00  0.00    -0.069 C 
ATOM     15  C   UNL     1      20.965  42.849  21.375  1.00  0.00     0.039 C 
ATOM     16  C   UNL     1      18.852  41.398  21.584  1.00  0.00     0.039 C 
BRANCH  13  17
ATOM     17  C   UNL     1      19.416  44.907  19.917  1.00  0.00     0.066 CG0
ATOM     18  G   UNL     1      19.185  46.106  20.820  1.00  0.00     0.000 G0
ENDBRANCH  13  17
ENDBRANCH  11  13
ENDBRANCH  10  11
ENDBRANCH   1  10
TORSDOF 0
ENDMDL
MODEL 6
REMARK VINA RESULT:    -3.322      2.178      4.728
REMARK INTER + INTRA:          -4.784
REMARK INTER:                  -4.653
REMARK INTRA:                  -0.131
REMARK UNBOUND:                -0.103
REMARK SMILES CC1=CCC(=C(C)C)C(=O)CC(C)=CCC1
REMARK SMILES IDX 12 1 14 2 13 3 15 4 16 5 2 6 1 7 3 8 11 10 9 11 10 12 5 13
REMARK SMILES IDX 6 14 7 15 8 16 4 17
REMARK H PARENT
REMARK Flexibility Score: 60.00
ROOT
ATOM      1  C   UNL     1      15.711  43.666  19.610  1.00  0.00    -0.070 C 
ATOM      2  C   UNL     1      15.271  42.408  19.847  1.00  0.00    -0.027 C 
ATOM      3  C   UNL     1      14.688  44.766  19.502  1.00  0.00     0.039 C 
ENDROOT
BRANCH   2   4
ATOM      4  C   UNL     1      16.138  41.174  19.839  1.00  0.00     0.032 C 
BRANCH   4   5
ATOM      5  C   UNL     1      16.653  40.890  21.254  1.00  0.00     0.034 C 
BRANCH   5   6
ATOM      6  C   UNL     1      18.129  40.549  21.276  1.00  0.00    -0.077 C 
ATOM      7  C   UNL     1      18.568  39.210  20.737  1.00  0.00     0.039 C 
ATOM      8  C   UNL     1      19.093  41.408  21.689  1.00  0.00    -0.023 CG0
ATOM      9  G   UNL     1      18.900  42.777  22.320  1.00  0.00     0.000 G0
ENDBRANCH   5   6
ENDBRANCH   4   5
ENDBRANCH   2   4
BRANCH   1  10
ATOM     10  C   UNL     1      17.177  44.023  19.468  1.00  0.00     0.111 C 
BRANCH  10  11
ATOM     11  C   UNL     1      17.763  44.525  20.766  1.00  0.00     0.163 C 
ATOM     12  O   UNL     1      17.128  45.433  21.368  1.00  0.00    -0.294 OA
BRANCH  11  13
ATOM     13  C   UNL     1      19.027  43.992  21.373  1.00  0.00    -0.002 C 
ATOM     14  C   UNL     1      20.211  44.660  21.215  1.00  0.00    -0.069 C 
ATOM     15  C   UNL     1      21.452  44.289  21.995  1.00  0.00     0.039 C 
ATOM     16  C   UNL     1      20.357  45.780  20.208  1.00  0.00     0.039 C 
BRANCH  13  17
ATOM     17  C   UNL     1      18.916  42.797  22.313  1.00  0.00     0.066 CG0
ATOM     18  G   UNL     1      19.088  41.424  21.686  1.00  0.00     0.000 G0
ENDBRANCH  13  17
ENDBRANCH  11  13
ENDBRANCH  10  11
ENDBRANCH   1  10
TORSDOF 0
ENDMDL
MODEL 7
REMARK VINA RESULT:    -3.279      3.322      5.763
REMARK INTER + INTRA:          -4.724
REMARK INTER:                  -4.638
REMARK INTRA:                  -0.086
REMARK UNBOUND:                -0.103
REMARK SMILES CC1=CCC(=C(C)C)C(=O)CC(C)=CCC1
REMARK SMILES IDX 12 1 14 2 13 3 15 4 16 5 2 6 1 7 3 8 11 10 9 11 10 12 5 13
REMARK SMILES IDX 6 14 7 15 8 16 4 17
REMARK H PARENT
REMARK Flexibility Score: 60.00
ROOT
ATOM      1  C   UNL     1      18.114  44.459  20.449  1.00  0.00    -0.070 C 
ATOM      2  C   UNL     1      17.418  43.693  19.577  1.00  0.00    -0.027 C 
ATOM      3  C   UNL     1      17.419  45.651  21.055  1.00  0.00     0.039 C 
ENDROOT
BRANCH   2   4
ATOM      4  C   UNL     1      17.999  42.558  18.771  1.00  0.00     0.032 C 
BRANCH   4   5
ATOM      5  C   UNL     1      17.917  41.255  19.573  1.00  0.00     0.034 C 
BRANCH   5   6
ATOM      6  C   UNL     1      19.159  40.400  19.420  1.00  0.00    -0.077 C 
ATOM      7  C   UNL     1      19.443  39.773  18.078  1.00  0.00     0.039 C 
ATOM      8  C   UNL     1      20.075  40.224  20.404  1.00  0.00    -0.023 CG0
ATOM      9  G   UNL     1      19.986  40.701  21.844  1.00  0.00     0.000 G0
ENDBRANCH   5   6
ENDBRANCH   4   5
ENDBRANCH   2   4
BRANCH   1  10
ATOM     10  C   UNL     1      19.543  44.168  20.859  1.00  0.00     0.111 C 
BRANCH  10  11
ATOM     11  C   UNL     1      19.611  43.244  22.051  1.00  0.00     0.163 C 
ATOM     12  O   UNL     1      18.810  43.471  22.998  1.00  0.00    -0.294 OA
BRANCH  11  13
ATOM     13  C   UNL     1      20.551  42.079  22.151  1.00  0.00    -0.002 C 
ATOM     14  C   UNL     1      21.815  42.246  22.648  1.00  0.00    -0.069 C 
ATOM     15  C   UNL     1      22.707  41.071  22.982  1.00  0.00     0.039 C 
ATOM     16  C   UNL     1      22.411  43.622  22.844  1.00  0.00     0.039 C 
BRANCH  13  17
ATOM     17  C   UNL     1      19.996  40.690  21.858  1.00  0.00     0.066 CG0
ATOM     18  G   UNL     1      20.069  40.222  20.415  1.00  0.00     0.000 G0
ENDBRANCH  13  17
ENDBRANCH  11  13
ENDBRANCH  10  11
ENDBRANCH   1  10
TORSDOF 0
ENDMDL
MODEL 8
REMARK VINA RESULT:    -3.227      2.896      6.122
REMARK INTER + INTRA:          -4.651
REMARK INTER:                  -4.510
REMARK INTRA:                  -0.141
REMARK UNBOUND:                -0.103
REMARK SMILES CC1=CCC(=C(C)C)C(=O)CC(C)=CCC1
REMARK SMILES IDX 12 1 14 2 13 3 15 4 16 5 2 6 1 7 3 8 11 10 9 11 10 12 5 13
REMARK SMILES IDX 6 14 7 15 8 16 4 17
REMARK H PARENT
REMARK Flexibility Score: 60.00
ROOT
ATOM      1  C   UNL     1      16.674  40.769  20.572  1.00  0.00    -0.070 C 
ATOM      2  C   UNL     1      16.045  41.725  19.849  1.00  0.00    -0.027 C 
ATOM      3  C   UNL     1      16.456  39.329  20.185  1.00  0.00     0.039 C 
ENDROOT
BRANCH   2   4
ATOM      4  C   UNL     1      16.034  43.194  20.185  1.00  0.00     0.032 C 
BRANCH   4   5
ATOM      5  C   UNL     1      17.169  43.907  19.442  1.00  0.00     0.034 C 
BRANCH   5   6
ATOM      6  C   UNL     1      17.907  44.895  20.322  1.00  0.00    -0.077 C 
ATOM      7  C   UNL     1      17.228  46.195  20.674  1.00  0.00     0.039 C 
ATOM      8  C   UNL     1      19.121  44.649  20.873  1.00  0.00    -0.023 CG0
ATOM      9  G   UNL     1      20.022  43.451  20.626  1.00  0.00     0.000 G0
ENDBRANCH   5   6
ENDBRANCH   4   5
ENDBRANCH   2   4
BRANCH   1  10
ATOM     10  C   UNL     1      17.599  41.075  21.732  1.00  0.00     0.111 C 
BRANCH  10  11
ATOM     11  C   UNL     1      19.042  41.154  21.297  1.00  0.00     0.163 C 
ATOM     12  O   UNL     1      19.485  40.198  20.605  1.00  0.00    -0.294 OA
BRANCH  11  13
ATOM     13  C   UNL     1      19.952  42.302  21.623  1.00  0.00    -0.002 C 
ATOM     14  C   UNL     1      20.798  42.236  22.697  1.00  0.00    -0.069 C 
ATOM     15  C   UNL     1      21.885  43.262  22.924  1.00  0.00     0.039 C 
ATOM     16  C   UNL     1      20.658  41.157  23.747  1.00  0.00     0.039 C 
BRANCH  13  17
ATOM     17  C   UNL     1      20.032  43.452  20.625  1.00  0.00     0.066 CG0
ATOM     18  G   UNL     1      19.118  44.638  20.884  1.00  0.00     0.000 G0
ENDBRANCH  13  17
ENDBRANCH  11  13
ENDBRANCH  10  11
ENDBRANCH   1  10
TORSDOF 0
ENDMDL
MODEL 9
REMARK VINA RESULT:    -3.103      8.422      9.305
REMARK INTER + INTRA:          -4.476
REMARK INTER:                  -4.427
REMARK INTRA:                  -0.049
REMARK UNBOUND:                -0.103
REMARK SMILES CC1=CCC(=C(C)C)C(=O)CC(C)=CCC1
REMARK SMILES IDX 12 1 14 2 13 3 15 4 16 5 2 6 1 7 3 8 11 10 9 11 10 12 5 13
REMARK SMILES IDX 6 14 7 15 8 16 4 17
REMARK H PARENT
REMARK Flexibility Score: 60.00
ROOT
ATOM      1  C   UNL     1      16.185  40.417  28.892  1.00  0.00    -0.070 C 
ATOM      2  C   UNL     1      17.456  40.583  28.456  1.00  0.00    -0.027 C 
ATOM      3  C   UNL     1      15.473  41.612  29.472  1.00  0.00     0.039 C 
ENDROOT
BRANCH   2   4
ATOM      4  C   UNL     1      18.360  39.470  27.988  1.00  0.00     0.032 C 
BRANCH   4   5
ATOM      5  C   UNL     1      18.451  39.483  26.458  1.00  0.00     0.034 C 
BRANCH   5   6
ATOM      6  C   UNL     1      18.214  38.114  25.852  1.00  0.00    -0.077 C 
ATOM      7  C   UNL     1      19.378  37.160  25.748  1.00  0.00     0.039 C 
ATOM      8  C   UNL     1      16.996  37.666  25.460  1.00  0.00    -0.023 CG0
ATOM      9  G   UNL     1      15.696  38.451  25.412  1.00  0.00     0.000 G0
ENDBRANCH   5   6
ENDBRANCH   4   5
ENDBRANCH   2   4
BRANCH   1  10
ATOM     10  C   UNL     1      15.440  39.100  28.809  1.00  0.00     0.111 C 
BRANCH  10  11
ATOM     11  C   UNL     1      14.502  39.057  27.628  1.00  0.00     0.163 C 
ATOM     12  O   UNL     1      13.555  39.889  27.617  1.00  0.00    -0.294 OA
BRANCH  11  13
ATOM     13  C   UNL     1      14.651  38.104  26.477  1.00  0.00    -0.002 C 
ATOM     14  C   UNL     1      13.774  37.066  26.316  1.00  0.00    -0.069 C 
ATOM     15  C   UNL     1      13.745  36.229  25.057  1.00  0.00     0.039 C 
ATOM     16  C   UNL     1      12.815  36.664  27.415  1.00  0.00     0.039 C 
BRANCH  13  17
ATOM     17  C   UNL     1      15.685  38.437  25.408  1.00  0.00     0.066 CG0
ATOM     18  G   UNL     1      16.993  37.666  25.468  1.00  0.00     0.000 G0
ENDBRANCH  13  17
ENDBRANCH  11  13
ENDBRANCH  10  11
ENDBRANCH   1  10
TORSDOF 0
ENDMDL
