MODEL 1
REMARK VINA RESULT:    -6.802      0.000      0.000
REMARK INTER + INTRA:         -14.614
REMARK INTER:                 -12.766
REMARK INTRA:                  -1.847
REMARK UNBOUND:                -1.847
REMARK SMILES CCCCCCCCC=CCCCCCCCC(=O)[O-]
REMARK SMILES IDX 10 1 9 2 11 3 12 4 13 5 14 6 15 7 16 8 17 9 18 10 19 11
REMARK SMILES IDX 20 12 8 13 7 14 6 15 5 16 4 17 3 18 2 19 1 20
REMARK H PARENT
REMARK Flexibility Score: inf
ROOT
ATOM      1  C   UNL     1      14.995  70.669  76.449  1.00  0.00    -0.031 C 
ATOM      2  C   UNL     1      14.060  69.915  75.840  1.00  0.00    -0.031 C 
ENDROOT
BRANCH   1   3
ATOM      3  C   UNL     1      16.226  71.215  75.773  1.00  0.00     0.027 C 
BRANCH   3   4
ATOM      4  C   UNL     1      17.341  71.468  76.794  1.00  0.00     0.004 C 
BRANCH   4   5
ATOM      5  C   UNL     1      16.933  70.965  78.187  1.00  0.00     0.000 C 
BRANCH   5   6
ATOM      6  C   UNL     1      17.884  69.885  78.730  1.00  0.00     0.000 C 
BRANCH   6   7
ATOM      7  C   UNL     1      19.366  70.248  78.531  1.00  0.00     0.000 C 
BRANCH   7   8
ATOM      8  C   UNL     1      20.098  69.269  77.593  1.00  0.00     0.006 C 
BRANCH   8   9
ATOM      9  C   UNL     1      20.545  69.885  76.258  1.00  0.00     0.053 C 
BRANCH   9  10
ATOM     10  C   UNL     1      22.017  69.729  76.031  1.00  0.00     0.041 C 
ATOM     11  O   UNL     1      22.733  69.153  76.890  1.00  0.00    -0.550 OA
ATOM     12  O   UNL     1      22.604  70.253  74.884  1.00  0.00    -0.550 OA
ENDBRANCH   9  10
ENDBRANCH   8   9
ENDBRANCH   7   8
ENDBRANCH   6   7
ENDBRANCH   5   6
ENDBRANCH   4   5
ENDBRANCH   3   4
ENDBRANCH   1   3
BRANCH   2  13
ATOM     13  C   UNL     1      14.056  69.578  74.371  1.00  0.00     0.027 C 
BRANCH  13  14
ATOM     14  C   UNL     1      13.505  70.747  73.546  1.00  0.00     0.004 C 
BRANCH  14  15
ATOM     15  C   UNL     1      14.460  71.106  72.399  1.00  0.00     0.000 C 
BRANCH  15  16
ATOM     16  C   UNL     1      14.713  72.619  72.287  1.00  0.00     0.000 C 
BRANCH  16  17
ATOM     17  C   UNL     1      16.194  72.953  72.040  1.00  0.00    -0.000 C 
BRANCH  17  18
ATOM     18  C   UNL     1      17.117  71.743  72.259  1.00  0.00    -0.000 C 
BRANCH  18  19
ATOM     19  C   UNL     1      18.445  72.124  72.928  1.00  0.00    -0.003 C 
ATOM     20  C   UNL     1      19.499  71.042  72.712  1.00  0.00     0.004 C 
ENDBRANCH  18  19
ENDBRANCH  17  18
ENDBRANCH  16  17
ENDBRANCH  15  16
ENDBRANCH  14  15
ENDBRANCH  13  14
ENDBRANCH   2  13
TORSDOF 15
ENDMDL
MODEL 2
REMARK VINA RESULT:    -6.796      1.260      4.281
REMARK INTER + INTRA:         -14.602
REMARK INTER:                 -12.925
REMARK INTRA:                  -1.678
REMARK UNBOUND:                -1.847
REMARK SMILES CCCCCCCCC=CCCCCCCCC(=O)[O-]
REMARK SMILES IDX 10 1 9 2 11 3 12 4 13 5 14 6 15 7 16 8 17 9 18 10 19 11
REMARK SMILES IDX 20 12 8 13 7 14 6 15 5 16 4 17 3 18 2 19 1 20
REMARK H PARENT
REMARK Flexibility Score: inf
ROOT
ATOM      1  C   UNL     1      15.508  70.935  72.268  1.00  0.00    -0.031 C 
ATOM      2  C   UNL     1      14.393  70.214  72.501  1.00  0.00    -0.031 C 
ENDROOT
BRANCH   1   3
ATOM      3  C   UNL     1      15.597  72.434  72.392  1.00  0.00     0.027 C 
BRANCH   3   4
ATOM      4  C   UNL     1      17.060  72.892  72.404  1.00  0.00     0.004 C 
BRANCH   4   5
ATOM      5  C   UNL     1      17.994  71.755  71.965  1.00  0.00     0.000 C 
BRANCH   5   6
ATOM      6  C   UNL     1      19.470  72.038  72.290  1.00  0.00     0.000 C 
BRANCH   6   7
ATOM      7  C   UNL     1      20.434  71.365  71.297  1.00  0.00     0.000 C 
BRANCH   7   8
ATOM      8  C   UNL     1      21.436  70.421  71.987  1.00  0.00     0.006 C 
BRANCH   8   9
ATOM      9  C   UNL     1      21.312  70.373  73.519  1.00  0.00     0.053 C 
BRANCH   9  10
ATOM     10  C   UNL     1      22.636  70.551  74.197  1.00  0.00     0.041 C 
ATOM     11  O   UNL     1      22.744  70.357  75.435  1.00  0.00    -0.550 OA
ATOM     12  O   UNL     1      23.743  70.963  73.464  1.00  0.00    -0.550 OA
ENDBRANCH   9  10
ENDBRANCH   8   9
ENDBRANCH   7   8
ENDBRANCH   6   7
ENDBRANCH   5   6
ENDBRANCH   4   5
ENDBRANCH   3   4
ENDBRANCH   1   3
BRANCH   2  13
ATOM     13  C   UNL     1      13.095  70.788  73.008  1.00  0.00     0.027 C 
BRANCH  13  14
ATOM     14  C   UNL     1      13.163  71.038  74.519  1.00  0.00     0.004 C 
BRANCH  14  15
ATOM     15  C   UNL     1      13.992  69.950  75.218  1.00  0.00     0.000 C 
BRANCH  15  16
ATOM     16  C   UNL     1      14.871  70.508  76.350  1.00  0.00     0.000 C 
BRANCH  16  17
ATOM     17  C   UNL     1      16.152  71.180  75.825  1.00  0.00    -0.000 C 
BRANCH  17  18
ATOM     18  C   UNL     1      17.246  71.284  76.900  1.00  0.00    -0.000 C 
BRANCH  18  19
ATOM     19  C   UNL     1      18.646  71.489  76.303  1.00  0.00    -0.003 C 
ATOM     20  C   UNL     1      19.621  70.433  76.815  1.00  0.00     0.004 C 
ENDBRANCH  18  19
ENDBRANCH  17  18
ENDBRANCH  16  17
ENDBRANCH  15  16
ENDBRANCH  14  15
ENDBRANCH  13  14
ENDBRANCH   2  13
TORSDOF 15
ENDMDL
MODEL 3
REMARK VINA RESULT:    -6.782      1.136      2.481
REMARK INTER + INTRA:         -14.576
REMARK INTER:                 -12.813
REMARK INTRA:                  -1.763
REMARK UNBOUND:                -1.847
REMARK SMILES CCCCCCCCC=CCCCCCCCC(=O)[O-]
REMARK SMILES IDX 10 1 9 2 11 3 12 4 13 5 14 6 15 7 16 8 17 9 18 10 19 11
REMARK SMILES IDX 20 12 8 13 7 14 6 15 5 16 4 17 3 18 2 19 1 20
REMARK H PARENT
REMARK Flexibility Score: inf
ROOT
ATOM      1  C   UNL     1      14.198  69.663  74.340  1.00  0.00    -0.031 C 
ATOM      2  C   UNL     1      14.365  70.154  73.096  1.00  0.00    -0.031 C 
ENDROOT
BRANCH   1   3
ATOM      3  C   UNL     1      13.812  70.489  75.540  1.00  0.00     0.027 C 
BRANCH   3   4
ATOM      4  C   UNL     1      14.908  70.441  76.609  1.00  0.00     0.004 C 
BRANCH   4   5
ATOM      5  C   UNL     1      16.186  71.137  76.117  1.00  0.00     0.000 C 
BRANCH   5   6
ATOM      6  C   UNL     1      17.301  71.153  77.175  1.00  0.00     0.000 C 
BRANCH   6   7
ATOM      7  C   UNL     1      18.622  71.728  76.633  1.00  0.00     0.000 C 
BRANCH   7   8
ATOM      8  C   UNL     1      19.435  70.695  75.831  1.00  0.00     0.006 C 
BRANCH   8   9
ATOM      9  C   UNL     1      20.354  69.808  76.687  1.00  0.00     0.053 C 
BRANCH   9  10
ATOM     10  C   UNL     1      21.771  69.829  76.199  1.00  0.00     0.041 C 
ATOM     11  O   UNL     1      22.632  69.075  76.722  1.00  0.00    -0.550 OA
ATOM     12  O   UNL     1      22.146  70.707  75.188  1.00  0.00    -0.550 OA
ENDBRANCH   9  10
ENDBRANCH   8   9
ENDBRANCH   7   8
ENDBRANCH   6   7
ENDBRANCH   5   6
ENDBRANCH   4   5
ENDBRANCH   3   4
ENDBRANCH   1   3
BRANCH   2  13
ATOM     13  C   UNL     1      14.103  71.584  72.699  1.00  0.00     0.027 C 
BRANCH  13  14
ATOM     14  C   UNL     1      15.418  72.353  72.534  1.00  0.00     0.004 C 
BRANCH  14  15
ATOM     15  C   UNL     1      16.527  71.434  71.999  1.00  0.00     0.000 C 
BRANCH  15  16
ATOM     16  C   UNL     1      17.916  71.791  72.557  1.00  0.00     0.000 C 
BRANCH  16  17
ATOM     17  C   UNL     1      19.049  71.472  71.566  1.00  0.00    -0.000 C 
BRANCH  17  18
ATOM     18  C   UNL     1      20.309  70.933  72.263  1.00  0.00    -0.000 C 
BRANCH  18  19
ATOM     19  C   UNL     1      20.893  69.699  71.560  1.00  0.00    -0.003 C 
ATOM     20  C   UNL     1      20.139  69.395  70.269  1.00  0.00     0.004 C 
ENDBRANCH  18  19
ENDBRANCH  17  18
ENDBRANCH  16  17
ENDBRANCH  15  16
ENDBRANCH  14  15
ENDBRANCH  13  14
ENDBRANCH   2  13
TORSDOF 15
ENDMDL
MODEL 4
REMARK VINA RESULT:    -6.726      1.708      3.281
REMARK INTER + INTRA:         -14.470
REMARK INTER:                 -12.797
REMARK INTRA:                  -1.673
REMARK UNBOUND:                -1.847
REMARK SMILES CCCCCCCCC=CCCCCCCCC(=O)[O-]
REMARK SMILES IDX 10 1 9 2 11 3 12 4 13 5 14 6 15 7 16 8 17 9 18 10 19 11
REMARK SMILES IDX 20 12 8 13 7 14 6 15 5 16 4 17 3 18 2 19 1 20
REMARK H PARENT
REMARK Flexibility Score: inf
ROOT
ATOM      1  C   UNL     1      13.993  69.764  73.837  1.00  0.00    -0.031 C 
ATOM      2  C   UNL     1      14.523  70.108  72.648  1.00  0.00    -0.031 C 
ENDROOT
BRANCH   1   3
ATOM      3  C   UNL     1      13.875  70.690  75.021  1.00  0.00     0.027 C 
BRANCH   3   4
ATOM      4  C   UNL     1      14.394  70.014  76.294  1.00  0.00     0.004 C 
BRANCH   4   5
ATOM      5  C   UNL     1      15.634  70.741  76.836  1.00  0.00     0.000 C 
BRANCH   5   6
ATOM      6  C   UNL     1      16.441  71.444  75.731  1.00  0.00     0.000 C 
BRANCH   6   7
ATOM      7  C   UNL     1      17.942  71.526  76.059  1.00  0.00     0.000 C 
BRANCH   7   8
ATOM      8  C   UNL     1      18.283  70.937  77.440  1.00  0.00     0.006 C 
BRANCH   8   9
ATOM      9  C   UNL     1      19.546  70.061  77.462  1.00  0.00     0.053 C 
BRANCH   9  10
ATOM     10  C   UNL     1      19.921  69.647  78.853  1.00  0.00     0.041 C 
ATOM     11  O   UNL     1      19.472  70.279  79.844  1.00  0.00    -0.550 OA
ATOM     12  O   UNL     1      20.792  68.582  79.051  1.00  0.00    -0.550 OA
ENDBRANCH   9  10
ENDBRANCH   8   9
ENDBRANCH   7   8
ENDBRANCH   6   7
ENDBRANCH   5   6
ENDBRANCH   4   5
ENDBRANCH   3   4
ENDBRANCH   1   3
BRANCH   2  13
ATOM     13  C   UNL     1      14.996  71.494  72.291  1.00  0.00     0.027 C 
BRANCH  13  14
ATOM     14  C   UNL     1      16.512  71.511  72.066  1.00  0.00     0.004 C 
BRANCH  14  15
ATOM     15  C   UNL     1      17.056  72.947  72.105  1.00  0.00     0.000 C 
BRANCH  15  16
ATOM     16  C   UNL     1      18.590  73.000  72.189  1.00  0.00     0.000 C 
BRANCH  16  17
ATOM     17  C   UNL     1      19.255  71.723  71.644  1.00  0.00    -0.000 C 
BRANCH  17  18
ATOM     18  C   UNL     1      20.210  71.075  72.659  1.00  0.00    -0.000 C 
BRANCH  18  19
ATOM     19  C   UNL     1      21.012  69.911  72.058  1.00  0.00    -0.003 C 
ATOM     20  C   UNL     1      20.467  69.518  70.689  1.00  0.00     0.004 C 
ENDBRANCH  18  19
ENDBRANCH  17  18
ENDBRANCH  16  17
ENDBRANCH  15  16
ENDBRANCH  14  15
ENDBRANCH  13  14
ENDBRANCH   2  13
TORSDOF 15
ENDMDL
MODEL 5
REMARK VINA RESULT:    -6.713      2.344      5.153
REMARK INTER + INTRA:         -14.447
REMARK INTER:                 -12.909
REMARK INTRA:                  -1.538
REMARK UNBOUND:                -1.847
REMARK SMILES CCCCCCCCC=CCCCCCCCC(=O)[O-]
REMARK SMILES IDX 10 1 9 2 11 3 12 4 13 5 14 6 15 7 16 8 17 9 18 10 19 11
REMARK SMILES IDX 20 12 8 13 7 14 6 15 5 16 4 17 3 18 2 19 1 20
REMARK H PARENT
REMARK Flexibility Score: inf
ROOT
ATOM      1  C   UNL     1      14.634  70.691  72.394  1.00  0.00    -0.031 C 
ATOM      2  C   UNL     1      14.190  69.954  73.431  1.00  0.00    -0.031 C 
ENDROOT
BRANCH   1   3
ATOM      3  C   UNL     1      14.532  72.192  72.306  1.00  0.00     0.027 C 
BRANCH   3   4
ATOM      4  C   UNL     1      15.915  72.840  72.430  1.00  0.00     0.004 C 
BRANCH   4   5
ATOM      5  C   UNL     1      17.019  71.858  72.010  1.00  0.00     0.000 C 
BRANCH   5   6
ATOM      6  C   UNL     1      18.408  72.267  72.528  1.00  0.00     0.000 C 
BRANCH   6   7
ATOM      7  C   UNL     1      19.310  71.055  72.821  1.00  0.00     0.000 C 
BRANCH   7   8
ATOM      8  C   UNL     1      20.562  71.014  71.924  1.00  0.00     0.006 C 
BRANCH   8   9
ATOM      9  C   UNL     1      21.020  69.599  71.538  1.00  0.00     0.053 C 
BRANCH   9  10
ATOM     10  C   UNL     1      20.520  69.193  70.186  1.00  0.00     0.041 C 
ATOM     11  O   UNL     1      19.932  68.092  70.031  1.00  0.00    -0.550 OA
ATOM     12  O   UNL     1      20.734  70.020  69.089  1.00  0.00    -0.550 OA
ENDBRANCH   9  10
ENDBRANCH   8   9
ENDBRANCH   7   8
ENDBRANCH   6   7
ENDBRANCH   5   6
ENDBRANCH   4   5
ENDBRANCH   3   4
ENDBRANCH   1   3
BRANCH   2  13
ATOM     13  C   UNL     1      13.608  70.526  74.699  1.00  0.00     0.027 C 
BRANCH  13  14
ATOM     14  C   UNL     1      14.153  69.790  75.928  1.00  0.00     0.004 C 
BRANCH  14  15
ATOM     15  C   UNL     1      15.163  70.664  76.687  1.00  0.00     0.000 C 
BRANCH  15  16
ATOM     16  C   UNL     1      16.316  71.152  75.794  1.00  0.00     0.000 C 
BRANCH  16  17
ATOM     17  C   UNL     1      17.574  71.517  76.602  1.00  0.00    -0.000 C 
BRANCH  17  18
ATOM     18  C   UNL     1      17.683  70.724  77.915  1.00  0.00    -0.000 C 
BRANCH  18  19
ATOM     19  C   UNL     1      19.134  70.565  78.392  1.00  0.00    -0.003 C 
ATOM     20  C   UNL     1      19.734  69.252  77.895  1.00  0.00     0.004 C 
ENDBRANCH  18  19
ENDBRANCH  17  18
ENDBRANCH  16  17
ENDBRANCH  15  16
ENDBRANCH  14  15
ENDBRANCH  13  14
ENDBRANCH   2  13
TORSDOF 15
ENDMDL
MODEL 6
REMARK VINA RESULT:    -6.687      2.767      5.977
REMARK INTER + INTRA:         -14.398
REMARK INTER:                 -12.543
REMARK INTRA:                  -1.855
REMARK UNBOUND:                -1.847
REMARK SMILES CCCCCCCCC=CCCCCCCCC(=O)[O-]
REMARK SMILES IDX 10 1 9 2 11 3 12 4 13 5 14 6 15 7 16 8 17 9 18 10 19 11
REMARK SMILES IDX 20 12 8 13 7 14 6 15 5 16 4 17 3 18 2 19 1 20
REMARK H PARENT
REMARK Flexibility Score: inf
ROOT
ATOM      1  C   UNL     1      20.026  70.898  74.329  1.00  0.00    -0.031 C 
ATOM      2  C   UNL     1      18.989  71.369  73.610  1.00  0.00    -0.031 C 
ENDROOT
BRANCH   1   3
ATOM      3  C   UNL     1      21.300  71.659  74.592  1.00  0.00     0.027 C 
BRANCH   3   4
ATOM      4  C   UNL     1      22.524  70.819  74.212  1.00  0.00     0.004 C 
BRANCH   4   5
ATOM      5  C   UNL     1      23.303  71.473  73.062  1.00  0.00     0.000 C 
BRANCH   5   6
ATOM      6  C   UNL     1      22.541  72.644  72.418  1.00  0.00     0.000 C 
BRANCH   6   7
ATOM      7  C   UNL     1      22.974  72.902  70.964  1.00  0.00     0.000 C 
BRANCH   7   8
ATOM      8  C   UNL     1      22.229  72.010  69.954  1.00  0.00     0.006 C 
BRANCH   8   9
ATOM      9  C   UNL     1      20.886  71.460  70.462  1.00  0.00     0.053 C 
BRANCH   9  10
ATOM     10  C   UNL     1      20.798  69.971  70.323  1.00  0.00     0.041 C 
ATOM     11  O   UNL     1      20.386  69.459  69.250  1.00  0.00    -0.550 OA
ATOM     12  O   UNL     1      21.141  69.151  71.391  1.00  0.00    -0.550 OA
ENDBRANCH   9  10
ENDBRANCH   8   9
ENDBRANCH   7   8
ENDBRANCH   6   7
ENDBRANCH   5   6
ENDBRANCH   4   5
ENDBRANCH   3   4
ENDBRANCH   1   3
BRANCH   2  13
ATOM     13  C   UNL     1      18.908  72.760  73.037  1.00  0.00     0.027 C 
BRANCH  13  14
ATOM     14  C   UNL     1      17.682  72.905  72.129  1.00  0.00     0.004 C 
BRANCH  14  15
ATOM     15  C   UNL     1      16.952  71.563  71.976  1.00  0.00     0.000 C 
BRANCH  15  16
ATOM     16  C   UNL     1      15.549  71.574  72.606  1.00  0.00     0.000 C 
BRANCH  16  17
ATOM     17  C   UNL     1      14.774  70.270  72.344  1.00  0.00    -0.000 C 
BRANCH  17  18
ATOM     18  C   UNL     1      13.963  69.810  73.566  1.00  0.00    -0.000 C 
BRANCH  18  19
ATOM     19  C   UNL     1      14.220  70.676  74.808  1.00  0.00    -0.003 C 
ATOM     20  C   UNL     1      14.114  69.849  76.086  1.00  0.00     0.004 C 
ENDBRANCH  18  19
ENDBRANCH  17  18
ENDBRANCH  16  17
ENDBRANCH  15  16
ENDBRANCH  14  15
ENDBRANCH  13  14
ENDBRANCH   2  13
TORSDOF 15
ENDMDL
MODEL 7
REMARK VINA RESULT:    -6.637      2.205      5.611
REMARK INTER + INTRA:         -14.304
REMARK INTER:                 -12.831
REMARK INTRA:                  -1.473
REMARK UNBOUND:                -1.847
REMARK SMILES CCCCCCCCC=CCCCCCCCC(=O)[O-]
REMARK SMILES IDX 10 1 9 2 11 3 12 4 13 5 14 6 15 7 16 8 17 9 18 10 19 11
REMARK SMILES IDX 20 12 8 13 7 14 6 15 5 16 4 17 3 18 2 19 1 20
REMARK H PARENT
REMARK Flexibility Score: inf
ROOT
ATOM      1  C   UNL     1      19.256  73.125  71.283  1.00  0.00    -0.031 C 
ATOM      2  C   UNL     1      18.074  73.766  71.366  1.00  0.00    -0.031 C 
ENDROOT
BRANCH   1   3
ATOM      3  C   UNL     1      19.451  71.654  71.545  1.00  0.00     0.027 C 
BRANCH   3   4
ATOM      4  C   UNL     1      20.770  71.164  70.939  1.00  0.00     0.004 C 
BRANCH   4   5
ATOM      5  C   UNL     1      21.524  72.317  70.261  1.00  0.00     0.000 C 
BRANCH   5   6
ATOM      6  C   UNL     1      22.894  72.593  70.905  1.00  0.00     0.000 C 
BRANCH   6   7
ATOM      7  C   UNL     1      22.782  72.965  72.394  1.00  0.00     0.000 C 
BRANCH   7   8
ATOM      8  C   UNL     1      23.617  72.043  73.302  1.00  0.00     0.006 C 
BRANCH   8   9
ATOM      9  C   UNL     1      23.021  70.640  73.501  1.00  0.00     0.053 C 
BRANCH   9  10
ATOM     10  C   UNL     1      22.189  70.552  74.743  1.00  0.00     0.041 C 
ATOM     11  O   UNL     1      21.092  71.164  74.816  1.00  0.00    -0.550 OA
ATOM     12  O   UNL     1      22.643  69.820  75.834  1.00  0.00    -0.550 OA
ENDBRANCH   9  10
ENDBRANCH   8   9
ENDBRANCH   7   8
ENDBRANCH   6   7
ENDBRANCH   5   6
ENDBRANCH   4   5
ENDBRANCH   3   4
ENDBRANCH   1   3
BRANCH   2  13
ATOM     13  C   UNL     1      16.754  73.093  71.642  1.00  0.00     0.027 C 
BRANCH  13  14
ATOM     14  C   UNL     1      16.491  73.007  73.149  1.00  0.00     0.004 C 
BRANCH  14  15
ATOM     15  C   UNL     1      16.178  71.563  73.570  1.00  0.00     0.000 C 
BRANCH  15  16
ATOM     16  C   UNL     1      15.520  70.746  72.445  1.00  0.00     0.000 C 
BRANCH  16  17
ATOM     17  C   UNL     1      14.235  70.036  72.906  1.00  0.00    -0.000 C 
BRANCH  17  18
ATOM     18  C   UNL     1      13.699  70.592  74.236  1.00  0.00    -0.000 C 
BRANCH  18  19
ATOM     19  C   UNL     1      13.983  69.662  75.424  1.00  0.00    -0.003 C 
ATOM     20  C   UNL     1      14.745  70.395  76.525  1.00  0.00     0.004 C 
ENDBRANCH  18  19
ENDBRANCH  17  18
ENDBRANCH  16  17
ENDBRANCH  15  16
ENDBRANCH  14  15
ENDBRANCH  13  14
ENDBRANCH   2  13
TORSDOF 15
ENDMDL
MODEL 8
REMARK VINA RESULT:    -6.594      2.284      5.070
REMARK INTER + INTRA:         -14.223
REMARK INTER:                 -12.668
REMARK INTRA:                  -1.554
REMARK UNBOUND:                -1.847
REMARK SMILES CCCCCCCCC=CCCCCCCCC(=O)[O-]
REMARK SMILES IDX 10 1 9 2 11 3 12 4 13 5 14 6 15 7 16 8 17 9 18 10 19 11
REMARK SMILES IDX 20 12 8 13 7 14 6 15 5 16 4 17 3 18 2 19 1 20
REMARK H PARENT
REMARK Flexibility Score: inf
ROOT
ATOM      1  C   UNL     1      21.050  70.127  71.688  1.00  0.00    -0.031 C 
ATOM      2  C   UNL     1      19.889  70.646  71.243  1.00  0.00    -0.031 C 
ENDROOT
BRANCH   1   3
ATOM      3  C   UNL     1      22.027  70.855  72.575  1.00  0.00     0.027 C 
BRANCH   3   4
ATOM      4  C   UNL     1      21.996  70.288  73.998  1.00  0.00     0.004 C 
BRANCH   4   5
ATOM      5  C   UNL     1      20.933  71.000  74.849  1.00  0.00     0.000 C 
BRANCH   5   6
ATOM      6  C   UNL     1      20.130  70.030  75.731  1.00  0.00     0.000 C 
BRANCH   6   7
ATOM      7  C   UNL     1      20.867  69.665  77.032  1.00  0.00     0.000 C 
BRANCH   7   8
ATOM      8  C   UNL     1      20.006  68.815  77.985  1.00  0.00     0.006 C 
BRANCH   8   9
ATOM      9  C   UNL     1      19.387  69.602  79.152  1.00  0.00     0.053 C 
BRANCH   9  10
ATOM     10  C   UNL     1      17.933  69.885  78.931  1.00  0.00     0.041 C 
ATOM     11  O   UNL     1      17.057  69.177  79.493  1.00  0.00    -0.550 OA
ATOM     12  O   UNL     1      17.546  70.910  78.076  1.00  0.00    -0.550 OA
ENDBRANCH   9  10
ENDBRANCH   8   9
ENDBRANCH   7   8
ENDBRANCH   6   7
ENDBRANCH   5   6
ENDBRANCH   4   5
ENDBRANCH   3   4
ENDBRANCH   1   3
BRANCH   2  13
ATOM     13  C   UNL     1      19.349  71.996  71.638  1.00  0.00     0.027 C 
BRANCH  13  14
ATOM     14  C   UNL     1      17.844  71.921  71.918  1.00  0.00     0.004 C 
BRANCH  14  15
ATOM     15  C   UNL     1      17.568  71.907  73.429  1.00  0.00     0.000 C 
BRANCH  15  16
ATOM     16  C   UNL     1      16.066  71.947  73.759  1.00  0.00     0.000 C 
BRANCH  16  17
ATOM     17  C   UNL     1      15.220  71.141  72.758  1.00  0.00    -0.000 C 
BRANCH  17  18
ATOM     18  C   UNL     1      14.365  70.062  73.442  1.00  0.00    -0.000 C 
BRANCH  18  19
ATOM     19  C   UNL     1      13.612  70.594  74.670  1.00  0.00    -0.003 C 
ATOM     20  C   UNL     1      13.992  69.815  75.926  1.00  0.00     0.004 C 
ENDBRANCH  18  19
ENDBRANCH  17  18
ENDBRANCH  16  17
ENDBRANCH  15  16
ENDBRANCH  14  15
ENDBRANCH  13  14
ENDBRANCH   2  13
TORSDOF 15
ENDMDL
MODEL 9
REMARK VINA RESULT:    -6.491      5.476      8.248
REMARK INTER + INTRA:         -14.030
REMARK INTER:                 -12.433
REMARK INTRA:                  -1.597
REMARK UNBOUND:                -1.847
REMARK SMILES CCCCCCCCC=CCCCCCCCC(=O)[O-]
REMARK SMILES IDX 10 1 9 2 11 3 12 4 13 5 14 6 15 7 16 8 17 9 18 10 19 11
REMARK SMILES IDX 20 12 8 13 7 14 6 15 5 16 4 17 3 18 2 19 1 20
REMARK H PARENT
REMARK Flexibility Score: inf
ROOT
ATOM      1  C   UNL     1      14.044  70.274  73.552  1.00  0.00    -0.031 C 
ATOM      2  C   UNL     1      15.263  70.779  73.823  1.00  0.00    -0.031 C 
ENDROOT
BRANCH   1   3
ATOM      3  C   UNL     1      12.992  70.973  72.729  1.00  0.00     0.027 C 
BRANCH   3   4
ATOM      4  C   UNL     1      12.094  71.840  73.619  1.00  0.00     0.004 C 
BRANCH   4   5
ATOM      5  C   UNL     1      11.736  73.159  72.916  1.00  0.00     0.000 C 
BRANCH   5   6
ATOM      6  C   UNL     1      12.416  73.306  71.545  1.00  0.00     0.000 C 
BRANCH   6   7
ATOM      7  C   UNL     1      11.405  73.344  70.385  1.00  0.00     0.000 C 
BRANCH   7   8
ATOM      8  C   UNL     1      11.071  71.942  69.841  1.00  0.00     0.006 C 
BRANCH   8   9
ATOM      9  C   UNL     1       9.622  71.494  70.090  1.00  0.00     0.053 C 
BRANCH   9  10
ATOM     10  C   UNL     1       9.537  70.405  71.115  1.00  0.00     0.041 C 
ATOM     11  O   UNL     1       9.936  69.244  70.841  1.00  0.00    -0.550 OA
ATOM     12  O   UNL     1       8.984  70.667  72.363  1.00  0.00    -0.550 OA
ENDBRANCH   9  10
ENDBRANCH   8   9
ENDBRANCH   7   8
ENDBRANCH   6   7
ENDBRANCH   5   6
ENDBRANCH   4   5
ENDBRANCH   3   4
ENDBRANCH   1   3
BRANCH   2  13
ATOM     13  C   UNL     1      15.792  72.078  73.271  1.00  0.00     0.027 C 
BRANCH  13  14
ATOM     14  C   UNL     1      16.629  71.834  72.010  1.00  0.00     0.004 C 
BRANCH  14  15
ATOM     15  C   UNL     1      17.491  73.061  71.678  1.00  0.00     0.000 C 
BRANCH  15  16
ATOM     16  C   UNL     1      18.997  72.783  71.812  1.00  0.00     0.000 C 
BRANCH  16  17
ATOM     17  C   UNL     1      19.316  71.279  71.876  1.00  0.00    -0.000 C 
BRANCH  17  18
ATOM     18  C   UNL     1      20.487  70.884  70.961  1.00  0.00    -0.000 C 
BRANCH  18  19
ATOM     19  C   UNL     1      20.690  69.364  70.882  1.00  0.00    -0.003 C 
ATOM     20  C   UNL     1      19.963  68.775  69.676  1.00  0.00     0.004 C 
ENDBRANCH  18  19
ENDBRANCH  17  18
ENDBRANCH  16  17
ENDBRANCH  15  16
ENDBRANCH  14  15
ENDBRANCH  13  14
ENDBRANCH   2  13
TORSDOF 15
ENDMDL
