MODEL 1
REMARK VINA RESULT:    -3.441      0.000      0.000
REMARK INTER + INTRA:          -7.897
REMARK INTER:                  -5.856
REMARK INTRA:                  -2.041
REMARK UNBOUND:                -2.041
REMARK SMILES CCCCCCCCCCCCCC(=O)[O-]
REMARK SMILES IDX 8 1 9 2 10 3 11 4 12 5 13 6 14 7 15 8 16 9 7 10 6 11 5 12
REMARK SMILES IDX 4 13 3 14 2 15 1 16
REMARK H PARENT
REMARK Flexibility Score: inf
ROOT
ATOM      1  C   UNL     1       0.212 -17.912  -8.039  1.00  0.00     0.000 C 
ENDROOT
BRANCH   1   2
ATOM      2  C   UNL     1       0.191 -16.592  -8.820  1.00  0.00     0.000 C 
BRANCH   2   3
ATOM      3  C   UNL     1       0.059 -15.393  -7.873  1.00  0.00     0.000 C 
BRANCH   3   4
ATOM      4  C   UNL     1       0.788 -15.654  -6.549  1.00  0.00     0.000 C 
BRANCH   4   5
ATOM      5  C   UNL     1       0.123 -14.890  -5.395  1.00  0.00     0.006 C 
BRANCH   5   6
ATOM      6  C   UNL     1      -0.663 -13.667  -5.885  1.00  0.00     0.053 C 
BRANCH   6   7
ATOM      7  C   UNL     1      -1.059 -12.770  -4.753  1.00  0.00     0.041 C 
ATOM      8  O   UNL     1      -2.213 -12.848  -4.256  1.00  0.00    -0.550 OA
ATOM      9  O   UNL     1      -0.143 -11.870  -4.224  1.00  0.00    -0.550 OA
ENDBRANCH   6   7
ENDBRANCH   5   6
ENDBRANCH   4   5
ENDBRANCH   3   4
ENDBRANCH   2   3
ENDBRANCH   1   2
BRANCH   1  10
ATOM     10  C   UNL     1      -0.825 -18.897  -8.599  1.00  0.00     0.000 C 
BRANCH  10  11
ATOM     11  C   UNL     1      -1.895 -18.208  -9.461  1.00  0.00    -0.000 C 
BRANCH  11  12
ATOM     12  C   UNL     1      -3.310 -18.753  -9.193  1.00  0.00    -0.000 C 
BRANCH  12  13
ATOM     13  C   UNL     1      -4.116 -17.859  -8.237  1.00  0.00    -0.000 C 
BRANCH  13  14
ATOM     14  C   UNL     1      -3.491 -16.466  -8.058  1.00  0.00    -0.000 C 
BRANCH  14  15
ATOM     15  C   UNL     1      -3.344 -16.119  -6.572  1.00  0.00    -0.003 C 
ATOM     16  C   UNL     1      -2.687 -17.261  -5.801  1.00  0.00     0.004 C 
ENDBRANCH  14  15
ENDBRANCH  13  14
ENDBRANCH  12  13
ENDBRANCH  11  12
ENDBRANCH  10  11
ENDBRANCH   1  10
TORSDOF 12
ENDMDL
MODEL 2
REMARK VINA RESULT:    -3.343     12.634     14.722
REMARK INTER + INTRA:          -7.729
REMARK INTER:                  -6.139
REMARK INTRA:                  -1.590
REMARK UNBOUND:                -2.041
REMARK SMILES CCCCCCCCCCCCCC(=O)[O-]
REMARK SMILES IDX 8 1 9 2 10 3 11 4 12 5 13 6 14 7 15 8 16 9 7 10 6 11 5 12
REMARK SMILES IDX 4 13 3 14 2 15 1 16
REMARK H PARENT
REMARK Flexibility Score: inf
ROOT
ATOM      1  C   UNL     1      13.319 -15.094  -5.108  1.00  0.00     0.000 C 
ENDROOT
BRANCH   1   2
ATOM      2  C   UNL     1      13.637 -14.258  -6.354  1.00  0.00     0.000 C 
BRANCH   2   3
ATOM      3  C   UNL     1      13.999 -15.157  -7.543  1.00  0.00     0.000 C 
BRANCH   3   4
ATOM      4  C   UNL     1      14.063 -16.629  -7.120  1.00  0.00     0.000 C 
BRANCH   4   5
ATOM      5  C   UNL     1      13.978 -17.557  -8.342  1.00  0.00     0.006 C 
BRANCH   5   6
ATOM      6  C   UNL     1      13.276 -16.887  -9.530  1.00  0.00     0.053 C 
BRANCH   6   7
ATOM      7  C   UNL     1      13.265 -17.772 -10.740  1.00  0.00     0.041 C 
ATOM      8  O   UNL     1      12.173 -18.168 -11.225  1.00  0.00    -0.550 OA
ATOM      9  O   UNL     1      14.460 -18.130 -11.351  1.00  0.00    -0.550 OA
ENDBRANCH   6   7
ENDBRANCH   5   6
ENDBRANCH   4   5
ENDBRANCH   3   4
ENDBRANCH   2   3
ENDBRANCH   1   2
BRANCH   1  10
ATOM     10  C   UNL     1      12.110 -14.518  -4.355  1.00  0.00     0.000 C 
BRANCH  10  11
ATOM     11  C   UNL     1      10.849 -15.386  -4.502  1.00  0.00    -0.000 C 
BRANCH  11  12
ATOM     12  C   UNL     1      11.171 -16.824  -4.946  1.00  0.00    -0.000 C 
BRANCH  12  13
ATOM     13  C   UNL     1      10.436 -17.222  -6.236  1.00  0.00    -0.000 C 
BRANCH  13  14
ATOM     14  C   UNL     1      10.761 -18.655  -6.686  1.00  0.00    -0.000 C 
BRANCH  14  15
ATOM     15  C   UNL     1      10.514 -18.825  -8.190  1.00  0.00    -0.003 C 
ATOM     16  C   UNL     1      10.012 -20.230  -8.512  1.00  0.00     0.004 C 
ENDBRANCH  14  15
ENDBRANCH  13  14
ENDBRANCH  12  13
ENDBRANCH  11  12
ENDBRANCH  10  11
ENDBRANCH   1  10
TORSDOF 12
ENDMDL
MODEL 3
REMARK VINA RESULT:    -3.326     12.818     15.071
REMARK INTER + INTRA:          -7.700
REMARK INTER:                  -6.161
REMARK INTRA:                  -1.539
REMARK UNBOUND:                -2.041
REMARK SMILES CCCCCCCCCCCCCC(=O)[O-]
REMARK SMILES IDX 8 1 9 2 10 3 11 4 12 5 13 6 14 7 15 8 16 9 7 10 6 11 5 12
REMARK SMILES IDX 4 13 3 14 2 15 1 16
REMARK H PARENT
REMARK Flexibility Score: inf
ROOT
ATOM      1  C   UNL     1      13.241 -16.906  -7.885  1.00  0.00     0.000 C 
ENDROOT
BRANCH   1   2
ATOM      2  C   UNL     1      12.433 -17.575  -6.766  1.00  0.00     0.000 C 
BRANCH   2   3
ATOM      3  C   UNL     1      10.954 -17.697  -7.151  1.00  0.00     0.000 C 
BRANCH   3   4
ATOM      4  C   UNL     1      10.634 -19.105  -7.666  1.00  0.00     0.000 C 
BRANCH   4   5
ATOM      5  C   UNL     1      10.559 -19.126  -9.200  1.00  0.00     0.006 C 
BRANCH   5   6
ATOM      6  C   UNL     1      11.749 -19.862  -9.829  1.00  0.00     0.053 C 
BRANCH   6   7
ATOM      7  C   UNL     1      12.474 -19.001 -10.819  1.00  0.00     0.041 C 
ATOM      8  O   UNL     1      12.030 -17.860 -11.111  1.00  0.00    -0.550 OA
ATOM      9  O   UNL     1      13.658 -19.446 -11.392  1.00  0.00    -0.550 OA
ENDBRANCH   6   7
ENDBRANCH   5   6
ENDBRANCH   4   5
ENDBRANCH   3   4
ENDBRANCH   2   3
ENDBRANCH   1   2
BRANCH   1  10
ATOM     10  C   UNL     1      14.355 -16.021  -7.305  1.00  0.00     0.000 C 
BRANCH  10  11
ATOM     11  C   UNL     1      14.063 -14.519  -7.462  1.00  0.00    -0.000 C 
BRANCH  11  12
ATOM     12  C   UNL     1      13.680 -13.850  -6.130  1.00  0.00    -0.000 C 
BRANCH  12  13
ATOM     13  C   UNL     1      14.103 -14.681  -4.908  1.00  0.00    -0.000 C 
BRANCH  13  14
ATOM     14  C   UNL     1      12.978 -14.829  -3.873  1.00  0.00    -0.000 C 
BRANCH  14  15
ATOM     15  C   UNL     1      11.615 -14.502  -4.495  1.00  0.00    -0.003 C 
ATOM     16  C   UNL     1      10.587 -15.583  -4.172  1.00  0.00     0.004 C 
ENDBRANCH  14  15
ENDBRANCH  13  14
ENDBRANCH  12  13
ENDBRANCH  11  12
ENDBRANCH  10  11
ENDBRANCH   1  10
TORSDOF 12
ENDMDL
MODEL 4
REMARK VINA RESULT:    -3.322     12.489     14.865
REMARK INTER + INTRA:          -7.693
REMARK INTER:                  -6.290
REMARK INTRA:                  -1.403
REMARK UNBOUND:                -2.041
REMARK SMILES CCCCCCCCCCCCCC(=O)[O-]
REMARK SMILES IDX 8 1 9 2 10 3 11 4 12 5 13 6 14 7 15 8 16 9 7 10 6 11 5 12
REMARK SMILES IDX 4 13 3 14 2 15 1 16
REMARK H PARENT
REMARK Flexibility Score: inf
ROOT
ATOM      1  C   UNL     1       9.945 -16.021  -5.098  1.00  0.00     0.000 C 
ENDROOT
BRANCH   1   2
ATOM      2  C   UNL     1      10.307 -17.277  -5.900  1.00  0.00     0.000 C 
BRANCH   2   3
ATOM      3  C   UNL     1      11.787 -17.266  -6.303  1.00  0.00     0.000 C 
BRANCH   3   4
ATOM      4  C   UNL     1      11.992 -17.950  -7.660  1.00  0.00     0.000 C 
BRANCH   4   5
ATOM      5  C   UNL     1      10.729 -18.711  -8.090  1.00  0.00     0.006 C 
BRANCH   5   6
ATOM      6  C   UNL     1      10.465 -18.593  -9.597  1.00  0.00     0.053 C 
BRANCH   6   7
ATOM      7  C   UNL     1      11.669 -18.969 -10.404  1.00  0.00     0.041 C 
ATOM      8  O   UNL     1      12.080 -20.160 -10.411  1.00  0.00    -0.550 OA
ATOM      9  O   UNL     1      12.317 -18.014 -11.175  1.00  0.00    -0.550 OA
ENDBRANCH   6   7
ENDBRANCH   5   6
ENDBRANCH   4   5
ENDBRANCH   3   4
ENDBRANCH   2   3
ENDBRANCH   1   2
BRANCH   1  10
ATOM     10  C   UNL     1      10.807 -15.910  -3.831  1.00  0.00     0.000 C 
BRANCH  10  11
ATOM     11  C   UNL     1      11.554 -14.570  -3.736  1.00  0.00    -0.000 C 
BRANCH  11  12
ATOM     12  C   UNL     1      13.045 -14.749  -3.400  1.00  0.00    -0.000 C 
BRANCH  12  13
ATOM     13  C   UNL     1      13.942 -14.695  -4.647  1.00  0.00    -0.000 C 
BRANCH  13  14
ATOM     14  C   UNL     1      13.275 -13.972  -5.827  1.00  0.00    -0.000 C 
BRANCH  14  15
ATOM     15  C   UNL     1      14.137 -14.077  -7.091  1.00  0.00    -0.003 C 
ATOM     16  C   UNL     1      14.885 -15.407  -7.139  1.00  0.00     0.004 C 
ENDBRANCH  14  15
ENDBRANCH  13  14
ENDBRANCH  12  13
ENDBRANCH  11  12
ENDBRANCH  10  11
ENDBRANCH   1  10
TORSDOF 12
ENDMDL
MODEL 5
REMARK VINA RESULT:    -3.272      2.840      5.383
REMARK INTER + INTRA:          -7.608
REMARK INTER:                  -5.706
REMARK INTRA:                  -1.901
REMARK UNBOUND:                -2.041
REMARK SMILES CCCCCCCCCCCCCC(=O)[O-]
REMARK SMILES IDX 8 1 9 2 10 3 11 4 12 5 13 6 14 7 15 8 16 9 7 10 6 11 5 12
REMARK SMILES IDX 4 13 3 14 2 15 1 16
REMARK H PARENT
REMARK Flexibility Score: inf
ROOT
ATOM      1  C   UNL     1       0.378 -14.910  -7.293  1.00  0.00     0.000 C 
ENDROOT
BRANCH   1   2
ATOM      2  C   UNL     1      -0.252 -15.757  -8.405  1.00  0.00     0.000 C 
BRANCH   2   3
ATOM      3  C   UNL     1       0.338 -17.173  -8.422  1.00  0.00     0.000 C 
BRANCH   3   4
ATOM      4  C   UNL     1      -0.739 -18.222  -8.121  1.00  0.00     0.000 C 
BRANCH   4   5
ATOM      5  C   UNL     1      -1.688 -18.394  -9.317  1.00  0.00     0.006 C 
BRANCH   5   6
ATOM      6  C   UNL     1      -3.163 -18.320  -8.902  1.00  0.00     0.053 C 
BRANCH   6   7
ATOM      7  C   UNL     1      -3.777 -17.001  -9.260  1.00  0.00     0.041 C 
ATOM      8  O   UNL     1      -4.408 -16.869 -10.341  1.00  0.00    -0.550 OA
ATOM      9  O   UNL     1      -3.680 -15.928  -8.384  1.00  0.00    -0.550 OA
ENDBRANCH   6   7
ENDBRANCH   5   6
ENDBRANCH   4   5
ENDBRANCH   3   4
ENDBRANCH   2   3
ENDBRANCH   1   2
BRANCH   1  10
ATOM     10  C   UNL     1      -0.700 -14.351  -6.352  1.00  0.00     0.000 C 
BRANCH  10  11
ATOM     11  C   UNL     1      -1.367 -15.441  -5.497  1.00  0.00    -0.000 C 
BRANCH  11  12
ATOM     12  C   UNL     1      -0.404 -16.053  -4.464  1.00  0.00    -0.000 C 
BRANCH  12  13
ATOM     13  C   UNL     1      -0.292 -17.581  -4.594  1.00  0.00    -0.000 C 
BRANCH  13  14
ATOM     14  C   UNL     1       1.162 -18.061  -4.722  1.00  0.00    -0.000 C 
BRANCH  14  15
ATOM     15  C   UNL     1       2.142 -16.923  -4.417  1.00  0.00    -0.003 C 
ATOM     16  C   UNL     1       3.113 -16.705  -5.575  1.00  0.00     0.004 C 
ENDBRANCH  14  15
ENDBRANCH  13  14
ENDBRANCH  12  13
ENDBRANCH  11  12
ENDBRANCH  10  11
ENDBRANCH   1  10
TORSDOF 12
ENDMDL
MODEL 6
REMARK VINA RESULT:    -3.240      1.825      3.643
REMARK INTER + INTRA:          -7.553
REMARK INTER:                  -5.890
REMARK INTRA:                  -1.663
REMARK UNBOUND:                -2.041
REMARK SMILES CCCCCCCCCCCCCC(=O)[O-]
REMARK SMILES IDX 8 1 9 2 10 3 11 4 12 5 13 6 14 7 15 8 16 9 7 10 6 11 5 12
REMARK SMILES IDX 4 13 3 14 2 15 1 16
REMARK H PARENT
REMARK Flexibility Score: inf
ROOT
ATOM      1  C   UNL     1      -1.048 -18.279  -8.790  1.00  0.00     0.000 C 
ENDROOT
BRANCH   1   2
ATOM      2  C   UNL     1      -1.075 -16.864  -8.198  1.00  0.00     0.000 C 
BRANCH   2   3
ATOM      3  C   UNL     1       0.080 -16.016  -8.744  1.00  0.00     0.000 C 
BRANCH   3   4
ATOM      4  C   UNL     1       0.499 -14.941  -7.734  1.00  0.00     0.000 C 
BRANCH   4   5
ATOM      5  C   UNL     1      -0.661 -14.592  -6.789  1.00  0.00     0.006 C 
BRANCH   5   6
ATOM      6  C   UNL     1      -0.184 -14.348  -5.351  1.00  0.00     0.053 C 
BRANCH   6   7
ATOM      7  C   UNL     1      -0.694 -13.047  -4.809  1.00  0.00     0.041 C 
ATOM      8  O   UNL     1      -1.933 -12.849  -4.699  1.00  0.00    -0.550 OA
ATOM      9  O   UNL     1       0.199 -12.067  -4.396  1.00  0.00    -0.550 OA
ENDBRANCH   6   7
ENDBRANCH   5   6
ENDBRANCH   4   5
ENDBRANCH   3   4
ENDBRANCH   2   3
ENDBRANCH   1   2
BRANCH   1  10
ATOM     10  C   UNL     1      -0.436 -19.278  -7.796  1.00  0.00     0.000 C 
BRANCH  10  11
ATOM     11  C   UNL     1       1.048 -19.565  -8.079  1.00  0.00    -0.000 C 
BRANCH  11  12
ATOM     12  C   UNL     1       1.925 -19.432  -6.822  1.00  0.00    -0.000 C 
BRANCH  12  13
ATOM     13  C   UNL     1       1.120 -19.013  -5.581  1.00  0.00    -0.000 C 
BRANCH  13  14
ATOM     14  C   UNL     1       1.452 -17.589  -5.111  1.00  0.00    -0.000 C 
BRANCH  14  15
ATOM     15  C   UNL     1       2.755 -17.092  -5.747  1.00  0.00    -0.003 C 
ATOM     16  C   UNL     1       3.914 -17.156  -4.755  1.00  0.00     0.004 C 
ENDBRANCH  14  15
ENDBRANCH  13  14
ENDBRANCH  12  13
ENDBRANCH  11  12
ENDBRANCH  10  11
ENDBRANCH   1  10
TORSDOF 12
ENDMDL
MODEL 7
REMARK VINA RESULT:    -3.227      2.004      3.903
REMARK INTER + INTRA:          -7.532
REMARK INTER:                  -6.537
REMARK INTRA:                  -0.996
REMARK UNBOUND:                -2.041
REMARK SMILES CCCCCCCCCCCCCC(=O)[O-]
REMARK SMILES IDX 8 1 9 2 10 3 11 4 12 5 13 6 14 7 15 8 16 9 7 10 6 11 5 12
REMARK SMILES IDX 4 13 3 14 2 15 1 16
REMARK H PARENT
REMARK Flexibility Score: inf
ROOT
ATOM      1  C   UNL     1      -1.154 -17.159  -8.486  1.00  0.00     0.000 C 
ENDROOT
BRANCH   1   2
ATOM      2  C   UNL     1       0.112 -16.315  -8.678  1.00  0.00     0.000 C 
BRANCH   2   3
ATOM      3  C   UNL     1       0.103 -15.091  -7.756  1.00  0.00     0.000 C 
BRANCH   3   4
ATOM      4  C   UNL     1       0.827 -15.389  -6.437  1.00  0.00     0.000 C 
BRANCH   4   5
ATOM      5  C   UNL     1       0.051 -14.818  -5.241  1.00  0.00     0.006 C 
BRANCH   5   6
ATOM      6  C   UNL     1      -0.939 -13.723  -5.661  1.00  0.00     0.053 C 
BRANCH   6   7
ATOM      7  C   UNL     1      -0.887 -12.543  -4.740  1.00  0.00     0.041 C 
ATOM      8  O   UNL     1       0.222 -12.088  -4.356  1.00  0.00    -0.550 OA
ATOM      9  O   UNL     1      -2.062 -11.927  -4.331  1.00  0.00    -0.550 OA
ENDBRANCH   6   7
ENDBRANCH   5   6
ENDBRANCH   4   5
ENDBRANCH   3   4
ENDBRANCH   2   3
ENDBRANCH   1   2
BRANCH   1  10
ATOM     10  C   UNL     1      -0.797 -18.622  -8.179  1.00  0.00     0.000 C 
BRANCH  10  11
ATOM     11  C   UNL     1       0.713 -18.837  -7.985  1.00  0.00    -0.000 C 
BRANCH  11  12
ATOM     12  C   UNL     1       1.136 -20.298  -8.219  1.00  0.00    -0.000 C 
BRANCH  12  13
ATOM     13  C   UNL     1       0.077 -21.304  -7.741  1.00  0.00    -0.000 C 
BRANCH  13  14
ATOM     14  C   UNL     1      -0.042 -22.526  -8.664  1.00  0.00    -0.000 C 
BRANCH  14  15
ATOM     15  C   UNL     1       0.331 -22.160 -10.106  1.00  0.00    -0.003 C 
ATOM     16  C   UNL     1      -0.863 -22.325 -11.043  1.00  0.00     0.004 C 
ENDBRANCH  14  15
ENDBRANCH  13  14
ENDBRANCH  12  13
ENDBRANCH  11  12
ENDBRANCH  10  11
ENDBRANCH   1  10
TORSDOF 12
ENDMDL
MODEL 8
REMARK VINA RESULT:    -3.169      3.037      4.898
REMARK INTER + INTRA:          -7.434
REMARK INTER:                  -6.253
REMARK INTRA:                  -1.181
REMARK UNBOUND:                -2.041
REMARK SMILES CCCCCCCCCCCCCC(=O)[O-]
REMARK SMILES IDX 8 1 9 2 10 3 11 4 12 5 13 6 14 7 15 8 16 9 7 10 6 11 5 12
REMARK SMILES IDX 4 13 3 14 2 15 1 16
REMARK H PARENT
REMARK Flexibility Score: inf
ROOT
ATOM      1  C   UNL     1      -2.713 -19.238  -9.308  1.00  0.00     0.000 C 
ENDROOT
BRANCH   1   2
ATOM      2  C   UNL     1      -1.589 -18.197  -9.246  1.00  0.00     0.000 C 
BRANCH   2   3
ATOM      3  C   UNL     1      -0.690 -18.428  -8.026  1.00  0.00     0.000 C 
BRANCH   3   4
ATOM      4  C   UNL     1       0.455 -17.409  -7.984  1.00  0.00     0.000 C 
BRANCH   4   5
ATOM      5  C   UNL     1       0.064 -16.112  -8.708  1.00  0.00     0.006 C 
BRANCH   5   6
ATOM      6  C   UNL     1      -0.033 -14.918  -7.749  1.00  0.00     0.053 C 
BRANCH   6   7
ATOM      7  C   UNL     1      -1.452 -14.628  -7.363  1.00  0.00     0.041 C 
ATOM      8  O   UNL     1      -2.378 -14.767  -8.205  1.00  0.00    -0.550 OA
ATOM      9  O   UNL     1      -1.755 -14.238  -6.065  1.00  0.00    -0.550 OA
ENDBRANCH   6   7
ENDBRANCH   5   6
ENDBRANCH   4   5
ENDBRANCH   3   4
ENDBRANCH   2   3
ENDBRANCH   1   2
BRANCH   1  10
ATOM     10  C   UNL     1      -2.609 -20.229  -8.139  1.00  0.00     0.000 C 
BRANCH  10  11
ATOM     11  C   UNL     1      -2.395 -21.678  -8.606  1.00  0.00    -0.000 C 
BRANCH  11  12
ATOM     12  C   UNL     1      -0.936 -22.141  -8.446  1.00  0.00    -0.000 C 
BRANCH  12  13
ATOM     13  C   UNL     1      -0.109 -21.940  -9.727  1.00  0.00    -0.000 C 
BRANCH  13  14
ATOM     14  C   UNL     1      -0.409 -22.999 -10.799  1.00  0.00    -0.000 C 
BRANCH  14  15
ATOM     15  C   UNL     1      -1.127 -22.374 -12.000  1.00  0.00    -0.003 C 
ATOM     16  C   UNL     1      -1.884 -23.429 -12.802  1.00  0.00     0.004 C 
ENDBRANCH  14  15
ENDBRANCH  13  14
ENDBRANCH  12  13
ENDBRANCH  11  12
ENDBRANCH  10  11
ENDBRANCH   1  10
TORSDOF 12
ENDMDL
MODEL 9
REMARK VINA RESULT:    -3.134      3.114      5.113
REMARK INTER + INTRA:          -7.374
REMARK INTER:                  -5.231
REMARK INTRA:                  -2.142
REMARK UNBOUND:                -2.041
REMARK SMILES CCCCCCCCCCCCCC(=O)[O-]
REMARK SMILES IDX 8 1 9 2 10 3 11 4 12 5 13 6 14 7 15 8 16 9 7 10 6 11 5 12
REMARK SMILES IDX 4 13 3 14 2 15 1 16
REMARK H PARENT
REMARK Flexibility Score: inf
ROOT
ATOM      1  C   UNL     1      -1.208 -14.339  -7.401  1.00  0.00     0.000 C 
ENDROOT
BRANCH   1   2
ATOM      2  C   UNL     1       0.112 -14.986  -7.839  1.00  0.00     0.000 C 
BRANCH   2   3
ATOM      3  C   UNL     1       0.860 -15.579  -6.639  1.00  0.00     0.000 C 
BRANCH   3   4
ATOM      4  C   UNL     1       0.881 -17.111  -6.706  1.00  0.00     0.000 C 
BRANCH   4   5
ATOM      5  C   UNL     1       0.542 -17.605  -8.120  1.00  0.00     0.006 C 
BRANCH   5   6
ATOM      6  C   UNL     1      -0.148 -18.975  -8.106  1.00  0.00     0.053 C 
BRANCH   6   7
ATOM      7  C   UNL     1      -1.580 -18.882  -8.535  1.00  0.00     0.041 C 
ATOM      8  O   UNL     1      -2.482 -19.442  -7.858  1.00  0.00    -0.550 OA
ATOM      9  O   UNL     1      -1.922 -18.149  -9.664  1.00  0.00    -0.550 OA
ENDBRANCH   6   7
ENDBRANCH   5   6
ENDBRANCH   4   5
ENDBRANCH   3   4
ENDBRANCH   2   3
ENDBRANCH   1   2
BRANCH   1  10
ATOM     10  C   UNL     1      -2.396 -15.274  -7.675  1.00  0.00     0.000 C 
BRANCH  10  11
ATOM     11  C   UNL     1      -2.804 -16.094  -6.440  1.00  0.00    -0.000 C 
BRANCH  11  12
ATOM     12  C   UNL     1      -2.778 -15.264  -5.145  1.00  0.00    -0.000 C 
BRANCH  12  13
ATOM     13  C   UNL     1      -1.837 -15.855  -4.083  1.00  0.00    -0.000 C 
BRANCH  13  14
ATOM     14  C   UNL     1      -0.853 -14.819  -3.517  1.00  0.00    -0.000 C 
BRANCH  14  15
ATOM     15  C   UNL     1      -1.341 -13.393  -3.798  1.00  0.00    -0.003 C 
ATOM     16  C   UNL     1      -0.216 -12.525  -4.355  1.00  0.00     0.004 C 
ENDBRANCH  14  15
ENDBRANCH  13  14
ENDBRANCH  12  13
ENDBRANCH  11  12
ENDBRANCH  10  11
ENDBRANCH   1  10
TORSDOF 12
ENDMDL
