MODEL 1
REMARK VINA RESULT:    -2.677      0.000      0.000
REMARK INTER + INTRA:          -4.545
REMARK INTER:                  -3.930
REMARK INTRA:                  -0.616
REMARK UNBOUND:                -0.616
REMARK SMILES CCCCCC(=O)CCCCC
REMARK SMILES IDX 6 1 7 2 5 3 4 4 3 5 2 6 1 7 8 8 9 9 10 10 11 11 12 12
REMARK H PARENT
REMARK Flexibility Score: inf
ROOT
ATOM      1  C   UNL     1     116.941 128.275 116.497  1.00  0.00     0.132 C 
ATOM      2  O   UNL     1     116.961 127.585 117.505  1.00  0.00    -0.300 OA
ENDROOT
BRANCH   1   3
ATOM      3  C   UNL     1     116.005 129.452 116.426  1.00  0.00     0.075 C 
BRANCH   3   4
ATOM      4  C   UNL     1     115.519 129.670 114.989  1.00  0.00     0.008 C 
BRANCH   4   5
ATOM      5  C   UNL     1     114.000 129.489 114.887  1.00  0.00     0.000 C 
BRANCH   5   6
ATOM      6  C   UNL     1     113.614 128.010 115.015  1.00  0.00    -0.003 C 
ATOM      7  C   UNL     1     112.310 127.846 115.792  1.00  0.00     0.004 C 
ENDBRANCH   5   6
ENDBRANCH   4   5
ENDBRANCH   3   4
ENDBRANCH   1   3
BRANCH   1   8
ATOM      8  C   UNL     1     117.841 127.920 115.342  1.00  0.00     0.075 C 
BRANCH   8   9
ATOM      9  C   UNL     1     117.828 126.404 115.094  1.00  0.00     0.008 C 
BRANCH   9  10
ATOM     10  C   UNL     1     119.250 125.807 115.045  1.00  0.00     0.000 C 
BRANCH  10  11
ATOM     11  C   UNL     1     120.230 126.469 116.027  1.00  0.00    -0.003 C 
ATOM     12  C   UNL     1     120.258 125.789 117.394  1.00  0.00     0.004 C 
ENDBRANCH  10  11
ENDBRANCH   9  10
ENDBRANCH   8   9
ENDBRANCH   1   8
TORSDOF 8
ENDMDL
MODEL 2
REMARK VINA RESULT:    -2.656     11.574     12.884
REMARK INTER + INTRA:          -4.513
REMARK INTER:                  -3.941
REMARK INTRA:                  -0.572
REMARK UNBOUND:                -0.616
REMARK SMILES CCCCCC(=O)CCCCC
REMARK SMILES IDX 6 1 7 2 5 3 4 4 3 5 2 6 1 7 8 8 9 9 10 10 11 11 12 12
REMARK H PARENT
REMARK Flexibility Score: inf
ROOT
ATOM      1  C   UNL     1     128.899 123.410 116.589  1.00  0.00     0.132 C 
ATOM      2  O   UNL     1     129.372 123.901 117.603  1.00  0.00    -0.300 OA
ENDROOT
BRANCH   1   3
ATOM      3  C   UNL     1     127.942 122.253 116.706  1.00  0.00     0.075 C 
BRANCH   3   4
ATOM      4  C   UNL     1     127.892 121.459 115.396  1.00  0.00     0.008 C 
BRANCH   4   5
ATOM      5  C   UNL     1     126.460 121.021 115.071  1.00  0.00     0.000 C 
BRANCH   5   6
ATOM      6  C   UNL     1     126.373 119.498 114.917  1.00  0.00    -0.003 C 
ATOM      7  C   UNL     1     126.466 118.800 116.271  1.00  0.00     0.004 C 
ENDBRANCH   5   6
ENDBRANCH   4   5
ENDBRANCH   3   4
ENDBRANCH   1   3
BRANCH   1   8
ATOM      8  C   UNL     1     129.299 123.962 115.245  1.00  0.00     0.075 C 
BRANCH   8   9
ATOM      9  C   UNL     1     128.470 125.210 114.906  1.00  0.00     0.008 C 
BRANCH   9  10
ATOM     10  C   UNL     1     129.317 126.499 114.926  1.00  0.00     0.000 C 
BRANCH  10  11
ATOM     11  C   UNL     1     128.977 127.441 116.093  1.00  0.00    -0.003 C 
ATOM     12  C   UNL     1     127.672 127.075 116.798  1.00  0.00     0.004 C 
ENDBRANCH  10  11
ENDBRANCH   9  10
ENDBRANCH   8   9
ENDBRANCH   1   8
TORSDOF 8
ENDMDL
MODEL 3
REMARK VINA RESULT:    -2.588      3.764      6.302
REMARK INTER + INTRA:          -4.414
REMARK INTER:                  -3.680
REMARK INTRA:                  -0.734
REMARK UNBOUND:                -0.616
REMARK SMILES CCCCCC(=O)CCCCC
REMARK SMILES IDX 6 1 7 2 5 3 4 4 3 5 2 6 1 7 8 8 9 9 10 10 11 11 12 12
REMARK H PARENT
REMARK Flexibility Score: inf
ROOT
ATOM      1  C   UNL     1     111.545 128.725 116.573  1.00  0.00     0.132 C 
ATOM      2  O   UNL     1     111.085 129.805 116.235  1.00  0.00    -0.300 OA
ENDROOT
BRANCH   1   3
ATOM      3  C   UNL     1     112.344 127.920 115.581  1.00  0.00     0.075 C 
BRANCH   3   4
ATOM      4  C   UNL     1     113.453 128.776 114.959  1.00  0.00     0.008 C 
BRANCH   4   5
ATOM      5  C   UNL     1     114.816 128.443 115.575  1.00  0.00     0.000 C 
BRANCH   5   6
ATOM      6  C   UNL     1     115.166 129.425 116.699  1.00  0.00    -0.003 C 
ATOM      7  C   UNL     1     115.039 128.764 118.069  1.00  0.00     0.004 C 
ENDBRANCH   5   6
ENDBRANCH   4   5
ENDBRANCH   3   4
ENDBRANCH   1   3
BRANCH   1   8
ATOM      8  C   UNL     1     111.287 128.215 117.967  1.00  0.00     0.075 C 
BRANCH   8   9
ATOM      9  C   UNL     1     111.772 126.764 118.109  1.00  0.00     0.008 C 
BRANCH   9  10
ATOM     10  C   UNL     1     110.603 125.759 118.157  1.00  0.00     0.000 C 
BRANCH  10  11
ATOM     11  C   UNL     1     110.726 124.724 119.287  1.00  0.00    -0.003 C 
ATOM     12  C   UNL     1     111.872 123.737 119.072  1.00  0.00     0.004 C 
ENDBRANCH  10  11
ENDBRANCH   9  10
ENDBRANCH   8   9
ENDBRANCH   1   8
TORSDOF 8
ENDMDL
MODEL 4
REMARK VINA RESULT:    -2.588      3.556      6.063
REMARK INTER + INTRA:          -4.414
REMARK INTER:                  -3.979
REMARK INTRA:                  -0.435
REMARK UNBOUND:                -0.616
REMARK SMILES CCCCCC(=O)CCCCC
REMARK SMILES IDX 6 1 7 2 5 3 4 4 3 5 2 6 1 7 8 8 9 9 10 10 11 11 12 12
REMARK H PARENT
REMARK Flexibility Score: inf
ROOT
ATOM      1  C   UNL     1     111.543 127.727 117.144  1.00  0.00     0.132 C 
ATOM      2  O   UNL     1     110.850 128.710 117.359  1.00  0.00    -0.300 OA
ENDROOT
BRANCH   1   3
ATOM      3  C   UNL     1     111.691 126.680 118.217  1.00  0.00     0.075 C 
BRANCH   3   4
ATOM      4  C   UNL     1     110.511 125.703 118.184  1.00  0.00     0.008 C 
BRANCH   4   5
ATOM      5  C   UNL     1     110.793 124.469 119.048  1.00  0.00     0.000 C 
BRANCH   5   6
ATOM      6  C   UNL     1     112.294 124.322 119.322  1.00  0.00    -0.003 C 
ATOM      7  C   UNL     1     112.757 122.884 119.099  1.00  0.00     0.004 C 
ENDBRANCH   5   6
ENDBRANCH   4   5
ENDBRANCH   3   4
ENDBRANCH   1   3
BRANCH   1   8
ATOM      8  C   UNL     1     112.248 127.596 115.819  1.00  0.00     0.075 C 
BRANCH   8   9
ATOM      9  C   UNL     1     112.445 128.976 115.174  1.00  0.00     0.008 C 
BRANCH   9  10
ATOM     10  C   UNL     1     113.930 129.282 114.890  1.00  0.00     0.000 C 
BRANCH  10  11
ATOM     11  C   UNL     1     114.843 129.094 116.113  1.00  0.00    -0.003 C 
ATOM     12  C   UNL     1     116.102 128.288 115.802  1.00  0.00     0.004 C 
ENDBRANCH  10  11
ENDBRANCH   9  10
ENDBRANCH   8   9
ENDBRANCH   1   8
TORSDOF 8
ENDMDL
MODEL 5
REMARK VINA RESULT:    -2.584      8.301     11.894
REMARK INTER + INTRA:          -4.408
REMARK INTER:                  -3.960
REMARK INTRA:                  -0.448
REMARK UNBOUND:                -0.616
REMARK SMILES CCCCCC(=O)CCCCC
REMARK SMILES IDX 6 1 7 2 5 3 4 4 3 5 2 6 1 7 8 8 9 9 10 10 11 11 12 12
REMARK H PARENT
REMARK Flexibility Score: inf
ROOT
ATOM      1  C   UNL     1     127.964 127.439 117.007  1.00  0.00     0.132 C 
ATOM      2  O   UNL     1     128.922 128.160 117.238  1.00  0.00    -0.300 OA
ENDROOT
BRANCH   1   3
ATOM      3  C   UNL     1     127.863 126.750 115.671  1.00  0.00     0.075 C 
BRANCH   3   4
ATOM      4  C   UNL     1     129.242 126.654 115.008  1.00  0.00     0.008 C 
BRANCH   4   5
ATOM      5  C   UNL     1     129.970 125.375 115.434  1.00  0.00     0.000 C 
BRANCH   5   6
ATOM      6  C   UNL     1     129.072 124.145 115.253  1.00  0.00    -0.003 C 
ATOM      7  C   UNL     1     129.042 123.293 116.519  1.00  0.00     0.004 C 
ENDBRANCH   5   6
ENDBRANCH   4   5
ENDBRANCH   3   4
ENDBRANCH   1   3
BRANCH   1   8
ATOM      8  C   UNL     1     126.896 127.271 118.056  1.00  0.00     0.075 C 
BRANCH   8   9
ATOM      9  C   UNL     1     126.071 128.560 118.197  1.00  0.00     0.008 C 
BRANCH   9  10
ATOM     10  C   UNL     1     124.609 128.277 118.599  1.00  0.00     0.000 C 
BRANCH  10  11
ATOM     11  C   UNL     1     124.407 126.907 119.268  1.00  0.00    -0.003 C 
ATOM     12  C   UNL     1     122.991 126.360 119.097  1.00  0.00     0.004 C 
ENDBRANCH  10  11
ENDBRANCH   9  10
ENDBRANCH   8   9
ENDBRANCH   1   8
TORSDOF 8
ENDMDL
MODEL 6
REMARK VINA RESULT:    -2.574      9.310     11.310
REMARK INTER + INTRA:          -4.394
REMARK INTER:                  -3.647
REMARK INTRA:                  -0.747
REMARK UNBOUND:                -0.616
REMARK SMILES CCCCCC(=O)CCCCC
REMARK SMILES IDX 6 1 7 2 5 3 4 4 3 5 2 6 1 7 8 8 9 9 10 10 11 11 12 12
REMARK H PARENT
REMARK Flexibility Score: inf
ROOT
ATOM      1  C   UNL     1     128.835 127.484 116.605  1.00  0.00     0.132 C 
ATOM      2  O   UNL     1     130.025 127.703 116.431  1.00  0.00    -0.300 OA
ENDROOT
BRANCH   1   3
ATOM      3  C   UNL     1     128.196 127.874 117.912  1.00  0.00     0.075 C 
BRANCH   3   4
ATOM      4  C   UNL     1     126.742 127.394 117.966  1.00  0.00     0.008 C 
BRANCH   4   5
ATOM      5  C   UNL     1     125.783 128.565 118.203  1.00  0.00     0.000 C 
BRANCH   5   6
ATOM      6  C   UNL     1     124.456 128.078 118.798  1.00  0.00    -0.003 C 
ATOM      7  C   UNL     1     124.378 128.379 120.292  1.00  0.00     0.004 C 
ENDBRANCH   5   6
ENDBRANCH   4   5
ENDBRANCH   3   4
ENDBRANCH   1   3
BRANCH   1   8
ATOM      8  C   UNL     1     128.041 126.811 115.515  1.00  0.00     0.075 C 
BRANCH   8   9
ATOM      9  C   UNL     1     128.821 125.621 114.936  1.00  0.00     0.008 C 
BRANCH   9  10
ATOM     10  C   UNL     1     128.458 124.291 115.630  1.00  0.00     0.000 C 
BRANCH  10  11
ATOM     11  C   UNL     1     129.369 123.949 116.820  1.00  0.00    -0.003 C 
ATOM     12  C   UNL     1     128.660 124.061 118.169  1.00  0.00     0.004 C 
ENDBRANCH  10  11
ENDBRANCH   9  10
ENDBRANCH   8   9
ENDBRANCH   1   8
TORSDOF 8
ENDMDL
MODEL 7
REMARK VINA RESULT:    -2.538      1.195      1.996
REMARK INTER + INTRA:          -4.340
REMARK INTER:                  -3.680
REMARK INTRA:                  -0.660
REMARK UNBOUND:                -0.616
REMARK SMILES CCCCCC(=O)CCCCC
REMARK SMILES IDX 6 1 7 2 5 3 4 4 3 5 2 6 1 7 8 8 9 9 10 10 11 11 12 12
REMARK H PARENT
REMARK Flexibility Score: inf
ROOT
ATOM      1  C   UNL     1     115.538 129.084 116.867  1.00  0.00     0.132 C 
ATOM      2  O   UNL     1     115.093 128.561 117.877  1.00  0.00    -0.300 OA
ENDROOT
BRANCH   1   3
ATOM      3  C   UNL     1     114.592 129.497 115.770  1.00  0.00     0.075 C 
BRANCH   3   4
ATOM      4  C   UNL     1     113.825 128.283 115.233  1.00  0.00     0.008 C 
BRANCH   4   5
ATOM      5  C   UNL     1     112.317 128.550 115.209  1.00  0.00     0.000 C 
BRANCH   5   6
ATOM      6  C   UNL     1     111.754 128.653 116.632  1.00  0.00    -0.003 C 
ATOM      7  C   UNL     1     111.670 127.279 117.292  1.00  0.00     0.004 C 
ENDBRANCH   5   6
ENDBRANCH   4   5
ENDBRANCH   3   4
ENDBRANCH   1   3
BRANCH   1   8
ATOM      8  C   UNL     1     117.025 129.287 116.735  1.00  0.00     0.075 C 
BRANCH   8   9
ATOM      9  C   UNL     1     117.555 128.588 115.473  1.00  0.00     0.008 C 
BRANCH   9  10
ATOM     10  C   UNL     1     117.516 127.050 115.597  1.00  0.00     0.000 C 
BRANCH  10  11
ATOM     11  C   UNL     1     118.550 126.485 116.585  1.00  0.00    -0.003 C 
ATOM     12  C   UNL     1     119.979 126.535 116.049  1.00  0.00     0.004 C 
ENDBRANCH  10  11
ENDBRANCH   9  10
ENDBRANCH   8   9
ENDBRANCH   1   8
TORSDOF 8
ENDMDL
MODEL 8
REMARK VINA RESULT:    -2.509      3.824      5.887
REMARK INTER + INTRA:          -4.298
REMARK INTER:                  -3.387
REMARK INTRA:                  -0.911
REMARK UNBOUND:                -0.616
REMARK SMILES CCCCCC(=O)CCCCC
REMARK SMILES IDX 6 1 7 2 5 3 4 4 3 5 2 6 1 7 8 8 9 9 10 10 11 11 12 12
REMARK H PARENT
REMARK Flexibility Score: inf
ROOT
ATOM      1  C   UNL     1     112.670 128.333 119.116  1.00  0.00     0.132 C 
ATOM      2  O   UNL     1     112.557 128.471 120.325  1.00  0.00    -0.300 OA
ENDROOT
BRANCH   1   3
ATOM      3  C   UNL     1     111.431 128.189 118.270  1.00  0.00     0.075 C 
BRANCH   3   4
ATOM      4  C   UNL     1     111.346 126.781 117.673  1.00  0.00     0.008 C 
BRANCH   4   5
ATOM      5  C   UNL     1     110.364 125.906 118.460  1.00  0.00     0.000 C 
BRANCH   5   6
ATOM      6  C   UNL     1     110.937 124.502 118.684  1.00  0.00    -0.003 C 
ATOM      7  C   UNL     1     112.248 124.558 119.463  1.00  0.00     0.004 C 
ENDBRANCH   5   6
ENDBRANCH   4   5
ENDBRANCH   3   4
ENDBRANCH   1   3
BRANCH   1   8
ATOM      8  C   UNL     1     114.045 128.292 118.502  1.00  0.00     0.075 C 
BRANCH   8   9
ATOM      9  C   UNL     1     114.133 129.255 117.309  1.00  0.00     0.008 C 
BRANCH   9  10
ATOM     10  C   UNL     1     114.675 128.566 116.040  1.00  0.00     0.000 C 
BRANCH  10  11
ATOM     11  C   UNL     1     113.589 128.253 114.997  1.00  0.00    -0.003 C 
ATOM     12  C   UNL     1     112.540 129.356 114.875  1.00  0.00     0.004 C 
ENDBRANCH  10  11
ENDBRANCH   9  10
ENDBRANCH   8   9
ENDBRANCH   1   8
TORSDOF 8
ENDMDL
