MODEL 1
REMARK VINA RESULT:    -5.731      0.000      0.000
REMARK INTER + INTRA:          -6.802
REMARK INTER:                  -7.072
REMARK INTRA:                   0.270
REMARK UNBOUND:                 0.270
REMARK SMILES C=C1[C@@H]2CC[C@H]3[C@H]2C(C)(C)CCC[C@@]13C
REMARK SMILES IDX 14 1 6 2 7 3 3 4 2 5 1 6 4 7 5 8 15 9 8 10 9 11 10 12 11 13
REMARK SMILES IDX 13 15 12 16
REMARK H PARENT
REMARK Flexibility Score: 80.00
ROOT
ATOM      1  C   UNL     1     110.558 111.541 111.112  1.00  0.00    -0.008 C 
ATOM      2  C   UNL     1     110.623 112.137 112.515  1.00  0.00     0.003 C 
ATOM      3  C   UNL     1     110.879 110.830 113.283  1.00  0.00     0.006 C 
ATOM      4  C   UNL     1     109.508 110.253 112.973  1.00  0.00     0.019 C 
ATOM      5  C   UNL     1     109.584 110.392 111.433  1.00  0.00    -0.068 C 
ATOM      6  C   UNL     1     108.970 109.598 110.551  1.00  0.00     0.009 C 
ATOM      7  C   UNL     1     108.549 111.320 113.471  1.00  0.00     0.008 C 
ATOM      8  C   UNL     1     109.272 112.616 113.103  1.00  0.00     0.005 C 
ATOM      9  C   UNL     1     109.999 112.520 110.062  1.00  0.00     0.016 C 
ENDROOT
BRANCH   3  10
ATOM     10  C   UNL     1     112.149 110.918 114.158  1.00  0.00    -0.032 C 
ATOM     11  C   UNL     1     112.216 109.686 115.095  1.00  0.00     0.011 C 
ATOM     12  C   UNL     1     112.170 112.177 115.059  1.00  0.00     0.011 C 
BRANCH  10  13
ATOM     13  C   UNL     1     113.398 110.914 113.153  1.00  0.00     0.007 CG0
ATOM     14  G   UNL     1     113.236 111.528 111.690  1.00  0.00     0.000 G0
ENDBRANCH  10  13
ENDBRANCH   3  10
BRANCH   1  15
ATOM     15  C   UNL     1     112.040 111.055 110.737  1.00  0.00     0.011 C 
BRANCH  15  16
ATOM     16  C   UNL     1     113.236 111.521 111.686  1.00  0.00     0.001 CG0
ATOM     17  G   UNL     1     113.404 110.912 113.150  1.00  0.00     0.000 G0
ENDBRANCH  15  16
ENDBRANCH   1  15
TORSDOF 0
ENDMDL
MODEL 2
REMARK VINA RESULT:    -5.722      1.944      3.686
REMARK INTER + INTRA:          -6.791
REMARK INTER:                  -7.060
REMARK INTRA:                   0.269
REMARK UNBOUND:                 0.270
REMARK SMILES C=C1[C@@H]2CC[C@H]3[C@H]2C(C)(C)CCC[C@@]13C
REMARK SMILES IDX 14 1 6 2 7 3 3 4 2 5 1 6 4 7 5 8 15 9 8 10 9 11 10 12 11 13
REMARK SMILES IDX 13 15 12 16
REMARK H PARENT
REMARK Flexibility Score: 80.00
ROOT
ATOM      1  C   UNL     1     111.598 110.665 111.175  1.00  0.00    -0.008 C 
ATOM      2  C   UNL     1     111.531 110.043 112.568  1.00  0.00     0.003 C 
ATOM      3  C   UNL     1     111.335 111.342 113.366  1.00  0.00     0.006 C 
ATOM      4  C   UNL     1     112.723 111.875 113.046  1.00  0.00     0.019 C 
ATOM      5  C   UNL     1     112.619 111.770 111.505  1.00  0.00    -0.068 C 
ATOM      6  C   UNL     1     113.249 112.559 110.630  1.00  0.00     0.009 C 
ATOM      7  C   UNL     1     113.648 110.762 113.507  1.00  0.00     0.008 C 
ATOM      8  C   UNL     1     112.872 109.502 113.124  1.00  0.00     0.005 C 
ATOM      9  C   UNL     1     112.105 109.687 110.098  1.00  0.00     0.016 C 
ENDROOT
BRANCH   3  10
ATOM     10  C   UNL     1     110.076 111.283 114.258  1.00  0.00    -0.032 C 
ATOM     11  C   UNL     1     110.071 112.495 115.223  1.00  0.00     0.011 C 
ATOM     12  C   UNL     1     110.019 110.005 115.131  1.00  0.00     0.011 C 
BRANCH  10  13
ATOM     13  C   UNL     1     108.814 111.358 113.273  1.00  0.00     0.007 CG0
ATOM     14  G   UNL     1     108.928 110.767 111.796  1.00  0.00     0.000 G0
ENDBRANCH  10  13
ENDBRANCH   3  10
BRANCH   1  15
ATOM     15  C   UNL     1     110.130 111.213 110.833  1.00  0.00     0.011 C 
BRANCH  15  16
ATOM     16  C   UNL     1     108.931 110.774 111.793  1.00  0.00     0.001 CG0
ATOM     17  G   UNL     1     108.807 111.364 113.269  1.00  0.00     0.000 G0
ENDBRANCH  15  16
ENDBRANCH   1  15
TORSDOF 0
ENDMDL
MODEL 3
REMARK VINA RESULT:    -5.710      3.514      4.836
REMARK INTER + INTRA:          -6.776
REMARK INTER:                  -7.044
REMARK INTRA:                   0.268
REMARK UNBOUND:                 0.270
REMARK SMILES C=C1[C@@H]2CC[C@H]3[C@H]2C(C)(C)CCC[C@@]13C
REMARK SMILES IDX 14 1 6 2 7 3 3 4 2 5 1 6 4 7 5 8 15 9 8 10 9 11 10 12 11 13
REMARK SMILES IDX 13 15 12 16
REMARK H PARENT
REMARK Flexibility Score: 80.00
ROOT
ATOM      1  C   UNL     1     110.576 111.553 106.262  1.00  0.00    -0.008 C 
ATOM      2  C   UNL     1     110.587 112.146 107.669  1.00  0.00     0.003 C 
ATOM      3  C   UNL     1     110.866 110.846 108.440  1.00  0.00     0.006 C 
ATOM      4  C   UNL     1     109.521 110.226 108.094  1.00  0.00     0.019 C 
ATOM      5  C   UNL     1     109.631 110.373 106.557  1.00  0.00    -0.068 C 
ATOM      6  C   UNL     1     109.065 109.562 105.658  1.00  0.00     0.009 C 
ATOM      7  C   UNL     1     108.517 111.262 108.570  1.00  0.00     0.008 C 
ATOM      8  C   UNL     1     109.207 112.581 108.223  1.00  0.00     0.005 C 
ATOM      9  C   UNL     1     110.012 112.517 105.201  1.00  0.00     0.016 C 
ENDROOT
BRANCH   3  10
ATOM     10  C   UNL     1     112.110 110.971 109.346  1.00  0.00    -0.032 C 
ATOM     11  C   UNL     1     112.192 109.740 110.282  1.00  0.00     0.011 C 
ATOM     12  C   UNL     1     112.069 112.229 110.249  1.00  0.00     0.011 C 
BRANCH  10  13
ATOM     13  C   UNL     1     113.383 111.009 108.373  1.00  0.00     0.007 CG0
ATOM     14  G   UNL     1     113.237 111.614 106.905  1.00  0.00     0.000 G0
ENDBRANCH  10  13
ENDBRANCH   3  10
BRANCH   1  15
ATOM     15  C   UNL     1     112.081 111.116 105.923  1.00  0.00     0.011 C 
BRANCH  15  16
ATOM     16  C   UNL     1     113.239 111.618 106.902  1.00  0.00     0.001 CG0
ATOM     17  G   UNL     1     113.386 111.015 108.371  1.00  0.00     0.000 G0
ENDBRANCH  15  16
ENDBRANCH   1  15
TORSDOF 0
ENDMDL
MODEL 4
REMARK VINA RESULT:    -5.645      1.351      3.960
REMARK INTER + INTRA:          -6.695
REMARK INTER:                  -6.964
REMARK INTRA:                   0.269
REMARK UNBOUND:                 0.270
REMARK SMILES C=C1[C@@H]2CC[C@H]3[C@H]2C(C)(C)CCC[C@@]13C
REMARK SMILES IDX 14 1 6 2 7 3 3 4 2 5 1 6 4 7 5 8 15 9 8 10 9 11 10 12 11 13
REMARK SMILES IDX 13 15 12 16
REMARK H PARENT
REMARK Flexibility Score: 80.00
ROOT
ATOM      1  C   UNL     1     112.156 110.344 114.787  1.00  0.00    -0.008 C 
ATOM      2  C   UNL     1     110.756 110.170 114.203  1.00  0.00     0.003 C 
ATOM      3  C   UNL     1     110.717 111.462 113.372  1.00  0.00     0.006 C 
ATOM      4  C   UNL     1     110.717 112.373 114.589  1.00  0.00     0.019 C 
ATOM      5  C   UNL     1     111.990 111.801 115.257  1.00  0.00    -0.068 C 
ATOM      6  C   UNL     1     112.831 112.486 116.038  1.00  0.00     0.009 C 
ATOM      7  C   UNL     1     109.529 111.885 115.401  1.00  0.00     0.008 C 
ATOM      8  C   UNL     1     109.586 110.370 115.198  1.00  0.00     0.005 C 
ATOM      9  C   UNL     1     112.454 109.374 115.946  1.00  0.00     0.016 C 
ENDROOT
BRANCH   3  10
ATOM     10  C   UNL     1     110.398 111.180 111.887  1.00  0.00    -0.032 C 
ATOM     11  C   UNL     1     110.114 112.517 111.158  1.00  0.00     0.011 C 
ATOM     12  C   UNL     1     109.146 110.286 111.702  1.00  0.00     0.011 C 
BRANCH  10  13
ATOM     13  C   UNL     1     111.697 110.478 111.265  1.00  0.00     0.007 CG0
ATOM     14  G   UNL     1     112.641 109.595 112.199  1.00  0.00     0.000 G0
ENDBRANCH  10  13
ENDBRANCH   3  10
BRANCH   1  15
ATOM     15  C   UNL     1     113.196 110.161 113.580  1.00  0.00     0.011 C 
BRANCH  15  16
ATOM     16  C   UNL     1     112.637 109.586 112.199  1.00  0.00     0.001 CG0
ATOM     17  G   UNL     1     111.698 110.473 111.265  1.00  0.00     0.000 G0
ENDBRANCH  15  16
ENDBRANCH   1  15
TORSDOF 0
ENDMDL
MODEL 5
REMARK VINA RESULT:    -5.636      1.778      3.787
REMARK INTER + INTRA:          -6.684
REMARK INTER:                  -6.944
REMARK INTRA:                   0.260
REMARK UNBOUND:                 0.270
REMARK SMILES C=C1[C@@H]2CC[C@H]3[C@H]2C(C)(C)CCC[C@@]13C
REMARK SMILES IDX 14 1 6 2 7 3 3 4 2 5 1 6 4 7 5 8 15 9 8 10 9 11 10 12 11 13
REMARK SMILES IDX 13 15 12 16
REMARK H PARENT
REMARK Flexibility Score: 80.00
ROOT
ATOM      1  C   UNL     1     110.140 111.981 114.720  1.00  0.00    -0.008 C 
ATOM      2  C   UNL     1     111.551 112.057 114.145  1.00  0.00     0.003 C 
ATOM      3  C   UNL     1     111.528 110.735 113.361  1.00  0.00     0.006 C 
ATOM      4  C   UNL     1     111.467 109.871 114.611  1.00  0.00     0.019 C 
ATOM      5  C   UNL     1     110.221 110.535 115.245  1.00  0.00    -0.068 C 
ATOM      6  C   UNL     1     109.337 109.926 116.041  1.00  0.00     0.009 C 
ATOM      7  C   UNL     1     112.673 110.324 115.418  1.00  0.00     0.008 C 
ATOM      8  C   UNL     1     112.701 111.830 115.160  1.00  0.00     0.005 C 
ATOM      9  C   UNL     1     109.884 113.008 115.840  1.00  0.00     0.016 C 
ENDROOT
BRANCH   3  10
ATOM     10  C   UNL     1     111.875 110.944 111.871  1.00  0.00    -0.032 C 
ATOM     11  C   UNL     1     112.082 109.567 111.192  1.00  0.00     0.011 C 
ATOM     12  C   UNL     1     113.179 111.755 111.668  1.00  0.00     0.011 C 
BRANCH  10  13
ATOM     13  C   UNL     1     110.625 111.700 111.212  1.00  0.00     0.007 CG0
ATOM     14  G   UNL     1     109.731 112.674 112.105  1.00  0.00     0.000 G0
ENDBRANCH  10  13
ENDBRANCH   3  10
BRANCH   1  15
ATOM     15  C   UNL     1     109.121 112.175 113.496  1.00  0.00     0.011 C 
BRANCH  15  16
ATOM     16  C   UNL     1     109.722 112.670 112.102  1.00  0.00     0.001 CG0
ATOM     17  G   UNL     1     110.625 111.704 111.211  1.00  0.00     0.000 G0
ENDBRANCH  15  16
ENDBRANCH   1  15
TORSDOF 0
ENDMDL
MODEL 6
REMARK VINA RESULT:    -5.631      3.050      5.479
REMARK INTER + INTRA:          -6.678
REMARK INTER:                  -6.949
REMARK INTRA:                   0.271
REMARK UNBOUND:                 0.270
REMARK SMILES C=C1[C@@H]2CC[C@H]3[C@H]2C(C)(C)CCC[C@@]13C
REMARK SMILES IDX 14 1 6 2 7 3 3 4 2 5 1 6 4 7 5 8 15 9 8 10 9 11 10 12 11 13
REMARK SMILES IDX 13 15 12 16
REMARK H PARENT
REMARK Flexibility Score: 80.00
ROOT
ATOM      1  C   UNL     1     112.167 110.360 109.865  1.00  0.00    -0.008 C 
ATOM      2  C   UNL     1     110.767 110.158 109.292  1.00  0.00     0.003 C 
ATOM      3  C   UNL     1     110.685 111.461 108.480  1.00  0.00     0.006 C 
ATOM      4  C   UNL     1     110.674 112.353 109.711  1.00  0.00     0.019 C 
ATOM      5  C   UNL     1     111.968 111.805 110.358  1.00  0.00    -0.068 C 
ATOM      6  C   UNL     1     112.799 112.501 111.141  1.00  0.00     0.009 C 
ATOM      7  C   UNL     1     109.507 111.823 110.527  1.00  0.00     0.008 C 
ATOM      8  C   UNL     1     109.601 110.314 110.302  1.00  0.00     0.005 C 
ATOM      9  C   UNL     1     112.502 109.382 111.007  1.00  0.00     0.016 C 
ENDROOT
BRANCH   3  10
ATOM     10  C   UNL     1     110.358 111.192 106.995  1.00  0.00    -0.032 C 
ATOM     11  C   UNL     1     110.029 112.531 106.289  1.00  0.00     0.011 C 
ATOM     12  C   UNL     1     109.132 110.265 106.809  1.00  0.00     0.011 C 
BRANCH  10  13
ATOM     13  C   UNL     1     111.671 110.537 106.349  1.00  0.00     0.007 CG0
ATOM     14  G   UNL     1     112.643 109.658 107.257  1.00  0.00     0.000 G0
ENDBRANCH  10  13
ENDBRANCH   3  10
BRANCH   1  15
ATOM     15  C   UNL     1     113.199 110.222 108.645  1.00  0.00     0.011 C 
BRANCH  15  16
ATOM     16  C   UNL     1     112.642 109.655 107.261  1.00  0.00     0.001 CG0
ATOM     17  G   UNL     1     111.672 110.532 106.349  1.00  0.00     0.000 G0
ENDBRANCH  15  16
ENDBRANCH   1  15
TORSDOF 0
ENDMDL
MODEL 7
REMARK VINA RESULT:    -5.603      3.332      5.428
REMARK INTER + INTRA:          -6.643
REMARK INTER:                  -6.904
REMARK INTRA:                   0.261
REMARK UNBOUND:                 0.270
REMARK SMILES C=C1[C@@H]2CC[C@H]3[C@H]2C(C)(C)CCC[C@@]13C
REMARK SMILES IDX 14 1 6 2 7 3 3 4 2 5 1 6 4 7 5 8 15 9 8 10 9 11 10 12 11 13
REMARK SMILES IDX 13 15 12 16
REMARK H PARENT
REMARK Flexibility Score: 80.00
ROOT
ATOM      1  C   UNL     1     110.165 111.956 109.811  1.00  0.00    -0.008 C 
ATOM      2  C   UNL     1     111.556 112.105 109.200  1.00  0.00     0.003 C 
ATOM      3  C   UNL     1     111.586 110.774 108.429  1.00  0.00     0.006 C 
ATOM      4  C   UNL     1     111.606 109.922 109.688  1.00  0.00     0.019 C 
ATOM      5  C   UNL     1     110.340 110.523 110.347  1.00  0.00    -0.068 C 
ATOM      6  C   UNL     1     109.512 109.874 111.171  1.00  0.00     0.009 C 
ATOM      7  C   UNL     1     112.804 110.450 110.459  1.00  0.00     0.008 C 
ATOM      8  C   UNL     1     112.741 111.953 110.186  1.00  0.00     0.005 C 
ATOM      9  C   UNL     1     109.881 112.979 110.927  1.00  0.00     0.016 C 
ENDROOT
BRANCH   3  10
ATOM     10  C   UNL     1     111.884 110.986 106.929  1.00  0.00    -0.032 C 
ATOM     11  C   UNL     1     112.149 109.616 106.258  1.00  0.00     0.011 C 
ATOM     12  C   UNL     1     113.136 111.864 106.684  1.00  0.00     0.011 C 
BRANCH  10  13
ATOM     13  C   UNL     1     110.578 111.666 106.296  1.00  0.00     0.007 CG0
ATOM     14  G   UNL     1     109.651 112.593 107.204  1.00  0.00     0.000 G0
ENDBRANCH  10  13
ENDBRANCH   3  10
BRANCH   1  15
ATOM     15  C   UNL     1     109.107 112.080 108.612  1.00  0.00     0.011 C 
BRANCH  15  16
ATOM     16  C   UNL     1     109.644 112.596 107.199  1.00  0.00     0.001 CG0
ATOM     17  G   UNL     1     110.579 111.674 106.293  1.00  0.00     0.000 G0
ENDBRANCH  15  16
ENDBRANCH   1  15
TORSDOF 0
ENDMDL
MODEL 8
REMARK VINA RESULT:    -5.599      1.467      2.513
REMARK INTER + INTRA:          -6.638
REMARK INTER:                  -6.909
REMARK INTRA:                   0.271
REMARK UNBOUND:                 0.270
REMARK SMILES C=C1[C@@H]2CC[C@H]3[C@H]2C(C)(C)CCC[C@@]13C
REMARK SMILES IDX 14 1 6 2 7 3 3 4 2 5 1 6 4 7 5 8 15 9 8 10 9 11 10 12 11 13
REMARK SMILES IDX 13 15 12 16
REMARK H PARENT
REMARK Flexibility Score: 80.00
ROOT
ATOM      1  C   UNL     1     112.380 111.245 112.103  1.00  0.00    -0.008 C 
ATOM      2  C   UNL     1     111.177 111.958 112.716  1.00  0.00     0.003 C 
ATOM      3  C   UNL     1     110.457 110.716 113.264  1.00  0.00     0.006 C 
ATOM      4  C   UNL     1     110.145 110.156 111.885  1.00  0.00     0.019 C 
ATOM      5  C   UNL     1     111.595 110.158 111.344  1.00  0.00    -0.068 C 
ATOM      6  C   UNL     1     112.085 109.309 110.436  1.00  0.00     0.009 C 
ATOM      7  C   UNL     1     109.409 111.291 111.196  1.00  0.00     0.008 C 
ATOM      8  C   UNL     1     110.150 112.528 111.705  1.00  0.00     0.005 C 
ATOM      9  C   UNL     1     113.207 112.146 111.167  1.00  0.00     0.016 C 
ENDROOT
BRANCH   3  10
ATOM     10  C   UNL     1     110.168 110.840 114.776  1.00  0.00    -0.032 C 
ATOM     11  C   UNL     1     109.219 109.698 115.215  1.00  0.00     0.011 C 
ATOM     12  C   UNL     1     109.475 112.176 115.146  1.00  0.00     0.011 C 
BRANCH  10  13
ATOM     13  C   UNL     1     111.578 110.703 115.524  1.00  0.00     0.007 CG0
ATOM     14  G   UNL     1     112.910 111.190 114.794  1.00  0.00     0.000 G0
ENDBRANCH  10  13
ENDBRANCH   3  10
BRANCH   1  15
ATOM     15  C   UNL     1     113.264 110.683 113.318  1.00  0.00     0.011 C 
BRANCH  15  16
ATOM     16  C   UNL     1     112.910 111.191 114.790  1.00  0.00     0.001 CG0
ATOM     17  G   UNL     1     111.580 110.705 115.525  1.00  0.00     0.000 G0
ENDBRANCH  15  16
ENDBRANCH   1  15
TORSDOF 0
ENDMDL
MODEL 9
REMARK VINA RESULT:    -5.594      1.741      3.395
REMARK INTER + INTRA:          -6.633
REMARK INTER:                  -6.902
REMARK INTRA:                   0.269
REMARK UNBOUND:                 0.270
REMARK SMILES C=C1[C@@H]2CC[C@H]3[C@H]2C(C)(C)CCC[C@@]13C
REMARK SMILES IDX 14 1 6 2 7 3 3 4 2 5 1 6 4 7 5 8 15 9 8 10 9 11 10 12 11 13
REMARK SMILES IDX 13 15 12 16
REMARK H PARENT
REMARK Flexibility Score: 80.00
ROOT
ATOM      1  C   UNL     1     109.908 110.894 112.015  1.00  0.00    -0.008 C 
ATOM      2  C   UNL     1     111.098 110.248 112.720  1.00  0.00     0.003 C 
ATOM      3  C   UNL     1     111.691 111.526 113.337  1.00  0.00     0.006 C 
ATOM      4  C   UNL     1     112.079 112.123 111.993  1.00  0.00     0.019 C 
ATOM      5  C   UNL     1     110.682 112.037 111.333  1.00  0.00    -0.068 C 
ATOM      6  C   UNL     1     110.215 112.867 110.395  1.00  0.00     0.009 C 
ATOM      7  C   UNL     1     112.940 111.045 111.357  1.00  0.00     0.008 C 
ATOM      8  C   UNL     1     112.239 109.758 111.793  1.00  0.00     0.005 C 
ATOM      9  C   UNL     1     109.219 109.956 111.006  1.00  0.00     0.016 C 
ENDROOT
BRANCH   3  10
ATOM     10  C   UNL     1     111.862 111.398 114.866  1.00  0.00    -0.032 C 
ATOM     11  C   UNL     1     112.694 112.594 115.393  1.00  0.00     0.011 C 
ATOM     12  C   UNL     1     112.608 110.106 115.280  1.00  0.00     0.011 C 
BRANCH  10  13
ATOM     13  C   UNL     1     110.388 111.433 115.495  1.00  0.00     0.007 CG0
ATOM     14  G   UNL     1     109.156 110.874 114.651  1.00  0.00     0.000 G0
ENDBRANCH  10  13
ENDBRANCH   3  10
BRANCH   1  15
ATOM     15  C   UNL     1     108.893 111.382 113.157  1.00  0.00     0.011 C 
BRANCH  15  16
ATOM     16  C   UNL     1     109.153 110.874 114.648  1.00  0.00     0.001 CG0
ATOM     17  G   UNL     1     110.382 111.429 115.499  1.00  0.00     0.000 G0
ENDBRANCH  15  16
ENDBRANCH   1  15
TORSDOF 0
ENDMDL
