MODEL 1
REMARK VINA RESULT:    -3.909      0.000      0.000
REMARK INTER + INTRA:          -5.221
REMARK INTER:                  -4.823
REMARK INTRA:                  -0.398
REMARK UNBOUND:                -0.398
REMARK SMILES COc1cc(-c2oc3cc(O)cc(O)c3c(=O)c2O)ccc1O
REMARK SMILES IDX 6 1 18 2 16 3 17 4 15 5 13 6 12 7 10 8 9 9 8 10 7 11 5 12
REMARK SMILES IDX 3 13 22 14 4 15 21 16 20 17 2 18 1 19 23 20 19 22 14 24
REMARK SMILES IDX 11 26
REMARK H PARENT 23 21 19 23 14 25 11 27
REMARK Flexibility Score: inf
ROOT
ATOM      1  C   UNL     1      19.297  34.893  44.309  1.00  0.00     0.180 A 
ATOM      2  C   UNL     1      19.929  36.043  44.820  1.00  0.00     0.208 A 
ATOM      3  C   UNL     1      21.258  35.947  45.258  1.00  0.00     0.238 A 
ATOM      4  O   UNL     1      21.832  36.967  45.728  1.00  0.00    -0.285 OA
ATOM      5  C   UNL     1      21.937  34.715  45.162  1.00  0.00     0.111 A 
ATOM      6  C   UNL     1      23.279  34.535  45.578  1.00  0.00     0.134 A 
ATOM      7  C   UNL     1      23.887  33.279  45.439  1.00  0.00     0.093 A 
ATOM      8  C   UNL     1      23.181  32.200  44.893  1.00  0.00     0.123 A 
ATOM      9  C   UNL     1      21.858  32.373  44.483  1.00  0.00     0.094 A 
ATOM     10  C   UNL     1      21.234  33.617  44.614  1.00  0.00     0.146 A 
ATOM     11  O   UNL     1      19.972  33.752  44.219  1.00  0.00    -0.452 OA
ENDROOT
BRANCH   1  12
ATOM     12  C   UNL     1      17.890  34.910  43.843  1.00  0.00     0.025 A 
ATOM     13  C   UNL     1      16.289  35.121  42.008  1.00  0.00     0.161 A 
ATOM     14  C   UNL     1      15.239  34.889  42.906  1.00  0.00     0.157 A 
ATOM     15  C   UNL     1      17.616  35.124  42.483  1.00  0.00     0.062 A 
ATOM     16  C   UNL     1      15.510  34.656  44.260  1.00  0.00     0.051 A 
ATOM     17  C   UNL     1      16.827  34.659  44.725  1.00  0.00     0.016 A 
BRANCH  13  18
ATOM     18  O   UNL     1      15.977  35.344  40.657  1.00  0.00    -0.493 OA
ATOM     19  C   UNL     1      16.885  35.875  39.697  1.00  0.00     0.278 C 
ENDBRANCH  13  18
BRANCH  14  20
ATOM     20  O   UNL     1      13.924  34.887  42.443  1.00  0.00    -0.504 OA
ATOM     21  H   UNL     1      13.141  34.739  43.070  1.00  0.00     0.293 HD
ENDBRANCH  14  20
ENDBRANCH   1  12
BRANCH   2  22
ATOM     22  O   UNL     1      19.250  37.264  44.860  1.00  0.00    -0.502 OA
ATOM     23  H   UNL     1      19.400  37.991  44.171  1.00  0.00     0.293 HD
ENDBRANCH   2  22
BRANCH   6  24
ATOM     24  O   UNL     1      24.009  35.591  46.125  1.00  0.00    -0.507 OA
ATOM     25  H   UNL     1      24.683  36.113  45.578  1.00  0.00     0.293 HD
ENDBRANCH   6  24
BRANCH   8  26
ATOM     26  O   UNL     1      23.785  30.954  44.756  1.00  0.00    -0.508 OA
ATOM     27  H   UNL     1      24.740  30.790  45.055  1.00  0.00     0.293 HD
ENDBRANCH   8  26
TORSDOF 6
ENDMDL
MODEL 2
REMARK VINA RESULT:    -3.672      0.767      2.047
REMARK INTER + INTRA:          -4.928
REMARK INTER:                  -4.555
REMARK INTRA:                  -0.374
REMARK UNBOUND:                -0.398
REMARK SMILES COc1cc(-c2oc3cc(O)cc(O)c3c(=O)c2O)ccc1O
REMARK SMILES IDX 6 1 18 2 16 3 17 4 15 5 13 6 12 7 10 8 9 9 8 10 7 11 5 12
REMARK SMILES IDX 3 13 22 14 4 15 21 16 20 17 2 18 1 19 23 20 19 22 14 24
REMARK SMILES IDX 11 26
REMARK H PARENT 23 21 19 23 14 25 11 27
REMARK Flexibility Score: inf
ROOT
ATOM      1  C   UNL     1      19.182  34.945  44.049  1.00  0.00     0.180 A 
ATOM      2  C   UNL     1      19.752  36.075  44.667  1.00  0.00     0.208 A 
ATOM      3  C   UNL     1      21.064  35.989  45.158  1.00  0.00     0.238 A 
ATOM      4  O   UNL     1      21.581  36.991  45.723  1.00  0.00    -0.285 OA
ATOM      5  C   UNL     1      21.788  34.789  45.007  1.00  0.00     0.111 A 
ATOM      6  C   UNL     1      23.116  34.622  45.471  1.00  0.00     0.134 A 
ATOM      7  C   UNL     1      23.772  33.398  45.274  1.00  0.00     0.093 A 
ATOM      8  C   UNL     1      23.127  32.339  44.622  1.00  0.00     0.123 A 
ATOM      9  C   UNL     1      21.819  32.500  44.164  1.00  0.00     0.094 A 
ATOM     10  C   UNL     1      21.147  33.711  44.353  1.00  0.00     0.146 A 
ATOM     11  O   UNL     1      19.900  33.835  43.912  1.00  0.00    -0.452 OA
ENDROOT
BRANCH   1  12
ATOM     12  C   UNL     1      17.798  34.951  43.522  1.00  0.00     0.025 A 
ATOM     13  C   UNL     1      15.394  34.773  43.932  1.00  0.00     0.161 A 
ATOM     14  C   UNL     1      15.151  35.015  42.574  1.00  0.00     0.157 A 
ATOM     15  C   UNL     1      16.722  34.749  44.402  1.00  0.00     0.062 A 
ATOM     16  C   UNL     1      16.219  35.238  41.697  1.00  0.00     0.051 A 
ATOM     17  C   UNL     1      17.534  35.214  42.167  1.00  0.00     0.016 A 
BRANCH  13  18
ATOM     18  O   UNL     1      14.296  34.561  44.781  1.00  0.00    -0.493 OA
ATOM     19  C   UNL     1      14.359  33.869  46.024  1.00  0.00     0.278 C 
ENDBRANCH  13  18
BRANCH  14  20
ATOM     20  O   UNL     1      13.839  35.039  42.103  1.00  0.00    -0.504 OA
ATOM     21  H   UNL     1      13.252  35.859  42.208  1.00  0.00     0.293 HD
ENDBRANCH  14  20
ENDBRANCH   1  12
BRANCH   2  22
ATOM     22  O   UNL     1      19.031  37.269  44.760  1.00  0.00    -0.502 OA
ATOM     23  H   UNL     1      19.387  38.081  45.248  1.00  0.00     0.293 HD
ENDBRANCH   2  22
BRANCH   6  24
ATOM     24  O   UNL     1      23.785  35.659  46.123  1.00  0.00    -0.507 OA
ATOM     25  H   UNL     1      23.766  35.755  47.131  1.00  0.00     0.293 HD
ENDBRANCH   6  24
BRANCH   8  26
ATOM     26  O   UNL     1      23.779  31.125  44.426  1.00  0.00    -0.508 OA
ATOM     27  H   UNL     1      23.622  30.333  45.040  1.00  0.00     0.293 HD
ENDBRANCH   8  26
TORSDOF 6
ENDMDL
MODEL 3
REMARK VINA RESULT:    -3.632      1.729      7.258
REMARK INTER + INTRA:          -4.879
REMARK INTER:                  -4.481
REMARK INTRA:                  -0.399
REMARK UNBOUND:                -0.398
REMARK SMILES COc1cc(-c2oc3cc(O)cc(O)c3c(=O)c2O)ccc1O
REMARK SMILES IDX 6 1 18 2 16 3 17 4 15 5 13 6 12 7 10 8 9 9 8 10 7 11 5 12
REMARK SMILES IDX 3 13 22 14 4 15 21 16 20 17 2 18 1 19 23 20 19 22 14 24
REMARK SMILES IDX 11 26
REMARK H PARENT 23 21 19 23 14 25 11 27
REMARK Flexibility Score: inf
ROOT
ATOM      1  C   UNL     1      17.837  35.223  43.980  1.00  0.00     0.180 A 
ATOM      2  C   UNL     1      16.898  34.489  44.729  1.00  0.00     0.208 A 
ATOM      3  C   UNL     1      15.700  34.094  44.114  1.00  0.00     0.238 A 
ATOM      4  O   UNL     1      14.847  33.446  44.778  1.00  0.00    -0.285 OA
ATOM      5  C   UNL     1      15.470  34.421  42.762  1.00  0.00     0.111 A 
ATOM      6  C   UNL     1      14.290  34.058  42.068  1.00  0.00     0.134 A 
ATOM      7  C   UNL     1      14.141  34.412  40.719  1.00  0.00     0.093 A 
ATOM      8  C   UNL     1      15.146  35.123  40.052  1.00  0.00     0.123 A 
ATOM      9  C   UNL     1      16.310  35.483  40.733  1.00  0.00     0.094 A 
ATOM     10  C   UNL     1      16.477  35.141  42.078  1.00  0.00     0.146 A 
ATOM     11  O   UNL     1      17.593  35.501  42.703  1.00  0.00    -0.452 OA
ENDROOT
BRANCH   1  12
ATOM     12  C   UNL     1      19.116  35.691  44.563  1.00  0.00     0.025 A 
ATOM     13  C   UNL     1      21.489  35.300  45.005  1.00  0.00     0.161 A 
ATOM     14  C   UNL     1      21.579  36.564  45.602  1.00  0.00     0.157 A 
ATOM     15  C   UNL     1      20.254  34.871  44.481  1.00  0.00     0.062 A 
ATOM     16  C   UNL     1      20.452  37.393  45.668  1.00  0.00     0.051 A 
ATOM     17  C   UNL     1      19.230  36.963  45.146  1.00  0.00     0.016 A 
BRANCH  13  18
ATOM     18  O   UNL     1      22.643  34.502  44.952  1.00  0.00    -0.493 OA
ATOM     19  C   UNL     1      23.061  33.764  43.808  1.00  0.00     0.278 C 
ENDBRANCH  13  18
BRANCH  14  20
ATOM     20  O   UNL     1      22.798  36.995  46.125  1.00  0.00    -0.504 OA
ATOM     21  H   UNL     1      23.539  37.341  45.526  1.00  0.00     0.293 HD
ENDBRANCH  14  20
ENDBRANCH   1  12
BRANCH   2  22
ATOM     22  O   UNL     1      17.172  34.135  46.053  1.00  0.00    -0.502 OA
ATOM     23  H   UNL     1      16.470  34.176  46.782  1.00  0.00     0.293 HD
ENDBRANCH   2  22
BRANCH   6  24
ATOM     24  O   UNL     1      13.270  33.349  42.705  1.00  0.00    -0.507 OA
ATOM     25  H   UNL     1      12.407  33.116  42.230  1.00  0.00     0.293 HD
ENDBRANCH   6  24
BRANCH   8  26
ATOM     26  O   UNL     1      14.998  35.474  38.713  1.00  0.00    -0.508 OA
ATOM     27  H   UNL     1      15.060  34.784  37.973  1.00  0.00     0.293 HD
ENDBRANCH   8  26
TORSDOF 6
ENDMDL
MODEL 4
REMARK VINA RESULT:    -3.576      1.679      3.460
REMARK INTER + INTRA:          -4.810
REMARK INTER:                  -4.425
REMARK INTRA:                  -0.385
REMARK UNBOUND:                -0.398
REMARK SMILES COc1cc(-c2oc3cc(O)cc(O)c3c(=O)c2O)ccc1O
REMARK SMILES IDX 6 1 18 2 16 3 17 4 15 5 13 6 12 7 10 8 9 9 8 10 7 11 5 12
REMARK SMILES IDX 3 13 22 14 4 15 21 16 20 17 2 18 1 19 23 20 19 22 14 24
REMARK SMILES IDX 11 26
REMARK H PARENT 23 21 19 23 14 25 11 27
REMARK Flexibility Score: inf
ROOT
ATOM      1  C   UNL     1      17.521  34.748  43.220  1.00  0.00     0.180 A 
ATOM      2  C   UNL     1      18.007  33.428  43.163  1.00  0.00     0.208 A 
ATOM      3  C   UNL     1      19.268  33.146  43.712  1.00  0.00     0.238 A 
ATOM      4  O   UNL     1      19.719  31.969  43.657  1.00  0.00    -0.285 OA
ATOM      5  C   UNL     1      20.009  34.178  44.323  1.00  0.00     0.111 A 
ATOM      6  C   UNL     1      21.286  33.976  44.902  1.00  0.00     0.134 A 
ATOM      7  C   UNL     1      21.955  35.054  45.501  1.00  0.00     0.093 A 
ATOM      8  C   UNL     1      21.374  36.327  45.530  1.00  0.00     0.123 A 
ATOM      9  C   UNL     1      20.117  36.531  44.960  1.00  0.00     0.094 A 
ATOM     10  C   UNL     1      19.434  35.470  44.357  1.00  0.00     0.146 A 
ATOM     11  O   UNL     1      18.241  35.693  43.817  1.00  0.00    -0.452 OA
ENDROOT
BRANCH   1  12
ATOM     12  C   UNL     1      16.208  35.128  42.648  1.00  0.00     0.025 A 
ATOM     13  C   UNL     1      14.892  35.870  40.726  1.00  0.00     0.161 A 
ATOM     14  C   UNL     1      13.729  35.799  41.504  1.00  0.00     0.157 A 
ATOM     15  C   UNL     1      16.130  35.526  41.303  1.00  0.00     0.062 A 
ATOM     16  C   UNL     1      13.800  35.383  42.839  1.00  0.00     0.051 A 
ATOM     17  C   UNL     1      15.029  35.043  43.406  1.00  0.00     0.016 A 
BRANCH  13  18
ATOM     18  O   UNL     1      14.779  36.285  39.389  1.00  0.00    -0.493 OA
ATOM     19  C   UNL     1      14.935  37.629  38.946  1.00  0.00     0.278 C 
ENDBRANCH  13  18
BRANCH  14  20
ATOM     20  O   UNL     1      12.500  36.140  40.939  1.00  0.00    -0.504 OA
ATOM     21  H   UNL     1      12.406  36.325  39.946  1.00  0.00     0.293 HD
ENDBRANCH  14  20
ENDBRANCH   1  12
BRANCH   2  22
ATOM     22  O   UNL     1      17.232  32.412  42.596  1.00  0.00    -0.502 OA
ATOM     23  H   UNL     1      16.220  32.422  42.625  1.00  0.00     0.293 HD
ENDBRANCH   2  22
BRANCH   6  24
ATOM     24  O   UNL     1      21.890  32.718  44.890  1.00  0.00    -0.507 OA
ATOM     25  H   UNL     1      21.461  31.926  44.428  1.00  0.00     0.293 HD
ENDBRANCH   6  24
BRANCH   8  26
ATOM     26  O   UNL     1      22.039  37.397  46.124  1.00  0.00    -0.508 OA
ATOM     27  H   UNL     1      22.169  38.277  45.638  1.00  0.00     0.293 HD
ENDBRANCH   8  26
TORSDOF 6
ENDMDL
MODEL 5
REMARK VINA RESULT:    -3.490      1.712      3.908
REMARK INTER + INTRA:          -4.703
REMARK INTER:                  -4.313
REMARK INTRA:                  -0.390
REMARK UNBOUND:                -0.398
REMARK SMILES COc1cc(-c2oc3cc(O)cc(O)c3c(=O)c2O)ccc1O
REMARK SMILES IDX 6 1 18 2 16 3 17 4 15 5 13 6 12 7 10 8 9 9 8 10 7 11 5 12
REMARK SMILES IDX 3 13 22 14 4 15 21 16 20 17 2 18 1 19 23 20 19 22 14 24
REMARK SMILES IDX 11 26
REMARK H PARENT 23 21 19 23 14 25 11 27
REMARK Flexibility Score: inf
ROOT
ATOM      1  C   UNL     1      17.583  34.719  43.254  1.00  0.00     0.180 A 
ATOM      2  C   UNL     1      18.116  33.428  43.081  1.00  0.00     0.208 A 
ATOM      3  C   UNL     1      19.412  33.161  43.549  1.00  0.00     0.238 A 
ATOM      4  O   UNL     1      19.904  32.011  43.390  1.00  0.00    -0.285 OA
ATOM      5  C   UNL     1      20.143  34.178  44.196  1.00  0.00     0.111 A 
ATOM      6  C   UNL     1      21.453  33.989  44.700  1.00  0.00     0.134 A 
ATOM      7  C   UNL     1      22.110  35.050  45.342  1.00  0.00     0.093 A 
ATOM      8  C   UNL     1      21.484  36.293  45.488  1.00  0.00     0.123 A 
ATOM      9  C   UNL     1      20.193  36.483  44.993  1.00  0.00     0.094 A 
ATOM     10  C   UNL     1      19.522  35.440  44.349  1.00  0.00     0.146 A 
ATOM     11  O   UNL     1      18.296  35.650  43.882  1.00  0.00    -0.452 OA
ENDROOT
BRANCH   1  12
ATOM     12  C   UNL     1      16.231  35.084  42.772  1.00  0.00     0.025 A 
ATOM     13  C   UNL     1      13.854  35.416  43.239  1.00  0.00     0.161 A 
ATOM     14  C   UNL     1      13.658  35.826  41.914  1.00  0.00     0.157 A 
ATOM     15  C   UNL     1      15.147  35.052  43.664  1.00  0.00     0.062 A 
ATOM     16  C   UNL     1      14.739  35.879  41.026  1.00  0.00     0.051 A 
ATOM     17  C   UNL     1      16.019  35.518  41.452  1.00  0.00     0.016 A 
BRANCH  13  18
ATOM     18  O   UNL     1      12.746  35.383  44.100  1.00  0.00    -0.493 OA
ATOM     19  C   UNL     1      12.811  35.066  45.487  1.00  0.00     0.278 C 
ENDBRANCH  13  18
BRANCH  14  20
ATOM     20  O   UNL     1      12.380  36.187  41.486  1.00  0.00    -0.504 OA
ATOM     21  H   UNL     1      12.045  37.141  41.560  1.00  0.00     0.293 HD
ENDBRANCH  14  20
ENDBRANCH   1  12
BRANCH   2  22
ATOM     22  O   UNL     1      17.353  32.423  42.480  1.00  0.00    -0.502 OA
ATOM     23  H   UNL     1      16.482  32.092  42.877  1.00  0.00     0.293 HD
ENDBRANCH   2  22
BRANCH   6  24
ATOM     24  O   UNL     1      22.103  32.761  44.570  1.00  0.00    -0.507 OA
ATOM     25  H   UNL     1      23.108  32.678  44.665  1.00  0.00     0.293 HD
ENDBRANCH   6  24
BRANCH   8  26
ATOM     26  O   UNL     1      22.136  37.345  46.125  1.00  0.00    -0.508 OA
ATOM     27  H   UNL     1      22.840  37.181  46.836  1.00  0.00     0.293 HD
ENDBRANCH   8  26
TORSDOF 6
ENDMDL
MODEL 6
REMARK VINA RESULT:    -3.464      2.375      7.987
REMARK INTER + INTRA:          -4.672
REMARK INTER:                  -4.274
REMARK INTRA:                  -0.398
REMARK UNBOUND:                -0.398
REMARK SMILES COc1cc(-c2oc3cc(O)cc(O)c3c(=O)c2O)ccc1O
REMARK SMILES IDX 6 1 18 2 16 3 17 4 15 5 13 6 12 7 10 8 9 9 8 10 7 11 5 12
REMARK SMILES IDX 3 13 22 14 4 15 21 16 20 17 2 18 1 19 23 20 19 22 14 24
REMARK SMILES IDX 11 26
REMARK H PARENT 23 21 19 23 14 25 11 27
REMARK Flexibility Score: inf
ROOT
ATOM      1  C   UNL     1      16.950  35.156  41.965  1.00  0.00     0.180 A 
ATOM      2  C   UNL     1      17.335  35.381  40.630  1.00  0.00     0.208 A 
ATOM      3  C   UNL     1      16.387  35.884  39.726  1.00  0.00     0.238 A 
ATOM      4  O   UNL     1      16.717  36.079  38.525  1.00  0.00    -0.285 OA
ATOM      5  C   UNL     1      15.081  36.171  40.174  1.00  0.00     0.111 A 
ATOM      6  C   UNL     1      14.067  36.684  39.328  1.00  0.00     0.134 A 
ATOM      7  C   UNL     1      12.795  36.953  39.853  1.00  0.00     0.093 A 
ATOM      8  C   UNL     1      12.516  36.720  41.205  1.00  0.00     0.123 A 
ATOM      9  C   UNL     1      13.512  36.215  42.042  1.00  0.00     0.094 A 
ATOM     10  C   UNL     1      14.786  35.938  41.538  1.00  0.00     0.146 A 
ATOM     11  O   UNL     1      15.714  35.452  42.355  1.00  0.00    -0.452 OA
ENDROOT
BRANCH   1  12
ATOM     12  C   UNL     1      17.888  34.611  42.973  1.00  0.00     0.025 A 
ATOM     13  C   UNL     1      19.459  34.999  44.806  1.00  0.00     0.161 A 
ATOM     14  C   UNL     1      19.632  33.615  44.942  1.00  0.00     0.157 A 
ATOM     15  C   UNL     1      18.579  35.491  43.822  1.00  0.00     0.062 A 
ATOM     16  C   UNL     1      18.930  32.734  44.111  1.00  0.00     0.051 A 
ATOM     17  C   UNL     1      18.059  33.226  43.138  1.00  0.00     0.016 A 
BRANCH  13  18
ATOM     18  O   UNL     1      20.175  35.850  45.663  1.00  0.00    -0.493 OA
ATOM     19  C   UNL     1      20.886  37.009  45.239  1.00  0.00     0.278 C 
ENDBRANCH  13  18
BRANCH  14  20
ATOM     20  O   UNL     1      20.503  33.122  45.913  1.00  0.00    -0.504 OA
ATOM     21  H   UNL     1      20.942  32.213  45.819  1.00  0.00     0.293 HD
ENDBRANCH  14  20
ENDBRANCH   1  12
BRANCH   2  22
ATOM     22  O   UNL     1      18.649  35.135  40.222  1.00  0.00    -0.502 OA
ATOM     23  H   UNL     1      19.444  35.282  40.832  1.00  0.00     0.293 HD
ENDBRANCH   2  22
BRANCH   6  24
ATOM     24  O   UNL     1      14.314  36.928  37.976  1.00  0.00    -0.507 OA
ATOM     25  H   UNL     1      13.932  36.335  37.249  1.00  0.00     0.293 HD
ENDBRANCH   6  24
BRANCH   8  26
ATOM     26  O   UNL     1      11.253  36.988  41.726  1.00  0.00    -0.508 OA
ATOM     27  H   UNL     1      11.123  37.243  42.698  1.00  0.00     0.293 HD
ENDBRANCH   8  26
TORSDOF 6
ENDMDL
MODEL 7
REMARK VINA RESULT:    -3.350      2.562      7.459
REMARK INTER + INTRA:          -4.531
REMARK INTER:                  -4.161
REMARK INTRA:                  -0.370
REMARK UNBOUND:                -0.398
REMARK SMILES COc1cc(-c2oc3cc(O)cc(O)c3c(=O)c2O)ccc1O
REMARK SMILES IDX 6 1 18 2 16 3 17 4 15 5 13 6 12 7 10 8 9 9 8 10 7 11 5 12
REMARK SMILES IDX 3 13 22 14 4 15 21 16 20 17 2 18 1 19 23 20 19 22 14 24
REMARK SMILES IDX 11 26
REMARK H PARENT 23 21 19 23 14 25 11 27
REMARK Flexibility Score: inf
ROOT
ATOM      1  C   UNL     1      20.181  34.215  41.452  1.00  0.00     0.180 A 
ATOM      2  C   UNL     1      20.758  34.399  40.181  1.00  0.00     0.208 A 
ATOM      3  C   UNL     1      19.925  34.715  39.098  1.00  0.00     0.238 A 
ATOM      4  O   UNL     1      20.429  34.872  37.952  1.00  0.00    -0.285 OA
ATOM      5  C   UNL     1      18.537  34.861  39.304  1.00  0.00     0.111 A 
ATOM      6  C   UNL     1      17.630  35.183  38.265  1.00  0.00     0.134 A 
ATOM      7  C   UNL     1      16.264  35.320  38.555  1.00  0.00     0.093 A 
ATOM      8  C   UNL     1      15.789  35.143  39.860  1.00  0.00     0.123 A 
ATOM      9  C   UNL     1      16.681  34.826  40.886  1.00  0.00     0.094 A 
ATOM     10  C   UNL     1      18.045  34.683  40.618  1.00  0.00     0.146 A 
ATOM     11  O   UNL     1      18.871  34.375  41.613  1.00  0.00    -0.452 OA
ENDROOT
BRANCH   1  12
ATOM     12  C   UNL     1      20.991  33.862  42.641  1.00  0.00     0.025 A 
ATOM     13  C   UNL     1      22.039  34.539  44.744  1.00  0.00     0.161 A 
ATOM     14  C   UNL     1      22.475  33.223  44.942  1.00  0.00     0.157 A 
ATOM     15  C   UNL     1      21.291  34.852  43.592  1.00  0.00     0.062 A 
ATOM     16  C   UNL     1      22.162  32.229  44.007  1.00  0.00     0.051 A 
ATOM     17  C   UNL     1      21.419  32.544  42.867  1.00  0.00     0.016 A 
BRANCH  13  18
ATOM     18  O   UNL     1      22.368  35.505  45.707  1.00  0.00    -0.493 OA
ATOM     19  C   UNL     1      21.606  36.681  45.964  1.00  0.00     0.278 C 
ENDBRANCH  13  18
BRANCH  14  20
ATOM     20  O   UNL     1      23.218  32.907  46.080  1.00  0.00    -0.504 OA
ATOM     21  H   UNL     1      23.935  33.529  46.434  1.00  0.00     0.293 HD
ENDBRANCH  14  20
ENDBRANCH   1  12
BRANCH   2  22
ATOM     22  O   UNL     1      22.142  34.297  40.012  1.00  0.00    -0.502 OA
ATOM     23  H   UNL     1      22.797  34.513  40.753  1.00  0.00     0.293 HD
ENDBRANCH   2  22
BRANCH   6  24
ATOM     24  O   UNL     1      18.072  35.367  36.955  1.00  0.00    -0.507 OA
ATOM     25  H   UNL     1      17.604  34.933  36.169  1.00  0.00     0.293 HD
ENDBRANCH   6  24
BRANCH   8  26
ATOM     26  O   UNL     1      14.434  35.280  40.147  1.00  0.00    -0.508 OA
ATOM     27  H   UNL     1      14.096  35.986  40.791  1.00  0.00     0.293 HD
ENDBRANCH   8  26
TORSDOF 6
ENDMDL
MODEL 8
REMARK VINA RESULT:    -3.327      2.159      7.692
REMARK INTER + INTRA:          -4.503
REMARK INTER:                  -4.108
REMARK INTRA:                  -0.395
REMARK UNBOUND:                -0.398
REMARK SMILES COc1cc(-c2oc3cc(O)cc(O)c3c(=O)c2O)ccc1O
REMARK SMILES IDX 6 1 18 2 16 3 17 4 15 5 13 6 12 7 10 8 9 9 8 10 7 11 5 12
REMARK SMILES IDX 3 13 22 14 4 15 21 16 20 17 2 18 1 19 23 20 19 22 14 24
REMARK SMILES IDX 11 26
REMARK H PARENT 23 21 19 23 14 25 11 27
REMARK Flexibility Score: inf
ROOT
ATOM      1  C   UNL     1      17.031  35.091  42.211  1.00  0.00     0.180 A 
ATOM      2  C   UNL     1      15.669  35.148  42.562  1.00  0.00     0.208 A 
ATOM      3  C   UNL     1      14.744  35.612  41.615  1.00  0.00     0.238 A 
ATOM      4  O   UNL     1      13.522  35.678  41.921  1.00  0.00    -0.285 OA
ATOM      5  C   UNL     1      15.190  35.992  40.332  1.00  0.00     0.111 A 
ATOM      6  C   UNL     1      14.321  36.467  39.320  1.00  0.00     0.134 A 
ATOM      7  C   UNL     1      14.842  36.814  38.064  1.00  0.00     0.093 A 
ATOM      8  C   UNL     1      16.212  36.698  37.803  1.00  0.00     0.123 A 
ATOM      9  C   UNL     1      17.072  36.231  38.799  1.00  0.00     0.094 A 
ATOM     10  C   UNL     1      16.572  35.880  40.056  1.00  0.00     0.146 A 
ATOM     11  O   UNL     1      17.414  35.443  40.988  1.00  0.00    -0.452 OA
ENDROOT
BRANCH   1  12
ATOM     12  C   UNL     1      18.070  34.630  43.161  1.00  0.00     0.025 A 
ATOM     13  C   UNL     1      19.581  35.120  45.020  1.00  0.00     0.161 A 
ATOM     14  C   UNL     1      20.000  33.783  45.023  1.00  0.00     0.157 A 
ATOM     15  C   UNL     1      18.608  35.536  44.089  1.00  0.00     0.062 A 
ATOM     16  C   UNL     1      19.451  32.872  44.113  1.00  0.00     0.051 A 
ATOM     17  C   UNL     1      18.487  33.289  43.192  1.00  0.00     0.016 A 
BRANCH  13  18
ATOM     18  O   UNL     1      20.150  36.001  45.953  1.00  0.00    -0.493 OA
ATOM     19  C   UNL     1      21.137  36.979  45.641  1.00  0.00     0.278 C 
ENDBRANCH  13  18
BRANCH  14  20
ATOM     20  O   UNL     1      20.963  33.364  45.941  1.00  0.00    -0.504 OA
ATOM     21  H   UNL     1      20.733  32.732  46.699  1.00  0.00     0.293 HD
ENDBRANCH  14  20
ENDBRANCH   1  12
BRANCH   2  22
ATOM     22  O   UNL     1      15.246  34.720  43.824  1.00  0.00    -0.502 OA
ATOM     23  H   UNL     1      14.419  34.150  43.955  1.00  0.00     0.293 HD
ENDBRANCH   2  22
BRANCH   6  24
ATOM     24  O   UNL     1      12.950  36.593  39.549  1.00  0.00    -0.507 OA
ATOM     25  H   UNL     1      12.311  36.878  38.817  1.00  0.00     0.293 HD
ENDBRANCH   6  24
BRANCH   8  26
ATOM     26  O   UNL     1      16.729  37.043  36.557  1.00  0.00    -0.508 OA
ATOM     27  H   UNL     1      17.129  36.347  35.937  1.00  0.00     0.293 HD
ENDBRANCH   8  26
TORSDOF 6
ENDMDL
MODEL 9
REMARK VINA RESULT:    -3.286      2.731      3.168
REMARK INTER + INTRA:          -4.452
REMARK INTER:                  -4.050
REMARK INTRA:                  -0.402
REMARK UNBOUND:                -0.398
REMARK SMILES COc1cc(-c2oc3cc(O)cc(O)c3c(=O)c2O)ccc1O
REMARK SMILES IDX 6 1 18 2 16 3 17 4 15 5 13 6 12 7 10 8 9 9 8 10 7 11 5 12
REMARK SMILES IDX 3 13 22 14 4 15 21 16 20 17 2 18 1 19 23 20 19 22 14 24
REMARK SMILES IDX 11 26
REMARK H PARENT 23 21 19 23 14 25 11 27
REMARK Flexibility Score: inf
ROOT
ATOM      1  C   UNL     1      20.324  33.890  41.749  1.00  0.00     0.180 A 
ATOM      2  C   UNL     1      20.318  34.541  42.997  1.00  0.00     0.208 A 
ATOM      3  C   UNL     1      21.513  34.611  43.730  1.00  0.00     0.238 A 
ATOM      4  O   UNL     1      21.518  35.182  44.854  1.00  0.00    -0.285 OA
ATOM      5  C   UNL     1      22.692  34.049  43.198  1.00  0.00     0.111 A 
ATOM      6  C   UNL     1      23.937  34.080  43.872  1.00  0.00     0.134 A 
ATOM      7  C   UNL     1      25.067  33.507  43.270  1.00  0.00     0.093 A 
ATOM      8  C   UNL     1      24.976  32.903  42.010  1.00  0.00     0.123 A 
ATOM      9  C   UNL     1      23.750  32.870  41.343  1.00  0.00     0.094 A 
ATOM     10  C   UNL     1      22.612  33.434  41.927  1.00  0.00     0.146 A 
ATOM     11  O   UNL     1      21.457  33.384  41.272  1.00  0.00    -0.452 OA
ENDROOT
BRANCH   1  12
ATOM     12  C   UNL     1      19.100  33.759  40.924  1.00  0.00     0.025 A 
ATOM     13  C   UNL     1      17.645  34.646  39.171  1.00  0.00     0.161 A 
ATOM     14  C   UNL     1      16.820  33.521  39.296  1.00  0.00     0.157 A 
ATOM     15  C   UNL     1      18.790  34.756  39.985  1.00  0.00     0.062 A 
ATOM     16  C   UNL     1      17.136  32.515  40.217  1.00  0.00     0.051 A 
ATOM     17  C   UNL     1      18.272  32.628  41.021  1.00  0.00     0.016 A 
BRANCH  13  18
ATOM     18  O   UNL     1      17.298  35.630  38.231  1.00  0.00    -0.493 OA
ATOM     19  C   UNL     1      16.689  36.876  38.555  1.00  0.00     0.278 C 
ENDBRANCH  13  18
BRANCH  14  20
ATOM     20  O   UNL     1      15.684  33.407  38.494  1.00  0.00    -0.504 OA
ATOM     21  H   UNL     1      14.759  33.614  38.852  1.00  0.00     0.293 HD
ENDBRANCH  14  20
ENDBRANCH   1  12
BRANCH   2  22
ATOM     22  O   UNL     1      19.148  35.133  43.480  1.00  0.00    -0.502 OA
ATOM     23  H   UNL     1      18.488  34.634  44.065  1.00  0.00     0.293 HD
ENDBRANCH   2  22
BRANCH   6  24
ATOM     24  O   UNL     1      24.060  34.675  45.128  1.00  0.00    -0.507 OA
ATOM     25  H   UNL     1      24.858  35.250  45.370  1.00  0.00     0.293 HD
ENDBRANCH   6  24
BRANCH   8  26
ATOM     26  O   UNL     1      26.097  32.335  41.413  1.00  0.00    -0.508 OA
ATOM     27  H   UNL     1      26.014  31.658  40.663  1.00  0.00     0.293 HD
ENDBRANCH   8  26
TORSDOF 6
ENDMDL
