MODEL 1
REMARK VINA RESULT:    -3.073      0.000      0.000
REMARK INTER + INTRA:          -4.845
REMARK INTER:                  -4.151
REMARK INTRA:                  -0.694
REMARK UNBOUND:                -0.694
REMARK SMILES CCCCCCCC(C)=O
REMARK SMILES IDX 5 1 4 2 3 3 2 4 1 5 6 6 7 7 8 8 10 9 9 10
REMARK H PARENT
REMARK Flexibility Score: inf
ROOT
ATOM      1  C   UNL     1     116.538 119.189 112.003  1.00  0.00     0.000 C 
ENDROOT
BRANCH   1   2
ATOM      2  C   UNL     1     117.246 117.830 111.875  1.00  0.00     0.000 C 
BRANCH   2   3
ATOM      3  C   UNL     1     117.763 117.305 113.224  1.00  0.00    -0.000 C 
BRANCH   3   4
ATOM      4  C   UNL     1     118.571 118.357 113.997  1.00  0.00    -0.003 C 
ATOM      5  C   UNL     1     119.957 118.543 113.387  1.00  0.00     0.004 C 
ENDBRANCH   3   4
ENDBRANCH   2   3
ENDBRANCH   1   2
BRANCH   1   6
ATOM      6  C   UNL     1     115.048 119.047 112.357  1.00  0.00     0.008 C 
BRANCH   6   7
ATOM      7  C   UNL     1     114.629 119.958 113.520  1.00  0.00     0.075 C 
BRANCH   7   8
ATOM      8  C   UNL     1     115.063 119.369 114.837  1.00  0.00     0.129 C 
ATOM      9  O   UNL     1     115.706 120.054 115.619  1.00  0.00    -0.300 OA
ATOM     10  C   UNL     1     114.734 117.952 115.206  1.00  0.00     0.087 C 
ENDBRANCH   7   8
ENDBRANCH   6   7
ENDBRANCH   1   6
TORSDOF 6
ENDMDL
MODEL 2
REMARK VINA RESULT:    -3.020      1.885      4.127
REMARK INTER + INTRA:          -4.773
REMARK INTER:                  -3.924
REMARK INTRA:                  -0.849
REMARK UNBOUND:                -0.694
REMARK SMILES CCCCCCCC(C)=O
REMARK SMILES IDX 5 1 4 2 3 3 2 4 1 5 6 6 7 7 8 8 10 9 9 10
REMARK H PARENT
REMARK Flexibility Score: inf
ROOT
ATOM      1  C   UNL     1     116.270 119.260 115.639  1.00  0.00     0.000 C 
ENDROOT
BRANCH   1   2
ATOM      2  C   UNL     1     115.245 119.729 114.592  1.00  0.00     0.000 C 
BRANCH   2   3
ATOM      3  C   UNL     1     114.711 118.573 113.731  1.00  0.00    -0.000 C 
BRANCH   3   4
ATOM      4  C   UNL     1     114.725 118.898 112.231  1.00  0.00    -0.003 C 
ATOM      5  C   UNL     1     115.609 120.106 111.938  1.00  0.00     0.004 C 
ENDBRANCH   3   4
ENDBRANCH   2   3
ENDBRANCH   1   2
BRANCH   1   6
ATOM      6  C   UNL     1     117.075 118.037 115.170  1.00  0.00     0.008 C 
BRANCH   6   7
ATOM      7  C   UNL     1     118.436 118.420 114.573  1.00  0.00     0.075 C 
BRANCH   7   8
ATOM      8  C   UNL     1     118.499 118.043 113.115  1.00  0.00     0.129 C 
ATOM      9  O   UNL     1     119.083 118.775 112.330  1.00  0.00    -0.300 OA
ATOM     10  C   UNL     1     117.848 116.792 112.602  1.00  0.00     0.087 C 
ENDBRANCH   7   8
ENDBRANCH   6   7
ENDBRANCH   1   6
TORSDOF 6
ENDMDL
MODEL 3
REMARK VINA RESULT:    -3.003      3.971      5.564
REMARK INTER + INTRA:          -4.750
REMARK INTER:                  -4.099
REMARK INTRA:                  -0.652
REMARK UNBOUND:                -0.694
REMARK SMILES CCCCCCCC(C)=O
REMARK SMILES IDX 5 1 4 2 3 3 2 4 1 5 6 6 7 7 8 8 10 9 9 10
REMARK H PARENT
REMARK Flexibility Score: inf
ROOT
ATOM      1  C   UNL     1     115.363 114.540 111.929  1.00  0.00     0.000 C 
ENDROOT
BRANCH   1   2
ATOM      2  C   UNL     1     113.908 115.006 112.108  1.00  0.00     0.000 C 
BRANCH   2   3
ATOM      3  C   UNL     1     113.320 114.596 113.468  1.00  0.00    -0.000 C 
BRANCH   3   4
ATOM      4  C   UNL     1     113.740 115.542 114.602  1.00  0.00    -0.003 C 
ATOM      5  C   UNL     1     114.574 114.808 115.649  1.00  0.00     0.004 C 
ENDBRANCH   3   4
ENDBRANCH   2   3
ENDBRANCH   1   2
BRANCH   1   6
ATOM      6  C   UNL     1     116.360 115.710 111.928  1.00  0.00     0.008 C 
BRANCH   6   7
ATOM      7  C   UNL     1     117.261 115.719 113.170  1.00  0.00     0.075 C 
BRANCH   7   8
ATOM      8  C   UNL     1     118.155 114.506 113.186  1.00  0.00     0.129 C 
ATOM      9  O   UNL     1     118.903 114.299 112.242  1.00  0.00    -0.300 OA
ATOM     10  C   UNL     1     118.138 113.537 114.331  1.00  0.00     0.087 C 
ENDBRANCH   7   8
ENDBRANCH   6   7
ENDBRANCH   1   6
TORSDOF 6
ENDMDL
MODEL 4
REMARK VINA RESULT:    -3.001      3.689      4.700
REMARK INTER + INTRA:          -4.748
REMARK INTER:                  -3.900
REMARK INTRA:                  -0.849
REMARK UNBOUND:                -0.694
REMARK SMILES CCCCCCCC(C)=O
REMARK SMILES IDX 5 1 4 2 3 3 2 4 1 5 6 6 7 7 8 8 10 9 9 10
REMARK H PARENT
REMARK Flexibility Score: inf
ROOT
ATOM      1  C   UNL     1     116.401 114.339 115.251  1.00  0.00     0.000 C 
ENDROOT
BRANCH   1   2
ATOM      2  C   UNL     1     117.586 113.651 114.552  1.00  0.00     0.000 C 
BRANCH   2   3
ATOM      3  C   UNL     1     118.470 114.643 113.779  1.00  0.00    -0.000 C 
BRANCH   3   4
ATOM      4  C   UNL     1     118.658 114.244 112.308  1.00  0.00    -0.003 C 
ATOM      5  C   UNL     1     117.736 113.089 111.929  1.00  0.00     0.004 C 
ENDBRANCH   3   4
ENDBRANCH   2   3
ENDBRANCH   1   2
BRANCH   1   6
ATOM      6  C   UNL     1     116.302 115.835 114.909  1.00  0.00     0.008 C 
BRANCH   6   7
ATOM      7  C   UNL     1     114.991 116.191 114.194  1.00  0.00     0.075 C 
BRANCH   7   8
ATOM      8  C   UNL     1     115.044 115.766 112.749  1.00  0.00     0.129 C 
ATOM      9  O   UNL     1     115.817 116.324 111.986  1.00  0.00    -0.300 OA
ATOM     10  C   UNL     1     114.155 114.678 112.222  1.00  0.00     0.087 C 
ENDBRANCH   7   8
ENDBRANCH   6   7
ENDBRANCH   1   6
TORSDOF 6
ENDMDL
MODEL 5
REMARK VINA RESULT:    -2.997      2.936      4.042
REMARK INTER + INTRA:          -4.742
REMARK INTER:                  -4.175
REMARK INTRA:                  -0.567
REMARK UNBOUND:                -0.694
REMARK SMILES CCCCCCCC(C)=O
REMARK SMILES IDX 5 1 4 2 3 3 2 4 1 5 6 6 7 7 8 8 10 9 9 10
REMARK H PARENT
REMARK Flexibility Score: inf
ROOT
ATOM      1  C   UNL     1     113.846 116.520 111.875  1.00  0.00     0.000 C 
ENDROOT
BRANCH   1   2
ATOM      2  C   UNL     1     115.112 117.372 112.066  1.00  0.00     0.000 C 
BRANCH   2   3
ATOM      3  C   UNL     1     114.801 118.873 112.183  1.00  0.00    -0.000 C 
BRANCH   3   4
ATOM      4  C   UNL     1     114.755 119.355 113.640  1.00  0.00    -0.003 C 
ATOM      5  C   UNL     1     115.834 118.676 114.478  1.00  0.00     0.004 C 
ENDBRANCH   3   4
ENDBRANCH   2   3
ENDBRANCH   1   2
BRANCH   1   6
ATOM      6  C   UNL     1     114.079 115.036 112.201  1.00  0.00     0.008 C 
BRANCH   6   7
ATOM      7  C   UNL     1     113.379 114.598 113.495  1.00  0.00     0.075 C 
BRANCH   7   8
ATOM      8  C   UNL     1     114.082 115.173 114.697  1.00  0.00     0.129 C 
ATOM      9  O   UNL     1     113.516 116.013 115.380  1.00  0.00    -0.300 OA
ATOM     10  C   UNL     1     115.471 114.743 115.070  1.00  0.00     0.087 C 
ENDBRANCH   7   8
ENDBRANCH   6   7
ENDBRANCH   1   6
TORSDOF 6
ENDMDL
MODEL 6
REMARK VINA RESULT:    -2.972      3.009      4.148
REMARK INTER + INTRA:          -4.708
REMARK INTER:                  -4.065
REMARK INTRA:                  -0.643
REMARK UNBOUND:                -0.694
REMARK SMILES CCCCCCCC(C)=O
REMARK SMILES IDX 5 1 4 2 3 3 2 4 1 5 6 6 7 7 8 8 10 9 9 10
REMARK H PARENT
REMARK Flexibility Score: inf
ROOT
ATOM      1  C   UNL     1     114.622 117.893 111.999  1.00  0.00     0.000 C 
ENDROOT
BRANCH   1   2
ATOM      2  C   UNL     1     115.085 119.350 112.174  1.00  0.00     0.000 C 
BRANCH   2   3
ATOM      3  C   UNL     1     114.645 119.951 113.518  1.00  0.00    -0.000 C 
BRANCH   3   4
ATOM      4  C   UNL     1     115.559 119.536 114.679  1.00  0.00    -0.003 C 
ATOM      5  C   UNL     1     114.807 118.676 115.691  1.00  0.00     0.004 C 
ENDBRANCH   3   4
ENDBRANCH   2   3
ENDBRANCH   1   2
BRANCH   1   6
ATOM      6  C   UNL     1     115.793 116.897 112.019  1.00  0.00     0.008 C 
BRANCH   6   7
ATOM      7  C   UNL     1     115.778 115.994 113.261  1.00  0.00     0.075 C 
BRANCH   7   8
ATOM      8  C   UNL     1     114.593 115.064 113.225  1.00  0.00     0.129 C 
ATOM      9  O   UNL     1     114.463 114.292 112.287  1.00  0.00    -0.300 OA
ATOM     10  C   UNL     1     113.558 115.073 114.312  1.00  0.00     0.087 C 
ENDBRANCH   7   8
ENDBRANCH   6   7
ENDBRANCH   1   6
TORSDOF 6
ENDMDL
MODEL 7
REMARK VINA RESULT:    -2.936      3.963      5.615
REMARK INTER + INTRA:          -4.660
REMARK INTER:                  -4.037
REMARK INTRA:                  -0.623
REMARK UNBOUND:                -0.694
REMARK SMILES CCCCCCCC(C)=O
REMARK SMILES IDX 5 1 4 2 3 3 2 4 1 5 6 6 7 7 8 8 10 9 9 10
REMARK H PARENT
REMARK Flexibility Score: inf
ROOT
ATOM      1  C   UNL     1     116.870 113.837 111.875  1.00  0.00     0.000 C 
ENDROOT
BRANCH   1   2
ATOM      2  C   UNL     1     115.871 114.952 112.232  1.00  0.00     0.000 C 
BRANCH   2   3
ATOM      3  C   UNL     1     114.464 114.410 112.529  1.00  0.00    -0.000 C 
BRANCH   3   4
ATOM      4  C   UNL     1     113.963 114.802 113.927  1.00  0.00    -0.003 C 
ATOM      5  C   UNL     1     114.585 116.117 114.385  1.00  0.00     0.004 C 
ENDBRANCH   3   4
ENDBRANCH   2   3
ENDBRANCH   1   2
BRANCH   1   6
ATOM      6  C   UNL     1     118.262 114.078 112.481  1.00  0.00     0.008 C 
BRANCH   6   7
ATOM      7  C   UNL     1     118.478 113.304 113.789  1.00  0.00     0.075 C 
BRANCH   7   8
ATOM      8  C   UNL     1     118.089 114.149 114.974  1.00  0.00     0.129 C 
ATOM      9  O   UNL     1     118.642 115.224 115.153  1.00  0.00    -0.300 OA
ATOM     10  C   UNL     1     117.044 113.693 115.950  1.00  0.00     0.087 C 
ENDBRANCH   7   8
ENDBRANCH   6   7
ENDBRANCH   1   6
TORSDOF 6
ENDMDL
MODEL 8
REMARK VINA RESULT:    -2.926      2.121      3.297
REMARK INTER + INTRA:          -4.646
REMARK INTER:                  -4.259
REMARK INTRA:                  -0.388
REMARK UNBOUND:                -0.694
REMARK SMILES CCCCCCCC(C)=O
REMARK SMILES IDX 5 1 4 2 3 3 2 4 1 5 6 6 7 7 8 8 10 9 9 10
REMARK H PARENT
REMARK Flexibility Score: inf
ROOT
ATOM      1  C   UNL     1     119.451 117.302 111.959  1.00  0.00     0.000 C 
ENDROOT
BRANCH   1   2
ATOM      2  C   UNL     1     118.768 115.969 112.314  1.00  0.00     0.000 C 
BRANCH   2   3
ATOM      3  C   UNL     1     118.544 115.806 113.825  1.00  0.00    -0.000 C 
BRANCH   3   4
ATOM      4  C   UNL     1     118.100 114.387 114.207  1.00  0.00    -0.003 C 
ATOM      5  C   UNL     1     118.587 113.365 113.185  1.00  0.00     0.004 C 
ENDBRANCH   3   4
ENDBRANCH   2   3
ENDBRANCH   1   2
BRANCH   1   6
ATOM      6  C   UNL     1     118.721 118.515 112.557  1.00  0.00     0.008 C 
BRANCH   6   7
ATOM      7  C   UNL     1     117.352 118.760 111.907  1.00  0.00     0.075 C 
BRANCH   7   8
ATOM      8  C   UNL     1     116.278 118.866 112.958  1.00  0.00     0.129 C 
ATOM      9  O   UNL     1     116.592 118.890 114.138  1.00  0.00    -0.300 OA
ATOM     10  C   UNL     1     114.825 118.931 112.587  1.00  0.00     0.087 C 
ENDBRANCH   7   8
ENDBRANCH   6   7
ENDBRANCH   1   6
TORSDOF 6
ENDMDL
MODEL 9
REMARK VINA RESULT:    -2.914      3.973      5.932
REMARK INTER + INTRA:          -4.630
REMARK INTER:                  -4.097
REMARK INTRA:                  -0.533
REMARK UNBOUND:                -0.694
REMARK SMILES CCCCCCCC(C)=O
REMARK SMILES IDX 5 1 4 2 3 3 2 4 1 5 6 6 7 7 8 8 10 9 9 10
REMARK H PARENT
REMARK Flexibility Score: inf
ROOT
ATOM      1  C   UNL     1     115.624 114.523 115.150  1.00  0.00     0.000 C 
ENDROOT
BRANCH   1   2
ATOM      2  C   UNL     1     114.461 115.090 114.319  1.00  0.00     0.000 C 
BRANCH   2   3
ATOM      3  C   UNL     1     114.312 114.389 112.958  1.00  0.00    -0.000 C 
BRANCH   3   4
ATOM      4  C   UNL     1     113.736 115.314 111.877  1.00  0.00    -0.003 C 
ATOM      5  C   UNL     1     114.436 116.670 111.884  1.00  0.00     0.004 C 
ENDBRANCH   3   4
ENDBRANCH   2   3
ENDBRANCH   1   2
BRANCH   1   6
ATOM      6  C   UNL     1     116.986 115.100 114.729  1.00  0.00     0.008 C 
BRANCH   6   7
ATOM      7  C   UNL     1     117.982 114.013 114.302  1.00  0.00     0.075 C 
BRANCH   7   8
ATOM      8  C   UNL     1     118.251 114.093 112.822  1.00  0.00     0.129 C 
ATOM      9  O   UNL     1     118.873 115.044 112.374  1.00  0.00    -0.300 OA
ATOM     10  C   UNL     1     117.759 113.032 111.880  1.00  0.00     0.087 C 
ENDBRANCH   7   8
ENDBRANCH   6   7
ENDBRANCH   1   6
TORSDOF 6
ENDMDL
