MODEL 1
REMARK VINA RESULT:    -4.198      0.000      0.000
REMARK INTER + INTRA:          -9.066
REMARK INTER:                  -7.388
REMARK INTRA:                  -1.678
REMARK UNBOUND:                -1.678
REMARK SMILES CCCCCCC=CCCCCCCCC(=O)[O-]
REMARK SMILES IDX 10 1 11 2 12 3 13 4 14 5 15 6 16 7 17 8 18 9 9 10 8 11 7 12
REMARK SMILES IDX 6 13 5 14 4 15 3 16 2 17 1 18
REMARK H PARENT
REMARK Flexibility Score: inf
ROOT
ATOM      1  C   UNL     1      17.384  10.927   0.386  1.00  0.00     0.004 C 
ENDROOT
BRANCH   1   2
ATOM      2  C   UNL     1      16.707  10.198  -0.788  1.00  0.00     0.000 C 
BRANCH   2   3
ATOM      3  C   UNL     1      17.707   9.367  -1.618  1.00  0.00     0.000 C 
BRANCH   3   4
ATOM      4  C   UNL     1      17.368   7.866  -1.693  1.00  0.00     0.000 C 
BRANCH   4   5
ATOM      5  C   UNL     1      18.305   6.966  -0.863  1.00  0.00     0.006 C 
BRANCH   5   6
ATOM      6  C   UNL     1      17.950   6.969   0.630  1.00  0.00     0.053 C 
BRANCH   6   7
ATOM      7  C   UNL     1      18.779   5.964   1.367  1.00  0.00     0.041 C 
ATOM      8  O   UNL     1      19.376   6.291   2.427  1.00  0.00    -0.550 OA
ATOM      9  O   UNL     1      18.851   4.654   0.911  1.00  0.00    -0.550 OA
ENDBRANCH   6   7
ENDBRANCH   5   6
ENDBRANCH   4   5
ENDBRANCH   3   4
ENDBRANCH   2   3
ENDBRANCH   1   2
BRANCH   1  10
ATOM     10  C   UNL     1      16.854  10.450   1.746  1.00  0.00     0.027 C 
BRANCH  10  11
ATOM     11  C   UNL     1      17.974  10.088   2.691  1.00  0.00    -0.031 C 
ATOM     12  C   UNL     1      18.274  10.762   3.816  1.00  0.00    -0.031 C 
BRANCH  12  13
ATOM     13  C   UNL     1      17.601  12.037   4.256  1.00  0.00     0.027 C 
BRANCH  13  14
ATOM     14  C   UNL     1      18.593  13.205   4.251  1.00  0.00     0.004 C 
BRANCH  14  15
ATOM     15  C   UNL     1      18.510  13.991   2.934  1.00  0.00     0.000 C 
BRANCH  15  16
ATOM     16  C   UNL     1      17.080  14.061   2.367  1.00  0.00    -0.000 C 
BRANCH  16  17
ATOM     17  C   UNL     1      16.945  14.847   1.051  1.00  0.00    -0.003 C 
ATOM     18  C   UNL     1      16.033  14.160   0.035  1.00  0.00     0.004 C 
ENDBRANCH  16  17
ENDBRANCH  15  16
ENDBRANCH  14  15
ENDBRANCH  13  14
ENDBRANCH  12  13
ENDBRANCH  10  11
ENDBRANCH   1  10
TORSDOF 13
ENDMDL
MODEL 2
REMARK VINA RESULT:    -4.112      1.032      2.653
REMARK INTER + INTRA:          -8.915
REMARK INTER:                  -7.092
REMARK INTRA:                  -1.823
REMARK UNBOUND:                -1.678
REMARK SMILES CCCCCCC=CCCCCCCCC(=O)[O-]
REMARK SMILES IDX 10 1 11 2 12 3 13 4 14 5 15 6 16 7 17 8 18 9 9 10 8 11 7 12
REMARK SMILES IDX 6 13 5 14 4 15 3 16 2 17 1 18
REMARK H PARENT
REMARK Flexibility Score: inf
ROOT
ATOM      1  C   UNL     1      16.979  10.275   0.945  1.00  0.00     0.004 C 
ENDROOT
BRANCH   1   2
ATOM      2  C   UNL     1      17.322  10.192  -0.553  1.00  0.00     0.000 C 
BRANCH   2   3
ATOM      3  C   UNL     1      16.920   8.839  -1.173  1.00  0.00     0.000 C 
BRANCH   3   4
ATOM      4  C   UNL     1      18.091   7.850  -1.340  1.00  0.00     0.000 C 
BRANCH   4   5
ATOM      5  C   UNL     1      17.853   6.475  -0.684  1.00  0.00     0.006 C 
BRANCH   5   6
ATOM      6  C   UNL     1      17.256   6.593   0.724  1.00  0.00     0.053 C 
BRANCH   6   7
ATOM      7  C   UNL     1      18.343   6.640   1.751  1.00  0.00     0.041 C 
ATOM      8  O   UNL     1      18.297   7.484   2.685  1.00  0.00    -0.550 OA
ATOM      9  O   UNL     1      19.381   5.717   1.708  1.00  0.00    -0.550 OA
ENDBRANCH   6   7
ENDBRANCH   5   6
ENDBRANCH   4   5
ENDBRANCH   3   4
ENDBRANCH   2   3
ENDBRANCH   1   2
BRANCH   1  10
ATOM     10  C   UNL     1      15.961  11.385   1.245  1.00  0.00     0.027 C 
BRANCH  10  11
ATOM     11  C   UNL     1      16.153  12.583   0.346  1.00  0.00    -0.031 C 
ATOM     12  C   UNL     1      16.567  13.793   0.762  1.00  0.00    -0.031 C 
BRANCH  12  13
ATOM     13  C   UNL     1      16.812  14.167   2.203  1.00  0.00     0.027 C 
BRANCH  13  14
ATOM     14  C   UNL     1      18.313  14.284   2.485  1.00  0.00     0.004 C 
BRANCH  14  15
ATOM     15  C   UNL     1      18.886  12.948   2.979  1.00  0.00     0.000 C 
BRANCH  15  16
ATOM     16  C   UNL     1      18.523  12.644   4.444  1.00  0.00    -0.000 C 
BRANCH  16  17
ATOM     17  C   UNL     1      17.472  11.535   4.633  1.00  0.00    -0.003 C 
ATOM     18  C   UNL     1      16.153  12.053   5.205  1.00  0.00     0.004 C 
ENDBRANCH  16  17
ENDBRANCH  15  16
ENDBRANCH  14  15
ENDBRANCH  13  14
ENDBRANCH  12  13
ENDBRANCH  10  11
ENDBRANCH   1  10
TORSDOF 13
ENDMDL
MODEL 3
REMARK VINA RESULT:    -4.059      2.586      6.343
REMARK INTER + INTRA:          -8.822
REMARK INTER:                  -6.666
REMARK INTRA:                  -2.156
REMARK UNBOUND:                -1.678
REMARK SMILES CCCCCCC=CCCCCCCCC(=O)[O-]
REMARK SMILES IDX 10 1 11 2 12 3 13 4 14 5 15 6 16 7 17 8 18 9 9 10 8 11 7 12
REMARK SMILES IDX 6 13 5 14 4 15 3 16 2 17 1 18
REMARK H PARENT
REMARK Flexibility Score: inf
ROOT
ATOM      1  C   UNL     1      17.167   9.037   2.067  1.00  0.00     0.004 C 
ENDROOT
BRANCH   1   2
ATOM      2  C   UNL     1      15.908   9.531   1.332  1.00  0.00     0.000 C 
BRANCH   2   3
ATOM      3  C   UNL     1      16.119  10.907   0.668  1.00  0.00     0.000 C 
BRANCH   3   4
ATOM      4  C   UNL     1      17.350  11.675   1.186  1.00  0.00     0.000 C 
BRANCH   4   5
ATOM      5  C   UNL     1      17.007  12.886   2.078  1.00  0.00     0.006 C 
BRANCH   5   6
ATOM      6  C   UNL     1      16.750  12.486   3.536  1.00  0.00     0.053 C 
BRANCH   6   7
ATOM      7  C   UNL     1      18.042  12.321   4.271  1.00  0.00     0.041 C 
ATOM      8  O   UNL     1      18.471  11.170   4.550  1.00  0.00    -0.550 OA
ATOM      9  O   UNL     1      18.801  13.437   4.602  1.00  0.00    -0.550 OA
ENDBRANCH   6   7
ENDBRANCH   5   6
ENDBRANCH   4   5
ENDBRANCH   3   4
ENDBRANCH   2   3
ENDBRANCH   1   2
BRANCH   1  10
ATOM     10  C   UNL     1      17.143   7.519   2.300  1.00  0.00     0.027 C 
BRANCH  10  11
ATOM     11  C   UNL     1      18.528   6.920   2.252  1.00  0.00    -0.031 C 
ATOM     12  C   UNL     1      18.864   5.828   1.541  1.00  0.00    -0.031 C 
BRANCH  12  13
ATOM     13  C   UNL     1      17.892   4.979   0.761  1.00  0.00     0.027 C 
BRANCH  13  14
ATOM     14  C   UNL     1      17.826   5.434  -0.701  1.00  0.00     0.004 C 
BRANCH  14  15
ATOM     15  C   UNL     1      16.447   6.022  -1.032  1.00  0.00     0.000 C 
BRANCH  15  16
ATOM     16  C   UNL     1      16.530   7.388  -1.737  1.00  0.00    -0.000 C 
BRANCH  16  17
ATOM     17  C   UNL     1      17.847   8.152  -1.512  1.00  0.00    -0.003 C 
ATOM     18  C   UNL     1      17.871   9.517  -2.198  1.00  0.00     0.004 C 
ENDBRANCH  16  17
ENDBRANCH  15  16
ENDBRANCH  14  15
ENDBRANCH  13  14
ENDBRANCH  12  13
ENDBRANCH  10  11
ENDBRANCH   1  10
TORSDOF 13
ENDMDL
MODEL 4
REMARK VINA RESULT:    -4.034      1.240      2.084
REMARK INTER + INTRA:          -8.778
REMARK INTER:                  -6.951
REMARK INTRA:                  -1.827
REMARK UNBOUND:                -1.678
REMARK SMILES CCCCCCC=CCCCCCCCC(=O)[O-]
REMARK SMILES IDX 10 1 11 2 12 3 13 4 14 5 15 6 16 7 17 8 18 9 9 10 8 11 7 12
REMARK SMILES IDX 6 13 5 14 4 15 3 16 2 17 1 18
REMARK H PARENT
REMARK Flexibility Score: inf
ROOT
ATOM      1  C   UNL     1      16.404  10.645  -0.979  1.00  0.00     0.004 C 
ENDROOT
BRANCH   1   2
ATOM      2  C   UNL     1      16.308   9.114  -0.859  1.00  0.00     0.000 C 
BRANCH   2   3
ATOM      3  C   UNL     1      17.293   8.389  -1.798  1.00  0.00     0.000 C 
BRANCH   3   4
ATOM      4  C   UNL     1      18.296   7.472  -1.072  1.00  0.00     0.000 C 
BRANCH   4   5
ATOM      5  C   UNL     1      17.814   6.017  -0.906  1.00  0.00     0.006 C 
BRANCH   5   6
ATOM      6  C   UNL     1      18.177   5.431   0.465  1.00  0.00     0.053 C 
BRANCH   6   7
ATOM      7  C   UNL     1      17.766   6.365   1.559  1.00  0.00     0.041 C 
ATOM      8  O   UNL     1      16.547   6.624   1.747  1.00  0.00    -0.550 OA
ATOM      9  O   UNL     1      18.724   6.911   2.404  1.00  0.00    -0.550 OA
ENDBRANCH   6   7
ENDBRANCH   5   6
ENDBRANCH   4   5
ENDBRANCH   3   4
ENDBRANCH   2   3
ENDBRANCH   1   2
BRANCH   1  10
ATOM     10  C   UNL     1      16.626  11.320   0.382  1.00  0.00     0.027 C 
BRANCH  10  11
ATOM     11  C   UNL     1      17.625  10.567   1.228  1.00  0.00    -0.031 C 
ATOM     12  C   UNL     1      17.446  10.249   2.523  1.00  0.00    -0.031 C 
BRANCH  12  13
ATOM     13  C   UNL     1      16.264  10.679   3.355  1.00  0.00     0.027 C 
BRANCH  13  14
ATOM     14  C   UNL     1      16.721  11.507   4.560  1.00  0.00     0.004 C 
BRANCH  14  15
ATOM     15  C   UNL     1      18.240  11.732   4.528  1.00  0.00     0.000 C 
BRANCH  15  16
ATOM     16  C   UNL     1      18.623  13.220   4.427  1.00  0.00    -0.000 C 
BRANCH  16  17
ATOM     17  C   UNL     1      18.939  13.710   3.002  1.00  0.00    -0.003 C 
ATOM     18  C   UNL     1      17.713  14.256   2.272  1.00  0.00     0.004 C 
ENDBRANCH  16  17
ENDBRANCH  15  16
ENDBRANCH  14  15
ENDBRANCH  13  14
ENDBRANCH  12  13
ENDBRANCH  10  11
ENDBRANCH   1  10
TORSDOF 13
ENDMDL
MODEL 5
REMARK VINA RESULT:    -4.005      2.617      4.188
REMARK INTER + INTRA:          -8.727
REMARK INTER:                  -7.081
REMARK INTRA:                  -1.646
REMARK UNBOUND:                -1.678
REMARK SMILES CCCCCCC=CCCCCCCCC(=O)[O-]
REMARK SMILES IDX 10 1 11 2 12 3 13 4 14 5 15 6 16 7 17 8 18 9 9 10 8 11 7 12
REMARK SMILES IDX 6 13 5 14 4 15 3 16 2 17 1 18
REMARK H PARENT
REMARK Flexibility Score: inf
ROOT
ATOM      1  C   UNL     1      19.073   5.892   1.832  1.00  0.00     0.004 C 
ENDROOT
BRANCH   1   2
ATOM      2  C   UNL     1      17.948   5.063   1.188  1.00  0.00     0.000 C 
BRANCH   2   3
ATOM      3  C   UNL     1      18.126   4.917  -0.337  1.00  0.00     0.000 C 
BRANCH   3   4
ATOM      4  C   UNL     1      17.187   5.813  -1.169  1.00  0.00     0.000 C 
BRANCH   4   5
ATOM      5  C   UNL     1      17.671   7.269  -1.314  1.00  0.00     0.006 C 
BRANCH   5   6
ATOM      6  C   UNL     1      16.513   8.254  -1.521  1.00  0.00     0.053 C 
BRANCH   6   7
ATOM      7  C   UNL     1      17.035   9.644  -1.709  1.00  0.00     0.041 C 
ATOM      8  O   UNL     1      16.721  10.554  -0.896  1.00  0.00    -0.550 OA
ATOM      9  O   UNL     1      17.908   9.923  -2.752  1.00  0.00    -0.550 OA
ENDBRANCH   6   7
ENDBRANCH   5   6
ENDBRANCH   4   5
ENDBRANCH   3   4
ENDBRANCH   2   3
ENDBRANCH   1   2
BRANCH   1  10
ATOM     10  C   UNL     1      18.529   7.093   2.618  1.00  0.00     0.027 C 
BRANCH  10  11
ATOM     11  C   UNL     1      17.061   7.324   2.351  1.00  0.00    -0.031 C 
ATOM     12  C   UNL     1      16.483   8.534   2.248  1.00  0.00    -0.031 C 
BRANCH  12  13
ATOM     13  C   UNL     1      17.191   9.845   2.478  1.00  0.00     0.027 C 
BRANCH  13  14
ATOM     14  C   UNL     1      16.212  10.910   2.983  1.00  0.00     0.004 C 
BRANCH  14  15
ATOM     15  C   UNL     1      16.717  11.549   4.285  1.00  0.00     0.000 C 
BRANCH  15  16
ATOM     16  C   UNL     1      18.250  11.500   4.421  1.00  0.00    -0.000 C 
BRANCH  16  17
ATOM     17  C   UNL     1      18.941  12.875   4.439  1.00  0.00    -0.003 C 
ATOM     18  C   UNL     1      18.416  13.823   3.362  1.00  0.00     0.004 C 
ENDBRANCH  16  17
ENDBRANCH  15  16
ENDBRANCH  14  15
ENDBRANCH  13  14
ENDBRANCH  12  13
ENDBRANCH  10  11
ENDBRANCH   1  10
TORSDOF 13
ENDMDL
MODEL 6
REMARK VINA RESULT:    -3.962      3.203      7.262
REMARK INTER + INTRA:          -8.651
REMARK INTER:                  -7.061
REMARK INTRA:                  -1.590
REMARK UNBOUND:                -1.678
REMARK SMILES CCCCCCC=CCCCCCCCC(=O)[O-]
REMARK SMILES IDX 10 1 11 2 12 3 13 4 14 5 15 6 16 7 17 8 18 9 9 10 8 11 7 12
REMARK SMILES IDX 6 13 5 14 4 15 3 16 2 17 1 18
REMARK H PARENT
REMARK Flexibility Score: inf
ROOT
ATOM      1  C   UNL     1      16.739  10.503  -0.614  1.00  0.00     0.004 C 
ENDROOT
BRANCH   1   2
ATOM      2  C   UNL     1      17.382  11.168   0.616  1.00  0.00     0.000 C 
BRANCH   2   3
ATOM      3  C   UNL     1      17.008  10.456   1.931  1.00  0.00     0.000 C 
BRANCH   3   4
ATOM      4  C   UNL     1      18.107  10.507   3.010  1.00  0.00     0.000 C 
BRANCH   4   5
ATOM      5  C   UNL     1      17.841  11.528   4.134  1.00  0.00     0.006 C 
BRANCH   5   6
ATOM      6  C   UNL     1      18.797  12.727   4.076  1.00  0.00     0.053 C 
BRANCH   6   7
ATOM      7  C   UNL     1      18.228  13.809   3.214  1.00  0.00     0.041 C 
ATOM      8  O   UNL     1      16.990  13.850   2.982  1.00  0.00    -0.550 OA
ATOM      9  O   UNL     1      19.057  14.802   2.707  1.00  0.00    -0.550 OA
ENDBRANCH   6   7
ENDBRANCH   5   6
ENDBRANCH   4   5
ENDBRANCH   3   4
ENDBRANCH   2   3
ENDBRANCH   1   2
BRANCH   1  10
ATOM     10  C   UNL     1      16.542   8.993  -0.418  1.00  0.00     0.027 C 
BRANCH  10  11
ATOM     11  C   UNL     1      17.662   8.194  -1.041  1.00  0.00    -0.031 C 
ATOM     12  C   UNL     1      17.546   6.928  -1.481  1.00  0.00    -0.031 C 
BRANCH  12  13
ATOM     13  C   UNL     1      16.309   6.079  -1.333  1.00  0.00     0.027 C 
BRANCH  13  14
ATOM     14  C   UNL     1      16.658   4.707  -0.747  1.00  0.00     0.004 C 
BRANCH  14  15
ATOM     15  C   UNL     1      18.133   4.650  -0.322  1.00  0.00     0.000 C 
BRANCH  15  16
ATOM     16  C   UNL     1      18.317   4.670   1.206  1.00  0.00    -0.000 C 
BRANCH  16  17
ATOM     17  C   UNL     1      19.137   5.858   1.742  1.00  0.00    -0.003 C 
ATOM     18  C   UNL     1      18.265   6.983   2.300  1.00  0.00     0.004 C 
ENDBRANCH  16  17
ENDBRANCH  15  16
ENDBRANCH  14  15
ENDBRANCH  13  14
ENDBRANCH  12  13
ENDBRANCH  10  11
ENDBRANCH   1  10
TORSDOF 13
ENDMDL
MODEL 7
REMARK VINA RESULT:    -3.912      3.214      7.275
REMARK INTER + INTRA:          -8.562
REMARK INTER:                  -6.884
REMARK INTRA:                  -1.679
REMARK UNBOUND:                -1.678
REMARK SMILES CCCCCCC=CCCCCCCCC(=O)[O-]
REMARK SMILES IDX 10 1 11 2 12 3 13 4 14 5 15 6 16 7 17 8 18 9 9 10 8 11 7 12
REMARK SMILES IDX 6 13 5 14 4 15 3 16 2 17 1 18
REMARK H PARENT
REMARK Flexibility Score: inf
ROOT
ATOM      1  C   UNL     1      18.395  10.535   3.256  1.00  0.00     0.004 C 
ENDROOT
BRANCH   1   2
ATOM      2  C   UNL     1      17.908  11.392   4.437  1.00  0.00     0.000 C 
BRANCH   2   3
ATOM      3  C   UNL     1      18.623  12.757   4.507  1.00  0.00     0.000 C 
BRANCH   3   4
ATOM      4  C   UNL     1      19.162  13.256   3.152  1.00  0.00     0.000 C 
BRANCH   4   5
ATOM      5  C   UNL     1      18.421  14.487   2.594  1.00  0.00     0.006 C 
BRANCH   5   6
ATOM      6  C   UNL     1      16.987  14.159   2.156  1.00  0.00     0.053 C 
BRANCH   6   7
ATOM      7  C   UNL     1      16.722  14.695   0.784  1.00  0.00     0.041 C 
ATOM      8  O   UNL     1      17.037  15.880   0.495  1.00  0.00    -0.550 OA
ATOM      9  O   UNL     1      16.176  13.870  -0.191  1.00  0.00    -0.550 OA
ENDBRANCH   6   7
ENDBRANCH   5   6
ENDBRANCH   4   5
ENDBRANCH   3   4
ENDBRANCH   2   3
ENDBRANCH   1   2
BRANCH   1  10
ATOM     10  C   UNL     1      17.249  10.144   2.312  1.00  0.00     0.027 C 
BRANCH  10  11
ATOM     11  C   UNL     1      17.459  10.684   0.918  1.00  0.00    -0.031 C 
ATOM     12  C   UNL     1      16.963  10.125  -0.201  1.00  0.00    -0.031 C 
BRANCH  12  13
ATOM     13  C   UNL     1      16.201   8.825  -0.245  1.00  0.00     0.027 C 
BRANCH  13  14
ATOM     14  C   UNL     1      16.801   7.880  -1.293  1.00  0.00     0.004 C 
BRANCH  14  15
ATOM     15  C   UNL     1      18.153   7.326  -0.823  1.00  0.00     0.000 C 
BRANCH  15  16
ATOM     16  C   UNL     1      18.109   5.818  -0.515  1.00  0.00    -0.000 C 
BRANCH  16  17
ATOM     17  C   UNL     1      18.174   5.462   0.981  1.00  0.00    -0.003 C 
ATOM     18  C   UNL     1      18.498   6.663   1.868  1.00  0.00     0.004 C 
ENDBRANCH  16  17
ENDBRANCH  15  16
ENDBRANCH  14  15
ENDBRANCH  13  14
ENDBRANCH  12  13
ENDBRANCH  10  11
ENDBRANCH   1  10
TORSDOF 13
ENDMDL
MODEL 8
REMARK VINA RESULT:    -3.869      3.270      7.306
REMARK INTER + INTRA:          -8.487
REMARK INTER:                  -6.857
REMARK INTRA:                  -1.629
REMARK UNBOUND:                -1.678
REMARK SMILES CCCCCCC=CCCCCCCCC(=O)[O-]
REMARK SMILES IDX 10 1 11 2 12 3 13 4 14 5 15 6 16 7 17 8 18 9 9 10 8 11 7 12
REMARK SMILES IDX 6 13 5 14 4 15 3 16 2 17 1 18
REMARK H PARENT
REMARK Flexibility Score: inf
ROOT
ATOM      1  C   UNL     1      17.415  11.046   0.624  1.00  0.00     0.004 C 
ENDROOT
BRANCH   1   2
ATOM      2  C   UNL     1      16.923  10.856   2.069  1.00  0.00     0.000 C 
BRANCH   2   3
ATOM      3  C   UNL     1      18.038  10.353   3.009  1.00  0.00     0.000 C 
BRANCH   3   4
ATOM      4  C   UNL     1      18.183  11.169   4.308  1.00  0.00     0.000 C 
BRANCH   4   5
ATOM      5  C   UNL     1      17.647  12.611   4.210  1.00  0.00     0.006 C 
BRANCH   5   6
ATOM      6  C   UNL     1      18.764  13.639   3.991  1.00  0.00     0.053 C 
BRANCH   6   7
ATOM      7  C   UNL     1      18.480  14.471   2.780  1.00  0.00     0.041 C 
ATOM      8  O   UNL     1      19.344  15.282   2.352  1.00  0.00    -0.550 OA
ATOM      9  O   UNL     1      17.282  14.316   2.095  1.00  0.00    -0.550 OA
ENDBRANCH   6   7
ENDBRANCH   5   6
ENDBRANCH   4   5
ENDBRANCH   3   4
ENDBRANCH   2   3
ENDBRANCH   1   2
BRANCH   1  10
ATOM     10  C   UNL     1      16.669  10.140  -0.366  1.00  0.00     0.027 C 
BRANCH  10  11
ATOM     11  C   UNL     1      17.568   9.070  -0.937  1.00  0.00    -0.031 C 
ATOM     12  C   UNL     1      17.679   7.822  -0.447  1.00  0.00    -0.031 C 
BRANCH  12  13
ATOM     13  C   UNL     1      16.995   7.328   0.803  1.00  0.00     0.027 C 
BRANCH  13  14
ATOM     14  C   UNL     1      18.025   6.971   1.880  1.00  0.00     0.004 C 
BRANCH  14  15
ATOM     15  C   UNL     1      18.953   5.845   1.401  1.00  0.00     0.000 C 
BRANCH  15  16
ATOM     16  C   UNL     1      18.238   4.487   1.286  1.00  0.00    -0.000 C 
BRANCH  16  17
ATOM     17  C   UNL     1      18.164   3.914  -0.140  1.00  0.00    -0.003 C 
ATOM     18  C   UNL     1      16.770   4.022  -0.757  1.00  0.00     0.004 C 
ENDBRANCH  16  17
ENDBRANCH  15  16
ENDBRANCH  14  15
ENDBRANCH  13  14
ENDBRANCH  12  13
ENDBRANCH  10  11
ENDBRANCH   1  10
TORSDOF 13
ENDMDL
MODEL 9
REMARK VINA RESULT:    -3.839      3.208      7.015
REMARK INTER + INTRA:          -8.434
REMARK INTER:                  -6.529
REMARK INTRA:                  -1.905
REMARK UNBOUND:                -1.678
REMARK SMILES CCCCCCC=CCCCCCCCC(=O)[O-]
REMARK SMILES IDX 10 1 11 2 12 3 13 4 14 5 15 6 16 7 17 8 18 9 9 10 8 11 7 12
REMARK SMILES IDX 6 13 5 14 4 15 3 16 2 17 1 18
REMARK H PARENT
REMARK Flexibility Score: inf
ROOT
ATOM      1  C   UNL     1      17.693  10.542   1.249  1.00  0.00     0.004 C 
ENDROOT
BRANCH   1   2
ATOM      2  C   UNL     1      17.779   9.890   2.640  1.00  0.00     0.000 C 
BRANCH   2   3
ATOM      3  C   UNL     1      18.437  10.816   3.683  1.00  0.00     0.000 C 
BRANCH   3   4
ATOM      4  C   UNL     1      17.437  11.517   4.623  1.00  0.00     0.000 C 
BRANCH   4   5
ATOM      5  C   UNL     1      17.373  13.047   4.446  1.00  0.00     0.006 C 
BRANCH   5   6
ATOM      6  C   UNL     1      16.611  13.460   3.179  1.00  0.00     0.053 C 
BRANCH   6   7
ATOM      7  C   UNL     1      17.531  14.132   2.210  1.00  0.00     0.041 C 
ATOM      8  O   UNL     1      17.148  14.370   1.034  1.00  0.00    -0.550 OA
ATOM      9  O   UNL     1      18.793  14.543   2.620  1.00  0.00    -0.550 OA
ENDBRANCH   6   7
ENDBRANCH   5   6
ENDBRANCH   4   5
ENDBRANCH   3   4
ENDBRANCH   2   3
ENDBRANCH   1   2
BRANCH   1  10
ATOM     10  C   UNL     1      16.310  10.356   0.607  1.00  0.00     0.027 C 
BRANCH  10  11
ATOM     11  C   UNL     1      16.318  10.711  -0.860  1.00  0.00    -0.031 C 
ATOM     12  C   UNL     1      16.400   9.818  -1.863  1.00  0.00    -0.031 C 
BRANCH  12  13
ATOM     13  C   UNL     1      16.591   8.334  -1.676  1.00  0.00     0.027 C 
BRANCH  13  14
ATOM     14  C   UNL     1      18.070   8.002  -1.451  1.00  0.00     0.004 C 
BRANCH  14  15
ATOM     15  C   UNL     1      18.231   6.611  -0.819  1.00  0.00     0.000 C 
BRANCH  15  16
ATOM     16  C   UNL     1      18.185   6.643   0.720  1.00  0.00    -0.000 C 
BRANCH  16  17
ATOM     17  C   UNL     1      17.002   5.883   1.346  1.00  0.00    -0.003 C 
ATOM     18  C   UNL     1      15.963   6.808   1.978  1.00  0.00     0.004 C 
ENDBRANCH  16  17
ENDBRANCH  15  16
ENDBRANCH  14  15
ENDBRANCH  13  14
ENDBRANCH  12  13
ENDBRANCH  10  11
ENDBRANCH   1  10
TORSDOF 13
ENDMDL
