MODEL 1
REMARK VINA RESULT:    -6.253      0.000      0.000
REMARK INTER + INTRA:          -7.559
REMARK INTER:                  -7.533
REMARK INTRA:                  -0.026
REMARK UNBOUND:                -0.026
REMARK SMILES O=c1c(O)c(-c2ccc(O)c(O)c2)oc2cc(O)cc(O)c12
REMARK SMILES IDX 5 1 3 2 2 3 1 4 22 5 20 6 19 7 17 8 16 9 15 10 14 11 6 12
REMARK SMILES IDX 7 13 8 14 9 15 13 16 11 17 10 18 12 20 4 22 21 24 18 26
REMARK H PARENT 10 19 12 21 4 23 21 25 18 27
REMARK Flexibility Score: inf
ROOT
ATOM      1  C   UNL     1      -0.081  -6.012  -0.309  1.00  0.00     0.180 A 
ATOM      2  C   UNL     1      -1.063  -5.735   0.662  1.00  0.00     0.208 A 
ATOM      3  C   UNL     1      -0.901  -6.251   1.957  1.00  0.00     0.238 A 
ATOM      4  O   UNL     1      -1.778  -6.018   2.832  1.00  0.00    -0.285 OA
ATOM      5  C   UNL     1       0.245  -7.014   2.264  1.00  0.00     0.111 A 
ATOM      6  C   UNL     1       0.485  -7.567   3.546  1.00  0.00     0.134 A 
ATOM      7  C   UNL     1       1.654  -8.308   3.775  1.00  0.00     0.093 A 
ATOM      8  C   UNL     1       2.586  -8.506   2.749  1.00  0.00     0.123 A 
ATOM      9  C   UNL     1       2.352  -7.963   1.485  1.00  0.00     0.094 A 
ATOM     10  C   UNL     1       1.193  -7.223   1.236  1.00  0.00     0.146 A 
ATOM     11  O   UNL     1       0.993  -6.723   0.022  1.00  0.00    -0.452 OA
ENDROOT
BRANCH   1  12
ATOM     12  C   UNL     1      -0.190  -5.519  -1.701  1.00  0.00     0.025 A 
ATOM     13  C   UNL     1      -0.348  -4.144  -1.936  1.00  0.00     0.016 A 
ATOM     14  C   UNL     1      -0.432  -3.653  -3.242  1.00  0.00     0.051 A 
ATOM     15  C   UNL     1      -0.345  -4.530  -4.332  1.00  0.00     0.157 A 
ATOM     16  C   UNL     1      -0.082  -6.393  -2.798  1.00  0.00     0.062 A 
ATOM     17  C   UNL     1      -0.165  -5.901  -4.110  1.00  0.00     0.158 A 
BRANCH  15  18
ATOM     18  O   UNL     1      -0.430  -4.046  -5.635  1.00  0.00    -0.504 OA
ATOM     19  H   UNL     1      -0.259  -4.645  -6.436  1.00  0.00     0.293 HD
ENDBRANCH  15  18
BRANCH  17  20
ATOM     20  O   UNL     1      -0.064  -6.768  -5.195  1.00  0.00    -0.504 OA
ATOM     21  H   UNL     1       0.758  -7.344  -5.339  1.00  0.00     0.293 HD
ENDBRANCH  17  20
ENDBRANCH   1  12
BRANCH   2  22
ATOM     22  O   UNL     1      -2.163  -4.934   0.345  1.00  0.00    -0.502 OA
ATOM     23  H   UNL     1      -2.137  -4.244  -0.397  1.00  0.00     0.293 HD
ENDBRANCH   2  22
BRANCH   6  24
ATOM     24  O   UNL     1      -0.424  -7.386   4.589  1.00  0.00    -0.507 OA
ATOM     25  H   UNL     1      -0.335  -7.884   5.467  1.00  0.00     0.293 HD
ENDBRANCH   6  24
BRANCH   8  26
ATOM     26  O   UNL     1       3.747  -9.240   2.977  1.00  0.00    -0.508 OA
ATOM     27  H   UNL     1       3.724 -10.248   3.085  1.00  0.00     0.293 HD
ENDBRANCH   8  26
TORSDOF 6
ENDMDL
MODEL 2
REMARK VINA RESULT:    -6.220      2.790      7.974
REMARK INTER + INTRA:          -7.518
REMARK INTER:                  -7.217
REMARK INTRA:                  -0.301
REMARK UNBOUND:                -0.026
REMARK SMILES O=c1c(O)c(-c2ccc(O)c(O)c2)oc2cc(O)cc(O)c12
REMARK SMILES IDX 5 1 3 2 2 3 1 4 22 5 20 6 19 7 17 8 16 9 15 10 14 11 6 12
REMARK SMILES IDX 7 13 8 14 9 15 13 16 11 17 10 18 12 20 4 22 21 24 18 26
REMARK H PARENT 10 19 12 21 4 23 21 25 18 27
REMARK Flexibility Score: inf
ROOT
ATOM      1  C   UNL     1      -1.578  -5.981  -2.687  1.00  0.00     0.180 A 
ATOM      2  C   UNL     1      -0.397  -5.982  -3.453  1.00  0.00     0.208 A 
ATOM      3  C   UNL     1      -0.497  -6.024  -4.853  1.00  0.00     0.238 A 
ATOM      4  O   UNL     1       0.554  -6.036  -5.550  1.00  0.00    -0.285 OA
ATOM      5  C   UNL     1      -1.769  -6.042  -5.460  1.00  0.00     0.111 A 
ATOM      6  C   UNL     1      -1.956  -6.080  -6.863  1.00  0.00     0.134 A 
ATOM      7  C   UNL     1      -3.256  -6.089  -7.391  1.00  0.00     0.093 A 
ATOM      8  C   UNL     1      -4.370  -6.058  -6.544  1.00  0.00     0.123 A 
ATOM      9  C   UNL     1      -4.190  -6.021  -5.161  1.00  0.00     0.094 A 
ATOM     10  C   UNL     1      -2.903  -6.015  -4.615  1.00  0.00     0.146 A 
ATOM     11  O   UNL     1      -2.761  -5.985  -3.295  1.00  0.00    -0.452 OA
ENDROOT
BRANCH   1  12
ATOM     12  C   UNL     1      -1.555  -5.958  -1.206  1.00  0.00     0.025 A 
ATOM     13  C   UNL     1      -1.401  -4.733  -0.538  1.00  0.00     0.016 A 
ATOM     14  C   UNL     1      -1.398  -4.683   0.858  1.00  0.00     0.051 A 
ATOM     15  C   UNL     1      -1.563  -5.857   1.606  1.00  0.00     0.157 A 
ATOM     16  C   UNL     1      -1.741  -7.130  -0.452  1.00  0.00     0.062 A 
ATOM     17  C   UNL     1      -1.739  -7.082   0.950  1.00  0.00     0.158 A 
BRANCH  15  18
ATOM     18  O   UNL     1      -1.558  -5.813   2.999  1.00  0.00    -0.504 OA
ATOM     19  H   UNL     1      -1.371  -6.640   3.555  1.00  0.00     0.293 HD
ENDBRANCH  15  18
BRANCH  17  20
ATOM     20  O   UNL     1      -1.918  -8.244   1.696  1.00  0.00    -0.504 OA
ATOM     21  H   UNL     1      -2.839  -8.551   1.989  1.00  0.00     0.293 HD
ENDBRANCH  17  20
ENDBRANCH   1  12
BRANCH   2  22
ATOM     22  O   UNL     1       0.851  -5.912  -2.828  1.00  0.00    -0.502 OA
ATOM     23  H   UNL     1       1.451  -6.721  -2.722  1.00  0.00     0.293 HD
ENDBRANCH   2  22
BRANCH   6  24
ATOM     24  O   UNL     1      -0.866  -6.110  -7.734  1.00  0.00    -0.507 OA
ATOM     25  H   UNL     1      -0.642  -6.933  -8.281  1.00  0.00     0.293 HD
ENDBRANCH   6  24
BRANCH   8  26
ATOM     26  O   UNL     1      -5.660  -6.064  -7.069  1.00  0.00    -0.508 OA
ATOM     27  H   UNL     1      -6.094  -5.219  -7.421  1.00  0.00     0.293 HD
ENDBRANCH   8  26
TORSDOF 6
ENDMDL
MODEL 3
REMARK VINA RESULT:    -6.191      2.257      4.014
REMARK INTER + INTRA:          -7.483
REMARK INTER:                  -7.153
REMARK INTRA:                  -0.331
REMARK UNBOUND:                -0.026
REMARK SMILES O=c1c(O)c(-c2ccc(O)c(O)c2)oc2cc(O)cc(O)c12
REMARK SMILES IDX 5 1 3 2 2 3 1 4 22 5 20 6 19 7 17 8 16 9 15 10 14 11 6 12
REMARK SMILES IDX 7 13 8 14 9 15 13 16 11 17 10 18 12 20 4 22 21 24 18 26
REMARK H PARENT 10 19 12 21 4 23 21 25 18 27
REMARK Flexibility Score: inf
ROOT
ATOM      1  C   UNL     1      -0.857  -6.022   1.421  1.00  0.00     0.180 A 
ATOM      2  C   UNL     1       0.217  -6.768   1.943  1.00  0.00     0.208 A 
ATOM      3  C   UNL     1       0.274  -6.998   3.327  1.00  0.00     0.238 A 
ATOM      4  O   UNL     1       1.236  -7.657   3.808  1.00  0.00    -0.285 OA
ATOM      5  C   UNL     1      -0.749  -6.499   4.159  1.00  0.00     0.111 A 
ATOM      6  C   UNL     1      -0.769  -6.690   5.562  1.00  0.00     0.134 A 
ATOM      7  C   UNL     1      -1.828  -6.168   6.320  1.00  0.00     0.093 A 
ATOM      8  C   UNL     1      -2.866  -5.461   5.703  1.00  0.00     0.123 A 
ATOM      9  C   UNL     1      -2.851  -5.270   4.321  1.00  0.00     0.094 A 
ATOM     10  C   UNL     1      -1.804  -5.780   3.547  1.00  0.00     0.146 A 
ATOM     11  O   UNL     1      -1.811  -5.579   2.235  1.00  0.00    -0.452 OA
ENDROOT
BRANCH   1  12
ATOM     12  C   UNL     1      -0.977  -5.721  -0.024  1.00  0.00     0.025 A 
ATOM     13  C   UNL     1      -1.793  -6.529  -0.832  1.00  0.00     0.016 A 
ATOM     14  C   UNL     1      -1.938  -6.252  -2.193  1.00  0.00     0.051 A 
ATOM     15  C   UNL     1      -1.280  -5.153  -2.764  1.00  0.00     0.157 A 
ATOM     16  C   UNL     1      -0.335  -4.608  -0.596  1.00  0.00     0.062 A 
ATOM     17  C   UNL     1      -0.482  -4.328  -1.963  1.00  0.00     0.158 A 
BRANCH  15  18
ATOM     18  O   UNL     1      -1.420  -4.874  -4.121  1.00  0.00    -0.504 OA
ATOM     19  H   UNL     1      -1.792  -5.560  -4.769  1.00  0.00     0.293 HD
ENDBRANCH  15  18
BRANCH  17  20
ATOM     20  O   UNL     1       0.159  -3.228  -2.530  1.00  0.00    -0.504 OA
ATOM     21  H   UNL     1       0.125  -3.051  -3.528  1.00  0.00     0.293 HD
ENDBRANCH  17  20
ENDBRANCH   1  12
BRANCH   2  22
ATOM     22  O   UNL     1       1.191  -7.295   1.091  1.00  0.00    -0.502 OA
ATOM     23  H   UNL     1       1.665  -6.734   0.395  1.00  0.00     0.293 HD
ENDBRANCH   2  22
BRANCH   6  24
ATOM     24  O   UNL     1       0.251  -7.391   6.206  1.00  0.00    -0.507 OA
ATOM     25  H   UNL     1       0.981  -6.917   6.724  1.00  0.00     0.293 HD
ENDBRANCH   6  24
BRANCH   8  26
ATOM     26  O   UNL     1      -3.918  -4.945   6.455  1.00  0.00    -0.508 OA
ATOM     27  H   UNL     1      -3.942  -3.970   6.735  1.00  0.00     0.293 HD
ENDBRANCH   8  26
TORSDOF 6
ENDMDL
MODEL 4
REMARK VINA RESULT:    -6.163      2.682      8.368
REMARK INTER + INTRA:          -7.450
REMARK INTER:                  -7.128
REMARK INTRA:                  -0.322
REMARK UNBOUND:                -0.026
REMARK SMILES O=c1c(O)c(-c2ccc(O)c(O)c2)oc2cc(O)cc(O)c12
REMARK SMILES IDX 5 1 3 2 2 3 1 4 22 5 20 6 19 7 17 8 16 9 15 10 14 11 6 12
REMARK SMILES IDX 7 13 8 14 9 15 13 16 11 17 10 18 12 20 4 22 21 24 18 26
REMARK H PARENT 10 19 12 21 4 23 21 25 18 27
REMARK Flexibility Score: inf
ROOT
ATOM      1  C   UNL     1      -1.226  -5.105  -3.661  1.00  0.00     0.180 A 
ATOM      2  C   UNL     1      -0.491  -4.123  -4.353  1.00  0.00     0.208 A 
ATOM      3  C   UNL     1      -0.734  -3.935  -5.723  1.00  0.00     0.238 A 
ATOM      4  O   UNL     1      -0.075  -3.065  -6.356  1.00  0.00    -0.285 OA
ATOM      5  C   UNL     1      -1.716  -4.712  -6.370  1.00  0.00     0.111 A 
ATOM      6  C   UNL     1      -2.025  -4.582  -7.746  1.00  0.00     0.134 A 
ATOM      7  C   UNL     1      -3.023  -5.387  -8.314  1.00  0.00     0.093 A 
ATOM      8  C   UNL     1      -3.718  -6.319  -7.534  1.00  0.00     0.123 A 
ATOM      9  C   UNL     1      -3.417  -6.451  -6.178  1.00  0.00     0.094 A 
ATOM     10  C   UNL     1      -2.424  -5.659  -5.593  1.00  0.00     0.146 A 
ATOM     11  O   UNL     1      -2.155  -5.809  -4.301  1.00  0.00    -0.452 OA
ENDROOT
BRANCH   1  12
ATOM     12  C   UNL     1      -1.014  -5.376  -2.221  1.00  0.00     0.025 A 
ATOM     13  C   UNL     1      -0.080  -6.349  -1.832  1.00  0.00     0.016 A 
ATOM     14  C   UNL     1       0.153  -6.607  -0.479  1.00  0.00     0.051 A 
ATOM     15  C   UNL     1      -0.535  -5.885   0.506  1.00  0.00     0.157 A 
ATOM     16  C   UNL     1      -1.687  -4.639  -1.230  1.00  0.00     0.062 A 
ATOM     17  C   UNL     1      -1.453  -4.896   0.130  1.00  0.00     0.158 A 
BRANCH  15  18
ATOM     18  O   UNL     1      -0.309  -6.140   1.856  1.00  0.00    -0.504 OA
ATOM     19  H   UNL     1      -0.977  -5.865   2.568  1.00  0.00     0.293 HD
ENDBRANCH  15  18
BRANCH  17  20
ATOM     20  O   UNL     1      -2.124  -4.169   1.111  1.00  0.00    -0.504 OA
ATOM     21  H   UNL     1      -2.736  -3.397   0.873  1.00  0.00     0.293 HD
ENDBRANCH  17  20
ENDBRANCH   1  12
BRANCH   2  22
ATOM     22  O   UNL     1       0.441  -3.331  -3.678  1.00  0.00    -0.502 OA
ATOM     23  H   UNL     1       1.408  -3.262  -3.970  1.00  0.00     0.293 HD
ENDBRANCH   2  22
BRANCH   6  24
ATOM     24  O   UNL     1      -1.350  -3.662  -8.550  1.00  0.00    -0.507 OA
ATOM     25  H   UNL     1      -0.687  -3.955  -9.256  1.00  0.00     0.293 HD
ENDBRANCH   6  24
BRANCH   8  26
ATOM     26  O   UNL     1      -4.710  -7.117  -8.098  1.00  0.00    -0.508 OA
ATOM     27  H   UNL     1      -5.546  -7.367  -7.583  1.00  0.00     0.293 HD
ENDBRANCH   8  26
TORSDOF 6
ENDMDL
MODEL 5
REMARK VINA RESULT:    -6.139      2.686      8.373
REMARK INTER + INTRA:          -7.422
REMARK INTER:                  -7.101
REMARK INTRA:                  -0.321
REMARK UNBOUND:                -0.026
REMARK SMILES O=c1c(O)c(-c2ccc(O)c(O)c2)oc2cc(O)cc(O)c12
REMARK SMILES IDX 5 1 3 2 2 3 1 4 22 5 20 6 19 7 17 8 16 9 15 10 14 11 6 12
REMARK SMILES IDX 7 13 8 14 9 15 13 16 11 17 10 18 12 20 4 22 21 24 18 26
REMARK H PARENT 10 19 12 21 4 23 21 25 18 27
REMARK Flexibility Score: inf
ROOT
ATOM      1  C   UNL     1      -1.035  -4.875  -4.043  1.00  0.00     0.180 A 
ATOM      2  C   UNL     1      -2.126  -5.328  -4.808  1.00  0.00     0.208 A 
ATOM      3  C   UNL     1      -2.203  -4.965  -6.162  1.00  0.00     0.238 A 
ATOM      4  O   UNL     1      -3.180  -5.356  -6.856  1.00  0.00    -0.285 OA
ATOM      5  C   UNL     1      -1.182  -4.175  -6.730  1.00  0.00     0.111 A 
ATOM      6  C   UNL     1      -1.181  -3.768  -8.086  1.00  0.00     0.134 A 
ATOM      7  C   UNL     1      -0.124  -2.989  -8.578  1.00  0.00     0.093 A 
ATOM      8  C   UNL     1       0.932  -2.610  -7.741  1.00  0.00     0.123 A 
ATOM      9  C   UNL     1       0.936  -3.008  -6.404  1.00  0.00     0.094 A 
ATOM     10  C   UNL     1      -0.110  -3.783  -5.894  1.00  0.00     0.146 A 
ATOM     11  O   UNL     1      -0.084  -4.143  -4.616  1.00  0.00    -0.452 OA
ENDROOT
BRANCH   1  12
ATOM     12  C   UNL     1      -0.894  -5.200  -2.605  1.00  0.00     0.025 A 
ATOM     13  C   UNL     1      -0.024  -6.230  -2.213  1.00  0.00     0.016 A 
ATOM     14  C   UNL     1       0.141  -6.541  -0.860  1.00  0.00     0.051 A 
ATOM     15  C   UNL     1      -0.550  -5.816   0.120  1.00  0.00     0.157 A 
ATOM     16  C   UNL     1      -1.570  -4.462  -1.617  1.00  0.00     0.062 A 
ATOM     17  C   UNL     1      -1.404  -4.772  -0.259  1.00  0.00     0.158 A 
BRANCH  15  18
ATOM     18  O   UNL     1      -0.391  -6.123   1.469  1.00  0.00    -0.504 OA
ATOM     19  H   UNL     1      -0.214  -7.072   1.780  1.00  0.00     0.293 HD
ENDBRANCH  15  18
BRANCH  17  20
ATOM     20  O   UNL     1      -2.078  -4.043   0.719  1.00  0.00    -0.504 OA
ATOM     21  H   UNL     1      -2.982  -3.621   0.537  1.00  0.00     0.293 HD
ENDBRANCH  17  20
ENDBRANCH   1  12
BRANCH   2  22
ATOM     22  O   UNL     1      -3.098  -6.152  -4.235  1.00  0.00    -0.502 OA
ATOM     23  H   UNL     1      -3.839  -6.578  -4.779  1.00  0.00     0.293 HD
ENDBRANCH   2  22
BRANCH   6  24
ATOM     24  O   UNL     1      -2.219  -4.131  -8.946  1.00  0.00    -0.507 OA
ATOM     25  H   UNL     1      -2.757  -4.978  -8.806  1.00  0.00     0.293 HD
ENDBRANCH   6  24
BRANCH   8  26
ATOM     26  O   UNL     1       1.983  -1.838  -8.230  1.00  0.00    -0.508 OA
ATOM     27  H   UNL     1       1.861  -0.856  -8.453  1.00  0.00     0.293 HD
ENDBRANCH   8  26
TORSDOF 6
ENDMDL
MODEL 6
REMARK VINA RESULT:    -6.127      1.318      1.848
REMARK INTER + INTRA:          -7.406
REMARK INTER:                  -7.099
REMARK INTRA:                  -0.308
REMARK UNBOUND:                -0.026
REMARK SMILES O=c1c(O)c(-c2ccc(O)c(O)c2)oc2cc(O)cc(O)c12
REMARK SMILES IDX 5 1 3 2 2 3 1 4 22 5 20 6 19 7 17 8 16 9 15 10 14 11 6 12
REMARK SMILES IDX 7 13 8 14 9 15 13 16 11 17 10 18 12 20 4 22 21 24 18 26
REMARK H PARENT 10 19 12 21 4 23 21 25 18 27
REMARK Flexibility Score: inf
ROOT
ATOM      1  C   UNL     1      -0.604  -6.106   0.784  1.00  0.00     0.180 A 
ATOM      2  C   UNL     1      -1.369  -5.538   1.820  1.00  0.00     0.208 A 
ATOM      3  C   UNL     1      -1.179  -5.996   3.134  1.00  0.00     0.238 A 
ATOM      4  O   UNL     1      -1.865  -5.501   4.069  1.00  0.00    -0.285 OA
ATOM      5  C   UNL     1      -0.217  -6.994   3.391  1.00  0.00     0.111 A 
ATOM      6  C   UNL     1       0.039  -7.508   4.685  1.00  0.00     0.134 A 
ATOM      7  C   UNL     1       1.019  -8.496   4.860  1.00  0.00     0.093 A 
ATOM      8  C   UNL     1       1.748  -8.979   3.767  1.00  0.00     0.123 A 
ATOM      9  C   UNL     1       1.499  -8.476   2.490  1.00  0.00     0.094 A 
ATOM     10  C   UNL     1       0.525  -7.493   2.294  1.00  0.00     0.146 A 
ATOM     11  O   UNL     1       0.304  -7.036   1.067  1.00  0.00    -0.452 OA
ENDROOT
BRANCH   1  12
ATOM     12  C   UNL     1      -0.761  -5.690  -0.628  1.00  0.00     0.025 A 
ATOM     13  C   UNL     1      -1.611  -6.421  -1.473  1.00  0.00     0.016 A 
ATOM     14  C   UNL     1      -1.791  -6.034  -2.803  1.00  0.00     0.051 A 
ATOM     15  C   UNL     1      -1.134  -4.902  -3.304  1.00  0.00     0.157 A 
ATOM     16  C   UNL     1      -0.119  -4.543  -1.129  1.00  0.00     0.062 A 
ATOM     17  C   UNL     1      -0.300  -4.153  -2.465  1.00  0.00     0.158 A 
BRANCH  15  18
ATOM     18  O   UNL     1      -1.309  -4.514  -4.631  1.00  0.00    -0.504 OA
ATOM     19  H   UNL     1      -0.548  -4.121  -5.173  1.00  0.00     0.293 HD
ENDBRANCH  15  18
BRANCH  17  20
ATOM     20  O   UNL     1       0.340  -3.020  -2.962  1.00  0.00    -0.504 OA
ATOM     21  H   UNL     1       1.350  -2.937  -2.959  1.00  0.00     0.293 HD
ENDBRANCH  17  20
ENDBRANCH   1  12
BRANCH   2  22
ATOM     22  O   UNL     1      -2.279  -4.514   1.547  1.00  0.00    -0.502 OA
ATOM     23  H   UNL     1      -3.000  -4.602   0.841  1.00  0.00     0.293 HD
ENDBRANCH   2  22
BRANCH   6  24
ATOM     24  O   UNL     1      -0.670  -7.045   5.795  1.00  0.00    -0.507 OA
ATOM     25  H   UNL     1      -1.582  -7.413   6.037  1.00  0.00     0.293 HD
ENDBRANCH   6  24
BRANCH   8  26
ATOM     26  O   UNL     1       2.722  -9.959   3.941  1.00  0.00    -0.508 OA
ATOM     27  H   UNL     1       2.952 -10.321   4.859  1.00  0.00     0.293 HD
ENDBRANCH   8  26
TORSDOF 6
ENDMDL
MODEL 7
REMARK VINA RESULT:    -5.673      3.817      6.804
REMARK INTER + INTRA:          -6.860
REMARK INTER:                  -6.565
REMARK INTRA:                  -0.295
REMARK UNBOUND:                -0.026
REMARK SMILES O=c1c(O)c(-c2ccc(O)c(O)c2)oc2cc(O)cc(O)c12
REMARK SMILES IDX 5 1 3 2 2 3 1 4 22 5 20 6 19 7 17 8 16 9 15 10 14 11 6 12
REMARK SMILES IDX 7 13 8 14 9 15 13 16 11 17 10 18 12 20 4 22 21 24 18 26
REMARK H PARENT 10 19 12 21 4 23 21 25 18 27
REMARK Flexibility Score: inf
ROOT
ATOM      1  C   UNL     1      -2.367  -5.967  -5.474  1.00  0.00     0.180 A 
ATOM      2  C   UNL     1      -1.485  -4.940  -5.860  1.00  0.00     0.208 A 
ATOM      3  C   UNL     1      -0.788  -4.235  -4.866  1.00  0.00     0.238 A 
ATOM      4  O   UNL     1      -0.003  -3.306  -5.198  1.00  0.00    -0.285 OA
ATOM      5  C   UNL     1      -0.967  -4.581  -3.511  1.00  0.00     0.111 A 
ATOM      6  C   UNL     1      -0.300  -3.924  -2.449  1.00  0.00     0.134 A 
ATOM      7  C   UNL     1      -0.526  -4.333  -1.126  1.00  0.00     0.093 A 
ATOM      8  C   UNL     1      -1.405  -5.386  -0.846  1.00  0.00     0.123 A 
ATOM      9  C   UNL     1      -2.065  -6.036  -1.889  1.00  0.00     0.094 A 
ATOM     10  C   UNL     1      -1.855  -5.642  -3.214  1.00  0.00     0.146 A 
ATOM     11  O   UNL     1      -2.500  -6.275  -4.187  1.00  0.00    -0.452 OA
ENDROOT
BRANCH   1  12
ATOM     12  C   UNL     1      -3.152  -6.742  -6.462  1.00  0.00     0.025 A 
ATOM     13  C   UNL     1      -2.541  -7.803  -7.149  1.00  0.00     0.016 A 
ATOM     14  C   UNL     1      -3.268  -8.562  -8.070  1.00  0.00     0.051 A 
ATOM     15  C   UNL     1      -4.621  -8.280  -8.306  1.00  0.00     0.157 A 
ATOM     16  C   UNL     1      -4.515  -6.475  -6.686  1.00  0.00     0.062 A 
ATOM     17  C   UNL     1      -5.246  -7.237  -7.610  1.00  0.00     0.158 A 
BRANCH  15  18
ATOM     18  O   UNL     1      -5.349  -9.032  -9.225  1.00  0.00    -0.504 OA
ATOM     19  H   UNL     1      -4.889  -9.608  -9.922  1.00  0.00     0.293 HD
ENDBRANCH  15  18
BRANCH  17  20
ATOM     20  O   UNL     1      -6.594  -6.969  -7.836  1.00  0.00    -0.504 OA
ATOM     21  H   UNL     1      -6.927  -6.026  -8.002  1.00  0.00     0.293 HD
ENDBRANCH  17  20
ENDBRANCH   1  12
BRANCH   2  22
ATOM     22  O   UNL     1      -1.287  -4.650  -7.212  1.00  0.00    -0.502 OA
ATOM     23  H   UNL     1      -1.861  -3.984  -7.715  1.00  0.00     0.293 HD
ENDBRANCH   2  22
BRANCH   6  24
ATOM     24  O   UNL     1       0.582  -2.872  -2.696  1.00  0.00    -0.507 OA
ATOM     25  H   UNL     1       0.297  -2.043  -3.204  1.00  0.00     0.293 HD
ENDBRANCH   6  24
BRANCH   8  26
ATOM     26  O   UNL     1      -1.628  -5.793   0.467  1.00  0.00    -0.508 OA
ATOM     27  H   UNL     1      -2.272  -6.544   0.688  1.00  0.00     0.293 HD
ENDBRANCH   8  26
TORSDOF 6
ENDMDL
MODEL 8
REMARK VINA RESULT:    -5.567      3.100      5.082
REMARK INTER + INTRA:          -6.731
REMARK INTER:                  -6.550
REMARK INTRA:                  -0.181
REMARK UNBOUND:                -0.026
REMARK SMILES O=c1c(O)c(-c2ccc(O)c(O)c2)oc2cc(O)cc(O)c12
REMARK SMILES IDX 5 1 3 2 2 3 1 4 22 5 20 6 19 7 17 8 16 9 15 10 14 11 6 12
REMARK SMILES IDX 7 13 8 14 9 15 13 16 11 17 10 18 12 20 4 22 21 24 18 26
REMARK H PARENT 10 19 12 21 4 23 21 25 18 27
REMARK Flexibility Score: inf
ROOT
ATOM      1  C   UNL     1      -1.382  -7.091   2.834  1.00  0.00     0.180 A 
ATOM      2  C   UNL     1      -1.151  -8.351   3.417  1.00  0.00     0.208 A 
ATOM      3  C   UNL     1      -1.568  -8.573   4.740  1.00  0.00     0.238 A 
ATOM      4  O   UNL     1      -1.358  -9.694   5.277  1.00  0.00    -0.285 OA
ATOM      5  C   UNL     1      -2.223  -7.543   5.445  1.00  0.00     0.111 A 
ATOM      6  C   UNL     1      -2.678  -7.686   6.778  1.00  0.00     0.134 A 
ATOM      7  C   UNL     1      -3.330  -6.615   7.410  1.00  0.00     0.093 A 
ATOM      8  C   UNL     1      -3.536  -5.407   6.733  1.00  0.00     0.123 A 
ATOM      9  C   UNL     1      -3.089  -5.262   5.420  1.00  0.00     0.094 A 
ATOM     10  C   UNL     1      -2.435  -6.316   4.774  1.00  0.00     0.146 A 
ATOM     11  O   UNL     1      -2.016  -6.148   3.525  1.00  0.00    -0.452 OA
ENDROOT
BRANCH   1  12
ATOM     12  C   UNL     1      -0.955  -6.775   1.451  1.00  0.00     0.025 A 
ATOM     13  C   UNL     1       0.414  -6.735   1.144  1.00  0.00     0.016 A 
ATOM     14  C   UNL     1       0.841  -6.460  -0.158  1.00  0.00     0.051 A 
ATOM     15  C   UNL     1      -0.098  -6.235  -1.175  1.00  0.00     0.157 A 
ATOM     16  C   UNL     1      -1.893  -6.569   0.424  1.00  0.00     0.062 A 
ATOM     17  C   UNL     1      -1.466  -6.294  -0.884  1.00  0.00     0.158 A 
BRANCH  15  18
ATOM     18  O   UNL     1       0.322  -5.958  -2.474  1.00  0.00    -0.504 OA
ATOM     19  H   UNL     1       1.196  -6.323  -2.838  1.00  0.00     0.293 HD
ENDBRANCH  15  18
BRANCH  17  20
ATOM     20  O   UNL     1      -2.396  -6.085  -1.900  1.00  0.00    -0.504 OA
ATOM     21  H   UNL     1      -2.600  -6.801  -2.589  1.00  0.00     0.293 HD
ENDBRANCH  17  20
ENDBRANCH   1  12
BRANCH   2  22
ATOM     22  O   UNL     1      -0.546  -9.371   2.680  1.00  0.00    -0.502 OA
ATOM     23  H   UNL     1       0.387  -9.283   2.294  1.00  0.00     0.293 HD
ENDBRANCH   2  22
BRANCH   6  24
ATOM     24  O   UNL     1      -2.489  -8.878   7.479  1.00  0.00    -0.507 OA
ATOM     25  H   UNL     1      -2.988  -9.078   8.337  1.00  0.00     0.293 HD
ENDBRANCH   6  24
BRANCH   8  26
ATOM     26  O   UNL     1      -4.184  -4.346   7.359  1.00  0.00    -0.508 OA
ATOM     27  H   UNL     1      -5.179  -4.190   7.245  1.00  0.00     0.293 HD
ENDBRANCH   8  26
TORSDOF 6
ENDMDL
MODEL 9
REMARK VINA RESULT:    -5.379      4.404      7.570
REMARK INTER + INTRA:          -6.505
REMARK INTER:                  -6.209
REMARK INTRA:                  -0.296
REMARK UNBOUND:                -0.026
REMARK SMILES O=c1c(O)c(-c2ccc(O)c(O)c2)oc2cc(O)cc(O)c12
REMARK SMILES IDX 5 1 3 2 2 3 1 4 22 5 20 6 19 7 17 8 16 9 15 10 14 11 6 12
REMARK SMILES IDX 7 13 8 14 9 15 13 16 11 17 10 18 12 20 4 22 21 24 18 26
REMARK H PARENT 10 19 12 21 4 23 21 25 18 27
REMARK Flexibility Score: inf
ROOT
ATOM      1  C   UNL     1      -3.217  -5.741   4.992  1.00  0.00     0.180 A 
ATOM      2  C   UNL     1      -2.844  -6.834   5.798  1.00  0.00     0.208 A 
ATOM      3  C   UNL     1      -1.829  -7.693   5.348  1.00  0.00     0.238 A 
ATOM      4  O   UNL     1      -1.493  -8.681   6.056  1.00  0.00    -0.285 OA
ATOM      5  C   UNL     1      -1.194  -7.435   4.116  1.00  0.00     0.111 A 
ATOM      6  C   UNL     1      -0.160  -8.249   3.593  1.00  0.00     0.134 A 
ATOM      7  C   UNL     1       0.429  -7.920   2.363  1.00  0.00     0.093 A 
ATOM      8  C   UNL     1       0.005  -6.794   1.648  1.00  0.00     0.123 A 
ATOM      9  C   UNL     1      -1.013  -5.989   2.159  1.00  0.00     0.094 A 
ATOM     10  C   UNL     1      -1.615  -6.301   3.382  1.00  0.00     0.146 A 
ATOM     11  O   UNL     1      -2.585  -5.521   3.843  1.00  0.00    -0.452 OA
ENDROOT
BRANCH   1  12
ATOM     12  C   UNL     1      -4.292  -4.802   5.389  1.00  0.00     0.025 A 
ATOM     13  C   UNL     1      -4.005  -3.770   6.296  1.00  0.00     0.016 A 
ATOM     14  C   UNL     1      -4.997  -2.859   6.669  1.00  0.00     0.051 A 
ATOM     15  C   UNL     1      -6.286  -2.959   6.128  1.00  0.00     0.157 A 
ATOM     16  C   UNL     1      -5.581  -4.887   4.833  1.00  0.00     0.062 A 
ATOM     17  C   UNL     1      -6.577  -3.972   5.206  1.00  0.00     0.158 A 
BRANCH  15  18
ATOM     18  O   UNL     1      -7.279  -2.055   6.498  1.00  0.00    -0.504 OA
ATOM     19  H   UNL     1      -8.252  -2.332   6.563  1.00  0.00     0.293 HD
ENDBRANCH  15  18
BRANCH  17  20
ATOM     20  O   UNL     1      -7.856  -4.060   4.659  1.00  0.00    -0.504 OA
ATOM     21  H   UNL     1      -8.434  -4.881   4.792  1.00  0.00     0.293 HD
ENDBRANCH  17  20
ENDBRANCH   1  12
BRANCH   2  22
ATOM     22  O   UNL     1      -3.455  -7.039   7.038  1.00  0.00    -0.502 OA
ATOM     23  H   UNL     1      -2.934  -7.318   7.860  1.00  0.00     0.293 HD
ENDBRANCH   2  22
BRANCH   6  24
ATOM     24  O   UNL     1       0.286  -9.377   4.283  1.00  0.00    -0.507 OA
ATOM     25  H   UNL     1       0.043  -9.540   5.253  1.00  0.00     0.293 HD
ENDBRANCH   6  24
BRANCH   8  26
ATOM     26  O   UNL     1       0.591  -6.467   0.427  1.00  0.00    -0.508 OA
ATOM     27  H   UNL     1       1.343  -5.791   0.364  1.00  0.00     0.293 HD
ENDBRANCH   8  26
TORSDOF 6
ENDMDL
