MODEL 1
REMARK VINA RESULT:    -6.944      0.000      0.000
REMARK INTER + INTRA:         -11.493
REMARK INTER:                 -10.191
REMARK INTRA:                  -1.302
REMARK UNBOUND:                -1.302
REMARK SMILES O=c1c(O[C@@H]2O[C@@H](CO)[C@H](O)[C@H](O)[C@@H]2O)c(-c2ccc(O)c(O)c2)oc2cc(O)cc(O)c12
REMARK SMILES IDX 4 1 3 2 16 3 25 4 2 5 26 6 1 7 33 8 27 9 31 10 28 11 30 12
REMARK SMILES IDX 17 13 18 14 19 15 20 16 24 17 22 18 21 19 23 21 32 23 29 25
REMARK SMILES IDX 5 27 14 28 6 29 12 30 7 31 10 32 15 33 13 35 8 37 9 38 11 40
REMARK H PARENT 21 20 23 22 32 24 29 26 15 34 13 36 9 39 11 41
REMARK Flexibility Score: inf
ROOT
ATOM      1  O   UNL     1     -11.515   7.358   6.148  1.00  0.00    -0.454 OA
ENDROOT
BRANCH   1   2
ATOM      2  C   UNL     1     -12.052   8.477   5.498  1.00  0.00     0.214 A 
ATOM      3  C   UNL     1     -11.301   9.653   5.287  1.00  0.00     0.180 A 
ATOM      4  O   UNL     1     -11.883  10.720   4.748  1.00  0.00    -0.452 OA
ATOM      5  C   UNL     1     -13.378   8.435   5.054  1.00  0.00     0.239 A 
ATOM      6  C   UNL     1     -13.149  10.735   4.346  1.00  0.00     0.146 A 
ATOM      7  O   UNL     1     -14.042   7.373   5.203  1.00  0.00    -0.285 OA
ATOM      8  C   UNL     1     -13.956   9.578   4.469  1.00  0.00     0.111 A 
ATOM      9  C   UNL     1     -13.674  11.905   3.791  1.00  0.00     0.094 A 
ATOM     10  C   UNL     1     -15.296   9.623   4.015  1.00  0.00     0.134 A 
ATOM     11  C   UNL     1     -14.997  11.944   3.347  1.00  0.00     0.123 A 
ATOM     12  C   UNL     1     -15.803  10.807   3.458  1.00  0.00     0.093 A 
BRANCH   3  13
ATOM     13  C   UNL     1      -9.865   9.740   5.626  1.00  0.00     0.025 A 
ATOM     14  C   UNL     1      -8.882   9.305   4.722  1.00  0.00     0.016 A 
ATOM     15  C   UNL     1      -7.528   9.402   5.051  1.00  0.00     0.051 A 
ATOM     16  C   UNL     1      -7.138   9.949   6.281  1.00  0.00     0.157 A 
ATOM     17  C   UNL     1      -9.471  10.311   6.846  1.00  0.00     0.062 A 
ATOM     18  C   UNL     1      -8.116  10.410   7.180  1.00  0.00     0.158 A 
BRANCH  16  19
ATOM     19  O   UNL     1      -5.787  10.040   6.610  1.00  0.00    -0.504 OA
ATOM     20  H   UNL     1      -5.444  10.742   7.255  1.00  0.00     0.293 HD
ENDBRANCH  16  19
BRANCH  18  21
ATOM     21  O   UNL     1      -7.760  10.968   8.408  1.00  0.00    -0.504 OA
ATOM     22  H   UNL     1      -7.373  11.901   8.483  1.00  0.00     0.293 HD
ENDBRANCH  18  21
ENDBRANCH   3  13
BRANCH  10  23
ATOM     23  O   UNL     1     -16.125   8.504   4.115  1.00  0.00    -0.507 OA
ATOM     24  H   UNL     1     -16.234   7.998   4.986  1.00  0.00     0.293 HD
ENDBRANCH  10  23
BRANCH  11  25
ATOM     25  O   UNL     1     -15.500  13.120   2.795  1.00  0.00    -0.508 OA
ATOM     26  H   UNL     1     -16.424  13.463   3.030  1.00  0.00     0.293 HD
ENDBRANCH  11  25
ENDBRANCH   1   2
BRANCH   1  27
ATOM     27  C   UNL     1     -10.666   6.407   5.493  1.00  0.00     0.339 C 
ATOM     28  C   UNL     1      -9.712   5.734   6.498  1.00  0.00     0.214 C 
ATOM     29  O   UNL     1     -11.434   5.442   4.792  1.00  0.00    -0.332 OA
ATOM     30  C   UNL     1     -10.490   4.825   7.466  1.00  0.00     0.180 C 
ATOM     31  C   UNL     1     -12.262   4.693   5.668  1.00  0.00     0.179 C 
ATOM     32  C   UNL     1     -11.404   3.878   6.668  1.00  0.00     0.177 C 
BRANCH  28  33
ATOM     33  O   UNL     1      -8.999   6.715   7.205  1.00  0.00    -0.384 OA
ATOM     34  H   UNL     1      -9.153   6.541   8.170  1.00  0.00     0.211 HD
ENDBRANCH  28  33
BRANCH  30  35
ATOM     35  O   UNL     1     -11.246   5.612   8.354  1.00  0.00    -0.387 OA
ATOM     36  H   UNL     1     -11.779   6.242   7.802  1.00  0.00     0.211 HD
ENDBRANCH  30  35
BRANCH  31  37
ATOM     37  C   UNL     1     -13.160   3.785   4.818  1.00  0.00     0.191 C 
BRANCH  37  38
ATOM     38  O   UNL     1     -12.485   3.369   3.663  1.00  0.00    -0.394 OA
ATOM     39  H   UNL     1     -11.552   3.692   3.759  1.00  0.00     0.210 HD
ENDBRANCH  37  38
ENDBRANCH  31  37
BRANCH  32  40
ATOM     40  O   UNL     1     -12.225   3.164   7.558  1.00  0.00    -0.387 OA
ATOM     41  H   UNL     1     -13.164   3.293   7.260  1.00  0.00     0.211 HD
ENDBRANCH  32  40
ENDBRANCH   1  27
TORSDOF 12
ENDMDL
MODEL 2
REMARK VINA RESULT:    -6.765      1.553      5.948
REMARK INTER + INTRA:         -11.230
REMARK INTER:                  -9.723
REMARK INTRA:                  -1.507
REMARK UNBOUND:                -1.302
REMARK SMILES O=c1c(O[C@@H]2O[C@@H](CO)[C@H](O)[C@H](O)[C@@H]2O)c(-c2ccc(O)c(O)c2)oc2cc(O)cc(O)c12
REMARK SMILES IDX 4 1 3 2 16 3 25 4 2 5 26 6 1 7 33 8 27 9 31 10 28 11 30 12
REMARK SMILES IDX 17 13 18 14 19 15 20 16 24 17 22 18 21 19 23 21 32 23 29 25
REMARK SMILES IDX 5 27 14 28 6 29 12 30 7 31 10 32 15 33 13 35 8 37 9 38 11 40
REMARK H PARENT 21 20 23 22 32 24 29 26 15 34 13 36 9 39 11 41
REMARK Flexibility Score: inf
ROOT
ATOM      1  O   UNL     1     -11.328   9.972   4.962  1.00  0.00    -0.454 OA
ENDROOT
BRANCH   1   2
ATOM      2  C   UNL     1     -11.135   8.650   5.382  1.00  0.00     0.214 A 
ATOM      3  C   UNL     1      -9.873   8.173   5.797  1.00  0.00     0.180 A 
ATOM      4  O   UNL     1      -9.721   6.886   6.099  1.00  0.00    -0.452 OA
ATOM      5  C   UNL     1     -12.222   7.770   5.382  1.00  0.00     0.239 A 
ATOM      6  C   UNL     1     -10.718   6.010   6.076  1.00  0.00     0.146 A 
ATOM      7  O   UNL     1     -13.361   8.201   5.052  1.00  0.00    -0.285 OA
ATOM      8  C   UNL     1     -12.028   6.418   5.728  1.00  0.00     0.111 A 
ATOM      9  C   UNL     1     -10.461   4.677   6.410  1.00  0.00     0.094 A 
ATOM     10  C   UNL     1     -13.071   5.462   5.730  1.00  0.00     0.134 A 
ATOM     11  C   UNL     1     -11.494   3.737   6.409  1.00  0.00     0.123 A 
ATOM     12  C   UNL     1     -12.793   4.129   6.071  1.00  0.00     0.093 A 
BRANCH   3  13
ATOM     13  C   UNL     1      -8.701   9.063   5.931  1.00  0.00     0.025 A 
ATOM     14  C   UNL     1      -7.864   9.325   4.834  1.00  0.00     0.016 A 
ATOM     15  C   UNL     1      -6.766  10.176   4.972  1.00  0.00     0.051 A 
ATOM     16  C   UNL     1      -6.498  10.790   6.204  1.00  0.00     0.157 A 
ATOM     17  C   UNL     1      -8.446   9.699   7.156  1.00  0.00     0.062 A 
ATOM     18  C   UNL     1      -7.347  10.553   7.299  1.00  0.00     0.158 A 
BRANCH  16  19
ATOM     19  O   UNL     1      -5.399  11.635   6.341  1.00  0.00    -0.504 OA
ATOM     20  H   UNL     1      -5.510  12.623   6.535  1.00  0.00     0.293 HD
ENDBRANCH  16  19
BRANCH  18  21
ATOM     21  O   UNL     1      -7.114  11.155   8.535  1.00  0.00    -0.504 OA
ATOM     22  H   UNL     1      -6.277  10.967   9.075  1.00  0.00     0.293 HD
ENDBRANCH  18  21
ENDBRANCH   3  13
BRANCH  10  23
ATOM     23  O   UNL     1     -14.377   5.823   5.395  1.00  0.00    -0.507 OA
ATOM     24  H   UNL     1     -15.138   5.155   5.419  1.00  0.00     0.293 HD
ENDBRANCH  10  23
BRANCH  11  25
ATOM     25  O   UNL     1     -11.217   2.414   6.746  1.00  0.00    -0.508 OA
ATOM     26  H   UNL     1     -11.547   2.008   7.614  1.00  0.00     0.293 HD
ENDBRANCH  11  25
ENDBRANCH   1   2
BRANCH   1  27
ATOM     27  C   UNL     1     -11.655  11.039   5.862  1.00  0.00     0.339 C 
ATOM     28  C   UNL     1     -11.052  12.372   5.381  1.00  0.00     0.214 C 
ATOM     29  O   UNL     1     -13.059  11.144   6.032  1.00  0.00    -0.332 OA
ATOM     30  C   UNL     1     -11.740  12.848   4.088  1.00  0.00     0.180 C 
ATOM     31  C   UNL     1     -13.715  11.445   4.811  1.00  0.00     0.179 C 
ATOM     32  C   UNL     1     -13.268  12.829   4.276  1.00  0.00     0.177 C 
BRANCH  28  33
ATOM     33  O   UNL     1      -9.670  12.223   5.180  1.00  0.00    -0.384 OA
ATOM     34  H   UNL     1      -9.276  13.133   5.218  1.00  0.00     0.211 HD
ENDBRANCH  28  33
BRANCH  30  35
ATOM     35  O   UNL     1     -11.362  12.021   3.016  1.00  0.00    -0.387 OA
ATOM     36  H   UNL     1     -12.120  11.404   2.842  1.00  0.00     0.211 HD
ENDBRANCH  30  35
BRANCH  31  37
ATOM     37  C   UNL     1     -15.229  11.392   5.054  1.00  0.00     0.191 C 
BRANCH  37  38
ATOM     38  O   UNL     1     -15.632  10.085   5.354  1.00  0.00    -0.394 OA
ATOM     39  H   UNL     1     -15.792   9.639   4.482  1.00  0.00     0.210 HD
ENDBRANCH  37  38
ENDBRANCH  31  37
BRANCH  32  40
ATOM     40  O   UNL     1     -13.891  13.110   3.048  1.00  0.00    -0.387 OA
ATOM     41  H   UNL     1     -14.680  13.681   3.243  1.00  0.00     0.211 HD
ENDBRANCH  32  40
ENDBRANCH   1  27
TORSDOF 12
ENDMDL
MODEL 3
REMARK VINA RESULT:    -5.955      1.998      6.024
REMARK INTER + INTRA:         -10.042
REMARK INTER:                  -8.319
REMARK INTRA:                  -1.723
REMARK UNBOUND:                -1.302
REMARK SMILES O=c1c(O[C@@H]2O[C@@H](CO)[C@H](O)[C@H](O)[C@@H]2O)c(-c2ccc(O)c(O)c2)oc2cc(O)cc(O)c12
REMARK SMILES IDX 4 1 3 2 16 3 25 4 2 5 26 6 1 7 33 8 27 9 31 10 28 11 30 12
REMARK SMILES IDX 17 13 18 14 19 15 20 16 24 17 22 18 21 19 23 21 32 23 29 25
REMARK SMILES IDX 5 27 14 28 6 29 12 30 7 31 10 32 15 33 13 35 8 37 9 38 11 40
REMARK H PARENT 21 20 23 22 32 24 29 26 15 34 13 36 9 39 11 41
REMARK Flexibility Score: inf
ROOT
ATOM      1  O   UNL     1     -11.835   9.394   6.221  1.00  0.00    -0.454 OA
ENDROOT
BRANCH   1   2
ATOM      2  C   UNL     1     -11.445   8.111   5.815  1.00  0.00     0.214 A 
ATOM      3  C   UNL     1     -10.100   7.792   5.531  1.00  0.00     0.180 A 
ATOM      4  O   UNL     1      -9.793   6.586   5.061  1.00  0.00    -0.452 OA
ATOM      5  C   UNL     1     -12.419   7.116   5.675  1.00  0.00     0.239 A 
ATOM      6  C   UNL     1     -10.691   5.625   4.879  1.00  0.00     0.146 A 
ATOM      7  O   UNL     1     -13.616   7.384   5.967  1.00  0.00    -0.285 OA
ATOM      8  C   UNL     1     -12.054   5.843   5.194  1.00  0.00     0.111 A 
ATOM      9  C   UNL     1     -10.273   4.388   4.379  1.00  0.00     0.094 A 
ATOM     10  C   UNL     1     -12.982   4.792   5.004  1.00  0.00     0.134 A 
ATOM     11  C   UNL     1     -11.193   3.355   4.192  1.00  0.00     0.123 A 
ATOM     12  C   UNL     1     -12.541   3.557   4.504  1.00  0.00     0.093 A 
BRANCH   3  13
ATOM     13  C   UNL     1      -9.000   8.751   5.759  1.00  0.00     0.025 A 
ATOM     14  C   UNL     1      -8.206   9.207   4.692  1.00  0.00     0.016 A 
ATOM     15  C   UNL     1      -7.176  10.122   4.921  1.00  0.00     0.051 A 
ATOM     16  C   UNL     1      -6.935  10.606   6.213  1.00  0.00     0.157 A 
ATOM     17  C   UNL     1      -8.773   9.258   7.048  1.00  0.00     0.062 A 
ATOM     18  C   UNL     1      -7.742  10.175   7.281  1.00  0.00     0.158 A 
BRANCH  16  19
ATOM     19  O   UNL     1      -5.903  11.515   6.439  1.00  0.00    -0.504 OA
ATOM     20  H   UNL     1      -5.803  12.354   5.880  1.00  0.00     0.293 HD
ENDBRANCH  16  19
BRANCH  18  21
ATOM     21  O   UNL     1      -7.534  10.645   8.577  1.00  0.00    -0.504 OA
ATOM     22  H   UNL     1      -8.301  10.824   9.214  1.00  0.00     0.293 HD
ENDBRANCH  18  21
ENDBRANCH   3  13
BRANCH  10  23
ATOM     23  O   UNL     1     -14.334   4.965   5.304  1.00  0.00    -0.507 OA
ATOM     24  H   UNL     1     -14.947   4.177   5.472  1.00  0.00     0.293 HD
ENDBRANCH  10  23
BRANCH  11  25
ATOM     25  O   UNL     1     -10.755   2.129   3.694  1.00  0.00    -0.508 OA
ATOM     26  H   UNL     1     -10.782   1.288   4.259  1.00  0.00     0.293 HD
ENDBRANCH  11  25
ENDBRANCH   1   2
BRANCH   1  27
ATOM     27  C   UNL     1     -11.803  10.532   5.351  1.00  0.00     0.339 C 
ATOM     28  C   UNL     1     -13.225  11.043   5.054  1.00  0.00     0.214 C 
ATOM     29  O   UNL     1     -10.993  11.562   5.897  1.00  0.00    -0.332 OA
ATOM     30  C   UNL     1     -13.864  11.648   6.318  1.00  0.00     0.180 C 
ATOM     31  C   UNL     1     -11.502  12.028   7.137  1.00  0.00     0.179 C 
ATOM     32  C   UNL     1     -12.899  12.670   6.948  1.00  0.00     0.177 C 
BRANCH  28  33
ATOM     33  O   UNL     1     -14.012   9.992   4.557  1.00  0.00    -0.384 OA
ATOM     34  H   UNL     1     -14.606  10.383   3.864  1.00  0.00     0.211 HD
ENDBRANCH  28  33
BRANCH  30  35
ATOM     35  O   UNL     1     -14.169  10.625   7.233  1.00  0.00    -0.387 OA
ATOM     36  H   UNL     1     -13.312  10.188   7.479  1.00  0.00     0.211 HD
ENDBRANCH  30  35
BRANCH  31  37
ATOM     37  C   UNL     1     -10.494  13.025   7.725  1.00  0.00     0.191 C 
BRANCH  37  38
ATOM     38  O   UNL     1      -9.889  12.492   8.871  1.00  0.00    -0.394 OA
ATOM     39  H   UNL     1      -9.818  13.241   9.517  1.00  0.00     0.210 HD
ENDBRANCH  37  38
ENDBRANCH  31  37
BRANCH  32  40
ATOM     40  O   UNL     1     -13.418  13.099   8.182  1.00  0.00    -0.387 OA
ATOM     41  H   UNL     1     -13.691  12.288   8.685  1.00  0.00     0.211 HD
ENDBRANCH  32  40
ENDBRANCH   1  27
TORSDOF 12
ENDMDL
MODEL 4
REMARK VINA RESULT:    -5.385      1.906      5.773
REMARK INTER + INTRA:          -9.205
REMARK INTER:                  -9.347
REMARK INTRA:                   0.141
REMARK UNBOUND:                -1.302
REMARK SMILES O=c1c(O[C@@H]2O[C@@H](CO)[C@H](O)[C@H](O)[C@@H]2O)c(-c2ccc(O)c(O)c2)oc2cc(O)cc(O)c12
REMARK SMILES IDX 4 1 3 2 16 3 25 4 2 5 26 6 1 7 33 8 27 9 31 10 28 11 30 12
REMARK SMILES IDX 17 13 18 14 19 15 20 16 24 17 22 18 21 19 23 21 32 23 29 25
REMARK SMILES IDX 5 27 14 28 6 29 12 30 7 31 10 32 15 33 13 35 8 37 9 38 11 40
REMARK H PARENT 21 20 23 22 32 24 29 26 15 34 13 36 9 39 11 41
REMARK Flexibility Score: inf
ROOT
ATOM      1  O   UNL     1     -11.844   9.832   6.031  1.00  0.00    -0.454 OA
ENDROOT
BRANCH   1   2
ATOM      2  C   UNL     1     -11.547   8.480   5.816  1.00  0.00     0.214 A 
ATOM      3  C   UNL     1     -10.222   8.019   5.660  1.00  0.00     0.180 A 
ATOM      4  O   UNL     1      -9.998   6.742   5.366  1.00  0.00    -0.452 OA
ATOM      5  C   UNL     1     -12.595   7.557   5.743  1.00  0.00     0.239 A 
ATOM      6  C   UNL     1     -10.966   5.840   5.252  1.00  0.00     0.146 A 
ATOM      7  O   UNL     1     -13.778   7.956   5.923  1.00  0.00    -0.285 OA
ATOM      8  C   UNL     1     -12.319   6.207   5.450  1.00  0.00     0.111 A 
ATOM      9  C   UNL     1     -10.632   4.519   4.940  1.00  0.00     0.094 A 
ATOM     10  C   UNL     1     -13.324   5.217   5.337  1.00  0.00     0.134 A 
ATOM     11  C   UNL     1     -11.629   3.547   4.827  1.00  0.00     0.123 A 
ATOM     12  C   UNL     1     -12.969   3.896   5.027  1.00  0.00     0.093 A 
BRANCH   3  13
ATOM     13  C   UNL     1      -9.055   8.909   5.833  1.00  0.00     0.025 A 
ATOM     14  C   UNL     1      -8.233   9.242   4.743  1.00  0.00     0.016 A 
ATOM     15  C   UNL     1      -7.139  10.092   4.919  1.00  0.00     0.051 A 
ATOM     16  C   UNL     1      -6.861  10.635   6.181  1.00  0.00     0.157 A 
ATOM     17  C   UNL     1      -8.790   9.474   7.090  1.00  0.00     0.062 A 
ATOM     18  C   UNL     1      -7.695  10.327   7.270  1.00  0.00     0.158 A 
BRANCH  16  19
ATOM     19  O   UNL     1      -5.766  11.478   6.355  1.00  0.00    -0.504 OA
ATOM     20  H   UNL     1      -5.533  12.193   5.675  1.00  0.00     0.293 HD
ENDBRANCH  16  19
BRANCH  18  21
ATOM     21  O   UNL     1      -7.451  10.857   8.537  1.00  0.00    -0.504 OA
ATOM     22  H   UNL     1      -7.810  11.761   8.820  1.00  0.00     0.293 HD
ENDBRANCH  18  21
ENDBRANCH   3  13
BRANCH  10  23
ATOM     23  O   UNL     1     -14.669   5.536   5.528  1.00  0.00    -0.507 OA
ATOM     24  H   UNL     1     -15.075   6.383   5.147  1.00  0.00     0.293 HD
ENDBRANCH  10  23
BRANCH  11  25
ATOM     25  O   UNL     1     -11.275   2.235   4.518  1.00  0.00    -0.508 OA
ATOM     26  H   UNL     1     -11.109   1.942   3.562  1.00  0.00     0.293 HD
ENDBRANCH  11  25
ENDBRANCH   1   2
BRANCH   1  27
ATOM     27  C   UNL     1     -13.137  10.397   5.783  1.00  0.00     0.339 C 
ATOM     28  C   UNL     1     -13.186  11.876   6.212  1.00  0.00     0.214 C 
ATOM     29  O   UNL     1     -13.502  10.247   4.421  1.00  0.00    -0.332 OA
ATOM     30  C   UNL     1     -12.301  12.740   5.296  1.00  0.00     0.180 C 
ATOM     31  C   UNL     1     -12.604  10.929   3.559  1.00  0.00     0.179 C 
ATOM     32  C   UNL     1     -12.644  12.455   3.823  1.00  0.00     0.177 C 
BRANCH  28  33
ATOM     33  O   UNL     1     -12.779  11.995   7.551  1.00  0.00    -0.384 OA
ATOM     34  H   UNL     1     -13.572  11.788   8.111  1.00  0.00     0.211 HD
ENDBRANCH  28  33
BRANCH  30  35
ATOM     35  O   UNL     1     -10.944  12.468   5.551  1.00  0.00    -0.387 OA
ATOM     36  H   UNL     1     -10.914  11.807   6.291  1.00  0.00     0.211 HD
ENDBRANCH  30  35
BRANCH  31  37
ATOM     37  C   UNL     1     -12.981  10.593   2.110  1.00  0.00     0.191 C 
BRANCH  37  38
ATOM     38  O   UNL     1     -11.915  10.878   1.247  1.00  0.00    -0.394 OA
ATOM     39  H   UNL     1     -11.347  10.065   1.234  1.00  0.00     0.210 HD
ENDBRANCH  37  38
ENDBRANCH  31  37
BRANCH  32  40
ATOM     40  O   UNL     1     -11.728  13.125   2.994  1.00  0.00    -0.387 OA
ATOM     41  H   UNL     1     -11.605  14.036   3.368  1.00  0.00     0.211 HD
ENDBRANCH  32  40
ENDBRANCH   1  27
TORSDOF 12
ENDMDL
MODEL 5
REMARK VINA RESULT:    -5.180      1.644      6.802
REMARK INTER + INTRA:          -8.904
REMARK INTER:                  -8.178
REMARK INTRA:                  -0.726
REMARK UNBOUND:                -1.302
REMARK SMILES O=c1c(O[C@@H]2O[C@@H](CO)[C@H](O)[C@H](O)[C@@H]2O)c(-c2ccc(O)c(O)c2)oc2cc(O)cc(O)c12
REMARK SMILES IDX 4 1 3 2 16 3 25 4 2 5 26 6 1 7 33 8 27 9 31 10 28 11 30 12
REMARK SMILES IDX 17 13 18 14 19 15 20 16 24 17 22 18 21 19 23 21 32 23 29 25
REMARK SMILES IDX 5 27 14 28 6 29 12 30 7 31 10 32 15 33 13 35 8 37 9 38 11 40
REMARK H PARENT 21 20 23 22 32 24 29 26 15 34 13 36 9 39 11 41
REMARK Flexibility Score: inf
ROOT
ATOM      1  O   UNL     1     -12.980   8.370   5.564  1.00  0.00    -0.454 OA
ENDROOT
BRANCH   1   2
ATOM      2  C   UNL     1     -11.586   8.483   5.637  1.00  0.00     0.214 A 
ATOM      3  C   UNL     1     -10.750   7.355   5.782  1.00  0.00     0.180 A 
ATOM      4  O   UNL     1      -9.440   7.521   5.939  1.00  0.00    -0.452 OA
ATOM      5  C   UNL     1     -11.002   9.753   5.575  1.00  0.00     0.239 A 
ATOM      6  C   UNL     1      -8.849   8.710   5.924  1.00  0.00     0.146 A 
ATOM      7  O   UNL     1     -11.740  10.760   5.404  1.00  0.00    -0.285 OA
ATOM      8  C   UNL     1      -9.607   9.889   5.725  1.00  0.00     0.111 A 
ATOM      9  C   UNL     1      -7.464   8.785   6.097  1.00  0.00     0.094 A 
ATOM     10  C   UNL     1      -8.944  11.138   5.697  1.00  0.00     0.134 A 
ATOM     11  C   UNL     1      -6.815  10.021   6.071  1.00  0.00     0.123 A 
ATOM     12  C   UNL     1      -7.552  11.192   5.870  1.00  0.00     0.093 A 
BRANCH   3  13
ATOM     13  C   UNL     1     -11.278   5.976   5.745  1.00  0.00     0.025 A 
ATOM     14  C   UNL     1     -12.226   5.540   6.685  1.00  0.00     0.016 A 
ATOM     15  C   UNL     1     -12.724   4.236   6.632  1.00  0.00     0.051 A 
ATOM     16  C   UNL     1     -12.294   3.355   5.630  1.00  0.00     0.157 A 
ATOM     17  C   UNL     1     -10.869   5.100   4.727  1.00  0.00     0.062 A 
ATOM     18  C   UNL     1     -11.365   3.793   4.670  1.00  0.00     0.158 A 
BRANCH  16  19
ATOM     19  O   UNL     1     -12.788   2.054   5.582  1.00  0.00    -0.504 OA
ATOM     20  H   UNL     1     -13.721   1.852   5.241  1.00  0.00     0.293 HD
ENDBRANCH  16  19
BRANCH  18  21
ATOM     21  O   UNL     1     -10.924   2.945   3.655  1.00  0.00    -0.504 OA
ATOM     22  H   UNL     1     -11.411   2.089   3.419  1.00  0.00     0.293 HD
ENDBRANCH  18  21
ENDBRANCH   3  13
BRANCH  10  23
ATOM     23  O   UNL     1      -9.654  12.324   5.502  1.00  0.00    -0.507 OA
ATOM     24  H   UNL     1      -9.447  13.163   6.030  1.00  0.00     0.293 HD
ENDBRANCH  10  23
BRANCH  11  25
ATOM     25  O   UNL     1      -5.433  10.073   6.244  1.00  0.00    -0.508 OA
ATOM     26  H   UNL     1      -4.894  10.885   5.966  1.00  0.00     0.293 HD
ENDBRANCH  11  25
ENDBRANCH   1   2
BRANCH   1  27
ATOM     27  C   UNL     1     -13.674   8.018   4.361  1.00  0.00     0.339 C 
ATOM     28  C   UNL     1     -15.167   7.759   4.638  1.00  0.00     0.214 C 
ATOM     29  O   UNL     1     -13.504   9.017   3.368  1.00  0.00    -0.332 OA
ATOM     30  C   UNL     1     -15.885   9.065   5.028  1.00  0.00     0.180 C 
ATOM     31  C   UNL     1     -14.041  10.264   3.781  1.00  0.00     0.179 C 
ATOM     32  C   UNL     1     -15.572  10.158   3.989  1.00  0.00     0.177 C 
BRANCH  28  33
ATOM     33  O   UNL     1     -15.301   6.799   5.654  1.00  0.00    -0.384 OA
ATOM     34  H   UNL     1     -15.260   5.910   5.214  1.00  0.00     0.211 HD
ENDBRANCH  28  33
BRANCH  30  35
ATOM     35  O   UNL     1     -15.475   9.468   6.311  1.00  0.00    -0.387 OA
ATOM     36  H   UNL     1     -15.784  10.404   6.435  1.00  0.00     0.211 HD
ENDBRANCH  30  35
BRANCH  31  37
ATOM     37  C   UNL     1     -13.684  11.314   2.721  1.00  0.00     0.191 C 
BRANCH  37  38
ATOM     38  O   UNL     1     -12.323  11.238   2.394  1.00  0.00    -0.394 OA
ATOM     39  H   UNL     1     -12.094  10.273   2.394  1.00  0.00     0.210 HD
ENDBRANCH  37  38
ENDBRANCH  31  37
BRANCH  32  40
ATOM     40  O   UNL     1     -16.098  11.384   4.433  1.00  0.00    -0.387 OA
ATOM     41  H   UNL     1     -15.346  12.031   4.466  1.00  0.00     0.211 HD
ENDBRANCH  32  40
ENDBRANCH   1  27
TORSDOF 12
ENDMDL
MODEL 6
REMARK VINA RESULT:    -4.915      1.612      7.093
REMARK INTER + INTRA:          -8.515
REMARK INTER:                  -7.072
REMARK INTRA:                  -1.443
REMARK UNBOUND:                -1.302
REMARK SMILES O=c1c(O[C@@H]2O[C@@H](CO)[C@H](O)[C@H](O)[C@@H]2O)c(-c2ccc(O)c(O)c2)oc2cc(O)cc(O)c12
REMARK SMILES IDX 4 1 3 2 16 3 25 4 2 5 26 6 1 7 33 8 27 9 31 10 28 11 30 12
REMARK SMILES IDX 17 13 18 14 19 15 20 16 24 17 22 18 21 19 23 21 32 23 29 25
REMARK SMILES IDX 5 27 14 28 6 29 12 30 7 31 10 32 15 33 13 35 8 37 9 38 11 40
REMARK H PARENT 21 20 23 22 32 24 29 26 15 34 13 36 9 39 11 41
REMARK Flexibility Score: inf
ROOT
ATOM      1  O   UNL     1     -10.862   9.760   6.221  1.00  0.00    -0.454 OA
ENDROOT
BRANCH   1   2
ATOM      2  C   UNL     1     -11.438   8.521   5.909  1.00  0.00     0.214 A 
ATOM      3  C   UNL     1     -12.798   8.396   5.552  1.00  0.00     0.180 A 
ATOM      4  O   UNL     1     -13.319   7.189   5.356  1.00  0.00    -0.452 OA
ATOM      5  C   UNL     1     -10.645   7.370   5.964  1.00  0.00     0.239 A 
ATOM      6  C   UNL     1     -12.612   6.068   5.433  1.00  0.00     0.146 A 
ATOM      7  O   UNL     1      -9.420   7.480   6.242  1.00  0.00    -0.285 OA
ATOM      8  C   UNL     1     -11.228   6.109   5.729  1.00  0.00     0.111 A 
ATOM      9  C   UNL     1     -13.249   4.843   5.210  1.00  0.00     0.094 A 
ATOM     10  C   UNL     1     -10.500   4.896   5.787  1.00  0.00     0.134 A 
ATOM     11  C   UNL     1     -12.526   3.650   5.270  1.00  0.00     0.123 A 
ATOM     12  C   UNL     1     -11.157   3.678   5.557  1.00  0.00     0.093 A 
BRANCH   3  13
ATOM     13  C   UNL     1     -13.673   9.572   5.365  1.00  0.00     0.025 A 
ATOM     14  C   UNL     1     -14.327  10.166   6.457  1.00  0.00     0.016 A 
ATOM     15  C   UNL     1     -15.144  11.283   6.267  1.00  0.00     0.051 A 
ATOM     16  C   UNL     1     -15.304  11.832   4.988  1.00  0.00     0.157 A 
ATOM     17  C   UNL     1     -13.814  10.139   4.090  1.00  0.00     0.062 A 
ATOM     18  C   UNL     1     -14.631  11.259   3.895  1.00  0.00     0.158 A 
BRANCH  16  19
ATOM     19  O   UNL     1     -16.123  12.943   4.800  1.00  0.00    -0.504 OA
ATOM     20  H   UNL     1     -15.781  13.785   4.352  1.00  0.00     0.293 HD
ENDBRANCH  16  19
BRANCH  18  21
ATOM     21  O   UNL     1     -14.762  11.786   2.611  1.00  0.00    -0.504 OA
ATOM     22  H   UNL     1     -14.734  12.783   2.433  1.00  0.00     0.293 HD
ENDBRANCH  18  21
ENDBRANCH   3  13
BRANCH  10  23
ATOM     23  O   UNL     1      -9.134   4.893   6.073  1.00  0.00    -0.507 OA
ATOM     24  H   UNL     1      -8.437   5.018   5.348  1.00  0.00     0.293 HD
ENDBRANCH  10  23
BRANCH  11  25
ATOM     25  O   UNL     1     -13.179   2.441   5.043  1.00  0.00    -0.508 OA
ATOM     26  H   UNL     1     -13.985   2.162   5.591  1.00  0.00     0.293 HD
ENDBRANCH  11  25
ENDBRANCH   1   2
BRANCH   1  27
ATOM     27  C   UNL     1     -10.269  10.616   5.236  1.00  0.00     0.339 C 
ATOM     28  C   UNL     1     -10.422  12.098   5.627  1.00  0.00     0.214 C 
ATOM     29  O   UNL     1      -8.906  10.279   5.029  1.00  0.00    -0.332 OA
ATOM     30  C   UNL     1      -9.568  12.427   6.865  1.00  0.00     0.180 C 
ATOM     31  C   UNL     1      -8.139  10.447   6.210  1.00  0.00     0.179 C 
ATOM     32  C   UNL     1      -8.126  11.934   6.647  1.00  0.00     0.177 C 
BRANCH  28  33
ATOM     33  O   UNL     1     -11.774  12.388   5.867  1.00  0.00    -0.384 OA
ATOM     34  H   UNL     1     -11.825  12.781   6.777  1.00  0.00     0.211 HD
ENDBRANCH  28  33
BRANCH  30  35
ATOM     35  O   UNL     1     -10.131  11.826   8.005  1.00  0.00    -0.387 OA
ATOM     36  H   UNL     1      -9.378  11.564   8.598  1.00  0.00     0.211 HD
ENDBRANCH  30  35
BRANCH  31  37
ATOM     37  C   UNL     1      -6.722   9.923   5.940  1.00  0.00     0.191 C 
BRANCH  37  38
ATOM     38  O   UNL     1      -5.814  10.987   5.854  1.00  0.00    -0.394 OA
ATOM     39  H   UNL     1      -6.204  11.630   5.207  1.00  0.00     0.210 HD
ENDBRANCH  37  38
ENDBRANCH  31  37
BRANCH  32  40
ATOM     40  O   UNL     1      -7.395  12.094   7.837  1.00  0.00    -0.387 OA
ATOM     41  H   UNL     1      -7.250  13.067   7.965  1.00  0.00     0.211 HD
ENDBRANCH  32  40
ENDBRANCH   1  27
TORSDOF 12
ENDMDL
MODEL 7
REMARK VINA RESULT:    -4.204      3.988      7.498
REMARK INTER + INTRA:          -7.472
REMARK INTER:                  -6.427
REMARK INTRA:                  -1.045
REMARK UNBOUND:                -1.302
REMARK SMILES O=c1c(O[C@@H]2O[C@@H](CO)[C@H](O)[C@H](O)[C@@H]2O)c(-c2ccc(O)c(O)c2)oc2cc(O)cc(O)c12
REMARK SMILES IDX 4 1 3 2 16 3 25 4 2 5 26 6 1 7 33 8 27 9 31 10 28 11 30 12
REMARK SMILES IDX 17 13 18 14 19 15 20 16 24 17 22 18 21 19 23 21 32 23 29 25
REMARK SMILES IDX 5 27 14 28 6 29 12 30 7 31 10 32 15 33 13 35 8 37 9 38 11 40
REMARK H PARENT 21 20 23 22 32 24 29 26 15 34 13 36 9 39 11 41
REMARK Flexibility Score: inf
ROOT
ATOM      1  O   UNL     1     -11.865  11.084   5.423  1.00  0.00    -0.454 OA
ENDROOT
BRANCH   1   2
ATOM      2  C   UNL     1     -10.783  11.262   6.294  1.00  0.00     0.214 A 
ATOM      3  C   UNL     1     -10.955  11.704   7.623  1.00  0.00     0.180 A 
ATOM      4  O   UNL     1      -9.889  11.946   8.381  1.00  0.00    -0.452 OA
ATOM      5  C   UNL     1      -9.488  11.003   5.831  1.00  0.00     0.239 A 
ATOM      6  C   UNL     1      -8.642  11.749   7.969  1.00  0.00     0.146 A 
ATOM      7  O   UNL     1      -9.331  10.568   4.658  1.00  0.00    -0.285 OA
ATOM      8  C   UNL     1      -8.383  11.251   6.670  1.00  0.00     0.111 A 
ATOM      9  C   UNL     1      -7.585  12.032   8.839  1.00  0.00     0.094 A 
ATOM     10  C   UNL     1      -7.043  11.037   6.269  1.00  0.00     0.134 A 
ATOM     11  C   UNL     1      -6.265  11.821   8.437  1.00  0.00     0.123 A 
ATOM     12  C   UNL     1      -5.996  11.324   7.158  1.00  0.00     0.093 A 
BRANCH   3  13
ATOM     13  C   UNL     1     -12.292  11.893   8.221  1.00  0.00     0.025 A 
ATOM     14  C   UNL     1     -12.543  12.952   9.110  1.00  0.00     0.016 A 
ATOM     15  C   UNL     1     -13.815  13.125   9.660  1.00  0.00     0.051 A 
ATOM     16  C   UNL     1     -14.858  12.252   9.319  1.00  0.00     0.157 A 
ATOM     17  C   UNL     1     -13.344  11.037   7.861  1.00  0.00     0.062 A 
ATOM     18  C   UNL     1     -14.620  11.206   8.410  1.00  0.00     0.158 A 
BRANCH  16  19
ATOM     19  O   UNL     1     -16.124  12.423   9.873  1.00  0.00    -0.504 OA
ATOM     20  H   UNL     1     -16.262  12.480  10.875  1.00  0.00     0.293 HD
ENDBRANCH  16  19
BRANCH  18  21
ATOM     21  O   UNL     1     -15.638  10.326   8.042  1.00  0.00    -0.504 OA
ATOM     22  H   UNL     1     -16.033  10.321   7.109  1.00  0.00     0.293 HD
ENDBRANCH  18  21
ENDBRANCH   3  13
BRANCH  10  23
ATOM     23  O   UNL     1      -6.745  10.545   4.997  1.00  0.00    -0.507 OA
ATOM     24  H   UNL     1      -7.460  10.154   4.396  1.00  0.00     0.293 HD
ENDBRANCH  10  23
BRANCH  11  25
ATOM     25  O   UNL     1      -5.226  12.107   9.320  1.00  0.00    -0.508 OA
ATOM     26  H   UNL     1      -4.749  11.375   9.834  1.00  0.00     0.293 HD
ENDBRANCH  11  25
ENDBRANCH   1   2
BRANCH   1  27
ATOM     27  C   UNL     1     -12.554  12.175   4.799  1.00  0.00     0.339 C 
ATOM     28  C   UNL     1     -12.049  12.397   3.360  1.00  0.00     0.214 C 
ATOM     29  O   UNL     1     -13.957  11.967   4.823  1.00  0.00    -0.332 OA
ATOM     30  C   UNL     1     -12.458  11.223   2.451  1.00  0.00     0.180 C 
ATOM     31  C   UNL     1     -14.327  10.803   4.101  1.00  0.00     0.179 C 
ATOM     32  C   UNL     1     -13.966  10.951   2.601  1.00  0.00     0.177 C 
BRANCH  28  33
ATOM     33  O   UNL     1     -10.654  12.555   3.366  1.00  0.00    -0.384 OA
ATOM     34  H   UNL     1     -10.456  13.361   2.822  1.00  0.00     0.211 HD
ENDBRANCH  28  33
BRANCH  30  35
ATOM     35  O   UNL     1     -11.712  10.079   2.786  1.00  0.00    -0.387 OA
ATOM     36  H   UNL     1     -11.314   9.734   1.945  1.00  0.00     0.211 HD
ENDBRANCH  30  35
BRANCH  31  37
ATOM     37  C   UNL     1     -15.831  10.572   4.302  1.00  0.00     0.191 C 
BRANCH  37  38
ATOM     38  O   UNL     1     -16.049   9.567   5.254  1.00  0.00    -0.394 OA
ATOM     39  H   UNL     1     -17.030   9.536   5.401  1.00  0.00     0.210 HD
ENDBRANCH  37  38
ENDBRANCH  31  37
BRANCH  32  40
ATOM     40  O   UNL     1     -14.301   9.784   1.893  1.00  0.00    -0.387 OA
ATOM     41  H   UNL     1     -13.753   9.045   2.268  1.00  0.00     0.211 HD
ENDBRANCH  32  40
ENDBRANCH   1  27
TORSDOF 12
ENDMDL
MODEL 8
REMARK VINA RESULT:    -3.962      1.873      6.180
REMARK INTER + INTRA:          -7.117
REMARK INTER:                  -7.017
REMARK INTRA:                  -0.100
REMARK UNBOUND:                -1.302
REMARK SMILES O=c1c(O[C@@H]2O[C@@H](CO)[C@H](O)[C@H](O)[C@@H]2O)c(-c2ccc(O)c(O)c2)oc2cc(O)cc(O)c12
REMARK SMILES IDX 4 1 3 2 16 3 25 4 2 5 26 6 1 7 33 8 27 9 31 10 28 11 30 12
REMARK SMILES IDX 17 13 18 14 19 15 20 16 24 17 22 18 21 19 23 21 32 23 29 25
REMARK SMILES IDX 5 27 14 28 6 29 12 30 7 31 10 32 15 33 13 35 8 37 9 38 11 40
REMARK H PARENT 21 20 23 22 32 24 29 26 15 34 13 36 9 39 11 41
REMARK Flexibility Score: inf
ROOT
ATOM      1  O   UNL     1     -13.578   9.816   5.268  1.00  0.00    -0.454 OA
ENDROOT
BRANCH   1   2
ATOM      2  C   UNL     1     -12.942   8.580   5.439  1.00  0.00     0.214 A 
ATOM      3  C   UNL     1     -11.571   8.481   5.762  1.00  0.00     0.180 A 
ATOM      4  O   UNL     1     -10.993   7.286   5.823  1.00  0.00    -0.452 OA
ATOM      5  C   UNL     1     -13.683   7.405   5.273  1.00  0.00     0.239 A 
ATOM      6  C   UNL     1     -11.650   6.147   5.636  1.00  0.00     0.146 A 
ATOM      7  O   UNL     1     -14.916   7.487   5.024  1.00  0.00    -0.285 OA
ATOM      8  C   UNL     1     -13.040   6.155   5.365  1.00  0.00     0.111 A 
ATOM      9  C   UNL     1     -10.955   4.937   5.720  1.00  0.00     0.094 A 
ATOM     10  C   UNL     1     -13.714   4.923   5.188  1.00  0.00     0.134 A 
ATOM     11  C   UNL     1     -11.625   3.725   5.542  1.00  0.00     0.123 A 
ATOM     12  C   UNL     1     -12.999   3.719   5.279  1.00  0.00     0.093 A 
BRANCH   3  13
ATOM     13  C   UNL     1     -10.747   9.670   6.061  1.00  0.00     0.025 A 
ATOM     14  C   UNL     1     -11.248  10.716   6.855  1.00  0.00     0.016 A 
ATOM     15  C   UNL     1     -10.454  11.829   7.138  1.00  0.00     0.051 A 
ATOM     16  C   UNL     1      -9.144  11.906   6.646  1.00  0.00     0.157 A 
ATOM     17  C   UNL     1      -9.426   9.738   5.592  1.00  0.00     0.062 A 
ATOM     18  C   UNL     1      -8.626  10.852   5.874  1.00  0.00     0.158 A 
BRANCH  16  19
ATOM     19  O   UNL     1      -8.355  13.020   6.926  1.00  0.00    -0.504 OA
ATOM     20  H   UNL     1      -8.350  13.450   7.843  1.00  0.00     0.293 HD
ENDBRANCH  16  19
BRANCH  18  21
ATOM     21  O   UNL     1      -7.324  10.893   5.377  1.00  0.00    -0.504 OA
ATOM     22  H   UNL     1      -6.976  10.204   4.722  1.00  0.00     0.293 HD
ENDBRANCH  18  21
ENDBRANCH   3  13
BRANCH  10  23
ATOM     23  O   UNL     1     -15.083   4.886   4.921  1.00  0.00    -0.507 OA
ATOM     24  H   UNL     1     -15.744   5.441   5.452  1.00  0.00     0.293 HD
ENDBRANCH  10  23
BRANCH  11  25
ATOM     25  O   UNL     1     -10.914   2.530   5.632  1.00  0.00    -0.508 OA
ATOM     26  H   UNL     1     -11.251   1.679   5.198  1.00  0.00     0.293 HD
ENDBRANCH  11  25
ENDBRANCH   1   2
BRANCH   1  27
ATOM     27  C   UNL     1     -14.768   9.982   4.487  1.00  0.00     0.339 C 
ATOM     28  C   UNL     1     -15.410  11.359   4.740  1.00  0.00     0.214 C 
ATOM     29  O   UNL     1     -14.498   9.790   3.107  1.00  0.00    -0.332 OA
ATOM     30  C   UNL     1     -14.524  12.486   4.180  1.00  0.00     0.180 C 
ATOM     31  C   UNL     1     -13.569  10.744   2.617  1.00  0.00     0.179 C 
ATOM     32  C   UNL     1     -14.152  12.176   2.719  1.00  0.00     0.177 C 
BRANCH  28  33
ATOM     33  O   UNL     1     -15.625  11.535   6.117  1.00  0.00    -0.384 OA
ATOM     34  H   UNL     1     -16.599  11.685   6.237  1.00  0.00     0.211 HD
ENDBRANCH  28  33
BRANCH  30  35
ATOM     35  O   UNL     1     -13.367  12.619   4.969  1.00  0.00    -0.387 OA
ATOM     36  H   UNL     1     -13.485  12.030   5.760  1.00  0.00     0.211 HD
ENDBRANCH  30  35
BRANCH  31  37
ATOM     37  C   UNL     1     -13.222  10.374   1.169  1.00  0.00     0.191 C 
BRANCH  37  38
ATOM     38  O   UNL     1     -11.952  10.859   0.830  1.00  0.00    -0.394 OA
ATOM     39  H   UNL     1     -12.021  11.848   0.848  1.00  0.00     0.210 HD
ENDBRANCH  37  38
ENDBRANCH  31  37
BRANCH  32  40
ATOM     40  O   UNL     1     -13.217  13.124   2.266  1.00  0.00    -0.387 OA
ATOM     41  H   UNL     1     -12.917  13.642   3.057  1.00  0.00     0.211 HD
ENDBRANCH  32  40
ENDBRANCH   1  27
TORSDOF 12
ENDMDL
