MODEL 1
REMARK VINA RESULT:    -3.691      0.000      0.000
REMARK INTER + INTRA:          -5.797
REMARK INTER:                  -5.417
REMARK INTRA:                  -0.380
REMARK UNBOUND:                -0.380
REMARK SMILES O=C([O-])CCCCCCCC(=O)[O-]
REMARK SMILES IDX 7 1 6 2 5 3 4 4 2 5 1 6 3 7 8 8 9 9 10 10 11 11 12 12 13 13
REMARK H PARENT
REMARK Flexibility Score: inf
ROOT
ATOM      1  C   UNL     1     -17.039  34.561 -20.812  1.00  0.00     0.000 C 
ENDROOT
BRANCH   1   2
ATOM      2  C   UNL     1     -16.928  33.740 -19.517  1.00  0.00     0.000 C 
BRANCH   2   3
ATOM      3  C   UNL     1     -15.483  33.306 -19.215  1.00  0.00     0.006 C 
BRANCH   3   4
ATOM      4  C   UNL     1     -14.541  34.507 -19.050  1.00  0.00     0.053 C 
BRANCH   4   5
ATOM      5  C   UNL     1     -14.856  35.298 -17.818  1.00  0.00     0.041 C 
ATOM      6  O   UNL     1     -15.807  36.124 -17.821  1.00  0.00    -0.550 OA
ATOM      7  O   UNL     1     -14.119  35.101 -16.656  1.00  0.00    -0.550 OA
ENDBRANCH   4   5
ENDBRANCH   3   4
ENDBRANCH   2   3
ENDBRANCH   1   2
BRANCH   1   8
ATOM      8  C   UNL     1     -18.058  35.708 -20.698  1.00  0.00     0.000 C 
BRANCH   8   9
ATOM      9  C   UNL     1     -19.479  35.295 -21.125  1.00  0.00     0.006 C 
BRANCH   9  10
ATOM     10  C   UNL     1     -20.571  35.674 -20.109  1.00  0.00     0.053 C 
BRANCH  10  11
ATOM     11  C   UNL     1     -20.526  34.828 -18.872  1.00  0.00     0.041 C 
ATOM     12  O   UNL     1     -20.387  33.580 -18.965  1.00  0.00    -0.550 OA
ATOM     13  O   UNL     1     -20.672  35.411 -17.620  1.00  0.00    -0.550 OA
ENDBRANCH  10  11
ENDBRANCH   9  10
ENDBRANCH   8   9
ENDBRANCH   1   8
TORSDOF 8
ENDMDL
MODEL 2
REMARK VINA RESULT:    -3.197      1.846      2.665
REMARK INTER + INTRA:          -5.073
REMARK INTER:                  -4.560
REMARK INTRA:                  -0.513
REMARK UNBOUND:                -0.380
REMARK SMILES O=C([O-])CCCCCCCC(=O)[O-]
REMARK SMILES IDX 7 1 6 2 5 3 4 4 2 5 1 6 3 7 8 8 9 9 10 10 11 11 12 12 13 13
REMARK H PARENT
REMARK Flexibility Score: inf
ROOT
ATOM      1  C   UNL     1     -17.486  36.103 -18.635  1.00  0.00     0.000 C 
ENDROOT
BRANCH   1   2
ATOM      2  C   UNL     1     -17.613  36.034 -20.167  1.00  0.00     0.000 C 
BRANCH   2   3
ATOM      3  C   UNL     1     -17.348  34.622 -20.718  1.00  0.00     0.006 C 
BRANCH   3   4
ATOM      4  C   UNL     1     -15.848  34.329 -20.860  1.00  0.00     0.053 C 
BRANCH   4   5
ATOM      5  C   UNL     1     -15.266  33.768 -19.600  1.00  0.00     0.041 C 
ATOM      6  O   UNL     1     -15.514  32.580 -19.261  1.00  0.00    -0.550 OA
ATOM      7  O   UNL     1     -14.424  34.546 -18.815  1.00  0.00    -0.550 OA
ENDBRANCH   4   5
ENDBRANCH   3   4
ENDBRANCH   2   3
ENDBRANCH   1   2
BRANCH   1   8
ATOM      8  C   UNL     1     -18.540  35.244 -17.916  1.00  0.00     0.000 C 
BRANCH   8   9
ATOM      9  C   UNL     1     -19.825  36.024 -17.583  1.00  0.00     0.006 C 
BRANCH   9  10
ATOM     10  C   UNL     1     -21.119  35.305 -18.004  1.00  0.00     0.053 C 
BRANCH  10  11
ATOM     11  C   UNL     1     -21.028  34.714 -19.378  1.00  0.00     0.041 C 
ATOM     12  O   UNL     1     -21.069  35.461 -20.392  1.00  0.00    -0.550 OA
ATOM     13  O   UNL     1     -20.935  33.338 -19.544  1.00  0.00    -0.550 OA
ENDBRANCH  10  11
ENDBRANCH   9  10
ENDBRANCH   8   9
ENDBRANCH   1   8
TORSDOF 8
ENDMDL
MODEL 3
REMARK VINA RESULT:    -3.176      1.463      2.261
REMARK INTER + INTRA:          -5.041
REMARK INTER:                  -4.550
REMARK INTRA:                  -0.491
REMARK UNBOUND:                -0.380
REMARK SMILES O=C([O-])CCCCCCCC(=O)[O-]
REMARK SMILES IDX 7 1 6 2 5 3 4 4 2 5 1 6 3 7 8 8 9 9 10 10 11 11 12 12 13 13
REMARK H PARENT
REMARK Flexibility Score: inf
ROOT
ATOM      1  C   UNL     1     -19.195  35.236 -20.645  1.00  0.00     0.000 C 
ENDROOT
BRANCH   1   2
ATOM      2  C   UNL     1     -17.804  35.741 -20.224  1.00  0.00     0.000 C 
BRANCH   2   3
ATOM      3  C   UNL     1     -16.779  34.601 -20.087  1.00  0.00     0.006 C 
BRANCH   3   4
ATOM      4  C   UNL     1     -16.342  34.388 -18.631  1.00  0.00     0.053 C 
BRANCH   4   5
ATOM      5  C   UNL     1     -14.969  34.927 -18.375  1.00  0.00     0.041 C 
ATOM      6  O   UNL     1     -13.962  34.364 -18.882  1.00  0.00    -0.550 OA
ATOM      7  O   UNL     1     -14.802  36.071 -17.604  1.00  0.00    -0.550 OA
ENDBRANCH   4   5
ENDBRANCH   3   4
ENDBRANCH   2   3
ENDBRANCH   1   2
BRANCH   1   8
ATOM      8  C   UNL     1     -19.759  34.182 -19.677  1.00  0.00     0.000 C 
BRANCH   8   9
ATOM      9  C   UNL     1     -21.039  34.649 -18.960  1.00  0.00     0.006 C 
BRANCH   9  10
ATOM     10  C   UNL     1     -20.944  36.068 -18.372  1.00  0.00     0.053 C 
BRANCH  10  11
ATOM     11  C   UNL     1     -20.263  36.094 -17.037  1.00  0.00     0.041 C 
ATOM     12  O   UNL     1     -19.005  36.125 -16.970  1.00  0.00    -0.550 OA
ATOM     13  O   UNL     1     -21.011  36.047 -15.868  1.00  0.00    -0.550 OA
ENDBRANCH  10  11
ENDBRANCH   9  10
ENDBRANCH   8   9
ENDBRANCH   1   8
TORSDOF 8
ENDMDL
MODEL 4
REMARK VINA RESULT:    -3.152      0.783      5.436
REMARK INTER + INTRA:          -5.006
REMARK INTER:                  -5.035
REMARK INTRA:                   0.029
REMARK UNBOUND:                -0.380
REMARK SMILES O=C([O-])CCCCCCCC(=O)[O-]
REMARK SMILES IDX 7 1 6 2 5 3 4 4 2 5 1 6 3 7 8 8 9 9 10 10 11 11 12 12 13 13
REMARK H PARENT
REMARK Flexibility Score: inf
ROOT
ATOM      1  C   UNL     1     -17.687  34.300 -19.554  1.00  0.00     0.000 C 
ENDROOT
BRANCH   1   2
ATOM      2  C   UNL     1     -18.410  34.435 -20.904  1.00  0.00     0.000 C 
BRANCH   2   3
ATOM      3  C   UNL     1     -19.252  35.720 -20.998  1.00  0.00     0.006 C 
BRANCH   3   4
ATOM      4  C   UNL     1     -20.738  35.459 -20.712  1.00  0.00     0.053 C 
BRANCH   4   5
ATOM      5  C   UNL     1     -20.949  34.863 -19.354  1.00  0.00     0.041 C 
ATOM      6  O   UNL     1     -21.053  35.609 -18.344  1.00  0.00    -0.550 OA
ATOM      7  O   UNL     1     -21.066  33.486 -19.209  1.00  0.00    -0.550 OA
ENDBRANCH   4   5
ENDBRANCH   3   4
ENDBRANCH   2   3
ENDBRANCH   1   2
BRANCH   1   8
ATOM      8  C   UNL     1     -16.408  33.450 -19.652  1.00  0.00     0.000 C 
BRANCH   8   9
ATOM      9  C   UNL     1     -15.132  34.298 -19.799  1.00  0.00     0.006 C 
BRANCH   9  10
ATOM     10  C   UNL     1     -14.245  34.315 -18.541  1.00  0.00     0.053 C 
BRANCH  10  11
ATOM     11  C   UNL     1     -14.688  35.336 -17.538  1.00  0.00     0.041 C 
ATOM     12  O   UNL     1     -15.631  36.125 -17.813  1.00  0.00    -0.550 OA
ATOM     13  O   UNL     1     -14.039  35.443 -16.315  1.00  0.00    -0.550 OA
ENDBRANCH  10  11
ENDBRANCH   9  10
ENDBRANCH   8   9
ENDBRANCH   1   8
TORSDOF 8
ENDMDL
MODEL 5
REMARK VINA RESULT:    -2.783      1.052      5.287
REMARK INTER + INTRA:          -4.465
REMARK INTER:                  -4.097
REMARK INTRA:                  -0.368
REMARK UNBOUND:                -0.380
REMARK SMILES O=C([O-])CCCCCCCC(=O)[O-]
REMARK SMILES IDX 7 1 6 2 5 3 4 4 2 5 1 6 3 7 8 8 9 9 10 10 11 11 12 12 13 13
REMARK H PARENT
REMARK Flexibility Score: inf
ROOT
ATOM      1  C   UNL     1     -17.940  35.956 -20.797  1.00  0.00     0.000 C 
ENDROOT
BRANCH   1   2
ATOM      2  C   UNL     1     -18.990  34.847 -20.983  1.00  0.00     0.000 C 
BRANCH   2   3
ATOM      3  C   UNL     1     -20.419  35.403 -21.113  1.00  0.00     0.006 C 
BRANCH   3   4
ATOM      4  C   UNL     1     -20.877  36.125 -19.838  1.00  0.00     0.053 C 
BRANCH   4   5
ATOM      5  C   UNL     1     -20.750  35.254 -18.626  1.00  0.00     0.041 C 
ATOM      6  O   UNL     1     -21.125  34.052 -18.668  1.00  0.00    -0.550 OA
ATOM      7  O   UNL     1     -20.187  35.760 -17.461  1.00  0.00    -0.550 OA
ENDBRANCH   4   5
ENDBRANCH   3   4
ENDBRANCH   2   3
ENDBRANCH   1   2
BRANCH   1   8
ATOM      8  C   UNL     1     -17.188  35.839 -19.460  1.00  0.00     0.000 C 
BRANCH   8   9
ATOM      9  C   UNL     1     -17.035  34.383 -18.981  1.00  0.00     0.006 C 
BRANCH   9  10
ATOM     10  C   UNL     1     -15.621  33.808 -19.172  1.00  0.00     0.053 C 
BRANCH  10  11
ATOM     11  C   UNL     1     -14.573  34.610 -18.462  1.00  0.00     0.041 C 
ATOM     12  O   UNL     1     -14.854  35.212 -17.391  1.00  0.00    -0.550 OA
ATOM     13  O   UNL     1     -13.296  34.725 -18.998  1.00  0.00    -0.550 OA
ENDBRANCH  10  11
ENDBRANCH   9  10
ENDBRANCH   8   9
ENDBRANCH   1   8
TORSDOF 8
ENDMDL
MODEL 6
REMARK VINA RESULT:    -2.542      1.783      2.318
REMARK INTER + INTRA:          -4.111
REMARK INTER:                  -3.883
REMARK INTRA:                  -0.227
REMARK UNBOUND:                -0.380
REMARK SMILES O=C([O-])CCCCCCCC(=O)[O-]
REMARK SMILES IDX 7 1 6 2 5 3 4 4 2 5 1 6 3 7 8 8 9 9 10 10 11 11 12 12 13 13
REMARK H PARENT
REMARK Flexibility Score: inf
ROOT
ATOM      1  C   UNL     1     -17.481  36.125 -19.893  1.00  0.00     0.000 C 
ENDROOT
BRANCH   1   2
ATOM      2  C   UNL     1     -17.491  35.162 -18.694  1.00  0.00     0.000 C 
BRANCH   2   3
ATOM      3  C   UNL     1     -16.166  35.178 -17.912  1.00  0.00     0.006 C 
BRANCH   3   4
ATOM      4  C   UNL     1     -14.969  34.800 -18.795  1.00  0.00     0.053 C 
BRANCH   4   5
ATOM      5  C   UNL     1     -15.274  33.631 -19.680  1.00  0.00     0.041 C 
ATOM      6  O   UNL     1     -15.423  32.483 -19.184  1.00  0.00    -0.550 OA
ATOM      7  O   UNL     1     -15.428  33.815 -21.048  1.00  0.00    -0.550 OA
ENDBRANCH   4   5
ENDBRANCH   3   4
ENDBRANCH   2   3
ENDBRANCH   1   2
BRANCH   1   8
ATOM      8  C   UNL     1     -18.309  35.600 -21.079  1.00  0.00     0.000 C 
BRANCH   8   9
ATOM      9  C   UNL     1     -19.757  36.124 -21.079  1.00  0.00     0.006 C 
BRANCH   9  10
ATOM     10  C   UNL     1     -20.813  35.042 -20.794  1.00  0.00     0.053 C 
BRANCH  10  11
ATOM     11  C   UNL     1     -20.961  34.754 -19.331  1.00  0.00     0.041 C 
ATOM     12  O   UNL     1     -21.124  35.699 -18.513  1.00  0.00    -0.550 OA
ATOM     13  O   UNL     1     -20.884  33.449 -18.863  1.00  0.00    -0.550 OA
ENDBRANCH  10  11
ENDBRANCH   9  10
ENDBRANCH   8   9
ENDBRANCH   1   8
TORSDOF 8
ENDMDL
