MODEL 1
REMARK VINA RESULT:    -6.195      0.000      0.000
REMARK INTER + INTRA:          -6.376
REMARK INTER:                  -6.376
REMARK INTRA:                   0.000
REMARK UNBOUND:                 0.000
REMARK SMILES C=C1[C@@H](O)C[C@@]23C[C@@H]1C(C)(C)[C@H]2CC[C@H]3C
REMARK SMILES IDX 16 1 15 2 14 3 13 4 12 5 6 6 7 7 8 8 9 9 10 10 11 11 2 12
REMARK SMILES IDX 1 13 3 14 5 15 4 16
REMARK H PARENT 4 17
REMARK Flexibility Score: inf
ROOT
ATOM      1  C   UNL     1     112.754 116.903 131.125  1.00  0.00     0.008 C 
ATOM      2  C   UNL     1     113.263 116.306 129.806  1.00  0.00    -0.008 C 
ATOM      3  C   UNL     1     114.818 116.250 129.714  1.00  0.00     0.004 C 
ATOM      4  C   UNL     1     115.184 116.401 128.213  1.00  0.00     0.005 C 
ATOM      5  C   UNL     1     113.822 116.334 127.546  1.00  0.00     0.002 C 
ATOM      6  C   UNL     1     112.866 117.037 128.503  1.00  0.00    -0.020 C 
ATOM      7  C   UNL     1     111.556 116.749 127.787  1.00  0.00     0.016 C 
ATOM      8  C   UNL     1     111.930 117.228 126.356  1.00  0.00     0.023 C 
ATOM      9  C   UNL     1     113.424 116.765 126.121  1.00  0.00    -0.025 C 
ATOM     10  C   UNL     1     113.439 115.557 125.154  1.00  0.00     0.012 C 
ATOM     11  C   UNL     1     114.389 117.833 125.544  1.00  0.00     0.012 C 
ATOM     12  C   UNL     1     111.812 118.734 126.361  1.00  0.00    -0.045 C 
ATOM     13  C   UNL     1     111.330 119.388 125.294  1.00  0.00     0.011 C 
ATOM     14  C   UNL     1     112.291 119.501 127.577  1.00  0.00     0.140 C 
ATOM     15  C   UNL     1     113.066 118.612 128.608  1.00  0.00     0.044 C 
ENDROOT
BRANCH  14  16
ATOM     16  O   UNL     1     111.174 120.090 128.193  1.00  0.00    -0.389 OA
ATOM     17  H   UNL     1     111.295 121.073 128.130  1.00  0.00     0.211 HD
ENDBRANCH  14  16
TORSDOF 1
ENDMDL
MODEL 2
REMARK VINA RESULT:    -5.827      1.830      4.184
REMARK INTER + INTRA:          -5.998
REMARK INTER:                  -5.998
REMARK INTRA:                   0.000
REMARK UNBOUND:                 0.000
REMARK SMILES C=C1[C@@H](O)C[C@@]23C[C@@H]1C(C)(C)[C@H]2CC[C@H]3C
REMARK SMILES IDX 16 1 15 2 14 3 13 4 12 5 6 6 7 7 8 8 9 9 10 10 11 11 2 12
REMARK SMILES IDX 1 13 3 14 5 15 4 16
REMARK H PARENT 4 17
REMARK Flexibility Score: inf
ROOT
ATOM      1  C   UNL     1     111.983 116.361 124.050  1.00  0.00     0.008 C 
ATOM      2  C   UNL     1     112.718 117.553 124.679  1.00  0.00    -0.008 C 
ATOM      3  C   UNL     1     114.242 117.580 124.351  1.00  0.00     0.004 C 
ATOM      4  C   UNL     1     114.949 118.247 125.561  1.00  0.00     0.005 C 
ATOM      5  C   UNL     1     113.772 118.724 126.392  1.00  0.00     0.002 C 
ATOM      6  C   UNL     1     112.695 117.659 126.220  1.00  0.00    -0.020 C 
ATOM      7  C   UNL     1     111.559 118.347 126.961  1.00  0.00     0.016 C 
ATOM      8  C   UNL     1     112.289 118.701 128.287  1.00  0.00     0.023 C 
ATOM      9  C   UNL     1     113.748 119.149 127.873  1.00  0.00    -0.025 C 
ATOM     10  C   UNL     1     113.867 120.686 128.009  1.00  0.00     0.012 C 
ATOM     11  C   UNL     1     114.913 118.521 128.680  1.00  0.00     0.012 C 
ATOM     12  C   UNL     1     112.313 117.437 129.116  1.00  0.00    -0.045 C 
ATOM     13  C   UNL     1     112.147 117.486 130.446  1.00  0.00     0.011 C 
ATOM     14  C   UNL     1     112.575 116.115 128.425  1.00  0.00     0.140 C 
ATOM     15  C   UNL     1     113.012 116.270 126.928  1.00  0.00     0.044 C 
ENDROOT
BRANCH  14  16
ATOM     16  O   UNL     1     111.407 115.338 128.508  1.00  0.00    -0.389 OA
ATOM     17  H   UNL     1     111.214 115.008 127.591  1.00  0.00     0.211 HD
ENDBRANCH  14  16
TORSDOF 1
ENDMDL
MODEL 3
REMARK VINA RESULT:    -5.722      1.587      4.431
REMARK INTER + INTRA:          -5.889
REMARK INTER:                  -5.889
REMARK INTRA:                   0.000
REMARK UNBOUND:                 0.000
REMARK SMILES C=C1[C@@H](O)C[C@@]23C[C@@H]1C(C)(C)[C@H]2CC[C@H]3C
REMARK SMILES IDX 16 1 15 2 14 3 13 4 12 5 6 6 7 7 8 8 9 9 10 10 11 11 2 12
REMARK SMILES IDX 1 13 3 14 5 15 4 16
REMARK H PARENT 4 17
REMARK Flexibility Score: inf
ROOT
ATOM      1  C   UNL     1     110.882 120.834 123.711  1.00  0.00     0.008 C 
ATOM      2  C   UNL     1     111.836 119.631 123.691  1.00  0.00    -0.008 C 
ATOM      3  C   UNL     1     111.234 118.379 122.983  1.00  0.00     0.004 C 
ATOM      4  C   UNL     1     111.856 117.134 123.671  1.00  0.00     0.005 C 
ATOM      5  C   UNL     1     112.901 117.760 124.575  1.00  0.00     0.002 C 
ATOM      6  C   UNL     1     112.289 119.071 125.058  1.00  0.00    -0.020 C 
ATOM      7  C   UNL     1     113.490 119.636 125.799  1.00  0.00     0.016 C 
ATOM      8  C   UNL     1     113.846 118.413 126.690  1.00  0.00     0.023 C 
ATOM      9  C   UNL     1     113.630 117.137 125.781  1.00  0.00    -0.025 C 
ATOM     10  C   UNL     1     115.007 116.570 125.362  1.00  0.00     0.012 C 
ATOM     11  C   UNL     1     112.823 115.974 126.414  1.00  0.00     0.012 C 
ATOM     12  C   UNL     1     112.883 118.433 127.854  1.00  0.00    -0.045 C 
ATOM     13  C   UNL     1     113.288 118.091 129.086  1.00  0.00     0.011 C 
ATOM     14  C   UNL     1     111.436 118.800 127.599  1.00  0.00     0.140 C 
ATOM     15  C   UNL     1     111.079 118.905 126.077  1.00  0.00     0.044 C 
ENDROOT
BRANCH  14  16
ATOM     16  O   UNL     1     111.174 120.023 128.240  1.00  0.00    -0.389 OA
ATOM     17  H   UNL     1     110.399 120.433 127.774  1.00  0.00     0.211 HD
ENDBRANCH  14  16
TORSDOF 1
ENDMDL
MODEL 4
REMARK VINA RESULT:    -5.711     14.536     16.476
REMARK INTER + INTRA:          -5.878
REMARK INTER:                  -5.878
REMARK INTRA:                   0.000
REMARK UNBOUND:                 0.000
REMARK SMILES C=C1[C@@H](O)C[C@@]23C[C@@H]1C(C)(C)[C@H]2CC[C@H]3C
REMARK SMILES IDX 16 1 15 2 14 3 13 4 12 5 6 6 7 7 8 8 9 9 10 10 11 11 2 12
REMARK SMILES IDX 1 13 3 14 5 15 4 16
REMARK H PARENT 4 17
REMARK Flexibility Score: inf
ROOT
ATOM      1  C   UNL     1     126.209 120.501 115.748  1.00  0.00     0.008 C 
ATOM      2  C   UNL     1     126.323 119.143 116.453  1.00  0.00    -0.008 C 
ATOM      3  C   UNL     1     127.434 118.228 115.853  1.00  0.00     0.004 C 
ATOM      4  C   UNL     1     126.962 116.763 116.050  1.00  0.00     0.005 C 
ATOM      5  C   UNL     1     125.727 116.940 116.913  1.00  0.00     0.002 C 
ATOM      6  C   UNL     1     125.076 118.231 116.430  1.00  0.00    -0.020 C 
ATOM      7  C   UNL     1     123.975 118.349 117.472  1.00  0.00     0.016 C 
ATOM      8  C   UNL     1     123.363 116.923 117.368  1.00  0.00     0.023 C 
ATOM      9  C   UNL     1     124.587 115.939 117.182  1.00  0.00    -0.025 C 
ATOM     10  C   UNL     1     124.828 115.170 118.503  1.00  0.00     0.012 C 
ATOM     11  C   UNL     1     124.455 114.887 116.051  1.00  0.00     0.012 C 
ATOM     12  C   UNL     1     122.467 116.928 116.150  1.00  0.00    -0.045 C 
ATOM     13  C   UNL     1     121.303 116.263 116.154  1.00  0.00     0.011 C 
ATOM     14  C   UNL     1     122.929 117.658 114.906  1.00  0.00     0.140 C 
ATOM     15  C   UNL     1     124.416 118.144 114.984  1.00  0.00     0.044 C 
ENDROOT
BRANCH  14  16
ATOM     16  O   UNL     1     122.074 118.754 114.699  1.00  0.00    -0.389 OA
ATOM     17  H   UNL     1     121.610 118.926 115.560  1.00  0.00     0.211 HD
ENDBRANCH  14  16
TORSDOF 1
ENDMDL
MODEL 5
REMARK VINA RESULT:    -5.624      1.893      4.317
REMARK INTER + INTRA:          -5.789
REMARK INTER:                  -5.789
REMARK INTRA:                   0.000
REMARK UNBOUND:                 0.000
REMARK SMILES C=C1[C@@H](O)C[C@@]23C[C@@H]1C(C)(C)[C@H]2CC[C@H]3C
REMARK SMILES IDX 16 1 15 2 14 3 13 4 12 5 6 6 7 7 8 8 9 9 10 10 11 11 2 12
REMARK SMILES IDX 1 13 3 14 5 15 4 16
REMARK H PARENT 4 17
REMARK Flexibility Score: inf
ROOT
ATOM      1  C   UNL     1     113.190 114.708 124.757  1.00  0.00     0.008 C 
ATOM      2  C   UNL     1     112.489 116.030 125.099  1.00  0.00    -0.008 C 
ATOM      3  C   UNL     1     112.820 117.180 124.099  1.00  0.00     0.004 C 
ATOM      4  C   UNL     1     112.751 118.506 124.902  1.00  0.00     0.005 C 
ATOM      5  C   UNL     1     112.200 118.040 126.237  1.00  0.00     0.002 C 
ATOM      6  C   UNL     1     112.811 116.663 126.471  1.00  0.00    -0.020 C 
ATOM      7  C   UNL     1     112.054 116.276 127.732  1.00  0.00     0.016 C 
ATOM      8  C   UNL     1     112.311 117.547 128.591  1.00  0.00     0.023 C 
ATOM      9  C   UNL     1     112.213 118.771 127.594  1.00  0.00    -0.025 C 
ATOM     10  C   UNL     1     110.879 119.517 127.832  1.00  0.00     0.012 C 
ATOM     11  C   UNL     1     113.353 119.818 127.681  1.00  0.00     0.012 C 
ATOM     12  C   UNL     1     113.704 117.407 129.160  1.00  0.00    -0.045 C 
ATOM     13  C   UNL     1     113.978 117.815 130.408  1.00  0.00     0.011 C 
ATOM     14  C   UNL     1     114.800 116.841 128.281  1.00  0.00     0.140 C 
ATOM     15  C   UNL     1     114.372 116.671 126.783  1.00  0.00     0.044 C 
ENDROOT
BRANCH  14  16
ATOM     16  O   UNL     1     115.192 115.601 128.813  1.00  0.00    -0.389 OA
ATOM     17  H   UNL     1     114.393 115.210 129.254  1.00  0.00     0.211 HD
ENDBRANCH  14  16
TORSDOF 1
ENDMDL
MODEL 6
REMARK VINA RESULT:    -5.565      2.156      4.791
REMARK INTER + INTRA:          -5.728
REMARK INTER:                  -5.728
REMARK INTRA:                   0.000
REMARK UNBOUND:                 0.000
REMARK SMILES C=C1[C@@H](O)C[C@@]23C[C@@H]1C(C)(C)[C@H]2CC[C@H]3C
REMARK SMILES IDX 16 1 15 2 14 3 13 4 12 5 6 6 7 7 8 8 9 9 10 10 11 11 2 12
REMARK SMILES IDX 1 13 3 14 5 15 4 16
REMARK H PARENT 4 17
REMARK Flexibility Score: inf
ROOT
ATOM      1  C   UNL     1     111.677 118.651 122.811  1.00  0.00     0.008 C 
ATOM      2  C   UNL     1     111.305 118.360 124.272  1.00  0.00    -0.008 C 
ATOM      3  C   UNL     1     110.875 119.632 125.064  1.00  0.00     0.004 C 
ATOM      4  C   UNL     1     111.284 119.399 126.543  1.00  0.00     0.005 C 
ATOM      5  C   UNL     1     111.733 117.950 126.523  1.00  0.00     0.002 C 
ATOM      6  C   UNL     1     112.405 117.751 125.169  1.00  0.00    -0.020 C 
ATOM      7  C   UNL     1     112.645 116.251 125.240  1.00  0.00     0.016 C 
ATOM      8  C   UNL     1     113.342 116.163 126.627  1.00  0.00     0.023 C 
ATOM      9  C   UNL     1     112.582 117.189 127.560  1.00  0.00    -0.025 C 
ATOM     10  C   UNL     1     111.681 116.410 128.548  1.00  0.00     0.012 C 
ATOM     11  C   UNL     1     113.472 118.143 128.397  1.00  0.00     0.012 C 
ATOM     12  C   UNL     1     114.781 116.571 126.413  1.00  0.00    -0.045 C 
ATOM     13  C   UNL     1     115.774 115.956 127.071  1.00  0.00     0.011 C 
ATOM     14  C   UNL     1     115.082 117.721 125.474  1.00  0.00     0.140 C 
ATOM     15  C   UNL     1     113.803 118.493 125.004  1.00  0.00     0.044 C 
ENDROOT
BRANCH  14  16
ATOM     16  O   UNL     1     115.772 117.210 124.361  1.00  0.00    -0.389 OA
ATOM     17  H   UNL     1     116.676 116.948 124.678  1.00  0.00     0.211 HD
ENDBRANCH  14  16
TORSDOF 1
ENDMDL
MODEL 7
REMARK VINA RESULT:    -5.554      1.604      4.158
REMARK INTER + INTRA:          -5.716
REMARK INTER:                  -5.716
REMARK INTRA:                   0.000
REMARK UNBOUND:                 0.000
REMARK SMILES C=C1[C@@H](O)C[C@@]23C[C@@H]1C(C)(C)[C@H]2CC[C@H]3C
REMARK SMILES IDX 16 1 15 2 14 3 13 4 12 5 6 6 7 7 8 8 9 9 10 10 11 11 2 12
REMARK SMILES IDX 1 13 3 14 5 15 4 16
REMARK H PARENT 4 17
REMARK Flexibility Score: inf
ROOT
ATOM      1  C   UNL     1     110.875 119.340 125.728  1.00  0.00     0.008 C 
ATOM      2  C   UNL     1     112.391 119.326 125.972  1.00  0.00    -0.008 C 
ATOM      3  C   UNL     1     113.213 118.910 124.714  1.00  0.00     0.004 C 
ATOM      4  C   UNL     1     114.494 118.201 125.231  1.00  0.00     0.005 C 
ATOM      5  C   UNL     1     114.404 118.437 126.728  1.00  0.00     0.002 C 
ATOM      6  C   UNL     1     112.919 118.367 127.062  1.00  0.00    -0.020 C 
ATOM      7  C   UNL     1     112.984 118.774 128.526  1.00  0.00     0.016 C 
ATOM      8  C   UNL     1     114.078 117.787 129.023  1.00  0.00     0.023 C 
ATOM      9  C   UNL     1     115.152 117.712 127.864  1.00  0.00    -0.025 C 
ATOM     10  C   UNL     1     116.414 118.502 128.287  1.00  0.00     0.012 C 
ATOM     11  C   UNL     1     115.612 116.292 127.447  1.00  0.00     0.012 C 
ATOM     12  C   UNL     1     113.395 116.455 129.230  1.00  0.00    -0.045 C 
ATOM     13  C   UNL     1     113.732 115.665 130.260  1.00  0.00     0.011 C 
ATOM     14  C   UNL     1     112.353 116.005 128.228  1.00  0.00     0.140 C 
ATOM     15  C   UNL     1     112.278 116.915 126.955  1.00  0.00     0.044 C 
ENDROOT
BRANCH  14  16
ATOM     16  O   UNL     1     111.105 115.978 128.874  1.00  0.00    -0.389 OA
ATOM     17  H   UNL     1     110.842 116.922 129.032  1.00  0.00     0.211 HD
ENDBRANCH  14  16
TORSDOF 1
ENDMDL
MODEL 8
REMARK VINA RESULT:    -5.512      2.167      3.729
REMARK INTER + INTRA:          -5.673
REMARK INTER:                  -5.673
REMARK INTRA:                   0.000
REMARK UNBOUND:                 0.000
REMARK SMILES C=C1[C@@H](O)C[C@@]23C[C@@H]1C(C)(C)[C@H]2CC[C@H]3C
REMARK SMILES IDX 16 1 15 2 14 3 13 4 12 5 6 6 7 7 8 8 9 9 10 10 11 11 2 12
REMARK SMILES IDX 1 13 3 14 5 15 4 16
REMARK H PARENT 4 17
REMARK Flexibility Score: inf
ROOT
ATOM      1  C   UNL     1     114.693 116.425 128.581  1.00  0.00     0.008 C 
ATOM      2  C   UNL     1     114.224 117.765 127.996  1.00  0.00    -0.008 C 
ATOM      3  C   UNL     1     113.123 118.460 128.853  1.00  0.00     0.004 C 
ATOM      4  C   UNL     1     112.236 119.271 127.870  1.00  0.00     0.005 C 
ATOM      5  C   UNL     1     113.005 119.140 126.569  1.00  0.00     0.002 C 
ATOM      6  C   UNL     1     113.597 117.735 126.585  1.00  0.00    -0.020 C 
ATOM      7  C   UNL     1     114.446 117.819 125.326  1.00  0.00     0.016 C 
ATOM      8  C   UNL     1     113.379 118.349 124.326  1.00  0.00     0.023 C 
ATOM      9  C   UNL     1     112.517 119.403 125.130  1.00  0.00    -0.025 C 
ATOM     10  C   UNL     1     112.896 120.830 124.670  1.00  0.00     0.012 C 
ATOM     11  C   UNL     1     110.977 119.268 125.003  1.00  0.00     0.012 C 
ATOM     12  C   UNL     1     112.548 117.156 123.911  1.00  0.00    -0.045 C 
ATOM     13  C   UNL     1     112.113 117.030 122.650  1.00  0.00     0.011 C 
ATOM     14  C   UNL     1     112.176 116.126 124.957  1.00  0.00     0.140 C 
ATOM     15  C   UNL     1     112.534 116.563 126.418  1.00  0.00     0.044 C 
ENDROOT
BRANCH  14  16
ATOM     16  O   UNL     1     112.830 114.923 124.640  1.00  0.00    -0.389 OA
ATOM     17  H   UNL     1     113.275 114.609 125.471  1.00  0.00     0.211 HD
ENDBRANCH  14  16
TORSDOF 1
ENDMDL
MODEL 9
REMARK VINA RESULT:    -5.448      4.808      7.080
REMARK INTER + INTRA:          -5.607
REMARK INTER:                  -5.607
REMARK INTRA:                   0.000
REMARK UNBOUND:                 0.000
REMARK SMILES C=C1[C@@H](O)C[C@@]23C[C@@H]1C(C)(C)[C@H]2CC[C@H]3C
REMARK SMILES IDX 16 1 15 2 14 3 13 4 12 5 6 6 7 7 8 8 9 9 10 10 11 11 2 12
REMARK SMILES IDX 1 13 3 14 5 15 4 16
REMARK H PARENT 4 17
REMARK Flexibility Score: inf
ROOT
ATOM      1  C   UNL     1     117.901 120.971 122.983  1.00  0.00     0.008 C 
ATOM      2  C   UNL     1     116.911 122.113 123.250  1.00  0.00    -0.008 C 
ATOM      3  C   UNL     1     117.607 123.469 123.578  1.00  0.00     0.004 C 
ATOM      4  C   UNL     1     116.657 124.240 124.534  1.00  0.00     0.005 C 
ATOM      5  C   UNL     1     115.418 123.365 124.523  1.00  0.00     0.002 C 
ATOM      6  C   UNL     1     115.932 121.933 124.432  1.00  0.00    -0.020 C 
ATOM      7  C   UNL     1     114.603 121.212 124.271  1.00  0.00     0.016 C 
ATOM      8  C   UNL     1     113.825 121.827 125.469  1.00  0.00     0.023 C 
ATOM      9  C   UNL     1     114.238 123.353 125.514  1.00  0.00    -0.025 C 
ATOM     10  C   UNL     1     113.065 124.215 124.987  1.00  0.00     0.012 C 
ATOM     11  C   UNL     1     114.637 123.914 126.904  1.00  0.00     0.012 C 
ATOM     12  C   UNL     1     114.287 121.092 126.706  1.00  0.00    -0.045 C 
ATOM     13  C   UNL     1     113.424 120.790 127.686  1.00  0.00     0.011 C 
ATOM     14  C   UNL     1     115.755 120.742 126.842  1.00  0.00     0.140 C 
ATOM     15  C   UNL     1     116.657 121.400 125.744  1.00  0.00     0.044 C 
ENDROOT
BRANCH  14  16
ATOM     16  O   UNL     1     115.878 119.343 126.792  1.00  0.00    -0.389 OA
ATOM     17  H   UNL     1     115.178 119.014 126.168  1.00  0.00     0.211 HD
ENDBRANCH  14  16
TORSDOF 1
ENDMDL
