MODEL 1
REMARK VINA RESULT:    -4.310      0.000      0.000
REMARK INTER + INTRA:          -5.152
REMARK INTER:                  -5.066
REMARK INTRA:                  -0.086
REMARK UNBOUND:                -0.086
REMARK SMILES O=C([O-])CCC(=O)[O-]
REMARK SMILES IDX 4 1 2 2 1 3 3 4 5 5 6 6 7 7 8 8
REMARK H PARENT
REMARK Flexibility Score: inf
ROOT
ATOM      1  C   UNL     1      18.735  15.853  59.932  1.00  0.00     0.059 C 
ENDROOT
BRANCH   1   2
ATOM      2  C   UNL     1      18.029  16.591  58.837  1.00  0.00     0.042 C 
ATOM      3  O   UNL     1      17.228  17.524  59.113  1.00  0.00    -0.550 OA
ATOM      4  O   UNL     1      18.223  16.221  57.512  1.00  0.00    -0.550 OA
ENDBRANCH   1   2
BRANCH   1   5
ATOM      5  C   UNL     1      18.383  16.419  61.311  1.00  0.00     0.059 C 
BRANCH   5   6
ATOM      6  C   UNL     1      19.459  17.325  61.827  1.00  0.00     0.042 C 
ATOM      7  O   UNL     1      20.649  17.182  61.438  1.00  0.00    -0.550 OA
ATOM      8  O   UNL     1      19.155  18.301  62.768  1.00  0.00    -0.550 OA
ENDBRANCH   5   6
ENDBRANCH   1   5
TORSDOF 3
ENDMDL
MODEL 2
REMARK VINA RESULT:    -4.274      0.103      3.840
REMARK INTER + INTRA:          -5.110
REMARK INTER:                  -5.022
REMARK INTRA:                  -0.088
REMARK UNBOUND:                -0.086
REMARK SMILES O=C([O-])CCC(=O)[O-]
REMARK SMILES IDX 4 1 2 2 1 3 3 4 5 5 6 6 7 7 8 8
REMARK H PARENT
REMARK Flexibility Score: inf
ROOT
ATOM      1  C   UNL     1      18.403  16.388  61.247  1.00  0.00     0.059 C 
ENDROOT
BRANCH   1   2
ATOM      2  C   UNL     1      19.468  17.304  61.768  1.00  0.00     0.042 C 
ATOM      3  O   UNL     1      20.654  17.199  61.357  1.00  0.00    -0.550 OA
ATOM      4  O   UNL     1      19.158  18.249  62.739  1.00  0.00    -0.550 OA
ENDBRANCH   1   2
BRANCH   1   5
ATOM      5  C   UNL     1      18.768  15.826  59.870  1.00  0.00     0.059 C 
BRANCH   5   6
ATOM      6  C   UNL     1      17.982  16.487  58.779  1.00  0.00     0.042 C 
ATOM      7  O   UNL     1      18.106  16.103  57.586  1.00  0.00    -0.550 OA
ATOM      8  O   UNL     1      17.144  17.555  59.075  1.00  0.00    -0.550 OA
ENDBRANCH   5   6
ENDBRANCH   1   5
TORSDOF 3
ENDMDL
MODEL 3
REMARK VINA RESULT:    -4.091      1.402      1.734
REMARK INTER + INTRA:          -4.894
REMARK INTER:                  -4.773
REMARK INTRA:                  -0.121
REMARK UNBOUND:                -0.086
REMARK SMILES O=C([O-])CCC(=O)[O-]
REMARK SMILES IDX 4 1 2 2 1 3 3 4 5 5 6 6 7 7 8 8
REMARK H PARENT
REMARK Flexibility Score: inf
ROOT
ATOM      1  C   UNL     1      17.835  16.913  59.421  1.00  0.00     0.059 C 
ENDROOT
BRANCH   1   2
ATOM      2  C   UNL     1      18.073  15.766  58.488  1.00  0.00     0.042 C 
ATOM      3  O   UNL     1      18.204  15.969  57.251  1.00  0.00    -0.550 OA
ATOM      4  O   UNL     1      18.109  14.467  58.978  1.00  0.00    -0.550 OA
ENDBRANCH   1   2
BRANCH   1   5
ATOM      5  C   UNL     1      19.099  17.271  60.208  1.00  0.00     0.059 C 
BRANCH   5   6
ATOM      6  C   UNL     1      18.952  16.948  61.664  1.00  0.00     0.042 C 
ATOM      7  O   UNL     1      18.767  15.758  62.034  1.00  0.00    -0.550 OA
ATOM      8  O   UNL     1      18.979  17.967  62.608  1.00  0.00    -0.550 OA
ENDBRANCH   5   6
ENDBRANCH   1   5
TORSDOF 3
ENDMDL
MODEL 4
REMARK VINA RESULT:    -4.063     14.731     15.249
REMARK INTER + INTRA:          -4.862
REMARK INTER:                  -4.832
REMARK INTRA:                  -0.030
REMARK UNBOUND:                -0.086
REMARK SMILES O=C([O-])CCC(=O)[O-]
REMARK SMILES IDX 4 1 2 2 1 3 3 4 5 5 6 6 7 7 8 8
REMARK H PARENT
REMARK Flexibility Score: inf
ROOT
ATOM      1  C   UNL     1      10.887  28.438  55.006  1.00  0.00     0.059 C 
ENDROOT
BRANCH   1   2
ATOM      2  C   UNL     1      11.309  28.496  53.570  1.00  0.00     0.042 C 
ATOM      3  O   UNL     1      10.976  29.473  52.848  1.00  0.00    -0.550 OA
ATOM      4  O   UNL     1      12.037  27.449  53.017  1.00  0.00    -0.550 OA
ENDBRANCH   1   2
BRANCH   1   5
ATOM      5  C   UNL     1      11.206  29.744  55.740  1.00  0.00     0.059 C 
BRANCH   5   6
ATOM      6  C   UNL     1      10.915  29.638  57.205  1.00  0.00     0.042 C 
ATOM      7  O   UNL     1       9.746  29.391  57.604  1.00  0.00    -0.550 OA
ATOM      8  O   UNL     1      11.928  29.850  58.133  1.00  0.00    -0.550 OA
ENDBRANCH   5   6
ENDBRANCH   1   5
TORSDOF 3
ENDMDL
MODEL 5
REMARK VINA RESULT:    -4.039     14.720     15.668
REMARK INTER + INTRA:          -4.834
REMARK INTER:                  -4.804
REMARK INTRA:                  -0.030
REMARK UNBOUND:                -0.086
REMARK SMILES O=C([O-])CCC(=O)[O-]
REMARK SMILES IDX 4 1 2 2 1 3 3 4 5 5 6 6 7 7 8 8
REMARK H PARENT
REMARK Flexibility Score: inf
ROOT
ATOM      1  C   UNL     1      11.217  29.654  55.766  1.00  0.00     0.059 C 
ENDROOT
BRANCH   1   2
ATOM      2  C   UNL     1      10.755  29.561  57.188  1.00  0.00     0.042 C 
ATOM      3  O   UNL     1       9.528  29.458  57.452  1.00  0.00    -0.550 OA
ATOM      4  O   UNL     1      11.679  29.631  58.224  1.00  0.00    -0.550 OA
ENDBRANCH   1   2
BRANCH   1   5
ATOM      5  C   UNL     1      10.842  28.401  54.969  1.00  0.00     0.059 C 
BRANCH   5   6
ATOM      6  C   UNL     1      11.313  28.490  53.549  1.00  0.00     0.042 C 
ATOM      7  O   UNL     1      11.026  29.496  52.847  1.00  0.00    -0.550 OA
ATOM      8  O   UNL     1      12.034  27.443  52.989  1.00  0.00    -0.550 OA
ENDBRANCH   5   6
ENDBRANCH   1   5
TORSDOF 3
ENDMDL
MODEL 6
REMARK VINA RESULT:    -3.989      1.878      2.408
REMARK INTER + INTRA:          -4.775
REMARK INTER:                  -4.619
REMARK INTRA:                  -0.156
REMARK UNBOUND:                -0.086
REMARK SMILES O=C([O-])CCC(=O)[O-]
REMARK SMILES IDX 4 1 2 2 1 3 3 4 5 5 6 6 7 7 8 8
REMARK H PARENT
REMARK Flexibility Score: inf
ROOT
ATOM      1  C   UNL     1      16.745  15.465  58.630  1.00  0.00     0.059 C 
ENDROOT
BRANCH   1   2
ATOM      2  C   UNL     1      18.064  15.333  57.933  1.00  0.00     0.042 C 
ATOM      3  O   UNL     1      18.545  16.306  57.294  1.00  0.00    -0.550 OA
ATOM      4  O   UNL     1      18.742  14.120  57.954  1.00  0.00    -0.550 OA
ENDBRANCH   1   2
BRANCH   1   5
ATOM      5  C   UNL     1      16.741  16.642  59.611  1.00  0.00     0.059 C 
BRANCH   5   6
ATOM      6  C   UNL     1      17.824  16.508  60.637  1.00  0.00     0.042 C 
ATOM      7  O   UNL     1      18.688  17.415  60.771  1.00  0.00    -0.550 OA
ATOM      8  O   UNL     1      17.903  15.362  61.419  1.00  0.00    -0.550 OA
ENDBRANCH   5   6
ENDBRANCH   1   5
TORSDOF 3
ENDMDL
MODEL 7
REMARK VINA RESULT:    -3.951      1.923      2.616
REMARK INTER + INTRA:          -4.731
REMARK INTER:                  -4.550
REMARK INTRA:                  -0.180
REMARK UNBOUND:                -0.086
REMARK SMILES O=C([O-])CCC(=O)[O-]
REMARK SMILES IDX 4 1 2 2 1 3 3 4 5 5 6 6 7 7 8 8
REMARK H PARENT
REMARK Flexibility Score: inf
ROOT
ATOM      1  C   UNL     1      16.497  15.498  58.604  1.00  0.00     0.059 C 
ENDROOT
BRANCH   1   2
ATOM      2  C   UNL     1      17.849  15.237  58.015  1.00  0.00     0.042 C 
ATOM      3  O   UNL     1      18.382  14.100  58.126  1.00  0.00    -0.550 OA
ATOM      4  O   UNL     1      18.540  16.261  57.380  1.00  0.00    -0.550 OA
ENDBRANCH   1   2
BRANCH   1   5
ATOM      5  C   UNL     1      16.526  16.674  59.584  1.00  0.00     0.059 C 
BRANCH   5   6
ATOM      6  C   UNL     1      17.506  16.444  60.692  1.00  0.00     0.042 C 
ATOM      7  O   UNL     1      17.338  15.492  61.500  1.00  0.00    -0.550 OA
ATOM      8  O   UNL     1      18.584  17.305  60.858  1.00  0.00    -0.550 OA
ENDBRANCH   5   6
ENDBRANCH   1   5
TORSDOF 3
ENDMDL
MODEL 8
REMARK VINA RESULT:    -3.918      2.419      3.899
REMARK INTER + INTRA:          -4.692
REMARK INTER:                  -4.512
REMARK INTRA:                  -0.180
REMARK UNBOUND:                -0.086
REMARK SMILES O=C([O-])CCC(=O)[O-]
REMARK SMILES IDX 4 1 2 2 1 3 3 4 5 5 6 6 7 7 8 8
REMARK H PARENT
REMARK Flexibility Score: inf
ROOT
ATOM      1  C   UNL     1      18.400  15.647  59.888  1.00  0.00     0.059 C 
ENDROOT
BRANCH   1   2
ATOM      2  C   UNL     1      18.013  16.571  58.775  1.00  0.00     0.042 C 
ATOM      3  O   UNL     1      17.237  17.539  58.994  1.00  0.00    -0.550 OA
ATOM      4  O   UNL     1      18.476  16.338  57.486  1.00  0.00    -0.550 OA
ENDBRANCH   1   2
BRANCH   1   5
ATOM      5  C   UNL     1      17.211  14.807  60.364  1.00  0.00     0.059 C 
BRANCH   5   6
ATOM      6  C   UNL     1      16.691  13.922  59.273  1.00  0.00     0.042 C 
ATOM      7  O   UNL     1      15.500  14.035  58.878  1.00  0.00    -0.550 OA
ATOM      8  O   UNL     1      17.509  12.945  58.719  1.00  0.00    -0.550 OA
ENDBRANCH   5   6
ENDBRANCH   1   5
TORSDOF 3
ENDMDL
MODEL 9
REMARK VINA RESULT:    -3.915      1.990      3.976
REMARK INTER + INTRA:          -4.688
REMARK INTER:                  -4.626
REMARK INTRA:                  -0.062
REMARK UNBOUND:                -0.086
REMARK SMILES O=C([O-])CCC(=O)[O-]
REMARK SMILES IDX 4 1 2 2 1 3 3 4 5 5 6 6 7 7 8 8
REMARK H PARENT
REMARK Flexibility Score: inf
ROOT
ATOM      1  C   UNL     1      17.965  16.372  61.298  1.00  0.00     0.059 C 
ENDROOT
BRANCH   1   2
ATOM      2  C   UNL     1      16.629  16.336  61.975  1.00  0.00     0.042 C 
ATOM      3  O   UNL     1      15.934  15.286  61.952  1.00  0.00    -0.550 OA
ATOM      4  O   UNL     1      16.134  17.476  62.595  1.00  0.00    -0.550 OA
ENDBRANCH   1   2
BRANCH   1   5
ATOM      5  C   UNL     1      17.946  15.607  59.971  1.00  0.00     0.059 C 
BRANCH   5   6
ATOM      6  C   UNL     1      17.840  16.536  58.801  1.00  0.00     0.042 C 
ATOM      7  O   UNL     1      17.338  17.682  58.944  1.00  0.00    -0.550 OA
ATOM      8  O   UNL     1      18.260  16.120  57.543  1.00  0.00    -0.550 OA
ENDBRANCH   5   6
ENDBRANCH   1   5
TORSDOF 3
ENDMDL
