MODEL 1
REMARK VINA RESULT:    -4.320      0.000      0.000
REMARK INTER + INTRA:          -5.945
REMARK INTER:                  -5.835
REMARK INTRA:                  -0.110
REMARK UNBOUND:                -0.110
REMARK SMILES [NH3+]CCCC[C@@H]([NH3+])C(=O)[O-]
REMARK SMILES IDX 4 1 3 2 2 3 1 4 5 8 6 9 7 10 8 14 9 15 10 16
REMARK H PARENT 1 5 1 6 1 7 7 11 7 12 7 13
REMARK Flexibility Score: inf
ROOT
ATOM      1  C   UNL     1       5.370  23.584  20.170  1.00  0.00     0.012 C 
ENDROOT
BRANCH   1   2
ATOM      2  C   UNL     1       5.848  22.361  20.964  1.00  0.00     0.061 C 
BRANCH   2   3
ATOM      3  C   UNL     1       4.680  21.416  21.274  1.00  0.00     0.258 C 
BRANCH   3   4
ATOM      4  N   UNL     1       3.615  22.119  21.990  1.00  0.00    -0.358 N 
ATOM      5  H   UNL     1       3.192  22.852  21.376  1.00  0.00     0.344 HD
ATOM      6  H   UNL     1       2.873  21.432  22.258  1.00  0.00     0.344 HD
ATOM      7  H   UNL     1       3.996  22.559  22.858  1.00  0.00     0.344 HD
ENDBRANCH   3   4
ENDBRANCH   2   3
ENDBRANCH   1   2
BRANCH   1   8
ATOM      8  C   UNL     1       6.561  24.370  19.600  1.00  0.00     0.072 C 
BRANCH   8   9
ATOM      9  C   UNL     1       7.488  24.914  20.708  1.00  0.00     0.227 C 
BRANCH   9  10
ATOM     10  N   UNL     1       8.839  24.357  20.567  1.00  0.00    -0.350 N 
ATOM     11  H   UNL     1       8.927  23.870  19.645  1.00  0.00     0.345 HD
ATOM     12  H   UNL     1       9.560  25.113  20.624  1.00  0.00     0.345 HD
ATOM     13  H   UNL     1       9.015  23.655  21.323  1.00  0.00     0.345 HD
ENDBRANCH   9  10
BRANCH   9  14
ATOM     14  C   UNL     1       7.543  26.419  20.684  1.00  0.00     0.099 C 
ATOM     15  O   UNL     1       7.588  27.040  19.589  1.00  0.00    -0.544 OA
ATOM     16  O   UNL     1       7.533  27.133  21.876  1.00  0.00    -0.544 OA
ENDBRANCH   9  14
ENDBRANCH   8   9
ENDBRANCH   1   8
TORSDOF 7
ENDMDL
MODEL 2
REMARK VINA RESULT:    -4.244      2.095      2.769
REMARK INTER + INTRA:          -5.843
REMARK INTER:                  -5.691
REMARK INTRA:                  -0.152
REMARK UNBOUND:                -0.110
REMARK SMILES [NH3+]CCCC[C@@H]([NH3+])C(=O)[O-]
REMARK SMILES IDX 4 1 3 2 2 3 1 4 5 8 6 9 7 10 8 14 9 15 10 16
REMARK H PARENT 1 5 1 6 1 7 7 11 7 12 7 13
REMARK Flexibility Score: inf
ROOT
ATOM      1  C   UNL     1       4.568  21.375  21.302  1.00  0.00     0.012 C 
ENDROOT
BRANCH   1   2
ATOM      2  C   UNL     1       3.558  21.497  22.449  1.00  0.00     0.061 C 
BRANCH   2   3
ATOM      3  C   UNL     1       2.320  22.291  22.011  1.00  0.00     0.258 C 
BRANCH   3   4
ATOM      4  N   UNL     1       1.994  23.329  22.990  1.00  0.00    -0.358 N 
ATOM      5  H   UNL     1       2.827  23.936  23.162  1.00  0.00     0.344 HD
ATOM      6  H   UNL     1       1.216  23.919  22.615  1.00  0.00     0.344 HD
ATOM      7  H   UNL     1       1.682  22.891  23.887  1.00  0.00     0.344 HD
ENDBRANCH   3   4
ENDBRANCH   2   3
ENDBRANCH   1   2
BRANCH   1   8
ATOM      8  C   UNL     1       5.864  22.134  21.626  1.00  0.00     0.072 C 
BRANCH   8   9
ATOM      9  C   UNL     1       6.184  23.221  20.576  1.00  0.00     0.227 C 
BRANCH   9  10
ATOM     10  N   UNL     1       5.002  24.052  20.320  1.00  0.00    -0.350 N 
ATOM     11  H   UNL     1       4.212  23.453  19.986  1.00  0.00     0.345 HD
ATOM     12  H   UNL     1       4.706  24.553  21.190  1.00  0.00     0.345 HD
ATOM     13  H   UNL     1       5.216  24.754  19.574  1.00  0.00     0.345 HD
ENDBRANCH   9  10
BRANCH   9  14
ATOM     14  C   UNL     1       7.339  24.082  21.017  1.00  0.00     0.099 C 
ATOM     15  O   UNL     1       7.925  24.835  20.194  1.00  0.00    -0.544 OA
ATOM     16  O   UNL     1       7.756  24.058  22.341  1.00  0.00    -0.544 OA
ENDBRANCH   9  14
ENDBRANCH   8   9
ENDBRANCH   1   8
TORSDOF 7
ENDMDL
MODEL 3
REMARK VINA RESULT:    -4.202      2.981      4.888
REMARK INTER + INTRA:          -5.786
REMARK INTER:                  -5.651
REMARK INTRA:                  -0.135
REMARK UNBOUND:                -0.110
REMARK SMILES [NH3+]CCCC[C@@H]([NH3+])C(=O)[O-]
REMARK SMILES IDX 4 1 3 2 2 3 1 4 5 8 6 9 7 10 8 14 9 15 10 16
REMARK H PARENT 1 5 1 6 1 7 7 11 7 12 7 13
REMARK Flexibility Score: inf
ROOT
ATOM      1  C   UNL     1       7.574  27.647  19.243  1.00  0.00     0.012 C 
ENDROOT
BRANCH   1   2
ATOM      2  C   UNL     1       7.223  29.076  19.673  1.00  0.00     0.061 C 
BRANCH   2   3
ATOM      3  C   UNL     1       7.062  29.169  21.196  1.00  0.00     0.258 C 
BRANCH   3   4
ATOM      4  N   UNL     1       5.761  29.737  21.550  1.00  0.00    -0.358 N 
ATOM      5  H   UNL     1       4.998  29.235  21.041  1.00  0.00     0.344 HD
ATOM      6  H   UNL     1       5.609  29.628  22.579  1.00  0.00     0.344 HD
ATOM      7  H   UNL     1       5.737  30.755  21.312  1.00  0.00     0.344 HD
ENDBRANCH   3   4
ENDBRANCH   2   3
ENDBRANCH   1   2
BRANCH   1   8
ATOM      8  C   UNL     1       7.515  26.681  20.436  1.00  0.00     0.072 C 
BRANCH   8   9
ATOM      9  C   UNL     1       7.949  25.250  20.052  1.00  0.00     0.227 C 
BRANCH   9  10
ATOM     10  N   UNL     1       9.154  24.862  20.795  1.00  0.00    -0.350 N 
ATOM     11  H   UNL     1       9.812  25.673  20.852  1.00  0.00     0.345 HD
ATOM     12  H   UNL     1       8.909  24.553  21.764  1.00  0.00     0.345 HD
ATOM     13  H   UNL     1       9.642  24.081  20.297  1.00  0.00     0.345 HD
ENDBRANCH   9  10
BRANCH   9  14
ATOM     14  C   UNL     1       6.843  24.258  20.304  1.00  0.00     0.099 C 
ATOM     15  O   UNL     1       5.809  24.258  19.584  1.00  0.00    -0.544 OA
ATOM     16  O   UNL     1       6.965  23.328  21.329  1.00  0.00    -0.544 OA
ENDBRANCH   9  14
ENDBRANCH   8   9
ENDBRANCH   1   8
TORSDOF 7
ENDMDL
MODEL 4
REMARK VINA RESULT:    -4.162      4.387      5.749
REMARK INTER + INTRA:          -5.733
REMARK INTER:                  -5.541
REMARK INTRA:                  -0.192
REMARK UNBOUND:                -0.110
REMARK SMILES [NH3+]CCCC[C@@H]([NH3+])C(=O)[O-]
REMARK SMILES IDX 4 1 3 2 2 3 1 4 5 8 6 9 7 10 8 14 9 15 10 16
REMARK H PARENT 1 5 1 6 1 7 7 11 7 12 7 13
REMARK Flexibility Score: inf
ROOT
ATOM      1  C   UNL     1       3.456  19.016  20.750  1.00  0.00     0.012 C 
ENDROOT
BRANCH   1   2
ATOM      2  C   UNL     1       2.292  18.816  19.772  1.00  0.00     0.061 C 
BRANCH   2   3
ATOM      3  C   UNL     1       0.946  18.818  20.509  1.00  0.00     0.258 C 
BRANCH   3   4
ATOM      4  N   UNL     1      -0.080  19.497  19.718  1.00  0.00    -0.358 N 
ATOM      5  H   UNL     1      -0.569  20.214  20.302  1.00  0.00     0.344 HD
ATOM      6  H   UNL     1       0.374  19.976  18.906  1.00  0.00     0.344 HD
ATOM      7  H   UNL     1      -0.773  18.803  19.356  1.00  0.00     0.344 HD
ENDBRANCH   3   4
ENDBRANCH   2   3
ENDBRANCH   1   2
BRANCH   1   8
ATOM      8  C   UNL     1       3.020  19.854  21.962  1.00  0.00     0.072 C 
BRANCH   8   9
ATOM      9  C   UNL     1       3.492  21.321  21.860  1.00  0.00     0.227 C 
BRANCH   9  10
ATOM     10  N   UNL     1       2.793  22.155  22.845  1.00  0.00    -0.350 N 
ATOM     11  H   UNL     1       2.929  23.166  22.613  1.00  0.00     0.345 HD
ATOM     12  H   UNL     1       1.769  21.941  22.852  1.00  0.00     0.345 HD
ATOM     13  H   UNL     1       3.188  21.984  23.799  1.00  0.00     0.345 HD
ENDBRANCH   9  10
BRANCH   9  14
ATOM     14  C   UNL     1       4.982  21.430  22.051  1.00  0.00     0.099 C 
ATOM     15  O   UNL     1       5.519  21.042  23.124  1.00  0.00    -0.544 OA
ATOM     16  O   UNL     1       5.776  21.950  21.037  1.00  0.00    -0.544 OA
ENDBRANCH   9  14
ENDBRANCH   8   9
ENDBRANCH   1   8
TORSDOF 7
ENDMDL
MODEL 5
REMARK VINA RESULT:    -4.154      3.593      5.377
REMARK INTER + INTRA:          -5.721
REMARK INTER:                  -5.628
REMARK INTRA:                  -0.093
REMARK UNBOUND:                -0.110
REMARK SMILES [NH3+]CCCC[C@@H]([NH3+])C(=O)[O-]
REMARK SMILES IDX 4 1 3 2 2 3 1 4 5 8 6 9 7 10 8 14 9 15 10 16
REMARK H PARENT 1 5 1 6 1 7 7 11 7 12 7 13
REMARK Flexibility Score: inf
ROOT
ATOM      1  C   UNL     1       6.824  23.560  20.999  1.00  0.00     0.012 C 
ENDROOT
BRANCH   1   2
ATOM      2  C   UNL     1       6.799  24.807  20.106  1.00  0.00     0.061 C 
BRANCH   2   3
ATOM      3  C   UNL     1       8.116  25.586  20.212  1.00  0.00     0.258 C 
BRANCH   3   4
ATOM      4  N   UNL     1       9.182  24.740  20.750  1.00  0.00    -0.358 N 
ATOM      5  H   UNL     1       9.038  23.748  20.454  1.00  0.00     0.344 HD
ATOM      6  H   UNL     1      10.102  25.073  20.380  1.00  0.00     0.344 HD
ATOM      7  H   UNL     1       9.196  24.800  21.794  1.00  0.00     0.344 HD
ENDBRANCH   3   4
ENDBRANCH   2   3
ENDBRANCH   1   2
BRANCH   1   8
ATOM      8  C   UNL     1       5.686  22.596  20.632  1.00  0.00     0.072 C 
BRANCH   8   9
ATOM      9  C   UNL     1       5.466  21.513  21.710  1.00  0.00     0.227 C 
BRANCH   9  10
ATOM     10  N   UNL     1       5.838  22.023  23.036  1.00  0.00    -0.350 N 
ATOM     11  H   UNL     1       6.780  22.474  22.990  1.00  0.00     0.345 HD
ATOM     12  H   UNL     1       5.139  22.725  23.372  1.00  0.00     0.345 HD
ATOM     13  H   UNL     1       5.888  21.232  23.719  1.00  0.00     0.345 HD
ENDBRANCH   9  10
BRANCH   9  14
ATOM     14  C   UNL     1       4.036  21.036  21.721  1.00  0.00     0.099 C 
ATOM     15  O   UNL     1       3.180  21.599  22.454  1.00  0.00    -0.544 OA
ATOM     16  O   UNL     1       3.653  19.975  20.911  1.00  0.00    -0.544 OA
ENDBRANCH   9  14
ENDBRANCH   8   9
ENDBRANCH   1   8
TORSDOF 7
ENDMDL
MODEL 6
REMARK VINA RESULT:    -3.992      4.144      6.042
REMARK INTER + INTRA:          -5.503
REMARK INTER:                  -5.417
REMARK INTRA:                  -0.086
REMARK UNBOUND:                -0.110
REMARK SMILES [NH3+]CCCC[C@@H]([NH3+])C(=O)[O-]
REMARK SMILES IDX 4 1 3 2 2 3 1 4 5 8 6 9 7 10 8 14 9 15 10 16
REMARK H PARENT 1 5 1 6 1 7 7 11 7 12 7 13
REMARK Flexibility Score: inf
ROOT
ATOM      1  C   UNL     1       6.074  22.480  21.257  1.00  0.00     0.012 C 
ENDROOT
BRANCH   1   2
ATOM      2  C   UNL     1       5.982  23.551  20.163  1.00  0.00     0.061 C 
BRANCH   2   3
ATOM      3  C   UNL     1       6.861  24.762  20.502  1.00  0.00     0.258 C 
BRANCH   3   4
ATOM      4  N   UNL     1       8.190  24.624  19.906  1.00  0.00    -0.358 N 
ATOM      5  H   UNL     1       8.926  24.692  20.646  1.00  0.00     0.344 HD
ATOM      6  H   UNL     1       8.262  23.689  19.443  1.00  0.00     0.344 HD
ATOM      7  H   UNL     1       8.341  25.369  19.187  1.00  0.00     0.344 HD
ENDBRANCH   3   4
ENDBRANCH   2   3
ENDBRANCH   1   2
BRANCH   1   8
ATOM      8  C   UNL     1       5.019  21.384  21.046  1.00  0.00     0.072 C 
BRANCH   8   9
ATOM      9  C   UNL     1       3.964  21.362  22.173  1.00  0.00     0.227 C 
BRANCH   9  10
ATOM     10  N   UNL     1       3.107  22.551  22.099  1.00  0.00    -0.350 N 
ATOM     11  H   UNL     1       3.127  22.942  21.128  1.00  0.00     0.345 HD
ATOM     12  H   UNL     1       2.120  22.312  22.351  1.00  0.00     0.345 HD
ATOM     13  H   UNL     1       3.462  23.286  22.753  1.00  0.00     0.345 HD
ENDBRANCH   9  10
BRANCH   9  14
ATOM     14  C   UNL     1       3.124  20.112  22.110  1.00  0.00     0.099 C 
ATOM     15  O   UNL     1       3.404  19.116  22.829  1.00  0.00    -0.544 OA
ATOM     16  O   UNL     1       2.025  20.057  21.263  1.00  0.00    -0.544 OA
ENDBRANCH   9  14
ENDBRANCH   8   9
ENDBRANCH   1   8
TORSDOF 7
ENDMDL
MODEL 7
REMARK VINA RESULT:    -3.979      7.985      9.149
REMARK INTER + INTRA:          -5.484
REMARK INTER:                  -5.208
REMARK INTRA:                  -0.277
REMARK UNBOUND:                -0.110
REMARK SMILES [NH3+]CCCC[C@@H]([NH3+])C(=O)[O-]
REMARK SMILES IDX 4 1 3 2 2 3 1 4 5 8 6 9 7 10 8 14 9 15 10 16
REMARK H PARENT 1 5 1 6 1 7 7 11 7 12 7 13
REMARK Flexibility Score: inf
ROOT
ATOM      1  C   UNL     1       2.938  19.012  20.185  1.00  0.00     0.012 C 
ENDROOT
BRANCH   1   2
ATOM      2  C   UNL     1       1.729  19.135  21.121  1.00  0.00     0.061 C 
BRANCH   2   3
ATOM      3  C   UNL     1       0.607  19.952  20.467  1.00  0.00     0.258 C 
BRANCH   3   4
ATOM      4  N   UNL     1      -0.262  19.093  19.662  1.00  0.00    -0.358 N 
ATOM      5  H   UNL     1      -0.834  19.673  19.007  1.00  0.00     0.344 HD
ATOM      6  H   UNL     1       0.329  18.435  19.104  1.00  0.00     0.344 HD
ATOM      7  H   UNL     1      -0.892  18.536  20.284  1.00  0.00     0.344 HD
ENDBRANCH   3   4
ENDBRANCH   2   3
ENDBRANCH   1   2
BRANCH   1   8
ATOM      8  C   UNL     1       3.020  17.605  19.572  1.00  0.00     0.072 C 
BRANCH   8   9
ATOM      9  C   UNL     1       2.398  16.530  20.489  1.00  0.00     0.227 C 
BRANCH   9  10
ATOM     10  N   UNL     1       1.328  15.811  19.787  1.00  0.00    -0.350 N 
ATOM     11  H   UNL     1       0.849  15.155  20.446  1.00  0.00     0.345 HD
ATOM     12  H   UNL     1       0.623  16.481  19.401  1.00  0.00     0.345 HD
ATOM     13  H   UNL     1       1.733  15.248  19.004  1.00  0.00     0.345 HD
ENDBRANCH   9  10
BRANCH   9  14
ATOM     14  C   UNL     1       3.441  15.558  20.977  1.00  0.00     0.099 C 
ATOM     15  O   UNL     1       3.230  14.317  20.931  1.00  0.00    -0.544 OA
ATOM     16  O   UNL     1       4.650  16.030  21.473  1.00  0.00    -0.544 OA
ENDBRANCH   9  14
ENDBRANCH   8   9
ENDBRANCH   1   8
TORSDOF 7
ENDMDL
MODEL 8
REMARK VINA RESULT:    -3.968      4.054      5.604
REMARK INTER + INTRA:          -5.470
REMARK INTER:                  -5.377
REMARK INTRA:                  -0.093
REMARK UNBOUND:                -0.110
REMARK SMILES [NH3+]CCCC[C@@H]([NH3+])C(=O)[O-]
REMARK SMILES IDX 4 1 3 2 2 3 1 4 5 8 6 9 7 10 8 14 9 15 10 16
REMARK H PARENT 1 5 1 6 1 7 7 11 7 12 7 13
REMARK Flexibility Score: inf
ROOT
ATOM      1  C   UNL     1       2.284  19.574  21.178  1.00  0.00     0.012 C 
ENDROOT
BRANCH   1   2
ATOM      2  C   UNL     1       2.001  18.795  19.888  1.00  0.00     0.061 C 
BRANCH   2   3
ATOM      3  C   UNL     1       3.025  17.671  19.687  1.00  0.00     0.258 C 
BRANCH   3   4
ATOM      4  N   UNL     1       3.005  17.188  18.306  1.00  0.00    -0.358 N 
ATOM      5  H   UNL     1       2.019  17.028  17.995  1.00  0.00     0.344 HD
ATOM      6  H   UNL     1       3.443  17.907  17.685  1.00  0.00     0.344 HD
ATOM      7  H   UNL     1       3.550  16.299  18.228  1.00  0.00     0.344 HD
ENDBRANCH   3   4
ENDBRANCH   2   3
ENDBRANCH   1   2
BRANCH   1   8
ATOM      8  C   UNL     1       3.771  19.944  21.284  1.00  0.00     0.072 C 
BRANCH   8   9
ATOM      9  C   UNL     1       3.980  21.423  21.676  1.00  0.00     0.227 C 
BRANCH   9  10
ATOM     10  N   UNL     1       3.126  21.779  22.815  1.00  0.00    -0.350 N 
ATOM     11  H   UNL     1       3.321  22.763  23.111  1.00  0.00     0.345 HD
ATOM     12  H   UNL     1       2.115  21.693  22.561  1.00  0.00     0.345 HD
ATOM     13  H   UNL     1       3.334  21.149  23.625  1.00  0.00     0.345 HD
ENDBRANCH   9  10
BRANCH   9  14
ATOM     14  C   UNL     1       5.425  21.702  22.003  1.00  0.00     0.099 C 
ATOM     15  O   UNL     1       5.918  21.319  23.098  1.00  0.00    -0.544 OA
ATOM     16  O   UNL     1       6.225  22.377  21.090  1.00  0.00    -0.544 OA
ENDBRANCH   9  14
ENDBRANCH   8   9
ENDBRANCH   1   8
TORSDOF 7
ENDMDL
MODEL 9
REMARK VINA RESULT:    -3.965      6.615      8.206
REMARK INTER + INTRA:          -5.466
REMARK INTER:                  -5.325
REMARK INTRA:                  -0.141
REMARK UNBOUND:                -0.110
REMARK SMILES [NH3+]CCCC[C@@H]([NH3+])C(=O)[O-]
REMARK SMILES IDX 4 1 3 2 2 3 1 4 5 8 6 9 7 10 8 14 9 15 10 16
REMARK H PARENT 1 5 1 6 1 7 7 11 7 12 7 13
REMARK Flexibility Score: inf
ROOT
ATOM      1  C   UNL     1       2.931  20.009  22.042  1.00  0.00     0.012 C 
ENDROOT
BRANCH   1   2
ATOM      2  C   UNL     1       3.296  21.480  22.277  1.00  0.00     0.061 C 
BRANCH   2   3
ATOM      3  C   UNL     1       2.119  22.401  21.932  1.00  0.00     0.258 C 
BRANCH   3   4
ATOM      4  N   UNL     1       1.893  23.380  22.995  1.00  0.00    -0.358 N 
ATOM      5  H   UNL     1       1.177  23.022  23.668  1.00  0.00     0.344 HD
ATOM      6  H   UNL     1       2.790  23.539  23.509  1.00  0.00     0.344 HD
ATOM      7  H   UNL     1       1.573  24.288  22.586  1.00  0.00     0.344 HD
ENDBRANCH   3   4
ENDBRANCH   2   3
ENDBRANCH   1   2
BRANCH   1   8
ATOM      8  C   UNL     1       2.234  19.824  20.685  1.00  0.00     0.072 C 
BRANCH   8   9
ATOM      9  C   UNL     1       1.044  18.843  20.768  1.00  0.00     0.227 C 
BRANCH   9  10
ATOM     10  N   UNL     1       0.021  19.190  19.774  1.00  0.00    -0.350 N 
ATOM     11  H   UNL     1       0.407  19.066  18.810  1.00  0.00     0.345 HD
ATOM     12  H   UNL     1      -0.824  18.584  19.885  1.00  0.00     0.345 HD
ATOM     13  H   UNL     1      -0.256  20.193  19.887  1.00  0.00     0.345 HD
ENDBRANCH   9  10
BRANCH   9  14
ATOM     14  C   UNL     1       1.497  17.419  20.570  1.00  0.00     0.099 C 
ATOM     15  O   UNL     1       0.798  16.461  20.998  1.00  0.00    -0.544 OA
ATOM     16  O   UNL     1       2.685  17.155  19.902  1.00  0.00    -0.544 OA
ENDBRANCH   9  14
ENDBRANCH   8   9
ENDBRANCH   1   8
TORSDOF 7
ENDMDL
