MODEL 1
REMARK VINA RESULT:    -4.226      0.000      0.000
REMARK INTER + INTRA:         -11.107
REMARK INTER:                  -8.179
REMARK INTRA:                  -2.928
REMARK UNBOUND:                -2.928
REMARK SMILES CCCCCCCCCCCCCCCCCC(=O)[O-]
REMARK SMILES IDX 10 1 11 2 12 3 13 4 14 5 15 6 16 7 17 8 18 9 19 10 20 11
REMARK SMILES IDX 9 12 8 13 7 14 6 15 5 16 4 17 3 18 2 19 1 20
REMARK H PARENT
REMARK Flexibility Score: inf
ROOT
ATOM      1  C   UNL     1      13.774   3.106  -2.241  1.00  0.00     0.000 C 
ENDROOT
BRANCH   1   2
ATOM      2  C   UNL     1      13.643   1.604  -2.539  1.00  0.00     0.000 C 
BRANCH   2   3
ATOM      3  C   UNL     1      12.342   1.003  -1.978  1.00  0.00     0.000 C 
BRANCH   3   4
ATOM      4  C   UNL     1      12.349   0.907  -0.444  1.00  0.00     0.000 C 
BRANCH   4   5
ATOM      5  C   UNL     1      11.124   1.576   0.202  1.00  0.00     0.000 C 
BRANCH   5   6
ATOM      6  C   UNL     1      10.341   2.452  -0.802  1.00  0.00     0.000 C 
BRANCH   6   7
ATOM      7  C   UNL     1       9.383   3.452  -0.128  1.00  0.00     0.006 C 
BRANCH   7   8
ATOM      8  C   UNL     1       8.755   4.465  -1.097  1.00  0.00     0.053 C 
BRANCH   8   9
ATOM      9  C   UNL     1       9.635   5.661  -1.299  1.00  0.00     0.041 C 
ATOM     10  O   UNL     1       9.790   6.500  -0.373  1.00  0.00    -0.550 OA
ATOM     11  O   UNL     1      10.272   5.856  -2.518  1.00  0.00    -0.550 OA
ENDBRANCH   8   9
ENDBRANCH   7   8
ENDBRANCH   6   7
ENDBRANCH   5   6
ENDBRANCH   4   5
ENDBRANCH   3   4
ENDBRANCH   2   3
ENDBRANCH   1   2
BRANCH   1  12
ATOM     12  C   UNL     1      15.206   3.513  -1.861  1.00  0.00     0.000 C 
BRANCH  12  13
ATOM     13  C   UNL     1      16.145   2.300  -1.885  1.00  0.00    -0.000 C 
BRANCH  13  14
ATOM     14  C   UNL     1      16.737   2.034  -0.493  1.00  0.00    -0.000 C 
BRANCH  14  15
ATOM     15  C   UNL     1      16.053   0.843   0.211  1.00  0.00    -0.000 C 
BRANCH  15  16
ATOM     16  C   UNL     1      15.586   1.156   1.644  1.00  0.00    -0.000 C 
BRANCH  16  17
ATOM     17  C   UNL     1      15.426   2.662   1.901  1.00  0.00    -0.000 C 
BRANCH  17  18
ATOM     18  C   UNL     1      13.961   3.081   2.117  1.00  0.00    -0.000 C 
BRANCH  18  19
ATOM     19  C   UNL     1      13.514   4.328   1.330  1.00  0.00    -0.003 C 
ATOM     20  C   UNL     1      12.171   4.885   1.800  1.00  0.00     0.004 C 
ENDBRANCH  18  19
ENDBRANCH  17  18
ENDBRANCH  16  17
ENDBRANCH  15  16
ENDBRANCH  14  15
ENDBRANCH  13  14
ENDBRANCH  12  13
ENDBRANCH   1  12
TORSDOF 16
ENDMDL
MODEL 2
REMARK VINA RESULT:    -4.225      1.623      3.833
REMARK INTER + INTRA:         -11.105
REMARK INTER:                  -8.469
REMARK INTRA:                  -2.636
REMARK UNBOUND:                -2.928
REMARK SMILES CCCCCCCCCCCCCCCCCC(=O)[O-]
REMARK SMILES IDX 10 1 11 2 12 3 13 4 14 5 15 6 16 7 17 8 18 9 19 10 20 11
REMARK SMILES IDX 9 12 8 13 7 14 6 15 5 16 4 17 3 18 2 19 1 20
REMARK H PARENT
REMARK Flexibility Score: inf
ROOT
ATOM      1  C   UNL     1      15.735   2.751   1.735  1.00  0.00     0.000 C 
ENDROOT
BRANCH   1   2
ATOM      2  C   UNL     1      14.534   2.181   2.508  1.00  0.00     0.000 C 
BRANCH   2   3
ATOM      3  C   UNL     1      13.215   2.311   1.728  1.00  0.00     0.000 C 
BRANCH   3   4
ATOM      4  C   UNL     1      12.099   2.966   2.560  1.00  0.00     0.000 C 
BRANCH   4   5
ATOM      5  C   UNL     1      12.124   4.501   2.487  1.00  0.00     0.000 C 
BRANCH   5   6
ATOM      6  C   UNL     1      11.669   5.027   1.106  1.00  0.00     0.000 C 
BRANCH   6   7
ATOM      7  C   UNL     1      10.162   5.335   1.032  1.00  0.00     0.006 C 
BRANCH   7   8
ATOM      8  C   UNL     1       9.771   6.265  -0.125  1.00  0.00     0.053 C 
BRANCH   8   9
ATOM      9  C   UNL     1       9.747   5.542  -1.437  1.00  0.00     0.041 C 
ATOM     10  O   UNL     1      10.110   6.126  -2.493  1.00  0.00    -0.550 OA
ATOM     11  O   UNL     1       9.310   4.225  -1.496  1.00  0.00    -0.550 OA
ENDBRANCH   8   9
ENDBRANCH   7   8
ENDBRANCH   6   7
ENDBRANCH   5   6
ENDBRANCH   4   5
ENDBRANCH   3   4
ENDBRANCH   2   3
ENDBRANCH   1   2
BRANCH   1  12
ATOM     12  C   UNL     1      15.327   3.813   0.704  1.00  0.00     0.000 C 
BRANCH  12  13
ATOM     13  C   UNL     1      16.291   3.819  -0.489  1.00  0.00    -0.000 C 
BRANCH  13  14
ATOM     14  C   UNL     1      15.635   3.201  -1.733  1.00  0.00    -0.000 C 
BRANCH  14  15
ATOM     15  C   UNL     1      14.104   3.401  -1.742  1.00  0.00    -0.000 C 
BRANCH  15  16
ATOM     16  C   UNL     1      13.316   2.132  -2.109  1.00  0.00    -0.000 C 
BRANCH  16  17
ATOM     17  C   UNL     1      14.228   0.928  -2.395  1.00  0.00    -0.000 C 
BRANCH  17  18
ATOM     18  C   UNL     1      13.810  -0.338  -1.624  1.00  0.00    -0.000 C 
BRANCH  18  19
ATOM     19  C   UNL     1      14.523  -0.547  -0.276  1.00  0.00    -0.003 C 
ATOM     20  C   UNL     1      16.020  -0.243  -0.335  1.00  0.00     0.004 C 
ENDBRANCH  18  19
ENDBRANCH  17  18
ENDBRANCH  16  17
ENDBRANCH  15  16
ENDBRANCH  14  15
ENDBRANCH  13  14
ENDBRANCH  12  13
ENDBRANCH   1  12
TORSDOF 16
ENDMDL
MODEL 3
REMARK VINA RESULT:    -4.204      1.365      3.288
REMARK INTER + INTRA:         -11.065
REMARK INTER:                  -8.531
REMARK INTRA:                  -2.534
REMARK UNBOUND:                -2.928
REMARK SMILES CCCCCCCCCCCCCCCCCC(=O)[O-]
REMARK SMILES IDX 10 1 11 2 12 3 13 4 14 5 15 6 16 7 17 8 18 9 19 10 20 11
REMARK SMILES IDX 9 12 8 13 7 14 6 15 5 16 4 17 3 18 2 19 1 20
REMARK H PARENT
REMARK Flexibility Score: inf
ROOT
ATOM      1  C   UNL     1      15.710   2.741   1.095  1.00  0.00     0.000 C 
ENDROOT
BRANCH   1   2
ATOM      2  C   UNL     1      14.410   2.954   1.888  1.00  0.00     0.000 C 
BRANCH   2   3
ATOM      3  C   UNL     1      13.818   4.359   1.682  1.00  0.00     0.000 C 
BRANCH   3   4
ATOM      4  C   UNL     1      12.448   4.527   2.361  1.00  0.00     0.000 C 
BRANCH   4   5
ATOM      5  C   UNL     1      11.397   5.161   1.434  1.00  0.00     0.000 C 
BRANCH   5   6
ATOM      6  C   UNL     1      10.132   4.283   1.299  1.00  0.00     0.000 C 
BRANCH   6   7
ATOM      7  C   UNL     1       9.099   4.843   0.304  1.00  0.00     0.006 C 
BRANCH   7   8
ATOM      8  C   UNL     1       9.393   6.278  -0.159  1.00  0.00     0.053 C 
BRANCH   8   9
ATOM      9  C   UNL     1       9.403   6.389  -1.653  1.00  0.00     0.041 C 
ATOM     10  O   UNL     1       9.240   7.507  -2.209  1.00  0.00    -0.550 OA
ATOM     11  O   UNL     1       9.581   5.253  -2.433  1.00  0.00    -0.550 OA
ENDBRANCH   8   9
ENDBRANCH   7   8
ENDBRANCH   6   7
ENDBRANCH   5   6
ENDBRANCH   4   5
ENDBRANCH   3   4
ENDBRANCH   2   3
ENDBRANCH   1   2
BRANCH   1  12
ATOM     12  C   UNL     1      15.895   3.772  -0.029  1.00  0.00     0.000 C 
BRANCH  12  13
ATOM     13  C   UNL     1      16.233   3.081  -1.357  1.00  0.00    -0.000 C 
BRANCH  13  14
ATOM     14  C   UNL     1      16.717   1.642  -1.123  1.00  0.00    -0.000 C 
BRANCH  14  15
ATOM     15  C   UNL     1      16.518   0.753  -2.368  1.00  0.00    -0.000 C 
BRANCH  15  16
ATOM     16  C   UNL     1      15.162   0.026  -2.400  1.00  0.00    -0.000 C 
BRANCH  16  17
ATOM     17  C   UNL     1      14.586  -0.219  -0.996  1.00  0.00    -0.000 C 
BRANCH  17  18
ATOM     18  C   UNL     1      13.236   0.486  -0.770  1.00  0.00    -0.000 C 
BRANCH  18  19
ATOM     19  C   UNL     1      12.817   1.467  -1.881  1.00  0.00    -0.003 C 
ATOM     20  C   UNL     1      12.496   2.866  -1.356  1.00  0.00     0.004 C 
ENDBRANCH  18  19
ENDBRANCH  17  18
ENDBRANCH  16  17
ENDBRANCH  15  16
ENDBRANCH  14  15
ENDBRANCH  13  14
ENDBRANCH  12  13
ENDBRANCH   1  12
TORSDOF 16
ENDMDL
MODEL 4
REMARK VINA RESULT:    -4.204      2.282      5.777
REMARK INTER + INTRA:         -11.065
REMARK INTER:                  -8.603
REMARK INTRA:                  -2.461
REMARK UNBOUND:                -2.928
REMARK SMILES CCCCCCCCCCCCCCCCCC(=O)[O-]
REMARK SMILES IDX 10 1 11 2 12 3 13 4 14 5 15 6 16 7 17 8 18 9 19 10 20 11
REMARK SMILES IDX 9 12 8 13 7 14 6 15 5 16 4 17 3 18 2 19 1 20
REMARK H PARENT
REMARK Flexibility Score: inf
ROOT
ATOM      1  C   UNL     1      13.445   2.501   1.185  1.00  0.00     0.000 C 
ENDROOT
BRANCH   1   2
ATOM      2  C   UNL     1      12.585   1.580   0.305  1.00  0.00     0.000 C 
BRANCH   2   3
ATOM      3  C   UNL     1      12.356   2.155  -1.104  1.00  0.00     0.000 C 
BRANCH   3   4
ATOM      4  C   UNL     1      12.817   1.197  -2.215  1.00  0.00     0.000 C 
BRANCH   4   5
ATOM      5  C   UNL     1      13.700   0.053  -1.688  1.00  0.00     0.000 C 
BRANCH   5   6
ATOM      6  C   UNL     1      15.167   0.187  -2.154  1.00  0.00     0.000 C 
BRANCH   6   7
ATOM      7  C   UNL     1      16.086   0.844  -1.107  1.00  0.00     0.006 C 
BRANCH   7   8
ATOM      8  C   UNL     1      16.846   2.072  -1.627  1.00  0.00     0.053 C 
BRANCH   8   9
ATOM      9  C   UNL     1      16.135   3.349  -1.294  1.00  0.00     0.041 C 
ATOM     10  O   UNL     1      16.364   3.941  -0.206  1.00  0.00    -0.550 OA
ATOM     11  O   UNL     1      15.208   3.879  -2.183  1.00  0.00    -0.550 OA
ENDBRANCH   8   9
ENDBRANCH   7   8
ENDBRANCH   6   7
ENDBRANCH   5   6
ENDBRANCH   4   5
ENDBRANCH   3   4
ENDBRANCH   2   3
ENDBRANCH   1   2
BRANCH   1  12
ATOM     12  C   UNL     1      13.102   3.987   1.002  1.00  0.00     0.000 C 
BRANCH  12  13
ATOM     13  C   UNL     1      12.484   4.569   2.280  1.00  0.00    -0.000 C 
BRANCH  13  14
ATOM     14  C   UNL     1      10.984   4.247   2.362  1.00  0.00    -0.000 C 
BRANCH  14  15
ATOM     15  C   UNL     1      10.183   4.916   1.225  1.00  0.00    -0.000 C 
BRANCH  15  16
ATOM     16  C   UNL     1       9.034   4.048   0.683  1.00  0.00    -0.000 C 
BRANCH  16  17
ATOM     17  C   UNL     1       8.780   4.268  -0.817  1.00  0.00    -0.000 C 
BRANCH  17  18
ATOM     18  C   UNL     1      10.017   4.796  -1.564  1.00  0.00    -0.000 C 
BRANCH  18  19
ATOM     19  C   UNL     1       9.800   6.108  -2.341  1.00  0.00    -0.003 C 
ATOM     20  C   UNL     1       8.462   6.776  -2.028  1.00  0.00     0.004 C 
ENDBRANCH  18  19
ENDBRANCH  17  18
ENDBRANCH  16  17
ENDBRANCH  15  16
ENDBRANCH  14  15
ENDBRANCH  13  14
ENDBRANCH  12  13
ENDBRANCH   1  12
TORSDOF 16
ENDMDL
MODEL 5
REMARK VINA RESULT:    -4.145      3.116      5.508
REMARK INTER + INTRA:         -10.950
REMARK INTER:                  -8.370
REMARK INTRA:                  -2.580
REMARK UNBOUND:                -2.928
REMARK SMILES CCCCCCCCCCCCCCCCCC(=O)[O-]
REMARK SMILES IDX 10 1 11 2 12 3 13 4 14 5 15 6 16 7 17 8 18 9 19 10 20 11
REMARK SMILES IDX 9 12 8 13 7 14 6 15 5 16 4 17 3 18 2 19 1 20
REMARK H PARENT
REMARK Flexibility Score: inf
ROOT
ATOM      1  C   UNL     1      16.121   2.892   0.228  1.00  0.00     0.000 C 
ENDROOT
BRANCH   1   2
ATOM      2  C   UNL     1      15.561   3.976  -0.707  1.00  0.00     0.000 C 
BRANCH   2   3
ATOM      3  C   UNL     1      14.771   3.386  -1.888  1.00  0.00     0.000 C 
BRANCH   3   4
ATOM      4  C   UNL     1      13.317   3.051  -1.517  1.00  0.00     0.000 C 
BRANCH   4   5
ATOM      5  C   UNL     1      12.850   1.703  -2.090  1.00  0.00     0.000 C 
BRANCH   5   6
ATOM      6  C   UNL     1      12.930   0.566  -1.046  1.00  0.00     0.000 C 
BRANCH   6   7
ATOM      7  C   UNL     1      13.859  -0.588  -1.465  1.00  0.00     0.006 C 
BRANCH   7   8
ATOM      8  C   UNL     1      15.351  -0.303  -1.237  1.00  0.00     0.053 C 
BRANCH   8   9
ATOM      9  C   UNL     1      16.055   0.035  -2.516  1.00  0.00     0.041 C 
ATOM     10  O   UNL     1      15.648  -0.436  -3.611  1.00  0.00    -0.550 OA
ATOM     11  O   UNL     1      17.171   0.862  -2.496  1.00  0.00    -0.550 OA
ENDBRANCH   8   9
ENDBRANCH   7   8
ENDBRANCH   6   7
ENDBRANCH   5   6
ENDBRANCH   4   5
ENDBRANCH   3   4
ENDBRANCH   2   3
ENDBRANCH   1   2
BRANCH   1  12
ATOM     12  C   UNL     1      15.601   3.023   1.667  1.00  0.00     0.000 C 
BRANCH  12  13
ATOM     13  C   UNL     1      14.383   2.117   1.894  1.00  0.00    -0.000 C 
BRANCH  13  14
ATOM     14  C   UNL     1      13.223   2.900   2.525  1.00  0.00    -0.000 C 
BRANCH  14  15
ATOM     15  C   UNL     1      13.169   4.360   2.027  1.00  0.00    -0.000 C 
BRANCH  15  16
ATOM     16  C   UNL     1      11.748   4.949   1.991  1.00  0.00    -0.000 C 
BRANCH  16  17
ATOM     17  C   UNL     1      10.864   4.303   0.912  1.00  0.00    -0.000 C 
BRANCH  17  18
ATOM     18  C   UNL     1      10.258   5.330  -0.062  1.00  0.00    -0.000 C 
BRANCH  18  19
ATOM     19  C   UNL     1       9.818   4.760  -1.423  1.00  0.00    -0.003 C 
ATOM     20  C   UNL     1       9.424   5.842  -2.428  1.00  0.00     0.004 C 
ENDBRANCH  18  19
ENDBRANCH  17  18
ENDBRANCH  16  17
ENDBRANCH  15  16
ENDBRANCH  14  15
ENDBRANCH  13  14
ENDBRANCH  12  13
ENDBRANCH   1  12
TORSDOF 16
ENDMDL
MODEL 6
REMARK VINA RESULT:    -4.105      2.057      3.501
REMARK INTER + INTRA:         -10.874
REMARK INTER:                  -8.018
REMARK INTRA:                  -2.856
REMARK UNBOUND:                -2.928
REMARK SMILES CCCCCCCCCCCCCCCCCC(=O)[O-]
REMARK SMILES IDX 10 1 11 2 12 3 13 4 14 5 15 6 16 7 17 8 18 9 19 10 20 11
REMARK SMILES IDX 9 12 8 13 7 14 6 15 5 16 4 17 3 18 2 19 1 20
REMARK H PARENT
REMARK Flexibility Score: inf
ROOT
ATOM      1  C   UNL     1      16.864   2.203  -1.025  1.00  0.00     0.000 C 
ENDROOT
BRANCH   1   2
ATOM      2  C   UNL     1      16.809   1.116  -2.111  1.00  0.00     0.000 C 
BRANCH   2   3
ATOM      3  C   UNL     1      15.434   0.429  -2.188  1.00  0.00     0.000 C 
BRANCH   3   4
ATOM      4  C   UNL     1      15.047  -0.266  -0.871  1.00  0.00     0.000 C 
BRANCH   4   5
ATOM      5  C   UNL     1      13.622   0.082  -0.410  1.00  0.00     0.000 C 
BRANCH   5   6
ATOM      6  C   UNL     1      13.085   1.362  -1.090  1.00  0.00     0.000 C 
BRANCH   6   7
ATOM      7  C   UNL     1      11.825   1.933  -0.414  1.00  0.00     0.006 C 
BRANCH   7   8
ATOM      8  C   UNL     1      11.702   3.460  -0.512  1.00  0.00     0.053 C 
BRANCH   8   9
ATOM      9  C   UNL     1      11.095   4.051   0.724  1.00  0.00     0.041 C 
ATOM     10  O   UNL     1      10.052   3.552   1.223  1.00  0.00    -0.550 OA
ATOM     11  O   UNL     1      11.677   5.164   1.318  1.00  0.00    -0.550 OA
ENDBRANCH   8   9
ENDBRANCH   7   8
ENDBRANCH   6   7
ENDBRANCH   5   6
ENDBRANCH   4   5
ENDBRANCH   3   4
ENDBRANCH   2   3
ENDBRANCH   1   2
BRANCH   1  12
ATOM     12  C   UNL     1      15.947   3.396  -1.332  1.00  0.00     0.000 C 
BRANCH  12  13
ATOM     13  C   UNL     1      15.455   4.057  -0.038  1.00  0.00    -0.000 C 
BRANCH  13  14
ATOM     14  C   UNL     1      15.695   3.144   1.173  1.00  0.00    -0.000 C 
BRANCH  14  15
ATOM     15  C   UNL     1      14.423   2.971   2.031  1.00  0.00    -0.000 C 
BRANCH  15  16
ATOM     16  C   UNL     1      14.357   1.625   2.774  1.00  0.00    -0.000 C 
BRANCH  16  17
ATOM     17  C   UNL     1      15.719   0.915   2.841  1.00  0.00    -0.000 C 
BRANCH  17  18
ATOM     18  C   UNL     1      15.822  -0.074   4.016  1.00  0.00    -0.000 C 
BRANCH  18  19
ATOM     19  C   UNL     1      16.657   0.418   5.213  1.00  0.00    -0.003 C 
ATOM     20  C   UNL     1      16.966   1.914   5.154  1.00  0.00     0.004 C 
ENDBRANCH  18  19
ENDBRANCH  17  18
ENDBRANCH  16  17
ENDBRANCH  15  16
ENDBRANCH  14  15
ENDBRANCH  13  14
ENDBRANCH  12  13
ENDBRANCH   1  12
TORSDOF 16
ENDMDL
MODEL 7
REMARK VINA RESULT:    -4.089      1.528      3.707
REMARK INTER + INTRA:         -10.843
REMARK INTER:                  -8.581
REMARK INTRA:                  -2.262
REMARK UNBOUND:                -2.928
REMARK SMILES CCCCCCCCCCCCCCCCCC(=O)[O-]
REMARK SMILES IDX 10 1 11 2 12 3 13 4 14 5 15 6 16 7 17 8 18 9 19 10 20 11
REMARK SMILES IDX 9 12 8 13 7 14 6 15 5 16 4 17 3 18 2 19 1 20
REMARK H PARENT
REMARK Flexibility Score: inf
ROOT
ATOM      1  C   UNL     1      13.047   3.935   0.955  1.00  0.00     0.000 C 
ENDROOT
BRANCH   1   2
ATOM      2  C   UNL     1      12.155   4.873   1.785  1.00  0.00     0.000 C 
BRANCH   2   3
ATOM      3  C   UNL     1      10.736   5.003   1.207  1.00  0.00     0.000 C 
BRANCH   3   4
ATOM      4  C   UNL     1      10.230   3.691   0.584  1.00  0.00     0.000 C 
BRANCH   4   5
ATOM      5  C   UNL     1       9.495   3.908  -0.749  1.00  0.00     0.000 C 
BRANCH   5   6
ATOM      6  C   UNL     1      10.094   5.078  -1.562  1.00  0.00     0.000 C 
BRANCH   6   7
ATOM      7  C   UNL     1       9.029   6.002  -2.182  1.00  0.00     0.006 C 
BRANCH   7   8
ATOM      8  C   UNL     1       7.924   6.426  -1.204  1.00  0.00     0.053 C 
BRANCH   8   9
ATOM      9  C   UNL     1       8.365   7.553  -0.321  1.00  0.00     0.041 C 
ATOM     10  O   UNL     1       8.241   7.468   0.930  1.00  0.00    -0.550 OA
ATOM     11  O   UNL     1       8.900   8.706  -0.881  1.00  0.00    -0.550 OA
ENDBRANCH   8   9
ENDBRANCH   7   8
ENDBRANCH   6   7
ENDBRANCH   5   6
ENDBRANCH   4   5
ENDBRANCH   3   4
ENDBRANCH   2   3
ENDBRANCH   1   2
BRANCH   1  12
ATOM     12  C   UNL     1      13.835   2.943   1.822  1.00  0.00     0.000 C 
BRANCH  12  13
ATOM     13  C   UNL     1      15.324   2.951   1.450  1.00  0.00    -0.000 C 
BRANCH  13  14
ATOM     14  C   UNL     1      15.586   3.866   0.245  1.00  0.00    -0.000 C 
BRANCH  14  15
ATOM     15  C   UNL     1      16.375   3.147  -0.870  1.00  0.00    -0.000 C 
BRANCH  15  16
ATOM     16  C   UNL     1      16.527   1.633  -0.643  1.00  0.00    -0.000 C 
BRANCH  16  17
ATOM     17  C   UNL     1      16.217   0.809  -1.902  1.00  0.00    -0.000 C 
BRANCH  17  18
ATOM     18  C   UNL     1      14.770   0.990  -2.396  1.00  0.00    -0.000 C 
BRANCH  18  19
ATOM     19  C   UNL     1      13.680   0.689  -1.350  1.00  0.00    -0.003 C 
ATOM     20  C   UNL     1      12.379   1.449  -1.604  1.00  0.00     0.004 C 
ENDBRANCH  18  19
ENDBRANCH  17  18
ENDBRANCH  16  17
ENDBRANCH  15  16
ENDBRANCH  14  15
ENDBRANCH  13  14
ENDBRANCH  12  13
ENDBRANCH   1  12
TORSDOF 16
ENDMDL
MODEL 8
REMARK VINA RESULT:    -4.081      2.393      5.386
REMARK INTER + INTRA:         -10.826
REMARK INTER:                  -8.024
REMARK INTRA:                  -2.801
REMARK UNBOUND:                -2.928
REMARK SMILES CCCCCCCCCCCCCCCCCC(=O)[O-]
REMARK SMILES IDX 10 1 11 2 12 3 13 4 14 5 15 6 16 7 17 8 18 9 19 10 20 11
REMARK SMILES IDX 9 12 8 13 7 14 6 15 5 16 4 17 3 18 2 19 1 20
REMARK H PARENT
REMARK Flexibility Score: inf
ROOT
ATOM      1  C   UNL     1      12.086   1.910  -1.232  1.00  0.00     0.000 C 
ENDROOT
BRANCH   1   2
ATOM      2  C   UNL     1      13.180   0.960  -1.746  1.00  0.00     0.000 C 
BRANCH   2   3
ATOM      3  C   UNL     1      13.864   0.180  -0.610  1.00  0.00     0.000 C 
BRANCH   3   4
ATOM      4  C   UNL     1      13.881   0.960   0.716  1.00  0.00     0.000 C 
BRANCH   4   5
ATOM      5  C   UNL     1      15.303   1.200   1.249  1.00  0.00     0.000 C 
BRANCH   5   6
ATOM      6  C   UNL     1      15.490   2.636   1.789  1.00  0.00     0.000 C 
BRANCH   6   7
ATOM      7  C   UNL     1      15.082   3.728   0.782  1.00  0.00     0.006 C 
BRANCH   7   8
ATOM      8  C   UNL     1      16.161   4.048  -0.262  1.00  0.00     0.053 C 
BRANCH   8   9
ATOM      9  C   UNL     1      15.842   3.443  -1.596  1.00  0.00     0.041 C 
ATOM     10  O   UNL     1      15.017   4.001  -2.367  1.00  0.00    -0.550 OA
ATOM     11  O   UNL     1      16.448   2.254  -1.982  1.00  0.00    -0.550 OA
ENDBRANCH   8   9
ENDBRANCH   7   8
ENDBRANCH   6   7
ENDBRANCH   5   6
ENDBRANCH   4   5
ENDBRANCH   3   4
ENDBRANCH   2   3
ENDBRANCH   1   2
BRANCH   1  12
ATOM     12  C   UNL     1      10.682   1.290  -1.302  1.00  0.00     0.000 C 
BRANCH  12  13
ATOM     13  C   UNL     1       9.605   2.332  -0.972  1.00  0.00    -0.000 C 
BRANCH  13  14
ATOM     14  C   UNL     1      10.113   3.755  -1.247  1.00  0.00    -0.000 C 
BRANCH  14  15
ATOM     15  C   UNL     1       9.129   4.831  -0.740  1.00  0.00    -0.000 C 
BRANCH  15  16
ATOM     16  C   UNL     1       9.385   5.269   0.713  1.00  0.00    -0.000 C 
BRANCH  16  17
ATOM     17  C   UNL     1      10.882   5.408   1.036  1.00  0.00    -0.000 C 
BRANCH  17  18
ATOM     18  C   UNL     1      11.258   4.804   2.401  1.00  0.00    -0.000 C 
BRANCH  18  19
ATOM     19  C   UNL     1      11.761   3.349   2.355  1.00  0.00    -0.003 C 
ATOM     20  C   UNL     1      10.643   2.322   2.533  1.00  0.00     0.004 C 
ENDBRANCH  18  19
ENDBRANCH  17  18
ENDBRANCH  16  17
ENDBRANCH  15  16
ENDBRANCH  14  15
ENDBRANCH  13  14
ENDBRANCH  12  13
ENDBRANCH   1  12
TORSDOF 16
ENDMDL
MODEL 9
REMARK VINA RESULT:    -4.040      3.156      5.683
REMARK INTER + INTRA:         -10.748
REMARK INTER:                  -7.816
REMARK INTRA:                  -2.932
REMARK UNBOUND:                -2.928
REMARK SMILES CCCCCCCCCCCCCCCCCC(=O)[O-]
REMARK SMILES IDX 10 1 11 2 12 3 13 4 14 5 15 6 16 7 17 8 18 9 19 10 20 11
REMARK SMILES IDX 9 12 8 13 7 14 6 15 5 16 4 17 3 18 2 19 1 20
REMARK H PARENT
REMARK Flexibility Score: inf
ROOT
ATOM      1  C   UNL     1      14.646   2.399   2.338  1.00  0.00     0.000 C 
ENDROOT
BRANCH   1   2
ATOM      2  C   UNL     1      15.754   2.860   1.377  1.00  0.00     0.000 C 
BRANCH   2   3
ATOM      3  C   UNL     1      15.324   4.058   0.512  1.00  0.00     0.000 C 
BRANCH   3   4
ATOM      4  C   UNL     1      15.091   3.671  -0.958  1.00  0.00     0.000 C 
BRANCH   4   5
ATOM      5  C   UNL     1      13.671   3.143  -1.218  1.00  0.00     0.000 C 
BRANCH   5   6
ATOM      6  C   UNL     1      13.620   2.170  -2.418  1.00  0.00     0.000 C 
BRANCH   6   7
ATOM      7  C   UNL     1      13.891   0.704  -2.031  1.00  0.00     0.006 C 
BRANCH   7   8
ATOM      8  C   UNL     1      15.191   0.134  -2.617  1.00  0.00     0.053 C 
BRANCH   8   9
ATOM      9  C   UNL     1      16.370   0.421  -1.739  1.00  0.00     0.041 C 
ATOM     10  O   UNL     1      16.378   0.042  -0.538  1.00  0.00    -0.550 OA
ATOM     11  O   UNL     1      17.458   1.122  -2.245  1.00  0.00    -0.550 OA
ENDBRANCH   8   9
ENDBRANCH   7   8
ENDBRANCH   6   7
ENDBRANCH   5   6
ENDBRANCH   4   5
ENDBRANCH   3   4
ENDBRANCH   2   3
ENDBRANCH   1   2
BRANCH   1  12
ATOM     12  C   UNL     1      13.964   1.102   1.879  1.00  0.00     0.000 C 
BRANCH  12  13
ATOM     13  C   UNL     1      12.455   1.149   2.154  1.00  0.00    -0.000 C 
BRANCH  13  14
ATOM     14  C   UNL     1      11.655   1.134   0.843  1.00  0.00    -0.000 C 
BRANCH  14  15
ATOM     15  C   UNL     1      10.213   1.651   1.036  1.00  0.00    -0.000 C 
BRANCH  15  16
ATOM     16  C   UNL     1       9.870   2.869   0.161  1.00  0.00    -0.000 C 
BRANCH  16  17
ATOM     17  C   UNL     1       9.652   4.149   0.984  1.00  0.00    -0.000 C 
BRANCH  17  18
ATOM     18  C   UNL     1      10.808   5.157   0.842  1.00  0.00    -0.000 C 
BRANCH  18  19
ATOM     19  C   UNL     1      12.008   4.910   1.775  1.00  0.00    -0.003 C 
ATOM     20  C   UNL     1      11.596   4.615   3.217  1.00  0.00     0.004 C 
ENDBRANCH  18  19
ENDBRANCH  17  18
ENDBRANCH  16  17
ENDBRANCH  15  16
ENDBRANCH  14  15
ENDBRANCH  13  14
ENDBRANCH  12  13
ENDBRANCH   1  12
TORSDOF 16
ENDMDL
