MODEL 1
REMARK VINA RESULT:    -5.146      0.000      0.000
REMARK INTER + INTRA:          -5.146
REMARK INTER:                  -5.146
REMARK INTRA:                   0.000
REMARK UNBOUND:                 0.000
REMARK SMILES CC1=CC[C@]2(C)CCCC(C)(C)[C@@]23C[C@@H]13
REMARK SMILES IDX 1 1 2 2 3 3 4 4 5 5 7 6 8 7 9 8 10 9 13 10 15 11 14 12 11 13
REMARK SMILES IDX 12 14 6 15
REMARK H PARENT
REMARK Flexibility Score: inf
ROOT
ATOM      1  C   UNL     1     140.236 137.617 131.396  1.00  0.00     0.039 C 
ATOM      2  C   UNL     1     139.048 138.549 131.385  1.00  0.00    -0.074 C 
ATOM      3  C   UNL     1     138.900 139.436 132.376  1.00  0.00    -0.027 C 
ATOM      4  C   UNL     1     137.893 140.544 132.312  1.00  0.00     0.034 C 
ATOM      5  C   UNL     1     136.543 140.197 131.600  1.00  0.00    -0.022 C 
ATOM      6  C   UNL     1     135.614 139.513 132.640  1.00  0.00     0.008 C 
ATOM      7  C   UNL     1     134.297 138.999 132.041  1.00  0.00     0.001 C 
ATOM      8  C   UNL     1     134.528 138.003 130.897  1.00  0.00     0.007 C 
ATOM      9  C   UNL     1     135.424 138.529 129.739  1.00  0.00    -0.029 C 
ATOM     10  C   UNL     1     136.723 139.226 130.356  1.00  0.00    -0.012 C 
ATOM     11  C   UNL     1     138.027 138.400 130.278  1.00  0.00     0.022 C 
ATOM     12  C   UNL     1     137.847 139.626 129.384  1.00  0.00     0.017 C 
ATOM     13  C   UNL     1     134.632 139.529 128.851  1.00  0.00     0.012 C 
ATOM     14  C   UNL     1     135.714 137.300 128.832  1.00  0.00     0.012 C 
ATOM     15  C   UNL     1     135.933 141.565 131.165  1.00  0.00     0.012 C 
ENDROOT
TORSDOF 0
ENDMDL
MODEL 2
REMARK VINA RESULT:    -5.134      1.825      3.754
REMARK INTER + INTRA:          -5.134
REMARK INTER:                  -5.134
REMARK INTRA:                   0.000
REMARK UNBOUND:                 0.000
REMARK SMILES CC1=CC[C@]2(C)CCCC(C)(C)[C@@]23C[C@@H]13
REMARK SMILES IDX 1 1 2 2 3 3 4 4 5 5 7 6 8 7 9 8 10 9 13 10 15 11 14 12 11 13
REMARK SMILES IDX 12 14 6 15
REMARK H PARENT
REMARK Flexibility Score: inf
ROOT
ATOM      1  C   UNL     1     135.119 140.025 136.547  1.00  0.00     0.039 C 
ATOM      2  C   UNL     1     135.787 139.858 135.202  1.00  0.00    -0.074 C 
ATOM      3  C   UNL     1     136.890 140.564 134.926  1.00  0.00    -0.027 C 
ATOM      4  C   UNL     1     137.739 140.280 133.723  1.00  0.00     0.034 C 
ATOM      5  C   UNL     1     136.969 139.824 132.439  1.00  0.00    -0.022 C 
ATOM      6  C   UNL     1     136.476 141.098 131.698  1.00  0.00     0.008 C 
ATOM      7  C   UNL     1     135.589 140.794 130.481  1.00  0.00     0.001 C 
ATOM      8  C   UNL     1     134.353 139.965 130.856  1.00  0.00     0.007 C 
ATOM      9  C   UNL     1     134.657 138.628 131.590  1.00  0.00    -0.029 C 
ATOM     10  C   UNL     1     135.718 138.898 132.754  1.00  0.00    -0.012 C 
ATOM     11  C   UNL     1     135.142 138.939 134.187  1.00  0.00     0.022 C 
ATOM     12  C   UNL     1     135.997 137.753 133.743  1.00  0.00     0.017 C 
ATOM     13  C   UNL     1     135.196 137.569 130.588  1.00  0.00     0.012 C 
ATOM     14  C   UNL     1     133.283 138.086 132.075  1.00  0.00     0.012 C 
ATOM     15  C   UNL     1     138.019 139.076 131.562  1.00  0.00     0.012 C 
ENDROOT
TORSDOF 0
ENDMDL
MODEL 3
REMARK VINA RESULT:    -5.129      2.308      4.403
REMARK INTER + INTRA:          -5.129
REMARK INTER:                  -5.129
REMARK INTRA:                   0.000
REMARK UNBOUND:                 0.000
REMARK SMILES CC1=CC[C@]2(C)CCCC(C)(C)[C@@]23C[C@@H]13
REMARK SMILES IDX 1 1 2 2 3 3 4 4 5 5 7 6 8 7 9 8 10 9 13 10 15 11 14 12 11 13
REMARK SMILES IDX 12 14 6 15
REMARK H PARENT
REMARK Flexibility Score: inf
ROOT
ATOM      1  C   UNL     1     136.137 140.133 131.103  1.00  0.00     0.039 C 
ATOM      2  C   UNL     1     135.177 138.968 131.165  1.00  0.00    -0.074 C 
ATOM      3  C   UNL     1     134.322 138.877 132.190  1.00  0.00    -0.027 C 
ATOM      4  C   UNL     1     133.189 137.896 132.200  1.00  0.00     0.034 C 
ATOM      5  C   UNL     1     133.480 136.514 131.525  1.00  0.00    -0.022 C 
ATOM      6  C   UNL     1     134.177 135.605 132.575  1.00  0.00     0.008 C 
ATOM      7  C   UNL     1     134.639 134.256 132.006  1.00  0.00     0.001 C 
ATOM      8  C   UNL     1     135.600 134.422 130.821  1.00  0.00     0.007 C 
ATOM      9  C   UNL     1     135.056 135.290 129.650  1.00  0.00    -0.029 C 
ATOM     10  C   UNL     1     134.411 136.626 130.244  1.00  0.00    -0.012 C 
ATOM     11  C   UNL     1     135.264 137.905 130.091  1.00  0.00     0.022 C 
ATOM     12  C   UNL     1     134.004 137.725 129.246  1.00  0.00     0.017 C 
ATOM     13  C   UNL     1     134.007 134.491 128.826  1.00  0.00     0.012 C 
ATOM     14  C   UNL     1     136.259 135.517 128.692  1.00  0.00     0.012 C 
ATOM     15  C   UNL     1     132.084 135.922 131.159  1.00  0.00     0.012 C 
ENDROOT
TORSDOF 0
ENDMDL
MODEL 4
REMARK VINA RESULT:    -5.120      2.258      4.995
REMARK INTER + INTRA:          -5.120
REMARK INTER:                  -5.120
REMARK INTRA:                   0.000
REMARK UNBOUND:                 0.000
REMARK SMILES CC1=CC[C@]2(C)CCCC(C)(C)[C@@]23C[C@@H]13
REMARK SMILES IDX 1 1 2 2 3 3 4 4 5 5 7 6 8 7 9 8 10 9 13 10 15 11 14 12 11 13
REMARK SMILES IDX 12 14 6 15
REMARK H PARENT
REMARK Flexibility Score: inf
ROOT
ATOM      1  C   UNL     1     139.939 138.809 136.598  1.00  0.00     0.039 C 
ATOM      2  C   UNL     1     139.824 138.096 135.271  1.00  0.00    -0.074 C 
ATOM      3  C   UNL     1     140.573 137.012 135.042  1.00  0.00    -0.027 C 
ATOM      4  C   UNL     1     140.345 136.119 133.859  1.00  0.00     0.034 C 
ATOM      5  C   UNL     1     139.891 136.835 132.543  1.00  0.00    -0.022 C 
ATOM      6  C   UNL     1     141.163 137.350 131.815  1.00  0.00     0.008 C 
ATOM      7  C   UNL     1     140.856 138.190 130.567  1.00  0.00     0.001 C 
ATOM      8  C   UNL     1     139.977 139.407 130.887  1.00  0.00     0.007 C 
ATOM      9  C   UNL     1     138.635 139.078 131.602  1.00  0.00    -0.029 C 
ATOM     10  C   UNL     1     138.916 138.062 132.801  1.00  0.00    -0.012 C 
ATOM     11  C   UNL     1     138.905 138.679 134.218  1.00  0.00     0.022 C 
ATOM     12  C   UNL     1     137.760 137.771 133.775  1.00  0.00     0.017 C 
ATOM     13  C   UNL     1     137.618 138.474 130.594  1.00  0.00     0.012 C 
ATOM     14  C   UNL     1     138.036 140.446 132.034  1.00  0.00     0.012 C 
ATOM     15  C   UNL     1     139.198 135.734 131.682  1.00  0.00     0.012 C 
ENDROOT
TORSDOF 0
ENDMDL
MODEL 5
REMARK VINA RESULT:    -5.104      3.797      6.161
REMARK INTER + INTRA:          -5.104
REMARK INTER:                  -5.104
REMARK INTRA:                   0.000
REMARK UNBOUND:                 0.000
REMARK SMILES CC1=CC[C@]2(C)CCCC(C)(C)[C@@]23C[C@@H]13
REMARK SMILES IDX 1 1 2 2 3 3 4 4 5 5 7 6 8 7 9 8 10 9 13 10 15 11 14 12 11 13
REMARK SMILES IDX 12 14 6 15
REMARK H PARENT
REMARK Flexibility Score: inf
ROOT
ATOM      1  C   UNL     1     133.511 136.155 130.989  1.00  0.00     0.039 C 
ATOM      2  C   UNL     1     134.689 135.215 131.096  1.00  0.00    -0.074 C 
ATOM      3  C   UNL     1     134.768 134.379 132.138  1.00  0.00    -0.027 C 
ATOM      4  C   UNL     1     135.766 133.262 132.191  1.00  0.00     0.034 C 
ATOM      5  C   UNL     1     137.159 133.562 131.543  1.00  0.00    -0.022 C 
ATOM      6  C   UNL     1     138.032 134.292 132.601  1.00  0.00     0.008 C 
ATOM      7  C   UNL     1     139.387 134.765 132.055  1.00  0.00     0.001 C 
ATOM      8  C   UNL     1     139.234 135.702 130.850  1.00  0.00     0.007 C 
ATOM      9  C   UNL     1     138.403 135.123 129.669  1.00  0.00    -0.029 C 
ATOM     10  C   UNL     1     137.063 134.469 130.243  1.00  0.00    -0.012 C 
ATOM     11  C   UNL     1     135.775 135.299 130.045  1.00  0.00     0.022 C 
ATOM     12  C   UNL     1     135.994 134.027 129.228  1.00  0.00     0.017 C 
ATOM     13  C   UNL     1     139.236 134.073 128.883  1.00  0.00     0.012 C 
ATOM     14  C   UNL     1     138.180 136.306 128.684  1.00  0.00     0.012 C 
ATOM     15  C   UNL     1     137.780 132.169 131.216  1.00  0.00     0.012 C 
ENDROOT
TORSDOF 0
ENDMDL
MODEL 6
REMARK VINA RESULT:    -5.103      3.617      5.416
REMARK INTER + INTRA:          -5.103
REMARK INTER:                  -5.103
REMARK INTRA:                   0.000
REMARK UNBOUND:                 0.000
REMARK SMILES CC1=CC[C@]2(C)CCCC(C)(C)[C@@]23C[C@@H]13
REMARK SMILES IDX 1 1 2 2 3 3 4 4 5 5 7 6 8 7 9 8 10 9 13 10 15 11 14 12 11 13
REMARK SMILES IDX 12 14 6 15
REMARK H PARENT
REMARK Flexibility Score: inf
ROOT
ATOM      1  C   UNL     1     133.838 135.096 136.563  1.00  0.00     0.039 C 
ATOM      2  C   UNL     1     133.976 135.764 135.215  1.00  0.00    -0.074 C 
ATOM      3  C   UNL     1     133.260 136.864 134.952  1.00  0.00    -0.027 C 
ATOM      4  C   UNL     1     133.517 137.714 133.744  1.00  0.00     0.034 C 
ATOM      5  C   UNL     1     133.951 136.946 132.451  1.00  0.00    -0.022 C 
ATOM      6  C   UNL     1     132.665 136.448 131.736  1.00  0.00     0.008 C 
ATOM      7  C   UNL     1     132.949 135.562 130.514  1.00  0.00     0.001 C 
ATOM      8  C   UNL     1     133.790 134.330 130.872  1.00  0.00     0.007 C 
ATOM      9  C   UNL     1     135.140 134.638 131.580  1.00  0.00    -0.029 C 
ATOM     10  C   UNL     1     134.888 135.698 132.748  1.00  0.00    -0.012 C 
ATOM     11  C   UNL     1     134.878 135.123 134.183  1.00  0.00     0.022 C 
ATOM     12  C   UNL     1     136.051 135.983 133.715  1.00  0.00     0.017 C 
ATOM     13  C   UNL     1     136.177 135.182 130.557  1.00  0.00     0.012 C 
ATOM     14  C   UNL     1     135.697 133.266 132.054  1.00  0.00     0.012 C 
ATOM     15  C   UNL     1     134.678 137.999 131.560  1.00  0.00     0.012 C 
ENDROOT
TORSDOF 0
ENDMDL
MODEL 7
REMARK VINA RESULT:    -5.089      2.273      4.356
REMARK INTER + INTRA:          -5.089
REMARK INTER:                  -5.089
REMARK INTRA:                   0.000
REMARK UNBOUND:                 0.000
REMARK SMILES CC1=CC[C@]2(C)CCCC(C)(C)[C@@]23C[C@@H]13
REMARK SMILES IDX 1 1 2 2 3 3 4 4 5 5 7 6 8 7 9 8 10 9 13 10 15 11 14 12 11 13
REMARK SMILES IDX 12 14 6 15
REMARK H PARENT
REMARK Flexibility Score: inf
ROOT
ATOM      1  C   UNL     1     137.488 133.513 131.036  1.00  0.00     0.039 C 
ATOM      2  C   UNL     1     138.442 134.680 131.133  1.00  0.00    -0.074 C 
ATOM      3  C   UNL     1     139.293 134.748 132.164  1.00  0.00    -0.027 C 
ATOM      4  C   UNL     1     140.422 135.733 132.204  1.00  0.00     0.034 C 
ATOM      5  C   UNL     1     140.128 137.131 131.564  1.00  0.00    -0.022 C 
ATOM      6  C   UNL     1     139.422 138.009 132.633  1.00  0.00     0.008 C 
ATOM      7  C   UNL     1     138.956 139.371 132.097  1.00  0.00     0.001 C 
ATOM      8  C   UNL     1     138.002 139.231 130.904  1.00  0.00     0.007 C 
ATOM      9  C   UNL     1     138.555 138.396 129.714  1.00  0.00    -0.029 C 
ATOM     10  C   UNL     1     139.203 137.048 130.276  1.00  0.00    -0.012 C 
ATOM     11  C   UNL     1     138.356 135.770 130.086  1.00  0.00     0.022 C 
ATOM     12  C   UNL     1     139.619 135.977 129.252  1.00  0.00     0.017 C 
ATOM     13  C   UNL     1     139.604 139.220 128.915  1.00  0.00     0.012 C 
ATOM     14  C   UNL     1     137.357 138.189 128.745  1.00  0.00     0.012 C 
ATOM     15  C   UNL     1     141.523 137.738 131.219  1.00  0.00     0.012 C 
ENDROOT
TORSDOF 0
ENDMDL
MODEL 8
REMARK VINA RESULT:    -5.071      3.381      4.342
REMARK INTER + INTRA:          -5.071
REMARK INTER:                  -5.071
REMARK INTRA:                   0.000
REMARK UNBOUND:                 0.000
REMARK SMILES CC1=CC[C@]2(C)CCCC(C)(C)[C@@]23C[C@@H]13
REMARK SMILES IDX 1 1 2 2 3 3 4 4 5 5 7 6 8 7 9 8 10 9 13 10 15 11 14 12 11 13
REMARK SMILES IDX 12 14 6 15
REMARK H PARENT
REMARK Flexibility Score: inf
ROOT
ATOM      1  C   UNL     1     137.743 132.244 131.187  1.00  0.00     0.039 C 
ATOM      2  C   UNL     1     137.051 133.582 131.297  1.00  0.00    -0.074 C 
ATOM      3  C   UNL     1     137.119 134.263 132.447  1.00  0.00    -0.027 C 
ATOM      4  C   UNL     1     136.670 135.689 132.558  1.00  0.00     0.034 C 
ATOM      5  C   UNL     1     135.428 136.081 131.691  1.00  0.00    -0.022 C 
ATOM      6  C   UNL     1     134.149 135.694 132.483  1.00  0.00     0.008 C 
ATOM      7  C   UNL     1     132.850 135.905 131.691  1.00  0.00     0.001 C 
ATOM      8  C   UNL     1     132.838 135.118 130.374  1.00  0.00     0.007 C 
ATOM      9  C   UNL     1     134.042 135.399 129.430  1.00  0.00    -0.029 C 
ATOM     10  C   UNL     1     135.395 135.355 130.279  1.00  0.00    -0.012 C 
ATOM     11  C   UNL     1     136.248 134.077 130.113  1.00  0.00     0.022 C 
ATOM     12  C   UNL     1     136.724 135.394 129.504  1.00  0.00     0.017 C 
ATOM     13  C   UNL     1     133.874 136.777 128.732  1.00  0.00     0.012 C 
ATOM     14  C   UNL     1     133.951 134.339 128.296  1.00  0.00     0.012 C 
ATOM     15  C   UNL     1     135.500 137.631 131.528  1.00  0.00     0.012 C 
ENDROOT
TORSDOF 0
ENDMDL
MODEL 9
REMARK VINA RESULT:    -5.048      3.384      4.719
REMARK INTER + INTRA:          -5.048
REMARK INTER:                  -5.048
REMARK INTRA:                   0.000
REMARK UNBOUND:                 0.000
REMARK SMILES CC1=CC[C@]2(C)CCCC(C)(C)[C@@]23C[C@@H]13
REMARK SMILES IDX 1 1 2 2 3 3 4 4 5 5 7 6 8 7 9 8 10 9 13 10 15 11 14 12 11 13
REMARK SMILES IDX 12 14 6 15
REMARK H PARENT
REMARK Flexibility Score: inf
ROOT
ATOM      1  C   UNL     1     141.497 137.753 131.238  1.00  0.00     0.039 C 
ATOM      2  C   UNL     1     140.150 137.077 131.339  1.00  0.00    -0.074 C 
ATOM      3  C   UNL     1     139.455 137.166 132.479  1.00  0.00    -0.027 C 
ATOM      4  C   UNL     1     138.023 136.734 132.578  1.00  0.00     0.034 C 
ATOM      5  C   UNL     1     137.629 135.485 131.720  1.00  0.00    -0.022 C 
ATOM      6  C   UNL     1     137.991 134.212 132.532  1.00  0.00     0.008 C 
ATOM      7  C   UNL     1     137.776 132.906 131.752  1.00  0.00     0.001 C 
ATOM      8  C   UNL     1     138.580 132.870 130.445  1.00  0.00     0.007 C 
ATOM      9  C   UNL     1     138.324 134.066 129.484  1.00  0.00    -0.029 C 
ATOM     10  C   UNL     1     138.372 135.428 130.317  1.00  0.00    -0.012 C 
ATOM     11  C   UNL     1     139.662 136.265 130.158  1.00  0.00     0.022 C 
ATOM     12  C   UNL     1     138.357 136.748 129.527  1.00  0.00     0.017 C 
ATOM     13  C   UNL     1     136.953 133.905 128.770  1.00  0.00     0.012 C 
ATOM     14  C   UNL     1     139.397 133.950 128.364  1.00  0.00     0.012 C 
ATOM     15  C   UNL     1     136.082 135.572 131.536  1.00  0.00     0.012 C 
ENDROOT
TORSDOF 0
ENDMDL
