MODEL 1
REMARK VINA RESULT:    -3.238      0.000      0.000
REMARK INTER + INTRA:          -4.336
REMARK INTER:                  -4.185
REMARK INTRA:                  -0.151
REMARK UNBOUND:                -0.151
REMARK SMILES CCCCCCC(=O)[O-]
REMARK SMILES IDX 5 1 6 2 7 3 8 4 9 5 4 6 3 7 2 8 1 9
REMARK H PARENT
REMARK Flexibility Score: inf
ROOT
ATOM      1  C   UNL     1       2.430  70.268  19.404  1.00  0.00     0.006 C 
ENDROOT
BRANCH   1   2
ATOM      2  C   UNL     1       3.337  71.466  19.094  1.00  0.00     0.053 C 
BRANCH   2   3
ATOM      3  C   UNL     1       2.543  72.704  18.802  1.00  0.00     0.041 C 
ATOM      4  O   UNL     1       2.973  73.553  17.978  1.00  0.00    -0.550 OA
ATOM      5  O   UNL     1       1.315  72.904  19.419  1.00  0.00    -0.550 OA
ENDBRANCH   2   3
ENDBRANCH   1   2
BRANCH   1   6
ATOM      6  C   UNL     1       2.918  69.474  20.628  1.00  0.00     0.000 C 
BRANCH   6   7
ATOM      7  C   UNL     1       4.436  69.584  20.838  1.00  0.00    -0.000 C 
BRANCH   7   8
ATOM      8  C   UNL     1       4.856  69.301  22.288  1.00  0.00    -0.003 C 
ATOM      9  C   UNL     1       6.107  68.429  22.337  1.00  0.00     0.004 C 
ENDBRANCH   7   8
ENDBRANCH   6   7
ENDBRANCH   1   6
TORSDOF 5
ENDMDL
MODEL 2
REMARK VINA RESULT:    -3.189      0.542      1.235
REMARK INTER + INTRA:          -4.272
REMARK INTER:                  -4.109
REMARK INTRA:                  -0.163
REMARK UNBOUND:                -0.151
REMARK SMILES CCCCCCC(=O)[O-]
REMARK SMILES IDX 5 1 6 2 7 3 8 4 9 5 4 6 3 7 2 8 1 9
REMARK H PARENT
REMARK Flexibility Score: inf
ROOT
ATOM      1  C   UNL     1       2.134  70.271  19.764  1.00  0.00     0.006 C 
ENDROOT
BRANCH   1   2
ATOM      2  C   UNL     1       3.120  71.151  18.983  1.00  0.00     0.053 C 
BRANCH   2   3
ATOM      3  C   UNL     1       2.545  72.504  18.688  1.00  0.00     0.041 C 
ATOM      4  O   UNL     1       1.479  72.875  19.244  1.00  0.00    -0.550 OA
ATOM      5  O   UNL     1       3.206  73.365  17.821  1.00  0.00    -0.550 OA
ENDBRANCH   2   3
ENDBRANCH   1   2
BRANCH   1   6
ATOM      6  C   UNL     1       2.851  69.329  20.746  1.00  0.00     0.000 C 
BRANCH   6   7
ATOM      7  C   UNL     1       4.356  69.622  20.855  1.00  0.00    -0.000 C 
BRANCH   7   8
ATOM      8  C   UNL     1       5.069  68.695  21.849  1.00  0.00    -0.003 C 
ATOM      9  C   UNL     1       5.500  69.457  23.099  1.00  0.00     0.004 C 
ENDBRANCH   7   8
ENDBRANCH   6   7
ENDBRANCH   1   6
TORSDOF 5
ENDMDL
MODEL 3
REMARK VINA RESULT:    -3.093     14.270     15.303
REMARK INTER + INTRA:          -4.148
REMARK INTER:                  -3.993
REMARK INTRA:                  -0.155
REMARK UNBOUND:                -0.151
REMARK SMILES CCCCCCC(=O)[O-]
REMARK SMILES IDX 5 1 6 2 7 3 8 4 9 5 4 6 3 7 2 8 1 9
REMARK H PARENT
REMARK Flexibility Score: inf
ROOT
ATOM      1  C   UNL     1       2.198  65.456   7.082  1.00  0.00     0.006 C 
ENDROOT
BRANCH   1   2
ATOM      2  C   UNL     1       3.249  64.510   7.678  1.00  0.00     0.053 C 
BRANCH   2   3
ATOM      3  C   UNL     1       2.623  63.282   8.266  1.00  0.00     0.041 C 
ATOM      4  O   UNL     1       3.204  62.654   9.189  1.00  0.00    -0.550 OA
ATOM      5  O   UNL     1       1.383  62.848   7.813  1.00  0.00    -0.550 OA
ENDBRANCH   2   3
ENDBRANCH   1   2
BRANCH   1   6
ATOM      6  C   UNL     1       2.832  66.550   6.206  1.00  0.00     0.000 C 
BRANCH   6   7
ATOM      7  C   UNL     1       4.296  66.246   5.848  1.00  0.00    -0.000 C 
BRANCH   7   8
ATOM      8  C   UNL     1       4.564  66.322   4.338  1.00  0.00    -0.003 C 
ATOM      9  C   UNL     1       6.061  66.393   4.049  1.00  0.00     0.004 C 
ENDBRANCH   7   8
ENDBRANCH   6   7
ENDBRANCH   1   6
TORSDOF 5
ENDMDL
MODEL 4
REMARK VINA RESULT:    -3.058     14.307     15.427
REMARK INTER + INTRA:          -4.103
REMARK INTER:                  -3.888
REMARK INTRA:                  -0.216
REMARK UNBOUND:                -0.151
REMARK SMILES CCCCCCC(=O)[O-]
REMARK SMILES IDX 5 1 6 2 7 3 8 4 9 5 4 6 3 7 2 8 1 9
REMARK H PARENT
REMARK Flexibility Score: inf
ROOT
ATOM      1  C   UNL     1       3.536  65.063   7.337  1.00  0.00     0.006 C 
ENDROOT
BRANCH   1   2
ATOM      2  C   UNL     1       2.071  64.751   7.668  1.00  0.00     0.053 C 
BRANCH   2   3
ATOM      3  C   UNL     1       1.862  63.295   7.957  1.00  0.00     0.041 C 
ATOM      4  O   UNL     1       0.841  62.702   7.522  1.00  0.00    -0.550 OA
ATOM      5  O   UNL     1       2.812  62.588   8.684  1.00  0.00    -0.550 OA
ENDBRANCH   2   3
ENDBRANCH   1   2
BRANCH   1   6
ATOM      6  C   UNL     1       3.697  66.430   6.651  1.00  0.00     0.000 C 
BRANCH   6   7
ATOM      7  C   UNL     1       4.566  66.358   5.385  1.00  0.00    -0.000 C 
BRANCH   7   8
ATOM      8  C   UNL     1       3.777  66.674   4.107  1.00  0.00    -0.003 C 
ATOM      9  C   UNL     1       2.397  67.238   4.438  1.00  0.00     0.004 C 
ENDBRANCH   7   8
ENDBRANCH   6   7
ENDBRANCH   1   6
TORSDOF 5
ENDMDL
MODEL 5
REMARK VINA RESULT:    -2.973      3.057      4.875
REMARK INTER + INTRA:          -3.994
REMARK INTER:                  -3.747
REMARK INTRA:                  -0.246
REMARK UNBOUND:                -0.151
REMARK SMILES CCCCCCC(=O)[O-]
REMARK SMILES IDX 5 1 6 2 7 3 8 4 9 5 4 6 3 7 2 8 1 9
REMARK H PARENT
REMARK Flexibility Score: inf
ROOT
ATOM      1  C   UNL     1       2.722  69.613  20.364  1.00  0.00     0.006 C 
ENDROOT
BRANCH   1   2
ATOM      2  C   UNL     1       4.224  69.753  20.647  1.00  0.00     0.053 C 
BRANCH   2   3
ATOM      3  C   UNL     1       4.559  69.396  22.064  1.00  0.00     0.041 C 
ATOM      4  O   UNL     1       3.650  69.043  22.861  1.00  0.00    -0.550 OA
ATOM      5  O   UNL     1       5.879  69.424  22.495  1.00  0.00    -0.550 OA
ENDBRANCH   2   3
ENDBRANCH   1   2
BRANCH   1   6
ATOM      6  C   UNL     1       2.356  70.065  18.940  1.00  0.00     0.000 C 
BRANCH   6   7
ATOM      7  C   UNL     1       1.312  71.192  18.927  1.00  0.00    -0.000 C 
BRANCH   7   8
ATOM      8  C   UNL     1       1.928  72.574  19.187  1.00  0.00    -0.003 C 
ATOM      9  C   UNL     1       3.101  72.838  18.246  1.00  0.00     0.004 C 
ENDBRANCH   7   8
ENDBRANCH   6   7
ENDBRANCH   1   6
TORSDOF 5
ENDMDL
MODEL 6
REMARK VINA RESULT:    -2.877      1.552      2.389
REMARK INTER + INTRA:          -3.869
REMARK INTER:                  -3.614
REMARK INTRA:                  -0.256
REMARK UNBOUND:                -0.151
REMARK SMILES CCCCCCC(=O)[O-]
REMARK SMILES IDX 5 1 6 2 7 3 8 4 9 5 4 6 3 7 2 8 1 9
REMARK H PARENT
REMARK Flexibility Score: inf
ROOT
ATOM      1  C   UNL     1       3.325  69.871  19.436  1.00  0.00     0.006 C 
ENDROOT
BRANCH   1   2
ATOM      2  C   UNL     1       3.087  71.346  19.088  1.00  0.00     0.053 C 
BRANCH   2   3
ATOM      3  C   UNL     1       1.632  71.704  19.144  1.00  0.00     0.041 C 
ATOM      4  O   UNL     1       1.277  72.870  19.458  1.00  0.00    -0.550 OA
ATOM      5  O   UNL     1       0.670  70.756  18.819  1.00  0.00    -0.550 OA
ENDBRANCH   2   3
ENDBRANCH   1   2
BRANCH   1   6
ATOM      6  C   UNL     1       4.177  69.705  20.706  1.00  0.00     0.000 C 
BRANCH   6   7
ATOM      7  C   UNL     1       3.396  69.060  21.862  1.00  0.00    -0.000 C 
BRANCH   7   8
ATOM      8  C   UNL     1       1.984  68.619  21.448  1.00  0.00    -0.003 C 
ATOM      9  C   UNL     1       1.238  67.994  22.624  1.00  0.00     0.004 C 
ENDBRANCH   7   8
ENDBRANCH   6   7
ENDBRANCH   1   6
TORSDOF 5
ENDMDL
MODEL 7
REMARK VINA RESULT:    -2.845     14.087     14.792
REMARK INTER + INTRA:          -3.827
REMARK INTER:                  -3.603
REMARK INTRA:                  -0.224
REMARK UNBOUND:                -0.151
REMARK SMILES CCCCCCC(=O)[O-]
REMARK SMILES IDX 5 1 6 2 7 3 8 4 9 5 4 6 3 7 2 8 1 9
REMARK H PARENT
REMARK Flexibility Score: inf
ROOT
ATOM      1  C   UNL     1       2.853  66.385   7.019  1.00  0.00     0.006 C 
ENDROOT
BRANCH   1   2
ATOM      2  C   UNL     1       4.177  65.860   6.449  1.00  0.00     0.053 C 
BRANCH   2   3
ATOM      3  C   UNL     1       4.565  66.577   5.190  1.00  0.00     0.041 C 
ATOM      4  O   UNL     1       3.785  66.590   4.202  1.00  0.00    -0.550 OA
ATOM      5  O   UNL     1       5.776  67.254   5.120  1.00  0.00    -0.550 OA
ENDBRANCH   2   3
ENDBRANCH   1   2
BRANCH   1   6
ATOM      6  C   UNL     1       2.095  65.306   7.811  1.00  0.00     0.000 C 
BRANCH   6   7
ATOM      7  C   UNL     1       3.019  64.191   8.326  1.00  0.00    -0.000 C 
BRANCH   7   8
ATOM      8  C   UNL     1       2.333  62.818   8.353  1.00  0.00    -0.003 C 
ATOM      9  C   UNL     1       0.996  62.858   7.615  1.00  0.00     0.004 C 
ENDBRANCH   7   8
ENDBRANCH   6   7
ENDBRANCH   1   6
TORSDOF 5
ENDMDL
MODEL 8
REMARK VINA RESULT:    -2.829     11.922     12.789
REMARK INTER + INTRA:          -3.807
REMARK INTER:                  -3.656
REMARK INTRA:                  -0.151
REMARK UNBOUND:                -0.151
REMARK SMILES CCCCCCC(=O)[O-]
REMARK SMILES IDX 5 1 6 2 7 3 8 4 9 5 4 6 3 7 2 8 1 9
REMARK H PARENT
REMARK Flexibility Score: inf
ROOT
ATOM      1  C   UNL     1       2.520  65.330   8.498  1.00  0.00     0.006 C 
ENDROOT
BRANCH   1   2
ATOM      2  C   UNL     1       3.179  64.008   8.083  1.00  0.00     0.053 C 
BRANCH   2   3
ATOM      3  C   UNL     1       2.253  62.843   8.267  1.00  0.00     0.041 C 
ATOM      4  O   UNL     1       1.185  62.771   7.605  1.00  0.00    -0.550 OA
ATOM      5  O   UNL     1       2.587  61.823   9.149  1.00  0.00    -0.550 OA
ENDBRANCH   2   3
ENDBRANCH   1   2
BRANCH   1   6
ATOM      6  C   UNL     1       1.830  65.229   9.870  1.00  0.00     0.000 C 
BRANCH   6   7
ATOM      7  C   UNL     1       2.653  65.878  10.994  1.00  0.00    -0.000 C 
BRANCH   7   8
ATOM      8  C   UNL     1       2.554  65.109  12.320  1.00  0.00    -0.003 C 
ATOM      9  C   UNL     1       1.350  65.575  13.135  1.00  0.00     0.004 C 
ENDBRANCH   7   8
ENDBRANCH   6   7
ENDBRANCH   1   6
TORSDOF 5
ENDMDL
MODEL 9
REMARK VINA RESULT:    -2.771      2.409      3.970
REMARK INTER + INTRA:          -3.731
REMARK INTER:                  -3.367
REMARK INTRA:                  -0.365
REMARK UNBOUND:                -0.151
REMARK SMILES CCCCCCC(=O)[O-]
REMARK SMILES IDX 5 1 6 2 7 3 8 4 9 5 4 6 3 7 2 8 1 9
REMARK H PARENT
REMARK Flexibility Score: inf
ROOT
ATOM      1  C   UNL     1       2.174  70.073  19.112  1.00  0.00     0.006 C 
ENDROOT
BRANCH   1   2
ATOM      2  C   UNL     1       3.199  71.208  19.234  1.00  0.00     0.053 C 
BRANCH   2   3
ATOM      3  C   UNL     1       2.657  72.506  18.714  1.00  0.00     0.041 C 
ATOM      4  O   UNL     1       3.265  73.128  17.804  1.00  0.00    -0.550 OA
ATOM      5  O   UNL     1       1.463  73.011  19.215  1.00  0.00    -0.550 OA
ENDBRANCH   2   3
ENDBRANCH   1   2
BRANCH   1   6
ATOM      6  C   UNL     1       1.908  69.688  17.646  1.00  0.00     0.000 C 
BRANCH   6   7
ATOM      7  C   UNL     1       3.034  68.831  17.046  1.00  0.00    -0.000 C 
BRANCH   7   8
ATOM      8  C   UNL     1       3.359  69.212  15.595  1.00  0.00    -0.003 C 
ATOM      9  C   UNL     1       2.655  70.506  15.196  1.00  0.00     0.004 C 
ENDBRANCH   7   8
ENDBRANCH   6   7
ENDBRANCH   1   6
TORSDOF 5
ENDMDL
