MODEL 1
REMARK VINA RESULT:    -3.074      0.000      0.000
REMARK INTER + INTRA:          -6.038
REMARK INTER:                  -4.691
REMARK INTRA:                  -1.347
REMARK UNBOUND:                -1.347
REMARK SMILES CCCCCCCCCCC(=O)[O-]
REMARK SMILES IDX 7 1 8 2 9 3 10 4 11 5 12 6 13 7 6 8 5 9 4 10 3 11 2 12 1 13
REMARK H PARENT
REMARK Flexibility Score: inf
ROOT
ATOM      1  C   UNL     1       8.015   8.675   0.915  1.00  0.00     0.000 C 
ENDROOT
BRANCH   1   2
ATOM      2  C   UNL     1       6.927   7.852   0.205  1.00  0.00     0.000 C 
BRANCH   2   3
ATOM      3  C   UNL     1       6.289   6.798   1.122  1.00  0.00     0.006 C 
BRANCH   3   4
ATOM      4  C   UNL     1       5.078   7.375   1.860  1.00  0.00     0.053 C 
BRANCH   4   5
ATOM      5  C   UNL     1       5.386   7.558   3.312  1.00  0.00     0.041 C 
ATOM      6  O   UNL     1       6.413   7.027   3.814  1.00  0.00    -0.550 OA
ATOM      7  O   UNL     1       4.567   8.354   4.103  1.00  0.00    -0.550 OA
ENDBRANCH   4   5
ENDBRANCH   3   4
ENDBRANCH   2   3
ENDBRANCH   1   2
BRANCH   1   8
ATOM      8  C   UNL     1       7.837  10.187   0.716  1.00  0.00     0.000 C 
BRANCH   8   9
ATOM      9  C   UNL     1       6.661  10.716   1.548  1.00  0.00    -0.000 C 
BRANCH   9  10
ATOM     10  C   UNL     1       5.644  11.447   0.659  1.00  0.00    -0.000 C 
BRANCH  10  11
ATOM     11  C   UNL     1       4.287  10.728   0.598  1.00  0.00    -0.000 C 
BRANCH  11  12
ATOM     12  C   UNL     1       4.078   9.969  -0.721  1.00  0.00    -0.003 C 
ATOM     13  C   UNL     1       5.043  10.460  -1.795  1.00  0.00     0.004 C 
ENDBRANCH  11  12
ENDBRANCH  10  11
ENDBRANCH   9  10
ENDBRANCH   8   9
ENDBRANCH   1   8
TORSDOF 9
ENDMDL
MODEL 2
REMARK VINA RESULT:    -3.042      1.713      3.068
REMARK INTER + INTRA:          -5.990
REMARK INTER:                  -4.990
REMARK INTRA:                  -1.000
REMARK UNBOUND:                -1.347
REMARK SMILES CCCCCCCCCCC(=O)[O-]
REMARK SMILES IDX 7 1 8 2 9 3 10 4 11 5 12 6 13 7 6 8 5 9 4 10 3 11 2 12 1 13
REMARK H PARENT
REMARK Flexibility Score: inf
ROOT
ATOM      1  C   UNL     1       5.565  10.217   2.110  1.00  0.00     0.000 C 
ENDROOT
BRANCH   1   2
ATOM      2  C   UNL     1       4.313   9.334   1.986  1.00  0.00     0.000 C 
BRANCH   2   3
ATOM      3  C   UNL     1       4.196   8.308   3.123  1.00  0.00     0.006 C 
BRANCH   3   4
ATOM      4  C   UNL     1       5.534   8.141   3.849  1.00  0.00     0.053 C 
BRANCH   4   5
ATOM      5  C   UNL     1       6.118   6.792   3.573  1.00  0.00     0.041 C 
ATOM      6  O   UNL     1       5.918   6.232   2.462  1.00  0.00    -0.550 OA
ATOM      7  O   UNL     1       6.922   6.174   4.522  1.00  0.00    -0.550 OA
ENDBRANCH   4   5
ENDBRANCH   3   4
ENDBRANCH   2   3
ENDBRANCH   1   2
BRANCH   1   8
ATOM      8  C   UNL     1       6.027  10.781   0.759  1.00  0.00     0.000 C 
BRANCH   8   9
ATOM      9  C   UNL     1       7.484  10.395   0.472  1.00  0.00    -0.000 C 
BRANCH   9  10
ATOM     10  C   UNL     1       7.831   9.043   1.116  1.00  0.00    -0.000 C 
BRANCH  10  11
ATOM     11  C   UNL     1       7.905   7.901   0.089  1.00  0.00    -0.000 C 
BRANCH  11  12
ATOM     12  C   UNL     1       6.546   7.604  -0.564  1.00  0.00    -0.003 C 
ATOM     13  C   UNL     1       6.466   6.153  -1.027  1.00  0.00     0.004 C 
ENDBRANCH  11  12
ENDBRANCH  10  11
ENDBRANCH   9  10
ENDBRANCH   8   9
ENDBRANCH   1   8
TORSDOF 9
ENDMDL
MODEL 3
REMARK VINA RESULT:    -3.022      1.540      3.401
REMARK INTER + INTRA:          -5.958
REMARK INTER:                  -4.631
REMARK INTRA:                  -1.327
REMARK UNBOUND:                -1.347
REMARK SMILES CCCCCCCCCCC(=O)[O-]
REMARK SMILES IDX 7 1 8 2 9 3 10 4 11 5 12 6 13 7 6 8 5 9 4 10 3 11 2 12 1 13
REMARK H PARENT
REMARK Flexibility Score: inf
ROOT
ATOM      1  C   UNL     1       2.958   8.659   1.512  1.00  0.00     0.000 C 
ENDROOT
BRANCH   1   2
ATOM      2  C   UNL     1       3.725   9.391   2.625  1.00  0.00     0.000 C 
BRANCH   2   3
ATOM      3  C   UNL     1       4.150   8.454   3.765  1.00  0.00     0.006 C 
BRANCH   3   4
ATOM      4  C   UNL     1       5.670   8.262   3.779  1.00  0.00     0.053 C 
BRANCH   4   5
ATOM      5  C   UNL     1       6.024   6.852   3.429  1.00  0.00     0.041 C 
ATOM      6  O   UNL     1       5.882   6.439   2.247  1.00  0.00    -0.550 OA
ATOM      7  O   UNL     1       6.556   6.007   4.394  1.00  0.00    -0.550 OA
ENDBRANCH   4   5
ENDBRANCH   3   4
ENDBRANCH   2   3
ENDBRANCH   1   2
BRANCH   1   8
ATOM      8  C   UNL     1       3.827   8.384   0.276  1.00  0.00     0.000 C 
BRANCH   8   9
ATOM      9  C   UNL     1       4.016   9.659  -0.557  1.00  0.00    -0.000 C 
BRANCH   9  10
ATOM     10  C   UNL     1       5.500  10.051  -0.633  1.00  0.00    -0.000 C 
BRANCH  10  11
ATOM     11  C   UNL     1       6.428   8.958  -0.078  1.00  0.00    -0.000 C 
BRANCH  11  12
ATOM     12  C   UNL     1       7.527   9.524   0.835  1.00  0.00    -0.003 C 
ATOM     13  C   UNL     1       7.101  10.854   1.448  1.00  0.00     0.004 C 
ENDBRANCH  11  12
ENDBRANCH  10  11
ENDBRANCH   9  10
ENDBRANCH   8   9
ENDBRANCH   1   8
TORSDOF 9
ENDMDL
MODEL 4
REMARK VINA RESULT:    -2.972      2.584      4.334
REMARK INTER + INTRA:          -5.883
REMARK INTER:                  -4.777
REMARK INTRA:                  -1.106
REMARK UNBOUND:                -1.347
REMARK SMILES CCCCCCCCCCC(=O)[O-]
REMARK SMILES IDX 7 1 8 2 9 3 10 4 11 5 12 6 13 7 6 8 5 9 4 10 3 11 2 12 1 13
REMARK H PARENT
REMARK Flexibility Score: inf
ROOT
ATOM      1  C   UNL     1       6.528  10.247   0.709  1.00  0.00     0.000 C 
ENDROOT
BRANCH   1   2
ATOM      2  C   UNL     1       7.901   9.576   0.872  1.00  0.00     0.000 C 
BRANCH   2   3
ATOM      3  C   UNL     1       7.885   8.090   0.483  1.00  0.00     0.006 C 
BRANCH   3   4
ATOM      4  C   UNL     1       6.656   7.761  -0.370  1.00  0.00     0.053 C 
BRANCH   4   5
ATOM      5  C   UNL     1       6.843   6.457  -1.079  1.00  0.00     0.041 C 
ATOM      6  O   UNL     1       6.123   5.467  -0.783  1.00  0.00    -0.550 OA
ATOM      7  O   UNL     1       7.779   6.348  -2.099  1.00  0.00    -0.550 OA
ENDBRANCH   4   5
ENDBRANCH   3   4
ENDBRANCH   2   3
ENDBRANCH   1   2
BRANCH   1   8
ATOM      8  C   UNL     1       5.814  10.468   2.051  1.00  0.00     0.000 C 
BRANCH   8   9
ATOM      9  C   UNL     1       4.330  10.095   1.951  1.00  0.00    -0.000 C 
BRANCH   9  10
ATOM     10  C   UNL     1       4.079   8.684   2.507  1.00  0.00    -0.000 C 
BRANCH  10  11
ATOM     11  C   UNL     1       5.198   8.213   3.450  1.00  0.00    -0.000 C 
BRANCH  11  12
ATOM     12  C   UNL     1       5.734   6.821   3.084  1.00  0.00    -0.003 C 
ATOM     13  C   UNL     1       6.629   6.269   4.189  1.00  0.00     0.004 C 
ENDBRANCH  11  12
ENDBRANCH  10  11
ENDBRANCH   9  10
ENDBRANCH   8   9
ENDBRANCH   1   8
TORSDOF 9
ENDMDL
MODEL 5
REMARK VINA RESULT:    -2.971      2.074      4.606
REMARK INTER + INTRA:          -5.881
REMARK INTER:                  -4.861
REMARK INTRA:                  -1.020
REMARK UNBOUND:                -1.347
REMARK SMILES CCCCCCCCCCC(=O)[O-]
REMARK SMILES IDX 7 1 8 2 9 3 10 4 11 5 12 6 13 7 6 8 5 9 4 10 3 11 2 12 1 13
REMARK H PARENT
REMARK Flexibility Score: inf
ROOT
ATOM      1  C   UNL     1       4.817  10.122   0.243  1.00  0.00     0.000 C 
ENDROOT
BRANCH   1   2
ATOM      2  C   UNL     1       5.371  11.087   1.305  1.00  0.00     0.000 C 
BRANCH   2   3
ATOM      3  C   UNL     1       6.717  10.624   1.882  1.00  0.00     0.006 C 
BRANCH   3   4
ATOM      4  C   UNL     1       7.746  10.410   0.768  1.00  0.00     0.053 C 
BRANCH   4   5
ATOM      5  C   UNL     1       8.283   9.015   0.811  1.00  0.00     0.041 C 
ATOM      6  O   UNL     1       7.576   8.052   0.411  1.00  0.00    -0.550 OA
ATOM      7  O   UNL     1       9.581   8.782   1.245  1.00  0.00    -0.550 OA
ENDBRANCH   4   5
ENDBRANCH   3   4
ENDBRANCH   2   3
ENDBRANCH   1   2
BRANCH   1   8
ATOM      8  C   UNL     1       3.647   9.276   0.765  1.00  0.00     0.000 C 
BRANCH   8   9
ATOM      9  C   UNL     1       4.148   7.958   1.368  1.00  0.00    -0.000 C 
BRANCH   9  10
ATOM     10  C   UNL     1       3.653   7.792   2.814  1.00  0.00    -0.000 C 
BRANCH  10  11
ATOM     11  C   UNL     1       4.710   8.207   3.851  1.00  0.00    -0.000 C 
BRANCH  11  12
ATOM     12  C   UNL     1       6.103   7.640   3.535  1.00  0.00    -0.003 C 
ATOM     13  C   UNL     1       6.206   6.176   3.949  1.00  0.00     0.004 C 
ENDBRANCH  11  12
ENDBRANCH  10  11
ENDBRANCH   9  10
ENDBRANCH   8   9
ENDBRANCH   1   8
TORSDOF 9
ENDMDL
MODEL 6
REMARK VINA RESULT:    -2.845      2.515      4.521
REMARK INTER + INTRA:          -5.690
REMARK INTER:                  -4.305
REMARK INTRA:                  -1.385
REMARK UNBOUND:                -1.347
REMARK SMILES CCCCCCCCCCC(=O)[O-]
REMARK SMILES IDX 7 1 8 2 9 3 10 4 11 5 12 6 13 7 6 8 5 9 4 10 3 11 2 12 1 13
REMARK H PARENT
REMARK Flexibility Score: inf
ROOT
ATOM      1  C   UNL     1       3.448   9.395   1.689  1.00  0.00     0.000 C 
ENDROOT
BRANCH   1   2
ATOM      2  C   UNL     1       3.586   9.180   0.173  1.00  0.00     0.000 C 
BRANCH   2   3
ATOM      3  C   UNL     1       4.766   9.956  -0.431  1.00  0.00     0.006 C 
BRANCH   3   4
ATOM      4  C   UNL     1       5.512  10.745   0.649  1.00  0.00     0.053 C 
BRANCH   4   5
ATOM      5  C   UNL     1       6.943  10.942   0.261  1.00  0.00     0.041 C 
ATOM      6  O   UNL     1       7.864  10.484   0.987  1.00  0.00    -0.550 OA
ATOM      7  O   UNL     1       7.259  11.588  -0.927  1.00  0.00    -0.550 OA
ENDBRANCH   4   5
ENDBRANCH   3   4
ENDBRANCH   2   3
ENDBRANCH   1   2
BRANCH   1   8
ATOM      8  C   UNL     1       3.583   8.089   2.486  1.00  0.00     0.000 C 
BRANCH   8   9
ATOM      9  C   UNL     1       4.681   8.208   3.551  1.00  0.00    -0.000 C 
BRANCH   9  10
ATOM     10  C   UNL     1       6.059   7.870   2.961  1.00  0.00    -0.000 C 
BRANCH  10  11
ATOM     11  C   UNL     1       5.986   6.781   1.878  1.00  0.00    -0.000 C 
BRANCH  11  12
ATOM     12  C   UNL     1       6.799   7.139   0.624  1.00  0.00    -0.003 C 
ATOM     13  C   UNL     1       6.271   6.400  -0.601  1.00  0.00     0.004 C 
ENDBRANCH  11  12
ENDBRANCH  10  11
ENDBRANCH   9  10
ENDBRANCH   8   9
ENDBRANCH   1   8
TORSDOF 9
ENDMDL
MODEL 7
REMARK VINA RESULT:    -2.844      2.130      3.702
REMARK INTER + INTRA:          -5.688
REMARK INTER:                  -4.456
REMARK INTRA:                  -1.232
REMARK UNBOUND:                -1.347
REMARK SMILES CCCCCCCCCCC(=O)[O-]
REMARK SMILES IDX 7 1 8 2 9 3 10 4 11 5 12 6 13 7 6 8 5 9 4 10 3 11 2 12 1 13
REMARK H PARENT
REMARK Flexibility Score: inf
ROOT
ATOM      1  C   UNL     1       3.793   8.194   3.112  1.00  0.00     0.000 C 
ENDROOT
BRANCH   1   2
ATOM      2  C   UNL     1       5.146   8.284   3.837  1.00  0.00     0.000 C 
BRANCH   2   3
ATOM      3  C   UNL     1       6.326   7.879   2.940  1.00  0.00     0.006 C 
BRANCH   3   4
ATOM      4  C   UNL     1       5.902   6.815   1.924  1.00  0.00     0.053 C 
BRANCH   4   5
ATOM      5  C   UNL     1       6.512   7.094   0.587  1.00  0.00     0.041 C 
ATOM      6  O   UNL     1       6.205   6.387  -0.409  1.00  0.00    -0.550 OA
ATOM      7  O   UNL     1       7.383   8.165   0.429  1.00  0.00    -0.550 OA
ENDBRANCH   4   5
ENDBRANCH   3   4
ENDBRANCH   2   3
ENDBRANCH   1   2
BRANCH   1   8
ATOM      8  C   UNL     1       3.352   9.538   2.513  1.00  0.00     0.000 C 
BRANCH   8   9
ATOM      9  C   UNL     1       3.533   9.545   0.990  1.00  0.00    -0.000 C 
BRANCH   9  10
ATOM     10  C   UNL     1       4.683  10.477   0.577  1.00  0.00    -0.000 C 
BRANCH  10  11
ATOM     11  C   UNL     1       5.026  11.509   1.664  1.00  0.00    -0.000 C 
BRANCH  11  12
ATOM     12  C   UNL     1       6.519  11.514   2.024  1.00  0.00    -0.003 C 
ATOM     13  C   UNL     1       6.914  12.818   2.710  1.00  0.00     0.004 C 
ENDBRANCH  11  12
ENDBRANCH  10  11
ENDBRANCH   9  10
ENDBRANCH   8   9
ENDBRANCH   1   8
TORSDOF 9
ENDMDL
MODEL 8
REMARK VINA RESULT:    -2.780      2.668      4.862
REMARK INTER + INTRA:          -5.590
REMARK INTER:                  -4.228
REMARK INTRA:                  -1.362
REMARK UNBOUND:                -1.347
REMARK SMILES CCCCCCCCCCC(=O)[O-]
REMARK SMILES IDX 7 1 8 2 9 3 10 4 11 5 12 6 13 7 6 8 5 9 4 10 3 11 2 12 1 13
REMARK H PARENT
REMARK Flexibility Score: inf
ROOT
ATOM      1  C   UNL     1       4.293  10.343   0.145  1.00  0.00     0.000 C 
ENDROOT
BRANCH   1   2
ATOM      2  C   UNL     1       4.274  10.909   1.574  1.00  0.00     0.000 C 
BRANCH   2   3
ATOM      3  C   UNL     1       5.365  11.965   1.807  1.00  0.00     0.006 C 
BRANCH   3   4
ATOM      4  C   UNL     1       6.728  11.304   2.035  1.00  0.00     0.053 C 
BRANCH   4   5
ATOM      5  C   UNL     1       7.725  11.802   1.038  1.00  0.00     0.041 C 
ATOM      6  O   UNL     1       7.670  11.415  -0.160  1.00  0.00    -0.550 OA
ATOM      7  O   UNL     1       8.686  12.729   1.418  1.00  0.00    -0.550 OA
ENDBRANCH   4   5
ENDBRANCH   3   4
ENDBRANCH   2   3
ENDBRANCH   1   2
BRANCH   1   8
ATOM      8  C   UNL     1       4.490   8.820   0.114  1.00  0.00     0.000 C 
BRANCH   8   9
ATOM      9  C   UNL     1       5.902   8.460  -0.367  1.00  0.00    -0.000 C 
BRANCH   9  10
ATOM     10  C   UNL     1       6.740   7.873   0.779  1.00  0.00    -0.000 C 
BRANCH  10  11
ATOM     11  C   UNL     1       5.892   7.074   1.782  1.00  0.00    -0.000 C 
BRANCH  11  12
ATOM     12  C   UNL     1       6.134   7.505   3.237  1.00  0.00    -0.003 C 
ATOM     13  C   UNL     1       4.891   8.163   3.827  1.00  0.00     0.004 C 
ENDBRANCH  11  12
ENDBRANCH  10  11
ENDBRANCH   9  10
ENDBRANCH   8   9
ENDBRANCH   1   8
TORSDOF 9
ENDMDL
MODEL 9
REMARK VINA RESULT:    -2.775      2.427      4.480
REMARK INTER + INTRA:          -5.583
REMARK INTER:                  -4.258
REMARK INTRA:                  -1.325
REMARK UNBOUND:                -1.347
REMARK SMILES CCCCCCCCCCC(=O)[O-]
REMARK SMILES IDX 7 1 8 2 9 3 10 4 11 5 12 6 13 7 6 8 5 9 4 10 3 11 2 12 1 13
REMARK H PARENT
REMARK Flexibility Score: inf
ROOT
ATOM      1  C   UNL     1       8.094  10.187   0.841  1.00  0.00     0.000 C 
ENDROOT
BRANCH   1   2
ATOM      2  C   UNL     1       6.888  10.795   1.575  1.00  0.00     0.000 C 
BRANCH   2   3
ATOM      3  C   UNL     1       6.042  11.706   0.672  1.00  0.00     0.006 C 
BRANCH   3   4
ATOM      4  C   UNL     1       4.615  11.167   0.533  1.00  0.00     0.053 C 
BRANCH   4   5
ATOM      5  C   UNL     1       4.434  10.497  -0.792  1.00  0.00     0.041 C 
ATOM      6  O   UNL     1       3.338   9.945  -1.077  1.00  0.00    -0.550 OA
ATOM      7  O   UNL     1       5.457  10.523  -1.731  1.00  0.00    -0.550 OA
ENDBRANCH   4   5
ENDBRANCH   3   4
ENDBRANCH   2   3
ENDBRANCH   1   2
BRANCH   1   8
ATOM      8  C   UNL     1       8.144   8.656   0.954  1.00  0.00     0.000 C 
BRANCH   8   9
ATOM      9  C   UNL     1       6.891   8.018   0.339  1.00  0.00    -0.000 C 
BRANCH   9  10
ATOM     10  C   UNL     1       6.158   7.145   1.368  1.00  0.00    -0.000 C 
BRANCH  10  11
ATOM     11  C   UNL     1       4.750   7.671   1.694  1.00  0.00    -0.000 C 
BRANCH  11  12
ATOM     12  C   UNL     1       4.548   7.931   3.195  1.00  0.00    -0.003 C 
ATOM     13  C   UNL     1       5.885   8.141   3.900  1.00  0.00     0.004 C 
ENDBRANCH  11  12
ENDBRANCH  10  11
ENDBRANCH   9  10
ENDBRANCH   8   9
ENDBRANCH   1   8
TORSDOF 9
ENDMDL
