MODEL 1
REMARK VINA RESULT:    -3.648      0.000      0.000
REMARK INTER + INTRA:          -7.891
REMARK INTER:                  -6.206
REMARK INTRA:                  -1.685
REMARK UNBOUND:                -1.685
REMARK SMILES CCCCCCCCCCCCCC(=O)[O-]
REMARK SMILES IDX 8 1 9 2 10 3 11 4 12 5 13 6 14 7 15 8 16 9 7 10 6 11 5 12
REMARK SMILES IDX 4 13 3 14 2 15 1 16
REMARK H PARENT
REMARK Flexibility Score: inf
ROOT
ATOM      1  C   UNL     1       6.453  25.639 113.520  1.00  0.00     0.000 C 
ENDROOT
BRANCH   1   2
ATOM      2  C   UNL     1       7.214  24.711 112.555  1.00  0.00     0.000 C 
BRANCH   2   3
ATOM      3  C   UNL     1       8.173  25.475 111.624  1.00  0.00     0.000 C 
BRANCH   3   4
ATOM      4  C   UNL     1       7.496  26.670 110.932  1.00  0.00     0.000 C 
BRANCH   4   5
ATOM      5  C   UNL     1       6.794  26.278 109.624  1.00  0.00     0.006 C 
BRANCH   5   6
ATOM      6  C   UNL     1       7.583  25.192 108.885  1.00  0.00     0.053 C 
BRANCH   6   7
ATOM      7  C   UNL     1       8.305  25.776 107.711  1.00  0.00     0.041 C 
ATOM      8  O   UNL     1       9.561  25.854 107.714  1.00  0.00    -0.550 OA
ATOM      9  O   UNL     1       7.586  26.279 106.634  1.00  0.00    -0.550 OA
ENDBRANCH   6   7
ENDBRANCH   5   6
ENDBRANCH   4   5
ENDBRANCH   3   4
ENDBRANCH   2   3
ENDBRANCH   1   2
BRANCH   1  10
ATOM     10  C   UNL     1       4.959  25.306 113.711  1.00  0.00     0.000 C 
BRANCH  10  11
ATOM     11  C   UNL     1       4.311  24.523 112.556  1.00  0.00    -0.000 C 
BRANCH  11  12
ATOM     12  C   UNL     1       3.039  25.194 112.018  1.00  0.00    -0.000 C 
BRANCH  12  13
ATOM     13  C   UNL     1       3.309  25.887 110.677  1.00  0.00    -0.000 C 
BRANCH  13  14
ATOM     14  C   UNL     1       2.676  27.282 110.643  1.00  0.00    -0.000 C 
BRANCH  14  15
ATOM     15  C   UNL     1       2.829  27.989 111.995  1.00  0.00    -0.003 C 
ATOM     16  C   UNL     1       4.236  28.553 112.167  1.00  0.00     0.004 C 
ENDBRANCH  14  15
ENDBRANCH  13  14
ENDBRANCH  12  13
ENDBRANCH  11  12
ENDBRANCH  10  11
ENDBRANCH   1  10
TORSDOF 12
ENDMDL
MODEL 2
REMARK VINA RESULT:    -3.619      2.387      3.557
REMARK INTER + INTRA:          -7.842
REMARK INTER:                  -6.831
REMARK INTRA:                  -1.011
REMARK UNBOUND:                -1.685
REMARK SMILES CCCCCCCCCCCCCC(=O)[O-]
REMARK SMILES IDX 8 1 9 2 10 3 11 4 12 5 13 6 14 7 15 8 16 9 7 10 6 11 5 12
REMARK SMILES IDX 4 13 3 14 2 15 1 16
REMARK H PARENT
REMARK Flexibility Score: inf
ROOT
ATOM      1  C   UNL     1       4.467  24.977 112.295  1.00  0.00     0.000 C 
ENDROOT
BRANCH   1   2
ATOM      2  C   UNL     1       5.721  25.834 112.553  1.00  0.00     0.000 C 
BRANCH   2   3
ATOM      3  C   UNL     1       6.985  24.988 112.781  1.00  0.00     0.000 C 
BRANCH   3   4
ATOM      4  C   UNL     1       8.039  25.193 111.680  1.00  0.00     0.000 C 
BRANCH   4   5
ATOM      5  C   UNL     1       7.494  24.894 110.275  1.00  0.00     0.006 C 
BRANCH   5   6
ATOM      6  C   UNL     1       7.958  25.955 109.272  1.00  0.00     0.053 C 
BRANCH   6   7
ATOM      7  C   UNL     1       6.871  26.258 108.289  1.00  0.00     0.041 C 
ATOM      8  O   UNL     1       5.798  26.790 108.675  1.00  0.00    -0.550 OA
ATOM      9  O   UNL     1       7.026  25.907 106.954  1.00  0.00    -0.550 OA
ENDBRANCH   6   7
ENDBRANCH   5   6
ENDBRANCH   4   5
ENDBRANCH   3   4
ENDBRANCH   2   3
ENDBRANCH   1   2
BRANCH   1  10
ATOM     10  C   UNL     1       4.606  23.484 112.655  1.00  0.00     0.000 C 
BRANCH  10  11
ATOM     11  C   UNL     1       3.978  23.074 113.999  1.00  0.00    -0.000 C 
BRANCH  11  12
ATOM     12  C   UNL     1       3.443  21.635 113.995  1.00  0.00    -0.000 C 
BRANCH  12  13
ATOM     13  C   UNL     1       1.915  21.618 113.862  1.00  0.00    -0.000 C 
BRANCH  13  14
ATOM     14  C   UNL     1       1.262  22.514 114.920  1.00  0.00    -0.000 C 
BRANCH  14  15
ATOM     15  C   UNL     1       0.136  23.356 114.307  1.00  0.00    -0.003 C 
ATOM     16  C   UNL     1       0.692  24.400 113.342  1.00  0.00     0.004 C 
ENDBRANCH  14  15
ENDBRANCH  13  14
ENDBRANCH  12  13
ENDBRANCH  11  12
ENDBRANCH  10  11
ENDBRANCH   1  10
TORSDOF 12
ENDMDL
MODEL 3
REMARK VINA RESULT:    -3.616      1.386      2.140
REMARK INTER + INTRA:          -7.838
REMARK INTER:                  -6.789
REMARK INTRA:                  -1.048
REMARK UNBOUND:                -1.685
REMARK SMILES CCCCCCCCCCCCCC(=O)[O-]
REMARK SMILES IDX 8 1 9 2 10 3 11 4 12 5 13 6 14 7 15 8 16 9 7 10 6 11 5 12
REMARK SMILES IDX 4 13 3 14 2 15 1 16
REMARK H PARENT
REMARK Flexibility Score: inf
ROOT
ATOM      1  C   UNL     1       4.787  24.077 112.298  1.00  0.00     0.000 C 
ENDROOT
BRANCH   1   2
ATOM      2  C   UNL     1       6.192  24.585 112.671  1.00  0.00     0.000 C 
BRANCH   2   3
ATOM      3  C   UNL     1       7.182  24.517 111.496  1.00  0.00     0.000 C 
BRANCH   3   4
ATOM      4  C   UNL     1       7.899  25.855 111.250  1.00  0.00     0.000 C 
BRANCH   4   5
ATOM      5  C   UNL     1       7.446  26.540 109.952  1.00  0.00     0.006 C 
BRANCH   5   6
ATOM      6  C   UNL     1       7.630  25.610 108.749  1.00  0.00     0.053 C 
BRANCH   6   7
ATOM      7  C   UNL     1       6.972  26.185 107.535  1.00  0.00     0.041 C 
ATOM      8  O   UNL     1       5.980  26.950 107.653  1.00  0.00    -0.550 OA
ATOM      9  O   UNL     1       7.426  25.836 106.268  1.00  0.00    -0.550 OA
ENDBRANCH   6   7
ENDBRANCH   5   6
ENDBRANCH   4   5
ENDBRANCH   3   4
ENDBRANCH   2   3
ENDBRANCH   1   2
BRANCH   1  10
ATOM     10  C   UNL     1       3.674  25.144 112.323  1.00  0.00     0.000 C 
BRANCH  10  11
ATOM     11  C   UNL     1       3.106  25.529 110.945  1.00  0.00    -0.000 C 
BRANCH  11  12
ATOM     12  C   UNL     1       3.828  26.728 110.315  1.00  0.00    -0.000 C 
BRANCH  12  13
ATOM     13  C   UNL     1       3.356  28.045 110.943  1.00  0.00    -0.000 C 
BRANCH  13  14
ATOM     14  C   UNL     1       1.828  28.084 111.054  1.00  0.00    -0.000 C 
BRANCH  14  15
ATOM     15  C   UNL     1       1.361  29.368 111.751  1.00  0.00    -0.003 C 
ATOM     16  C   UNL     1      -0.072  29.717 111.359  1.00  0.00     0.004 C 
ENDBRANCH  14  15
ENDBRANCH  13  14
ENDBRANCH  12  13
ENDBRANCH  11  12
ENDBRANCH  10  11
ENDBRANCH   1  10
TORSDOF 12
ENDMDL
MODEL 4
REMARK VINA RESULT:    -3.524      2.930      4.880
REMARK INTER + INTRA:          -7.681
REMARK INTER:                  -5.918
REMARK INTRA:                  -1.763
REMARK UNBOUND:                -1.685
REMARK SMILES CCCCCCCCCCCCCC(=O)[O-]
REMARK SMILES IDX 8 1 9 2 10 3 11 4 12 5 13 6 14 7 15 8 16 9 7 10 6 11 5 12
REMARK SMILES IDX 4 13 3 14 2 15 1 16
REMARK H PARENT
REMARK Flexibility Score: inf
ROOT
ATOM      1  C   UNL     1       0.478  25.341 113.985  1.00  0.00     0.000 C 
ENDROOT
BRANCH   1   2
ATOM      2  C   UNL     1       1.418  26.242 113.163  1.00  0.00     0.000 C 
BRANCH   2   3
ATOM      3  C   UNL     1       2.311  25.447 112.195  1.00  0.00     0.000 C 
BRANCH   3   4
ATOM      4  C   UNL     1       3.693  26.092 112.004  1.00  0.00     0.000 C 
BRANCH   4   5
ATOM      5  C   UNL     1       4.749  25.096 111.503  1.00  0.00     0.006 C 
BRANCH   5   6
ATOM      6  C   UNL     1       6.163  25.594 111.816  1.00  0.00     0.053 C 
BRANCH   6   7
ATOM      7  C   UNL     1       6.589  26.624 110.817  1.00  0.00     0.041 C 
ATOM      8  O   UNL     1       7.440  27.497 111.130  1.00  0.00    -0.550 OA
ATOM      9  O   UNL     1       6.009  26.649 109.555  1.00  0.00    -0.550 OA
ENDBRANCH   6   7
ENDBRANCH   5   6
ENDBRANCH   4   5
ENDBRANCH   3   4
ENDBRANCH   2   3
ENDBRANCH   1   2
BRANCH   1  10
ATOM     10  C   UNL     1       0.449  23.859 113.559  1.00  0.00     0.000 C 
BRANCH  10  11
ATOM     11  C   UNL     1       0.194  22.856 114.699  1.00  0.00    -0.000 C 
BRANCH  11  12
ATOM     12  C   UNL     1       1.394  21.934 114.963  1.00  0.00    -0.000 C 
BRANCH  12  13
ATOM     13  C   UNL     1       2.260  21.788 113.706  1.00  0.00    -0.000 C 
BRANCH  13  14
ATOM     14  C   UNL     1       3.666  22.352 113.938  1.00  0.00    -0.000 C 
BRANCH  14  15
ATOM     15  C   UNL     1       3.766  23.031 115.309  1.00  0.00    -0.003 C 
ATOM     16  C   UNL     1       4.430  24.400 115.199  1.00  0.00     0.004 C 
ENDBRANCH  14  15
ENDBRANCH  13  14
ENDBRANCH  12  13
ENDBRANCH  11  12
ENDBRANCH  10  11
ENDBRANCH   1  10
TORSDOF 12
ENDMDL
MODEL 5
REMARK VINA RESULT:    -3.520      3.041      5.551
REMARK INTER + INTRA:          -7.675
REMARK INTER:                  -6.448
REMARK INTRA:                  -1.227
REMARK UNBOUND:                -1.685
REMARK SMILES CCCCCCCCCCCCCC(=O)[O-]
REMARK SMILES IDX 8 1 9 2 10 3 11 4 12 5 13 6 14 7 15 8 16 9 7 10 6 11 5 12
REMARK SMILES IDX 4 13 3 14 2 15 1 16
REMARK H PARENT
REMARK Flexibility Score: inf
ROOT
ATOM      1  C   UNL     1       5.710  24.015 111.916  1.00  0.00     0.000 C 
ENDROOT
BRANCH   1   2
ATOM      2  C   UNL     1       4.368  23.867 112.657  1.00  0.00     0.000 C 
BRANCH   2   3
ATOM      3  C   UNL     1       3.746  25.221 113.042  1.00  0.00     0.000 C 
BRANCH   3   4
ATOM      4  C   UNL     1       2.378  25.452 112.379  1.00  0.00     0.000 C 
BRANCH   4   5
ATOM      5  C   UNL     1       2.336  26.735 111.537  1.00  0.00     0.006 C 
BRANCH   5   6
ATOM      6  C   UNL     1       3.603  27.570 111.749  1.00  0.00     0.053 C 
BRANCH   6   7
ATOM      7  C   UNL     1       3.252  28.947 112.216  1.00  0.00     0.041 C 
ATOM      8  O   UNL     1       2.086  29.394 112.055  1.00  0.00    -0.550 OA
ATOM      9  O   UNL     1       4.227  29.758 112.784  1.00  0.00    -0.550 OA
ENDBRANCH   6   7
ENDBRANCH   5   6
ENDBRANCH   4   5
ENDBRANCH   3   4
ENDBRANCH   2   3
ENDBRANCH   1   2
BRANCH   1  10
ATOM     10  C   UNL     1       6.702  25.014 112.545  1.00  0.00     0.000 C 
BRANCH  10  11
ATOM     11  C   UNL     1       7.118  26.183 111.634  1.00  0.00    -0.000 C 
BRANCH  11  12
ATOM     12  C   UNL     1       8.318  25.844 110.739  1.00  0.00    -0.000 C 
BRANCH  12  13
ATOM     13  C   UNL     1       7.872  25.604 109.291  1.00  0.00    -0.000 C 
BRANCH  13  14
ATOM     14  C   UNL     1       6.531  26.289 109.008  1.00  0.00    -0.000 C 
BRANCH  14  15
ATOM     15  C   UNL     1       6.401  26.651 107.524  1.00  0.00    -0.003 C 
ATOM     16  C   UNL     1       7.320  25.788 106.664  1.00  0.00     0.004 C 
ENDBRANCH  14  15
ENDBRANCH  13  14
ENDBRANCH  12  13
ENDBRANCH  11  12
ENDBRANCH  10  11
ENDBRANCH   1  10
TORSDOF 12
ENDMDL
MODEL 6
REMARK VINA RESULT:    -3.518      2.653      4.103
REMARK INTER + INTRA:          -7.670
REMARK INTER:                  -6.149
REMARK INTRA:                  -1.522
REMARK UNBOUND:                -1.685
REMARK SMILES CCCCCCCCCCCCCC(=O)[O-]
REMARK SMILES IDX 8 1 9 2 10 3 11 4 12 5 13 6 14 7 15 8 16 9 7 10 6 11 5 12
REMARK SMILES IDX 4 13 3 14 2 15 1 16
REMARK H PARENT
REMARK Flexibility Score: inf
ROOT
ATOM      1  C   UNL     1       4.014  26.315 113.084  1.00  0.00     0.000 C 
ENDROOT
BRANCH   1   2
ATOM      2  C   UNL     1       4.168  25.481 111.798  1.00  0.00     0.000 C 
BRANCH   2   3
ATOM      3  C   UNL     1       4.760  24.085 112.060  1.00  0.00     0.000 C 
BRANCH   3   4
ATOM      4  C   UNL     1       6.172  23.924 111.473  1.00  0.00     0.000 C 
BRANCH   4   5
ATOM      5  C   UNL     1       7.223  24.762 112.217  1.00  0.00     0.006 C 
BRANCH   5   6
ATOM      6  C   UNL     1       8.058  25.588 111.233  1.00  0.00     0.053 C 
BRANCH   6   7
ATOM      7  C   UNL     1       7.289  26.783 110.765  1.00  0.00     0.041 C 
ATOM      8  O   UNL     1       7.001  27.707 111.569  1.00  0.00    -0.550 OA
ATOM      9  O   UNL     1       6.848  26.852 109.449  1.00  0.00    -0.550 OA
ENDBRANCH   6   7
ENDBRANCH   5   6
ENDBRANCH   4   5
ENDBRANCH   3   4
ENDBRANCH   2   3
ENDBRANCH   1   2
BRANCH   1  10
ATOM     10  C   UNL     1       3.777  25.500 114.372  1.00  0.00     0.000 C 
BRANCH  10  11
ATOM     11  C   UNL     1       2.482  25.840 115.131  1.00  0.00    -0.000 C 
BRANCH  11  12
ATOM     12  C   UNL     1       1.228  25.736 114.251  1.00  0.00    -0.000 C 
BRANCH  12  13
ATOM     13  C   UNL     1       0.507  24.402 114.479  1.00  0.00    -0.000 C 
BRANCH  13  14
ATOM     14  C   UNL     1       1.056  23.313 113.550  1.00  0.00    -0.000 C 
BRANCH  14  15
ATOM     15  C   UNL     1       1.482  22.074 114.347  1.00  0.00    -0.003 C 
ATOM     16  C   UNL     1       2.886  21.623 113.954  1.00  0.00     0.004 C 
ENDBRANCH  14  15
ENDBRANCH  13  14
ENDBRANCH  12  13
ENDBRANCH  11  12
ENDBRANCH  10  11
ENDBRANCH   1  10
TORSDOF 12
ENDMDL
MODEL 7
REMARK VINA RESULT:    -3.514      1.439      2.894
REMARK INTER + INTRA:          -7.664
REMARK INTER:                  -5.825
REMARK INTRA:                  -1.839
REMARK UNBOUND:                -1.685
REMARK SMILES CCCCCCCCCCCCCC(=O)[O-]
REMARK SMILES IDX 8 1 9 2 10 3 11 4 12 5 13 6 14 7 15 8 16 9 7 10 6 11 5 12
REMARK SMILES IDX 4 13 3 14 2 15 1 16
REMARK H PARENT
REMARK Flexibility Score: inf
ROOT
ATOM      1  C   UNL     1       3.757  25.280 111.938  1.00  0.00     0.000 C 
ENDROOT
BRANCH   1   2
ATOM      2  C   UNL     1       5.051  24.534 111.562  1.00  0.00     0.000 C 
BRANCH   2   3
ATOM      3  C   UNL     1       6.065  24.481 112.718  1.00  0.00     0.000 C 
BRANCH   3   4
ATOM      4  C   UNL     1       7.426  25.086 112.337  1.00  0.00     0.000 C 
BRANCH   4   5
ATOM      5  C   UNL     1       7.295  26.308 111.416  1.00  0.00     0.006 C 
BRANCH   5   6
ATOM      6  C   UNL     1       8.187  26.159 110.180  1.00  0.00     0.053 C 
BRANCH   6   7
ATOM      7  C   UNL     1       7.353  26.039 108.943  1.00  0.00     0.041 C 
ATOM      8  O   UNL     1       7.780  25.395 107.950  1.00  0.00    -0.550 OA
ATOM      9  O   UNL     1       6.124  26.682 108.870  1.00  0.00    -0.550 OA
ENDBRANCH   6   7
ENDBRANCH   5   6
ENDBRANCH   4   5
ENDBRANCH   3   4
ENDBRANCH   2   3
ENDBRANCH   1   2
BRANCH   1  10
ATOM     10  C   UNL     1       3.001  25.921 110.756  1.00  0.00     0.000 C 
BRANCH  10  11
ATOM     11  C   UNL     1       3.170  27.445 110.623  1.00  0.00    -0.000 C 
BRANCH  11  12
ATOM     12  C   UNL     1       4.073  28.043 111.711  1.00  0.00    -0.000 C 
BRANCH  12  13
ATOM     13  C   UNL     1       3.240  28.734 112.798  1.00  0.00    -0.000 C 
BRANCH  13  14
ATOM     14  C   UNL     1       3.803  28.440 114.192  1.00  0.00    -0.000 C 
BRANCH  14  15
ATOM     15  C   UNL     1       5.264  27.981 114.109  1.00  0.00    -0.003 C 
ATOM     16  C   UNL     1       5.589  26.976 115.211  1.00  0.00     0.004 C 
ENDBRANCH  14  15
ENDBRANCH  13  14
ENDBRANCH  12  13
ENDBRANCH  11  12
ENDBRANCH  10  11
ENDBRANCH   1  10
TORSDOF 12
ENDMDL
MODEL 8
REMARK VINA RESULT:    -3.477      2.399      3.991
REMARK INTER + INTRA:          -7.602
REMARK INTER:                  -5.475
REMARK INTRA:                  -2.127
REMARK UNBOUND:                -1.685
REMARK SMILES CCCCCCCCCCCCCC(=O)[O-]
REMARK SMILES IDX 8 1 9 2 10 3 11 4 12 5 13 6 14 7 15 8 16 9 7 10 6 11 5 12
REMARK SMILES IDX 4 13 3 14 2 15 1 16
REMARK H PARENT
REMARK Flexibility Score: inf
ROOT
ATOM      1  C   UNL     1       1.945  26.708 113.434  1.00  0.00     0.000 C 
ENDROOT
BRANCH   1   2
ATOM      2  C   UNL     1       2.240  25.897 112.159  1.00  0.00     0.000 C 
BRANCH   2   3
ATOM      3  C   UNL     1       3.636  25.251 112.172  1.00  0.00     0.000 C 
BRANCH   3   4
ATOM      4  C   UNL     1       4.494  25.674 110.969  1.00  0.00     0.000 C 
BRANCH   4   5
ATOM      5  C   UNL     1       5.521  26.759 111.325  1.00  0.00     0.006 C 
BRANCH   5   6
ATOM      6  C   UNL     1       6.457  26.281 112.439  1.00  0.00     0.053 C 
BRANCH   6   7
ATOM      7  C   UNL     1       7.513  25.377 111.886  1.00  0.00     0.041 C 
ATOM      8  O   UNL     1       8.552  25.859 111.366  1.00  0.00    -0.550 OA
ATOM      9  O   UNL     1       7.325  24.000 111.902  1.00  0.00    -0.550 OA
ENDBRANCH   6   7
ENDBRANCH   5   6
ENDBRANCH   4   5
ENDBRANCH   3   4
ENDBRANCH   2   3
ENDBRANCH   1   2
BRANCH   1  10
ATOM     10  C   UNL     1       3.134  26.864 114.405  1.00  0.00     0.000 C 
BRANCH  10  11
ATOM     11  C   UNL     1       3.824  28.239 114.377  1.00  0.00    -0.000 C 
BRANCH  11  12
ATOM     12  C   UNL     1       2.995  29.309 113.651  1.00  0.00    -0.000 C 
BRANCH  12  13
ATOM     13  C   UNL     1       3.828  30.008 112.570  1.00  0.00    -0.000 C 
BRANCH  13  14
ATOM     14  C   UNL     1       2.961  30.375 111.360  1.00  0.00    -0.000 C 
BRANCH  14  15
ATOM     15  C   UNL     1       2.634  29.132 110.522  1.00  0.00    -0.003 C 
ATOM     16  C   UNL     1       1.126  28.949 110.375  1.00  0.00     0.004 C 
ENDBRANCH  14  15
ENDBRANCH  13  14
ENDBRANCH  12  13
ENDBRANCH  11  12
ENDBRANCH  10  11
ENDBRANCH   1  10
TORSDOF 12
ENDMDL
MODEL 9
REMARK VINA RESULT:    -3.473      3.264      4.785
REMARK INTER + INTRA:          -7.594
REMARK INTER:                  -5.737
REMARK INTRA:                  -1.857
REMARK UNBOUND:                -1.685
REMARK SMILES CCCCCCCCCCCCCC(=O)[O-]
REMARK SMILES IDX 8 1 9 2 10 3 11 4 12 5 13 6 14 7 15 8 16 9 7 10 6 11 5 12
REMARK SMILES IDX 4 13 3 14 2 15 1 16
REMARK H PARENT
REMARK Flexibility Score: inf
ROOT
ATOM      1  C   UNL     1       4.157  23.860 115.139  1.00  0.00     0.000 C 
ENDROOT
BRANCH   1   2
ATOM      2  C   UNL     1       4.883  23.668 113.794  1.00  0.00     0.000 C 
BRANCH   2   3
ATOM      3  C   UNL     1       4.274  24.511 112.661  1.00  0.00     0.000 C 
BRANCH   3   4
ATOM      4  C   UNL     1       3.319  25.598 113.182  1.00  0.00     0.000 C 
BRANCH   4   5
ATOM      5  C   UNL     1       2.558  26.310 112.054  1.00  0.00     0.006 C 
BRANCH   5   6
ATOM      6  C   UNL     1       3.092  25.886 110.682  1.00  0.00     0.053 C 
BRANCH   6   7
ATOM      7  C   UNL     1       3.828  27.015 110.033  1.00  0.00     0.041 C 
ATOM      8  O   UNL     1       3.324  28.168 110.004  1.00  0.00    -0.550 OA
ATOM      9  O   UNL     1       5.052  26.783 109.416  1.00  0.00    -0.550 OA
ENDBRANCH   6   7
ENDBRANCH   5   6
ENDBRANCH   4   5
ENDBRANCH   3   4
ENDBRANCH   2   3
ENDBRANCH   1   2
BRANCH   1  10
ATOM     10  C   UNL     1       3.341  22.645 115.626  1.00  0.00     0.000 C 
BRANCH  10  11
ATOM     11  C   UNL     1       3.162  21.521 114.590  1.00  0.00    -0.000 C 
BRANCH  11  12
ATOM     12  C   UNL     1       1.849  21.636 113.804  1.00  0.00    -0.000 C 
BRANCH  12  13
ATOM     13  C   UNL     1       0.842  22.524 114.545  1.00  0.00    -0.000 C 
BRANCH  13  14
ATOM     14  C   UNL     1       0.339  23.657 113.643  1.00  0.00    -0.000 C 
BRANCH  14  15
ATOM     15  C   UNL     1      -0.303  24.776 114.473  1.00  0.00    -0.003 C 
ATOM     16  C   UNL     1       0.603  25.197 115.626  1.00  0.00     0.004 C 
ENDBRANCH  14  15
ENDBRANCH  13  14
ENDBRANCH  12  13
ENDBRANCH  11  12
ENDBRANCH  10  11
ENDBRANCH   1  10
TORSDOF 12
ENDMDL
