MODEL 1
REMARK VINA RESULT:    -5.056      0.000      0.000
REMARK INTER + INTRA:          -5.791
REMARK INTER:                  -5.647
REMARK INTRA:                  -0.145
REMARK UNBOUND:                -0.145
REMARK SMILES O=C([O-])C=Cc1ccccc1
REMARK SMILES IDX 4 1 5 2 2 3 1 4 3 5 6 6 7 7 11 8 8 9 10 10 9 11
REMARK H PARENT
REMARK Flexibility Score: inf
ROOT
ATOM      1  C   UNL     1       4.992  10.565   7.438  1.00  0.00     0.025 C 
ATOM      2  C   UNL     1       5.198  10.898   6.154  1.00  0.00     0.010 C 
ENDROOT
BRANCH   1   3
ATOM      3  C   UNL     1       3.660  10.206   7.951  1.00  0.00     0.064 C 
ATOM      4  O   UNL     1       2.642  10.246   7.209  1.00  0.00    -0.545 OA
ATOM      5  O   UNL     1       3.522   9.818   9.277  1.00  0.00    -0.545 OA
ENDBRANCH   1   3
BRANCH   2   6
ATOM      6  C   UNL     1       6.516  11.269   5.573  1.00  0.00    -0.026 A 
ATOM      7  C   UNL     1       7.679  10.788   6.203  1.00  0.00     0.008 A 
ATOM      8  C   UNL     1       6.658  12.078   4.423  1.00  0.00     0.008 A 
ATOM      9  C   UNL     1       8.946  11.103   5.703  1.00  0.00     0.001 A 
ATOM     10  C   UNL     1       7.929  12.390   3.929  1.00  0.00     0.001 A 
ATOM     11  C   UNL     1       9.070  11.904   4.567  1.00  0.00     0.000 A 
ENDBRANCH   2   6
TORSDOF 2
ENDMDL
MODEL 2
REMARK VINA RESULT:    -5.007      1.971      2.986
REMARK INTER + INTRA:          -5.737
REMARK INTER:                  -5.605
REMARK INTRA:                  -0.132
REMARK UNBOUND:                -0.145
REMARK SMILES O=C([O-])C=Cc1ccccc1
REMARK SMILES IDX 4 1 5 2 2 3 1 4 3 5 6 6 7 7 11 8 8 9 10 10 9 11
REMARK H PARENT
REMARK Flexibility Score: inf
ROOT
ATOM      1  C   UNL     1       2.692  11.235   8.816  1.00  0.00     0.025 C 
ATOM      2  C   UNL     1       3.976  10.871   8.672  1.00  0.00     0.010 C 
ENDROOT
BRANCH   1   3
ATOM      3  C   UNL     1       1.904  10.876  10.006  1.00  0.00     0.064 C 
ATOM      4  O   UNL     1       0.923  11.575  10.376  1.00  0.00    -0.545 OA
ATOM      5  O   UNL     1       2.249   9.746  10.737  1.00  0.00    -0.545 OA
ENDBRANCH   1   3
BRANCH   2   6
ATOM      6  C   UNL     1       4.826  11.201   7.497  1.00  0.00    -0.026 A 
ATOM      7  C   UNL     1       4.513  10.604   6.261  1.00  0.00     0.008 A 
ATOM      8  C   UNL     1       5.929  12.082   7.559  1.00  0.00     0.008 A 
ATOM      9  C   UNL     1       5.276  10.876   5.122  1.00  0.00     0.001 A 
ATOM     10  C   UNL     1       6.688  12.349   6.415  1.00  0.00     0.001 A 
ATOM     11  C   UNL     1       6.362  11.748   5.199  1.00  0.00     0.000 A 
ENDBRANCH   2   6
TORSDOF 2
ENDMDL
MODEL 3
REMARK VINA RESULT:    -4.977      0.499      1.534
REMARK INTER + INTRA:          -5.704
REMARK INTER:                  -5.575
REMARK INTRA:                  -0.129
REMARK UNBOUND:                -0.145
REMARK SMILES O=C([O-])C=Cc1ccccc1
REMARK SMILES IDX 4 1 5 2 2 3 1 4 3 5 6 6 7 7 11 8 8 9 10 10 9 11
REMARK H PARENT
REMARK Flexibility Score: inf
ROOT
ATOM      1  C   UNL     1       4.915  11.103   7.805  1.00  0.00     0.025 C 
ATOM      2  C   UNL     1       5.230  10.768   6.545  1.00  0.00     0.010 C 
ENDROOT
BRANCH   1   3
ATOM      3  C   UNL     1       3.634  10.718   8.422  1.00  0.00     0.064 C 
ATOM      4  O   UNL     1       2.604  10.524   7.722  1.00  0.00    -0.545 OA
ATOM      5  O   UNL     1       3.559  10.566   9.800  1.00  0.00    -0.545 OA
ENDBRANCH   1   3
BRANCH   2   6
ATOM      6  C   UNL     1       6.504  11.124   5.864  1.00  0.00    -0.026 A 
ATOM      7  C   UNL     1       6.436  11.902   4.693  1.00  0.00     0.008 A 
ATOM      8  C   UNL     1       7.775  10.721   6.333  1.00  0.00     0.008 A 
ATOM      9  C   UNL     1       7.600  12.268   4.010  1.00  0.00     0.001 A 
ATOM     10  C   UNL     1       8.934  11.091   5.644  1.00  0.00     0.001 A 
ATOM     11  C   UNL     1       8.847  11.862   4.485  1.00  0.00     0.000 A 
ENDBRANCH   2   6
TORSDOF 2
ENDMDL
MODEL 4
REMARK VINA RESULT:    -4.961      0.891      1.985
REMARK INTER + INTRA:          -5.685
REMARK INTER:                  -5.557
REMARK INTRA:                  -0.129
REMARK UNBOUND:                -0.145
REMARK SMILES O=C([O-])C=Cc1ccccc1
REMARK SMILES IDX 4 1 5 2 2 3 1 4 3 5 6 6 7 7 11 8 8 9 10 10 9 11
REMARK H PARENT
REMARK Flexibility Score: inf
ROOT
ATOM      1  C   UNL     1       4.554  11.235   8.124  1.00  0.00     0.025 C 
ATOM      2  C   UNL     1       5.203  10.432   7.266  1.00  0.00     0.010 C 
ENDROOT
BRANCH   1   3
ATOM      3  C   UNL     1       3.471  10.743   8.992  1.00  0.00     0.064 C 
ATOM      4  O   UNL     1       3.720  10.184  10.093  1.00  0.00    -0.545 OA
ATOM      5  O   UNL     1       2.151  10.898   8.590  1.00  0.00    -0.545 OA
ENDBRANCH   1   3
BRANCH   2   6
ATOM      6  C   UNL     1       6.304  10.864   6.364  1.00  0.00    -0.026 A 
ATOM      7  C   UNL     1       5.966  11.586   5.204  1.00  0.00     0.008 A 
ATOM      8  C   UNL     1       7.667  10.586   6.613  1.00  0.00     0.008 A 
ATOM      9  C   UNL     1       6.958  12.019   4.318  1.00  0.00     0.001 A 
ATOM     10  C   UNL     1       8.652  11.022   5.721  1.00  0.00     0.001 A 
ATOM     11  C   UNL     1       8.299  11.737   4.577  1.00  0.00     0.000 A 
ENDBRANCH   2   6
TORSDOF 2
ENDMDL
MODEL 5
REMARK VINA RESULT:    -4.888      3.095      6.133
REMARK INTER + INTRA:          -5.604
REMARK INTER:                  -5.475
REMARK INTRA:                  -0.129
REMARK UNBOUND:                -0.145
REMARK SMILES O=C([O-])C=Cc1ccccc1
REMARK SMILES IDX 4 1 5 2 2 3 1 4 3 5 6 6 7 7 11 8 8 9 10 10 9 11
REMARK H PARENT
REMARK Flexibility Score: inf
ROOT
ATOM      1  C   UNL     1       5.598  11.058   7.555  1.00  0.00     0.025 C 
ATOM      2  C   UNL     1       5.197  11.611   8.710  1.00  0.00     0.010 C 
ENDROOT
BRANCH   1   3
ATOM      3  C   UNL     1       7.017  10.998   7.165  1.00  0.00     0.064 C 
ATOM      4  O   UNL     1       7.928  11.362   7.956  1.00  0.00    -0.545 OA
ATOM      5  O   UNL     1       7.358  10.533   5.902  1.00  0.00    -0.545 OA
ENDBRANCH   1   3
BRANCH   2   6
ATOM      6  C   UNL     1       3.783  11.703   9.163  1.00  0.00    -0.026 A 
ATOM      7  C   UNL     1       3.175  12.971   9.185  1.00  0.00     0.008 A 
ATOM      8  C   UNL     1       3.024  10.583   9.570  1.00  0.00     0.008 A 
ATOM      9  C   UNL     1       1.848  13.120   9.601  1.00  0.00     0.001 A 
ATOM     10  C   UNL     1       1.698  10.740   9.985  1.00  0.00     0.001 A 
ATOM     11  C   UNL     1       1.111  12.005  10.001  1.00  0.00     0.000 A 
ENDBRANCH   2   6
TORSDOF 2
ENDMDL
MODEL 6
REMARK VINA RESULT:    -4.702      1.725      2.235
REMARK INTER + INTRA:          -5.397
REMARK INTER:                  -5.258
REMARK INTRA:                  -0.139
REMARK UNBOUND:                -0.145
REMARK SMILES O=C([O-])C=Cc1ccccc1
REMARK SMILES IDX 4 1 5 2 2 3 1 4 3 5 6 6 7 7 11 8 8 9 10 10 9 11
REMARK H PARENT
REMARK Flexibility Score: inf
ROOT
ATOM      1  C   UNL     1       4.110  11.723   8.871  1.00  0.00     0.025 C 
ATOM      2  C   UNL     1       4.444  11.020   7.777  1.00  0.00     0.010 C 
ENDROOT
BRANCH   1   3
ATOM      3  C   UNL     1       2.741  11.730   9.411  1.00  0.00     0.064 C 
ATOM      4  O   UNL     1       2.209  10.678   9.858  1.00  0.00    -0.545 OA
ATOM      5  O   UNL     1       2.020  12.917   9.427  1.00  0.00    -0.545 OA
ENDBRANCH   1   3
BRANCH   2   6
ATOM      6  C   UNL     1       5.807  10.969   7.182  1.00  0.00    -0.026 A 
ATOM      7  C   UNL     1       6.909  10.887   8.053  1.00  0.00     0.008 A 
ATOM      8  C   UNL     1       6.048  11.000   5.790  1.00  0.00     0.008 A 
ATOM      9  C   UNL     1       8.213  10.836   7.553  1.00  0.00     0.001 A 
ATOM     10  C   UNL     1       7.356  10.950   5.297  1.00  0.00     0.001 A 
ATOM     11  C   UNL     1       8.436  10.868   6.176  1.00  0.00     0.000 A 
ENDBRANCH   2   6
TORSDOF 2
ENDMDL
MODEL 7
REMARK VINA RESULT:    -4.674      3.170      5.455
REMARK INTER + INTRA:          -5.365
REMARK INTER:                  -5.225
REMARK INTRA:                  -0.141
REMARK UNBOUND:                -0.145
REMARK SMILES O=C([O-])C=Cc1ccccc1
REMARK SMILES IDX 4 1 5 2 2 3 1 4 3 5 6 6 7 7 11 8 8 9 10 10 9 11
REMARK H PARENT
REMARK Flexibility Score: inf
ROOT
ATOM      1  C   UNL     1       6.871  11.447   5.468  1.00  0.00     0.025 C 
ATOM      2  C   UNL     1       6.637  11.477   6.789  1.00  0.00     0.010 C 
ENDROOT
BRANCH   1   3
ATOM      3  C   UNL     1       8.224  11.599   4.908  1.00  0.00     0.064 C 
ATOM      4  O   UNL     1       9.248  11.305   5.582  1.00  0.00    -0.545 OA
ATOM      5  O   UNL     1       8.376  12.078   3.613  1.00  0.00    -0.545 OA
ENDBRANCH   1   3
BRANCH   2   6
ATOM      6  C   UNL     1       5.298  11.328   7.419  1.00  0.00    -0.026 A 
ATOM      7  C   UNL     1       4.403  10.394   6.863  1.00  0.00     0.008 A 
ATOM      8  C   UNL     1       4.880  12.076   8.543  1.00  0.00     0.008 A 
ATOM      9  C   UNL     1       3.130  10.210   7.412  1.00  0.00     0.001 A 
ATOM     10  C   UNL     1       3.605  11.887   9.085  1.00  0.00     0.001 A 
ATOM     11  C   UNL     1       2.732  10.956   8.521  1.00  0.00     0.000 A 
ENDBRANCH   2   6
TORSDOF 2
ENDMDL
MODEL 8
REMARK VINA RESULT:    -4.013     17.489     18.417
REMARK INTER + INTRA:          -4.627
REMARK INTER:                  -4.498
REMARK INTRA:                  -0.129
REMARK UNBOUND:                -0.145
REMARK SMILES O=C([O-])C=Cc1ccccc1
REMARK SMILES IDX 4 1 5 2 2 3 1 4 3 5 6 6 7 7 11 8 8 9 10 10 9 11
REMARK H PARENT
REMARK Flexibility Score: inf
ROOT
ATOM      1  C   UNL     1      -7.731   8.564  -6.145  1.00  0.00     0.025 C 
ATOM      2  C   UNL     1      -7.458   9.670  -6.855  1.00  0.00     0.010 C 
ENDROOT
BRANCH   1   3
ATOM      3  C   UNL     1      -9.100   8.217  -5.731  1.00  0.00     0.064 C 
ATOM      4  O   UNL     1      -9.398   7.044  -5.377  1.00  0.00    -0.545 OA
ATOM      5  O   UNL     1     -10.083   9.198  -5.731  1.00  0.00    -0.545 OA
ENDBRANCH   1   3
BRANCH   2   6
ATOM      6  C   UNL     1      -6.099  10.078  -7.304  1.00  0.00    -0.026 A 
ATOM      7  C   UNL     1      -5.682   9.690  -8.591  1.00  0.00     0.008 A 
ATOM      8  C   UNL     1      -5.211  10.832  -6.506  1.00  0.00     0.008 A 
ATOM      9  C   UNL     1      -4.417  10.044  -9.069  1.00  0.00     0.001 A 
ATOM     10  C   UNL     1      -3.946  11.182  -6.991  1.00  0.00     0.001 A 
ATOM     11  C   UNL     1      -3.550  10.789  -8.269  1.00  0.00     0.000 A 
ENDBRANCH   2   6
TORSDOF 2
ENDMDL
MODEL 9
REMARK VINA RESULT:    -3.970     17.463     18.363
REMARK INTER + INTRA:          -4.579
REMARK INTER:                  -4.449
REMARK INTRA:                  -0.129
REMARK UNBOUND:                -0.145
REMARK SMILES O=C([O-])C=Cc1ccccc1
REMARK SMILES IDX 4 1 5 2 2 3 1 4 3 5 6 6 7 7 11 8 8 9 10 10 9 11
REMARK H PARENT
REMARK Flexibility Score: inf
ROOT
ATOM      1  C   UNL     1      -7.778   8.514  -6.142  1.00  0.00     0.025 C 
ATOM      2  C   UNL     1      -7.494   9.647  -6.802  1.00  0.00     0.010 C 
ENDROOT
BRANCH   1   3
ATOM      3  C   UNL     1      -9.141   8.190  -5.690  1.00  0.00     0.064 C 
ATOM      4  O   UNL     1      -9.438   7.035  -5.283  1.00  0.00    -0.545 OA
ATOM      5  O   UNL     1     -10.120   9.175  -5.715  1.00  0.00    -0.545 OA
ENDBRANCH   1   3
BRANCH   2   6
ATOM      6  C   UNL     1      -6.141  10.033  -7.286  1.00  0.00    -0.026 A 
ATOM      7  C   UNL     1      -5.310  10.766  -6.418  1.00  0.00     0.008 A 
ATOM      8  C   UNL     1      -5.651   9.702  -8.569  1.00  0.00     0.008 A 
ATOM      9  C   UNL     1      -4.029  11.157  -6.817  1.00  0.00     0.001 A 
ATOM     10  C   UNL     1      -4.368  10.097  -8.961  1.00  0.00     0.001 A 
ATOM     11  C   UNL     1      -3.559  10.823  -8.087  1.00  0.00     0.000 A 
ENDBRANCH   2   6
TORSDOF 2
ENDMDL
