MODEL 1
REMARK VINA RESULT:    -4.481      0.000      0.000
REMARK INTER + INTRA:          -4.840
REMARK INTER:                  -4.743
REMARK INTRA:                  -0.097
REMARK UNBOUND:                -0.097
REMARK SMILES C=C(C)[C@@H]1CC=C(C)C(=O)C1
REMARK SMILES IDX 8 1 7 2 6 3 5 4 4 5 11 6 9 7 10 8 2 9 1 10 3 11
REMARK H PARENT
REMARK Flexibility Score: inf
ROOT
ATOM      1  C   UNL     1      -2.169  13.628  -2.110  1.00  0.00     0.048 C 
ATOM      2  C   UNL     1      -1.953  13.517  -0.626  1.00  0.00    -0.012 C 
ATOM      3  C   UNL     1      -2.167  12.345  -0.004  1.00  0.00    -0.019 C 
ATOM      4  C   UNL     1      -1.949  12.175   1.476  1.00  0.00     0.036 C 
ATOM      5  C   UNL     1      -2.263  13.477   2.236  1.00  0.00     0.025 C 
ATOM      6  C   UNL     1      -1.444  14.645   1.656  1.00  0.00     0.089 C 
ATOM      7  C   UNL     1      -1.625  14.729   0.166  1.00  0.00     0.158 C 
ATOM      8  O   UNL     1      -1.459  15.837  -0.412  1.00  0.00    -0.295 OA
ENDROOT
BRANCH   5   9
ATOM      9  C   UNL     1      -2.026  13.320   3.732  1.00  0.00    -0.077 C 
ATOM     10  C   UNL     1      -0.774  13.256   4.212  1.00  0.00     0.008 C 
ATOM     11  C   UNL     1      -3.176  13.230   4.705  1.00  0.00     0.039 C 
ENDBRANCH   5   9
TORSDOF 1
ENDMDL
MODEL 2
REMARK VINA RESULT:    -4.364      1.786      4.795
REMARK INTER + INTRA:          -4.715
REMARK INTER:                  -4.617
REMARK INTRA:                  -0.098
REMARK UNBOUND:                -0.097
REMARK SMILES C=C(C)[C@@H]1CC=C(C)C(=O)C1
REMARK SMILES IDX 8 1 7 2 6 3 5 4 4 5 11 6 9 7 10 8 2 9 1 10 3 11
REMARK H PARENT
REMARK Flexibility Score: inf
ROOT
ATOM      1  C   UNL     1      -2.113  13.123   3.769  1.00  0.00     0.048 C 
ATOM      2  C   UNL     1      -1.883  13.484   2.327  1.00  0.00    -0.012 C 
ATOM      3  C   UNL     1      -1.744  14.772   1.973  1.00  0.00    -0.019 C 
ATOM      4  C   UNL     1      -1.494  15.186   0.548  1.00  0.00     0.036 C 
ATOM      5  C   UNL     1      -2.184  14.225  -0.438  1.00  0.00     0.025 C 
ATOM      6  C   UNL     1      -1.746  12.774  -0.167  1.00  0.00     0.089 C 
ATOM      7  C   UNL     1      -1.934  12.428   1.284  1.00  0.00     0.158 C 
ATOM      8  O   UNL     1      -2.101  11.222   1.611  1.00  0.00    -0.295 OA
ENDROOT
BRANCH   5   9
ATOM      9  C   UNL     1      -1.921  14.626  -1.884  1.00  0.00    -0.077 C 
ATOM     10  C   UNL     1      -1.470  15.858  -2.169  1.00  0.00     0.008 C 
ATOM     11  C   UNL     1      -2.158  13.663  -3.022  1.00  0.00     0.039 C 
ENDBRANCH   5   9
TORSDOF 1
ENDMDL
MODEL 3
REMARK VINA RESULT:    -4.160      2.112      4.726
REMARK INTER + INTRA:          -4.500
REMARK INTER:                  -4.401
REMARK INTRA:                  -0.099
REMARK UNBOUND:                -0.097
REMARK SMILES C=C(C)[C@@H]1CC=C(C)C(=O)C1
REMARK SMILES IDX 8 1 7 2 6 3 5 4 4 5 11 6 9 7 10 8 2 9 1 10 3 11
REMARK H PARENT
REMARK Flexibility Score: inf
ROOT
ATOM      1  C   UNL     1      -1.913  14.954   5.297  1.00  0.00     0.048 C 
ATOM      2  C   UNL     1      -1.804  14.559   3.850  1.00  0.00    -0.012 C 
ATOM      3  C   UNL     1      -1.467  15.476   2.928  1.00  0.00    -0.019 C 
ATOM      4  C   UNL     1      -1.326  15.129   1.470  1.00  0.00     0.036 C 
ATOM      5  C   UNL     1      -2.308  14.012   1.069  1.00  0.00     0.025 C 
ATOM      6  C   UNL     1      -2.124  12.785   1.981  1.00  0.00     0.089 C 
ATOM      7  C   UNL     1      -2.189  13.188   3.428  1.00  0.00     0.158 C 
ATOM      8  O   UNL     1      -2.540  12.335   4.288  1.00  0.00    -0.295 OA
ENDROOT
BRANCH   5   9
ATOM      9  C   UNL     1      -2.160  13.641  -0.401  1.00  0.00    -0.077 C 
ATOM     10  C   UNL     1      -1.938  12.365  -0.753  1.00  0.00     0.008 C 
ATOM     11  C   UNL     1      -2.254  14.683  -1.488  1.00  0.00     0.039 C 
ENDBRANCH   5   9
TORSDOF 1
ENDMDL
MODEL 4
REMARK VINA RESULT:    -4.150      8.437     10.358
REMARK INTER + INTRA:          -4.489
REMARK INTER:                  -4.394
REMARK INTRA:                  -0.095
REMARK UNBOUND:                -0.097
REMARK SMILES C=C(C)[C@@H]1CC=C(C)C(=O)C1
REMARK SMILES IDX 8 1 7 2 6 3 5 4 4 5 11 6 9 7 10 8 2 9 1 10 3 11
REMARK H PARENT
REMARK Flexibility Score: inf
ROOT
ATOM      1  C   UNL     1     -10.755   6.414   4.998  1.00  0.00     0.048 C 
ATOM      2  C   UNL     1      -9.735   7.286   5.675  1.00  0.00    -0.012 C 
ATOM      3  C   UNL     1      -9.406   8.473   5.138  1.00  0.00    -0.019 C 
ATOM      4  C   UNL     1      -8.405   9.393   5.785  1.00  0.00     0.036 C 
ATOM      5  C   UNL     1      -7.315   8.594   6.524  1.00  0.00     0.025 C 
ATOM      6  C   UNL     1      -7.954   7.624   7.534  1.00  0.00     0.089 C 
ATOM      7  C   UNL     1      -9.005   6.782   6.866  1.00  0.00     0.158 C 
ATOM      8  O   UNL     1      -9.287   5.653   7.351  1.00  0.00    -0.295 OA
ENDROOT
BRANCH   5   9
ATOM      9  C   UNL     1      -6.308   9.517   7.198  1.00  0.00    -0.077 C 
ATOM     10  C   UNL     1      -5.887  10.626   6.570  1.00  0.00     0.008 C 
ATOM     11  C   UNL     1      -5.760   9.213   8.570  1.00  0.00     0.039 C 
ENDBRANCH   5   9
TORSDOF 1
ENDMDL
MODEL 5
REMARK VINA RESULT:    -4.001      2.146      3.749
REMARK INTER + INTRA:          -4.332
REMARK INTER:                  -4.233
REMARK INTRA:                  -0.099
REMARK UNBOUND:                -0.097
REMARK SMILES C=C(C)[C@@H]1CC=C(C)C(=O)C1
REMARK SMILES IDX 8 1 7 2 6 3 5 4 4 5 11 6 9 7 10 8 2 9 1 10 3 11
REMARK H PARENT
REMARK Flexibility Score: inf
ROOT
ATOM      1  C   UNL     1      -2.533  10.987   0.716  1.00  0.00     0.048 C 
ATOM      2  C   UNL     1      -2.243  12.459   0.816  1.00  0.00    -0.012 C 
ATOM      3  C   UNL     1      -2.045  13.180  -0.301  1.00  0.00    -0.019 C 
ATOM      4  C   UNL     1      -1.769  14.659  -0.259  1.00  0.00     0.036 C 
ATOM      5  C   UNL     1      -0.982  15.041   1.009  1.00  0.00     0.025 C 
ATOM      6  C   UNL     1      -1.723  14.549   2.267  1.00  0.00     0.089 C 
ATOM      7  C   UNL     1      -2.053  13.087   2.148  1.00  0.00     0.158 C 
ATOM      8  O   UNL     1      -2.203  12.404   3.197  1.00  0.00    -0.295 OA
ENDROOT
BRANCH   5   9
ATOM      9  C   UNL     1      -0.715  16.539   1.070  1.00  0.00    -0.077 C 
ATOM     10  C   UNL     1      -1.021  17.232   2.178  1.00  0.00     0.008 C 
ATOM     11  C   UNL     1      -0.109  17.277  -0.098  1.00  0.00     0.039 C 
ENDBRANCH   5   9
TORSDOF 1
ENDMDL
MODEL 6
REMARK VINA RESULT:    -3.993      1.978      2.759
REMARK INTER + INTRA:          -4.323
REMARK INTER:                  -4.225
REMARK INTRA:                  -0.098
REMARK UNBOUND:                -0.097
REMARK SMILES C=C(C)[C@@H]1CC=C(C)C(=O)C1
REMARK SMILES IDX 8 1 7 2 6 3 5 4 4 5 11 6 9 7 10 8 2 9 1 10 3 11
REMARK H PARENT
REMARK Flexibility Score: inf
ROOT
ATOM      1  C   UNL     1      -2.135  12.841  -1.064  1.00  0.00     0.048 C 
ATOM      2  C   UNL     1      -1.869  13.339   0.330  1.00  0.00    -0.012 C 
ATOM      3  C   UNL     1      -1.622  14.643   0.539  1.00  0.00    -0.019 C 
ATOM      4  C   UNL     1      -1.367  15.197   1.916  1.00  0.00     0.036 C 
ATOM      5  C   UNL     1      -0.653  14.163   2.806  1.00  0.00     0.025 C 
ATOM      6  C   UNL     1      -1.452  12.847   2.845  1.00  0.00     0.089 C 
ATOM      7  C   UNL     1      -1.757  12.372   1.451  1.00  0.00     0.158 C 
ATOM      8  O   UNL     1      -1.952  11.143   1.251  1.00  0.00    -0.295 OA
ENDROOT
BRANCH   5   9
ATOM      9  C   UNL     1      -0.408  14.708   4.207  1.00  0.00    -0.077 C 
ATOM     10  C   UNL     1      -0.871  15.922   4.547  1.00  0.00     0.008 C 
ATOM     11  C   UNL     1       0.354  13.912   5.238  1.00  0.00     0.039 C 
ENDBRANCH   5   9
TORSDOF 1
ENDMDL
MODEL 7
REMARK VINA RESULT:    -3.795      1.505      3.811
REMARK INTER + INTRA:          -4.114
REMARK INTER:                  -4.016
REMARK INTRA:                  -0.098
REMARK UNBOUND:                -0.097
REMARK SMILES C=C(C)[C@@H]1CC=C(C)C(=O)C1
REMARK SMILES IDX 8 1 7 2 6 3 5 4 4 5 11 6 9 7 10 8 2 9 1 10 3 11
REMARK H PARENT
REMARK Flexibility Score: inf
ROOT
ATOM      1  C   UNL     1      -0.587  16.623   3.899  1.00  0.00     0.048 C 
ATOM      2  C   UNL     1      -1.124  15.572   2.967  1.00  0.00    -0.012 C 
ATOM      3  C   UNL     1      -1.441  14.355   3.441  1.00  0.00    -0.019 C 
ATOM      4  C   UNL     1      -1.998  13.273   2.555  1.00  0.00     0.036 C 
ATOM      5  C   UNL     1      -1.431  13.380   1.127  1.00  0.00     0.025 C 
ATOM      6  C   UNL     1      -1.682  14.788   0.555  1.00  0.00     0.089 C 
ATOM      7  C   UNL     1      -1.185  15.840   1.508  1.00  0.00     0.158 C 
ATOM      8  O   UNL     1      -0.854  16.970   1.057  1.00  0.00    -0.295 OA
ENDROOT
BRANCH   5   9
ATOM      9  C   UNL     1      -2.004  12.300   0.218  1.00  0.00    -0.077 C 
ATOM     10  C   UNL     1      -2.157  12.537  -1.095  1.00  0.00     0.008 C 
ATOM     11  C   UNL     1      -2.415  10.953   0.760  1.00  0.00     0.039 C 
ENDBRANCH   5   9
TORSDOF 1
ENDMDL
MODEL 8
REMARK VINA RESULT:    -3.750      8.841      9.142
REMARK INTER + INTRA:          -4.066
REMARK INTER:                  -3.968
REMARK INTRA:                  -0.098
REMARK UNBOUND:                -0.097
REMARK SMILES C=C(C)[C@@H]1CC=C(C)C(=O)C1
REMARK SMILES IDX 8 1 7 2 6 3 5 4 4 5 11 6 9 7 10 8 2 9 1 10 3 11
REMARK H PARENT
REMARK Flexibility Score: inf
ROOT
ATOM      1  C   UNL     1      -0.241  10.319  -7.835  1.00  0.00     0.048 C 
ATOM      2  C   UNL     1      -0.359   9.414  -6.639  1.00  0.00    -0.012 C 
ATOM      3  C   UNL     1       0.725   9.149  -5.890  1.00  0.00    -0.019 C 
ATOM      4  C   UNL     1       0.658   8.265  -4.673  1.00  0.00     0.036 C 
ATOM      5  C   UNL     1      -0.400   7.160  -4.848  1.00  0.00     0.025 C 
ATOM      6  C   UNL     1      -1.767   7.779  -5.195  1.00  0.00     0.089 C 
ATOM      7  C   UNL     1      -1.641   8.718  -6.363  1.00  0.00     0.158 C 
ATOM      8  O   UNL     1      -2.650   8.937  -7.086  1.00  0.00    -0.295 OA
ENDROOT
BRANCH   5   9
ATOM      9  C   UNL     1      -0.488   6.272  -3.614  1.00  0.00    -0.077 C 
ATOM     10  C   UNL     1      -1.682   5.828  -3.188  1.00  0.00     0.008 C 
ATOM     11  C   UNL     1       0.746   5.874  -2.843  1.00  0.00     0.039 C 
ENDBRANCH   5   9
TORSDOF 1
ENDMDL
MODEL 9
REMARK VINA RESULT:    -3.689      8.338      9.293
REMARK INTER + INTRA:          -4.001
REMARK INTER:                  -3.903
REMARK INTRA:                  -0.097
REMARK UNBOUND:                -0.097
REMARK SMILES C=C(C)[C@@H]1CC=C(C)C(=O)C1
REMARK SMILES IDX 8 1 7 2 6 3 5 4 4 5 11 6 9 7 10 8 2 9 1 10 3 11
REMARK H PARENT
REMARK Flexibility Score: inf
ROOT
ATOM      1  C   UNL     1       0.131   9.036  -4.614  1.00  0.00     0.048 C 
ATOM      2  C   UNL     1      -0.139   7.674  -4.035  1.00  0.00    -0.012 C 
ATOM      3  C   UNL     1      -1.405   7.265  -3.848  1.00  0.00    -0.019 C 
ATOM      4  C   UNL     1      -1.731   5.905  -3.289  1.00  0.00     0.036 C 
ATOM      5  C   UNL     1      -0.655   5.446  -2.287  1.00  0.00     0.025 C 
ATOM      6  C   UNL     1       0.739   5.489  -2.940  1.00  0.00     0.089 C 
ATOM      7  C   UNL     1       0.991   6.837  -3.558  1.00  0.00     0.158 C 
ATOM      8  O   UNL     1       2.178   7.234  -3.700  1.00  0.00    -0.295 OA
ENDROOT
BRANCH   5   9
ATOM      9  C   UNL     1      -0.966   4.063  -1.731  1.00  0.00    -0.077 C 
ATOM     10  C   UNL     1      -1.458   3.108  -2.537  1.00  0.00     0.008 C 
ATOM     11  C   UNL     1      -0.737   3.730  -0.277  1.00  0.00     0.039 C 
ENDBRANCH   5   9
TORSDOF 1
ENDMDL
