MODEL 1
REMARK VINA RESULT:    -4.644      0.000      0.000
REMARK INTER + INTRA:          -5.866
REMARK INTER:                  -5.459
REMARK INTRA:                  -0.407
REMARK UNBOUND:                -0.407
REMARK SMILES C=C[C@@]1(C)CC[C@@H](C(=C)C)C[C@H]1C(=C)C
REMARK SMILES IDX 7 1 6 2 5 3 3 4 12 5 11 6 4 7 8 8 10 9 9 10 13 11 14 12
REMARK SMILES IDX 15 13 2 14 1 15
REMARK H PARENT
REMARK Flexibility Score: inf
ROOT
ATOM      1  C   UNL     1      31.719   9.485  33.011  1.00  0.00     0.015 C 
ATOM      2  C   UNL     1      31.528   8.039  32.516  1.00  0.00     0.009 C 
ATOM      3  C   UNL     1      31.892   7.028  33.616  1.00  0.00     0.012 C 
ATOM      4  C   UNL     1      31.055   7.233  34.912  1.00  0.00    -0.008 C 
ATOM      5  C   UNL     1      31.250   8.719  35.391  1.00  0.00     0.024 C 
ATOM      6  C   UNL     1      30.895   9.744  34.286  1.00  0.00     0.017 C 
ATOM      7  C   UNL     1      31.593   6.269  35.997  1.00  0.00     0.016 C 
ENDROOT
BRANCH   1   8
ATOM      8  C   UNL     1      31.376  10.490  31.920  1.00  0.00    -0.077 C 
ATOM      9  C   UNL     1      31.966  11.880  31.916  1.00  0.00     0.039 C 
ATOM     10  C   UNL     1      30.536  10.149  30.929  1.00  0.00     0.008 C 
ENDBRANCH   1   8
BRANCH   5  11
ATOM     11  C   UNL     1      30.584   9.043  36.735  1.00  0.00    -0.077 C 
ATOM     12  C   UNL     1      31.230   8.938  37.910  1.00  0.00     0.008 C 
ATOM     13  C   UNL     1      29.136   9.465  36.764  1.00  0.00     0.039 C 
ENDBRANCH   5  11
BRANCH   4  14
ATOM     14  C   UNL     1      29.586   6.908  34.635  1.00  0.00    -0.028 C 
ATOM     15  C   UNL     1      28.913   5.946  35.282  1.00  0.00     0.004 C 
ENDBRANCH   4  14
TORSDOF 3
ENDMDL
MODEL 2
REMARK VINA RESULT:    -4.636      2.129      3.780
REMARK INTER + INTRA:          -5.856
REMARK INTER:                  -5.474
REMARK INTRA:                  -0.382
REMARK UNBOUND:                -0.407
REMARK SMILES C=C[C@@]1(C)CC[C@@H](C(=C)C)C[C@H]1C(=C)C
REMARK SMILES IDX 7 1 6 2 5 3 3 4 12 5 11 6 4 7 8 8 10 9 9 10 13 11 14 12
REMARK SMILES IDX 15 13 2 14 1 15
REMARK H PARENT
REMARK Flexibility Score: inf
ROOT
ATOM      1  C   UNL     1      31.070   6.996  31.284  1.00  0.00     0.015 C 
ATOM      2  C   UNL     1      30.062   6.509  32.341  1.00  0.00     0.009 C 
ATOM      3  C   UNL     1      30.521   6.891  33.757  1.00  0.00     0.012 C 
ATOM      4  C   UNL     1      30.724   8.425  33.922  1.00  0.00    -0.008 C 
ATOM      5  C   UNL     1      31.742   8.906  32.824  1.00  0.00     0.024 C 
ATOM      6  C   UNL     1      31.292   8.516  31.394  1.00  0.00     0.017 C 
ATOM      7  C   UNL     1      31.320   8.690  35.326  1.00  0.00     0.016 C 
ENDROOT
BRANCH   1   8
ATOM      8  C   UNL     1      30.627   6.605  29.880  1.00  0.00    -0.077 C 
ATOM      9  C   UNL     1      31.571   6.690  28.705  1.00  0.00     0.039 C 
ATOM     10  C   UNL     1      29.376   6.168  29.665  1.00  0.00     0.008 C 
ENDBRANCH   1   8
BRANCH   5  11
ATOM     11  C   UNL     1      32.145  10.382  32.936  1.00  0.00    -0.077 C 
ATOM     12  C   UNL     1      33.125  10.808  33.751  1.00  0.00     0.008 C 
ATOM     13  C   UNL     1      31.398  11.418  32.132  1.00  0.00     0.039 C 
ENDBRANCH   5  11
BRANCH   4  14
ATOM     14  C   UNL     1      29.376   9.140  33.807  1.00  0.00    -0.028 C 
ATOM     15  C   UNL     1      28.962  10.071  34.677  1.00  0.00     0.004 C 
ENDBRANCH   4  14
TORSDOF 3
ENDMDL
MODEL 3
REMARK VINA RESULT:    -4.526      1.931      4.303
REMARK INTER + INTRA:          -5.726
REMARK INTER:                  -5.350
REMARK INTRA:                  -0.376
REMARK UNBOUND:                -0.407
REMARK SMILES C=C[C@@]1(C)CC[C@@H](C(=C)C)C[C@H]1C(=C)C
REMARK SMILES IDX 7 1 6 2 5 3 3 4 12 5 11 6 4 7 8 8 10 9 9 10 13 11 14 12
REMARK SMILES IDX 15 13 2 14 1 15
REMARK H PARENT
REMARK Flexibility Score: inf
ROOT
ATOM      1  C   UNL     1      30.078   8.569  30.068  1.00  0.00     0.015 C 
ATOM      2  C   UNL     1      30.363  10.070  30.259  1.00  0.00     0.009 C 
ATOM      3  C   UNL     1      30.017  10.519  31.688  1.00  0.00     0.012 C 
ATOM      4  C   UNL     1      30.798   9.715  32.768  1.00  0.00    -0.008 C 
ATOM      5  C   UNL     1      30.508   8.185  32.546  1.00  0.00     0.024 C 
ATOM      6  C   UNL     1      30.844   7.727  31.105  1.00  0.00     0.017 C 
ATOM      7  C   UNL     1      30.276  10.139  34.163  1.00  0.00     0.016 C 
ENDROOT
BRANCH   1   8
ATOM      8  C   UNL     1      30.403   8.123  28.648  1.00  0.00    -0.077 C 
ATOM      9  C   UNL     1      31.369   6.995  28.380  1.00  0.00     0.039 C 
ATOM     10  C   UNL     1      29.824   8.733  27.601  1.00  0.00     0.008 C 
ENDBRANCH   1   8
BRANCH   5  11
ATOM     11  C   UNL     1      31.109   7.264  33.615  1.00  0.00    -0.077 C 
ATOM     12  C   UNL     1      32.295   6.649  33.462  1.00  0.00     0.008 C 
ATOM     13  C   UNL     1      30.336   6.996  34.884  1.00  0.00     0.039 C 
ENDBRANCH   5  11
BRANCH   4  14
ATOM     14  C   UNL     1      32.291  10.035  32.672  1.00  0.00    -0.028 C 
ATOM     15  C   UNL     1      32.940  10.786  33.573  1.00  0.00     0.004 C 
ENDBRANCH   4  14
TORSDOF 3
ENDMDL
MODEL 4
REMARK VINA RESULT:    -4.416      4.405      8.316
REMARK INTER + INTRA:          -5.597
REMARK INTER:                  -5.158
REMARK INTRA:                  -0.439
REMARK UNBOUND:                -0.407
REMARK SMILES C=C[C@@]1(C)CC[C@@H](C(=C)C)C[C@H]1C(=C)C
REMARK SMILES IDX 7 1 6 2 5 3 3 4 12 5 11 6 4 7 8 8 10 9 9 10 13 11 14 12
REMARK SMILES IDX 15 13 2 14 1 15
REMARK H PARENT
REMARK Flexibility Score: inf
ROOT
ATOM      1  C   UNL     1      29.874   7.993  28.683  1.00  0.00     0.015 C 
ATOM      2  C   UNL     1      30.382   7.497  27.316  1.00  0.00     0.009 C 
ATOM      3  C   UNL     1      29.469   7.987  26.179  1.00  0.00     0.012 C 
ATOM      4  C   UNL     1      29.347   9.538  26.142  1.00  0.00    -0.008 C 
ATOM      5  C   UNL     1      28.845  10.025  27.550  1.00  0.00     0.024 C 
ATOM      6  C   UNL     1      29.753   9.528  28.702  1.00  0.00     0.017 C 
ATOM      7  C   UNL     1      28.303   9.918  25.064  1.00  0.00     0.016 C 
ENDROOT
BRANCH   1   8
ATOM      8  C   UNL     1      30.765   7.496  29.814  1.00  0.00    -0.077 C 
ATOM      9  C   UNL     1      31.560   6.219  29.686  1.00  0.00     0.039 C 
ATOM     10  C   UNL     1      30.862   8.199  30.954  1.00  0.00     0.008 C 
ENDBRANCH   1   8
BRANCH   5  11
ATOM     11  C   UNL     1      28.552  11.528  27.634  1.00  0.00    -0.077 C 
ATOM     12  C   UNL     1      29.512  12.444  27.856  1.00  0.00     0.008 C 
ATOM     13  C   UNL     1      27.131  12.018  27.498  1.00  0.00     0.039 C 
ENDBRANCH   5  11
BRANCH   4  14
ATOM     14  C   UNL     1      30.698  10.154  25.770  1.00  0.00    -0.028 C 
ATOM     15  C   UNL     1      30.879  10.935  24.697  1.00  0.00     0.004 C 
ENDBRANCH   4  14
TORSDOF 3
ENDMDL
MODEL 5
REMARK VINA RESULT:    -4.264      4.756      7.084
REMARK INTER + INTRA:          -5.418
REMARK INTER:                  -4.983
REMARK INTRA:                  -0.435
REMARK UNBOUND:                -0.407
REMARK SMILES C=C[C@@]1(C)CC[C@@H](C(=C)C)C[C@H]1C(=C)C
REMARK SMILES IDX 7 1 6 2 5 3 3 4 12 5 11 6 4 7 8 8 10 9 9 10 13 11 14 12
REMARK SMILES IDX 15 13 2 14 1 15
REMARK H PARENT
REMARK Flexibility Score: inf
ROOT
ATOM      1  C   UNL     1      29.887   8.219  28.849  1.00  0.00     0.015 C 
ATOM      2  C   UNL     1      29.790   8.699  27.389  1.00  0.00     0.009 C 
ATOM      3  C   UNL     1      28.656   9.723  27.221  1.00  0.00     0.012 C 
ATOM      4  C   UNL     1      28.830  10.960  28.149  1.00  0.00    -0.008 C 
ATOM      5  C   UNL     1      28.945  10.448  29.632  1.00  0.00     0.024 C 
ATOM      6  C   UNL     1      30.079   9.408  29.808  1.00  0.00     0.017 C 
ATOM      7  C   UNL     1      27.574  11.854  28.011  1.00  0.00     0.016 C 
ENDROOT
BRANCH   1   8
ATOM      8  C   UNL     1      30.998   7.191  29.017  1.00  0.00    -0.077 C 
ATOM      9  C   UNL     1      31.802   6.701  27.837  1.00  0.00     0.039 C 
ATOM     10  C   UNL     1      31.287   6.703  30.234  1.00  0.00     0.008 C 
ENDBRANCH   1   8
BRANCH   5  11
ATOM     11  C   UNL     1      28.995  11.562  30.685  1.00  0.00    -0.077 C 
ATOM     12  C   UNL     1      30.137  12.179  31.037  1.00  0.00     0.008 C 
ATOM     13  C   UNL     1      27.727  11.973  31.393  1.00  0.00     0.039 C 
ENDBRANCH   5  11
BRANCH   4  14
ATOM     14  C   UNL     1      30.063  11.758  27.721  1.00  0.00    -0.028 C 
ATOM     15  C   UNL     1      30.006  13.030  27.303  1.00  0.00     0.004 C 
ENDBRANCH   4  14
TORSDOF 3
ENDMDL
MODEL 6
REMARK VINA RESULT:    -4.261      7.322     10.650
REMARK INTER + INTRA:          -5.415
REMARK INTER:                  -5.020
REMARK INTRA:                  -0.395
REMARK UNBOUND:                -0.407
REMARK SMILES C=C[C@@]1(C)CC[C@@H](C(=C)C)C[C@H]1C(=C)C
REMARK SMILES IDX 7 1 6 2 5 3 3 4 12 5 11 6 4 7 8 8 10 9 9 10 13 11 14 12
REMARK SMILES IDX 15 13 2 14 1 15
REMARK H PARENT
REMARK Flexibility Score: inf
ROOT
ATOM      1  C   UNL     1      30.128   8.746  26.664  1.00  0.00     0.015 C 
ATOM      2  C   UNL     1      28.639   9.135  26.599  1.00  0.00     0.009 C 
ATOM      3  C   UNL     1      28.468  10.577  26.097  1.00  0.00     0.012 C 
ATOM      4  C   UNL     1      29.110  10.799  24.697  1.00  0.00    -0.008 C 
ATOM      5  C   UNL     1      30.624  10.381  24.779  1.00  0.00     0.024 C 
ATOM      6  C   UNL     1      30.806   8.932  25.294  1.00  0.00     0.017 C 
ATOM      7  C   UNL     1      29.011  12.305  24.348  1.00  0.00     0.016 C 
ENDROOT
BRANCH   1   8
ATOM      8  C   UNL     1      30.304   7.323  27.177  1.00  0.00    -0.077 C 
ATOM      9  C   UNL     1      31.582   6.881  27.847  1.00  0.00     0.039 C 
ATOM     10  C   UNL     1      29.309   6.431  27.043  1.00  0.00     0.008 C 
ENDBRANCH   1   8
BRANCH   5  11
ATOM     11  C   UNL     1      31.429  10.662  23.504  1.00  0.00    -0.077 C 
ATOM     12  C   UNL     1      31.998  11.854  23.252  1.00  0.00     0.008 C 
ATOM     13  C   UNL     1      31.571   9.581  22.462  1.00  0.00     0.039 C 
ENDBRANCH   5  11
BRANCH   4  14
ATOM     14  C   UNL     1      28.348   9.990  23.645  1.00  0.00    -0.028 C 
ATOM     15  C   UNL     1      27.882  10.520  22.506  1.00  0.00     0.004 C 
ENDBRANCH   4  14
TORSDOF 3
ENDMDL
MODEL 7
REMARK VINA RESULT:    -4.139      1.522      5.148
REMARK INTER + INTRA:          -5.272
REMARK INTER:                  -5.003
REMARK INTRA:                  -0.268
REMARK UNBOUND:                -0.407
REMARK SMILES C=C[C@@]1(C)CC[C@@H](C(=C)C)C[C@H]1C(=C)C
REMARK SMILES IDX 7 1 6 2 5 3 3 4 12 5 11 6 4 7 8 8 10 9 9 10 13 11 14 12
REMARK SMILES IDX 15 13 2 14 1 15
REMARK H PARENT
REMARK Flexibility Score: inf
ROOT
ATOM      1  C   UNL     1      31.246   8.133  36.954  1.00  0.00     0.015 C 
ATOM      2  C   UNL     1      31.254   9.661  36.759  1.00  0.00     0.009 C 
ATOM      3  C   UNL     1      31.956  10.045  35.446  1.00  0.00     0.012 C 
ATOM      4  C   UNL     1      31.295   9.380  34.204  1.00  0.00    -0.008 C 
ATOM      5  C   UNL     1      31.280   7.824  34.429  1.00  0.00     0.024 C 
ATOM      6  C   UNL     1      30.584   7.429  35.755  1.00  0.00     0.017 C 
ATOM      7  C   UNL     1      32.155   9.711  32.959  1.00  0.00     0.016 C 
ENDROOT
BRANCH   1   8
ATOM      8  C   UNL     1      30.567   7.749  38.262  1.00  0.00    -0.077 C 
ATOM      9  C   UNL     1      29.939   6.389  38.453  1.00  0.00     0.039 C 
ATOM     10  C   UNL     1      30.521   8.623  39.280  1.00  0.00     0.008 C 
ENDBRANCH   1   8
BRANCH   5  11
ATOM     11  C   UNL     1      30.771   7.014  33.230  1.00  0.00    -0.077 C 
ATOM     12  C   UNL     1      31.465   6.898  32.084  1.00  0.00     0.008 C 
ATOM     13  C   UNL     1      29.422   6.342  33.306  1.00  0.00     0.039 C 
ENDBRANCH   5  11
BRANCH   4  14
ATOM     14  C   UNL     1      29.886   9.944  34.004  1.00  0.00    -0.028 C 
ATOM     15  C   UNL     1      29.491  10.551  32.876  1.00  0.00     0.004 C 
ENDBRANCH   4  14
TORSDOF 3
ENDMDL
MODEL 8
REMARK VINA RESULT:    -4.075      5.976      9.000
REMARK INTER + INTRA:          -5.197
REMARK INTER:                  -4.790
REMARK INTRA:                  -0.406
REMARK UNBOUND:                -0.407
REMARK SMILES C=C[C@@]1(C)CC[C@@H](C(=C)C)C[C@H]1C(=C)C
REMARK SMILES IDX 7 1 6 2 5 3 3 4 12 5 11 6 4 7 8 8 10 9 9 10 13 11 14 12
REMARK SMILES IDX 15 13 2 14 1 15
REMARK H PARENT
REMARK Flexibility Score: inf
ROOT
ATOM      1  C   UNL     1      30.338   8.495  27.955  1.00  0.00     0.015 C 
ATOM      2  C   UNL     1      29.539   9.283  29.009  1.00  0.00     0.009 C 
ATOM      3  C   UNL     1      29.561  10.790  28.704  1.00  0.00     0.012 C 
ATOM      4  C   UNL     1      28.997  11.118  27.292  1.00  0.00    -0.008 C 
ATOM      5  C   UNL     1      29.814  10.291  26.232  1.00  0.00     0.024 C 
ATOM      6  C   UNL     1      29.805   8.773  26.538  1.00  0.00     0.017 C 
ATOM      7  C   UNL     1      29.195  12.630  27.027  1.00  0.00     0.016 C 
ENDROOT
BRANCH   1   8
ATOM      8  C   UNL     1      30.333   7.003  28.263  1.00  0.00    -0.077 C 
ATOM      9  C   UNL     1      31.458   6.355  29.033  1.00  0.00     0.039 C 
ATOM     10  C   UNL     1      29.312   6.234  27.852  1.00  0.00     0.008 C 
ENDBRANCH   1   8
BRANCH   5  11
ATOM     11  C   UNL     1      29.458  10.603  24.773  1.00  0.00    -0.077 C 
ATOM     12  C   UNL     1      28.364  10.106  24.170  1.00  0.00     0.008 C 
ATOM     13  C   UNL     1      30.378  11.474  23.954  1.00  0.00     0.039 C 
ENDBRANCH   5  11
BRANCH   4  14
ATOM     14  C   UNL     1      27.502  10.793  27.244  1.00  0.00    -0.028 C 
ATOM     15  C   UNL     1      26.583  11.455  27.960  1.00  0.00     0.004 C 
ENDBRANCH   4  14
TORSDOF 3
ENDMDL
MODEL 9
REMARK VINA RESULT:    -3.984      1.360      2.378
REMARK INTER + INTRA:          -5.090
REMARK INTER:                  -4.674
REMARK INTRA:                  -0.416
REMARK UNBOUND:                -0.407
REMARK SMILES C=C[C@@]1(C)CC[C@@H](C(=C)C)C[C@H]1C(=C)C
REMARK SMILES IDX 7 1 6 2 5 3 3 4 12 5 11 6 4 7 8 8 10 9 9 10 13 11 14 12
REMARK SMILES IDX 15 13 2 14 1 15
REMARK H PARENT
REMARK Flexibility Score: inf
ROOT
ATOM      1  C   UNL     1      31.656   7.957  34.434  1.00  0.00     0.015 C 
ATOM      2  C   UNL     1      30.938   6.603  34.276  1.00  0.00     0.009 C 
ATOM      3  C   UNL     1      30.814   5.884  35.629  1.00  0.00     0.012 C 
ATOM      4  C   UNL     1      30.056   6.737  36.687  1.00  0.00    -0.008 C 
ATOM      5  C   UNL     1      30.793   8.120  36.822  1.00  0.00     0.024 C 
ATOM      6  C   UNL     1      30.932   8.847  35.462  1.00  0.00     0.017 C 
ATOM      7  C   UNL     1      30.111   5.992  38.044  1.00  0.00     0.016 C 
ENDROOT
BRANCH   1   8
ATOM      8  C   UNL     1      31.796   8.665  33.094  1.00  0.00    -0.077 C 
ATOM      9  C   UNL     1      31.216   8.079  31.829  1.00  0.00     0.039 C 
ATOM     10  C   UNL     1      32.442   9.840  33.016  1.00  0.00     0.008 C 
ENDBRANCH   1   8
BRANCH   5  11
ATOM     11  C   UNL     1      30.237   9.030  37.925  1.00  0.00    -0.077 C 
ATOM     12  C   UNL     1      29.288   9.955  37.695  1.00  0.00     0.008 C 
ATOM     13  C   UNL     1      30.790   8.923  39.325  1.00  0.00     0.039 C 
ENDBRANCH   5  11
BRANCH   4  14
ATOM     14  C   UNL     1      28.595   6.905  36.266  1.00  0.00    -0.028 C 
ATOM     15  C   UNL     1      27.563   6.499  37.018  1.00  0.00     0.004 C 
ENDBRANCH   4  14
TORSDOF 3
ENDMDL
