MODEL 1
REMARK VINA RESULT:    -4.533      0.000      0.000
REMARK INTER + INTRA:          -5.794
REMARK INTER:                  -5.593
REMARK INTRA:                  -0.201
REMARK UNBOUND:                -0.201
REMARK SMILES CCCCC=CC(C)=O
REMARK SMILES IDX 4 1 3 2 2 3 1 4 5 5 6 6 7 7 9 8 8 9
REMARK H PARENT
REMARK Flexibility Score: inf
ROOT
ATOM      1  C   UNL     1      -4.492  28.708 -21.051  1.00  0.00     0.027 C 
ENDROOT
BRANCH   1   2
ATOM      2  C   UNL     1      -3.989  28.930 -22.486  1.00  0.00     0.004 C 
BRANCH   2   3
ATOM      3  C   UNL     1      -5.101  28.724 -23.524  1.00  0.00    -0.003 C 
ATOM      4  C   UNL     1      -6.355  29.512 -23.152  1.00  0.00     0.004 C 
ENDBRANCH   2   3
ENDBRANCH   1   2
BRANCH   1   5
ATOM      5  C   UNL     1      -3.369  28.445 -20.082  1.00  0.00    -0.023 C 
ATOM      6  C   UNL     1      -3.427  27.644 -19.005  1.00  0.00     0.042 C 
BRANCH   6   7
ATOM      7  C   UNL     1      -4.614  26.902 -18.523  1.00  0.00     0.152 C 
ATOM      8  O   UNL     1      -4.919  25.770 -18.983  1.00  0.00    -0.295 OA
ATOM      9  C   UNL     1      -5.516  27.542 -17.518  1.00  0.00     0.093 C 
ENDBRANCH   6   7
ENDBRANCH   1   5
TORSDOF 4
ENDMDL
MODEL 2
REMARK VINA RESULT:    -4.311      3.417      4.567
REMARK INTER + INTRA:          -5.520
REMARK INTER:                  -5.198
REMARK INTRA:                  -0.322
REMARK UNBOUND:                -0.201
REMARK SMILES CCCCC=CC(C)=O
REMARK SMILES IDX 4 1 3 2 2 3 1 4 5 5 6 6 7 7 9 8 8 9
REMARK H PARENT
REMARK Flexibility Score: inf
ROOT
ATOM      1  C   UNL     1      -5.603  28.772 -23.663  1.00  0.00     0.027 C 
ENDROOT
BRANCH   1   2
ATOM      2  C   UNL     1      -5.991  30.152 -24.218  1.00  0.00     0.004 C 
BRANCH   2   3
ATOM      3  C   UNL     1      -5.446  30.376 -25.636  1.00  0.00    -0.003 C 
ATOM      4  C   UNL     1      -6.472  31.089 -26.514  1.00  0.00     0.004 C 
ENDBRANCH   2   3
ENDBRANCH   1   2
BRANCH   1   5
ATOM      5  C   UNL     1      -4.864  28.867 -22.353  1.00  0.00    -0.023 C 
ATOM      6  C   UNL     1      -3.554  29.121 -22.203  1.00  0.00     0.042 C 
BRANCH   6   7
ATOM      7  C   UNL     1      -2.563  29.308 -23.287  1.00  0.00     0.152 C 
ATOM      8  O   UNL     1      -2.251  28.370 -24.067  1.00  0.00    -0.295 OA
ATOM      9  C   UNL     1      -1.861  30.621 -23.415  1.00  0.00     0.093 C 
ENDBRANCH   6   7
ENDBRANCH   1   5
TORSDOF 4
ENDMDL
MODEL 3
REMARK VINA RESULT:    -4.292      2.535      5.214
REMARK INTER + INTRA:          -5.496
REMARK INTER:                  -5.348
REMARK INTRA:                  -0.148
REMARK UNBOUND:                -0.201
REMARK SMILES CCCCC=CC(C)=O
REMARK SMILES IDX 4 1 3 2 2 3 1 4 5 5 6 6 7 7 9 8 8 9
REMARK H PARENT
REMARK Flexibility Score: inf
ROOT
ATOM      1  C   UNL     1      -3.468  29.188 -21.837  1.00  0.00     0.027 C 
ENDROOT
BRANCH   1   2
ATOM      2  C   UNL     1      -3.087  28.827 -20.393  1.00  0.00     0.004 C 
BRANCH   2   3
ATOM      3  C   UNL     1      -4.322  28.561 -19.521  1.00  0.00    -0.003 C 
ATOM      4  C   UNL     1      -4.163  27.272 -18.719  1.00  0.00     0.004 C 
ENDBRANCH   2   3
ENDBRANCH   1   2
BRANCH   1   5
ATOM      5  C   UNL     1      -4.910  28.878 -22.146  1.00  0.00    -0.023 C 
ATOM      6  C   UNL     1      -5.471  28.870 -23.366  1.00  0.00     0.042 C 
BRANCH   6   7
ATOM      7  C   UNL     1      -4.806  29.214 -24.644  1.00  0.00     0.152 C 
ATOM      8  O   UNL     1      -3.753  28.633 -25.019  1.00  0.00    -0.295 OA
ATOM      9  C   UNL     1      -5.355  30.328 -25.475  1.00  0.00     0.093 C 
ENDBRANCH   6   7
ENDBRANCH   1   5
TORSDOF 4
ENDMDL
MODEL 4
REMARK VINA RESULT:    -4.219      4.049      6.286
REMARK INTER + INTRA:          -5.406
REMARK INTER:                  -5.348
REMARK INTRA:                  -0.058
REMARK UNBOUND:                -0.201
REMARK SMILES CCCCC=CC(C)=O
REMARK SMILES IDX 4 1 3 2 2 3 1 4 5 5 6 6 7 7 9 8 8 9
REMARK H PARENT
REMARK Flexibility Score: inf
ROOT
ATOM      1  C   UNL     1      -5.546  28.684 -23.594  1.00  0.00     0.027 C 
ENDROOT
BRANCH   1   2
ATOM      2  C   UNL     1      -4.373  28.878 -22.621  1.00  0.00     0.004 C 
BRANCH   2   3
ATOM      3  C   UNL     1      -3.034  29.035 -23.357  1.00  0.00    -0.003 C 
ATOM      4  C   UNL     1      -2.073  29.922 -22.569  1.00  0.00     0.004 C 
ENDBRANCH   2   3
ENDBRANCH   1   2
BRANCH   1   5
ATOM      5  C   UNL     1      -6.488  29.860 -23.600  1.00  0.00    -0.023 C 
ATOM      6  C   UNL     1      -6.672  30.718 -24.617  1.00  0.00     0.042 C 
BRANCH   6   7
ATOM      7  C   UNL     1      -5.954  30.715 -25.912  1.00  0.00     0.152 C 
ATOM      8  O   UNL     1      -4.716  30.492 -25.983  1.00  0.00    -0.295 OA
ATOM      9  C   UNL     1      -6.700  31.058 -27.161  1.00  0.00     0.093 C 
ENDBRANCH   6   7
ENDBRANCH   1   5
TORSDOF 4
ENDMDL
MODEL 5
REMARK VINA RESULT:    -4.199      3.772      6.294
REMARK INTER + INTRA:          -5.382
REMARK INTER:                  -5.116
REMARK INTRA:                  -0.266
REMARK UNBOUND:                -0.201
REMARK SMILES CCCCC=CC(C)=O
REMARK SMILES IDX 4 1 3 2 2 3 1 4 5 5 6 6 7 7 9 8 8 9
REMARK H PARENT
REMARK Flexibility Score: inf
ROOT
ATOM      1  C   UNL     1      -5.362  28.549 -24.259  1.00  0.00     0.027 C 
ENDROOT
BRANCH   1   2
ATOM      2  C   UNL     1      -5.408  28.746 -22.736  1.00  0.00     0.004 C 
BRANCH   2   3
ATOM      3  C   UNL     1      -4.004  28.868 -22.128  1.00  0.00    -0.003 C 
ATOM      4  C   UNL     1      -4.027  28.590 -20.627  1.00  0.00     0.004 C 
ENDBRANCH   2   3
ENDBRANCH   1   2
BRANCH   1   5
ATOM      5  C   UNL     1      -4.453  29.539 -24.939  1.00  0.00    -0.023 C 
ATOM      6  C   UNL     1      -4.843  30.584 -25.688  1.00  0.00     0.042 C 
BRANCH   6   7
ATOM      7  C   UNL     1      -6.236  30.944 -26.039  1.00  0.00     0.152 C 
ATOM      8  O   UNL     1      -6.674  30.826 -27.214  1.00  0.00    -0.295 OA
ATOM      9  C   UNL     1      -7.125  31.531 -24.991  1.00  0.00     0.093 C 
ENDBRANCH   6   7
ENDBRANCH   1   5
TORSDOF 4
ENDMDL
MODEL 6
REMARK VINA RESULT:    -4.180      1.731      2.251
REMARK INTER + INTRA:          -5.359
REMARK INTER:                  -5.182
REMARK INTRA:                  -0.177
REMARK UNBOUND:                -0.201
REMARK SMILES CCCCC=CC(C)=O
REMARK SMILES IDX 4 1 3 2 2 3 1 4 5 5 6 6 7 7 9 8 8 9
REMARK H PARENT
REMARK Flexibility Score: inf
ROOT
ATOM      1  C   UNL     1      -4.142  28.315 -19.246  1.00  0.00     0.027 C 
ENDROOT
BRANCH   1   2
ATOM      2  C   UNL     1      -3.416  28.889 -20.472  1.00  0.00     0.004 C 
BRANCH   2   3
ATOM      3  C   UNL     1      -4.251  28.750 -21.753  1.00  0.00    -0.003 C 
ATOM      4  C   UNL     1      -3.432  29.118 -22.988  1.00  0.00     0.004 C 
ENDBRANCH   2   3
ENDBRANCH   1   2
BRANCH   1   5
ATOM      5  C   UNL     1      -3.765  26.882 -18.973  1.00  0.00    -0.023 C 
ATOM      6  C   UNL     1      -4.192  26.137 -17.940  1.00  0.00     0.042 C 
BRANCH   6   7
ATOM      7  C   UNL     1      -5.073  26.584 -16.837  1.00  0.00     0.152 C 
ATOM      8  O   UNL     1      -4.619  26.845 -15.691  1.00  0.00    -0.295 OA
ATOM      9  C   UNL     1      -6.548  26.657 -17.065  1.00  0.00     0.093 C 
ENDBRANCH   6   7
ENDBRANCH   1   5
TORSDOF 4
ENDMDL
MODEL 7
REMARK VINA RESULT:    -4.145      5.806      7.161
REMARK INTER + INTRA:          -5.315
REMARK INTER:                  -5.035
REMARK INTRA:                  -0.280
REMARK UNBOUND:                -0.201
REMARK SMILES CCCCC=CC(C)=O
REMARK SMILES IDX 4 1 3 2 2 3 1 4 5 5 6 6 7 7 9 8 8 9
REMARK H PARENT
REMARK Flexibility Score: inf
ROOT
ATOM      1  C   UNL     1      -0.380  30.950 -23.862  1.00  0.00     0.027 C 
ENDROOT
BRANCH   1   2
ATOM      2  C   UNL     1      -1.898  30.839 -23.653  1.00  0.00     0.004 C 
BRANCH   2   3
ATOM      3  C   UNL     1      -2.258  29.805 -22.576  1.00  0.00    -0.003 C 
ATOM      4  C   UNL     1      -3.557  29.080 -22.920  1.00  0.00     0.004 C 
ENDBRANCH   2   3
ENDBRANCH   1   2
BRANCH   1   5
ATOM      5  C   UNL     1       0.380  29.863 -23.146  1.00  0.00    -0.023 C 
ATOM      6  C   UNL     1       1.662  29.927 -22.750  1.00  0.00     0.042 C 
BRANCH   6   7
ATOM      7  C   UNL     1       2.600  31.048 -22.982  1.00  0.00     0.152 C 
ATOM      8  O   UNL     1       2.709  32.001 -22.165  1.00  0.00    -0.295 OA
ATOM      9  C   UNL     1       3.387  31.091 -24.252  1.00  0.00     0.093 C 
ENDBRANCH   6   7
ENDBRANCH   1   5
TORSDOF 4
ENDMDL
MODEL 8
REMARK VINA RESULT:    -4.070     12.097     13.257
REMARK INTER + INTRA:          -5.223
REMARK INTER:                  -5.016
REMARK INTRA:                  -0.207
REMARK UNBOUND:                -0.201
REMARK SMILES CCCCC=CC(C)=O
REMARK SMILES IDX 4 1 3 2 2 3 1 4 5 5 6 6 7 7 9 8 8 9
REMARK H PARENT
REMARK Flexibility Score: inf
ROOT
ATOM      1  C   UNL     1       2.890  30.789 -11.107  1.00  0.00     0.027 C 
ENDROOT
BRANCH   1   2
ATOM      2  C   UNL     1       3.720  29.552 -10.731  1.00  0.00     0.004 C 
BRANCH   2   3
ATOM      3  C   UNL     1       5.022  29.464 -11.539  1.00  0.00    -0.003 C 
ATOM      4  C   UNL     1       6.234  29.783 -10.667  1.00  0.00     0.004 C 
ENDBRANCH   2   3
ENDBRANCH   1   2
BRANCH   1   5
ATOM      5  C   UNL     1       2.792  31.781  -9.977  1.00  0.00    -0.023 C 
ATOM      6  C   UNL     1       1.875  32.755  -9.860  1.00  0.00     0.042 C 
BRANCH   6   7
ATOM      7  C   UNL     1       0.812  33.087 -10.836  1.00  0.00     0.152 C 
ATOM      8  O   UNL     1       1.073  33.643 -11.935  1.00  0.00    -0.295 OA
ATOM      9  C   UNL     1      -0.615  32.821 -10.479  1.00  0.00     0.093 C 
ENDBRANCH   6   7
ENDBRANCH   1   5
TORSDOF 4
ENDMDL
MODEL 9
REMARK VINA RESULT:    -4.057      7.714      8.791
REMARK INTER + INTRA:          -5.207
REMARK INTER:                  -5.036
REMARK INTRA:                  -0.171
REMARK UNBOUND:                -0.201
REMARK SMILES CCCCC=CC(C)=O
REMARK SMILES IDX 4 1 3 2 2 3 1 4 5 5 6 6 7 7 9 8 8 9
REMARK H PARENT
REMARK Flexibility Score: inf
ROOT
ATOM      1  C   UNL     1       1.432  31.711 -25.848  1.00  0.00     0.027 C 
ENDROOT
BRANCH   1   2
ATOM      2  C   UNL     1       1.435  32.426 -27.209  1.00  0.00     0.004 C 
BRANCH   2   3
ATOM      3  C   UNL     1       0.076  33.067 -27.525  1.00  0.00    -0.003 C 
ATOM      4  C   UNL     1      -0.294  32.876 -28.994  1.00  0.00     0.004 C 
ENDBRANCH   2   3
ENDBRANCH   1   2
BRANCH   1   5
ATOM      5  C   UNL     1       2.729  30.997 -25.571  1.00  0.00    -0.023 C 
ATOM      6  C   UNL     1       3.131  30.527 -24.379  1.00  0.00     0.042 C 
BRANCH   6   7
ATOM      7  C   UNL     1       2.411  30.658 -23.092  1.00  0.00     0.152 C 
ATOM      8  O   UNL     1       2.467  31.713 -22.406  1.00  0.00    -0.295 OA
ATOM      9  C   UNL     1       1.658  29.484 -22.554  1.00  0.00     0.093 C 
ENDBRANCH   6   7
ENDBRANCH   1   5
TORSDOF 4
ENDMDL
