MODEL 1
REMARK VINA RESULT:     5.582      0.000      0.000
REMARK INTER + INTRA:           9.319
REMARK INTER:                  10.477
REMARK INTRA:                  -1.157
REMARK UNBOUND:                -1.157
REMARK SMILES CCCCCCCCC=CCCCCCCCC(=O)[O-]
REMARK SMILES IDX 10 1 9 2 11 3 12 4 13 5 14 6 15 7 16 8 17 9 18 10 19 11
REMARK SMILES IDX 20 12 8 13 7 14 6 15 5 16 4 17 3 18 2 19 1 20
REMARK H PARENT
REMARK Flexibility Score: inf
ROOT
ATOM      1  C   UNL     1     -38.954  23.116   8.384  1.00  0.00    -0.031 C 
ATOM      2  C   UNL     1     -38.583  24.207   7.699  1.00  0.00    -0.031 C 
ENDROOT
BRANCH   1   3
ATOM      3  C   UNL     1     -40.294  23.027   9.065  1.00  0.00     0.027 C 
BRANCH   3   4
ATOM      4  C   UNL     1     -40.984  21.676   8.823  1.00  0.00     0.004 C 
BRANCH   4   5
ATOM      5  C   UNL     1     -41.975  21.734   7.651  1.00  0.00     0.000 C 
BRANCH   5   6
ATOM      6  C   UNL     1     -41.235  21.724   6.305  1.00  0.00     0.000 C 
BRANCH   6   7
ATOM      7  C   UNL     1     -41.781  22.773   5.323  1.00  0.00     0.000 C 
BRANCH   7   8
ATOM      8  C   UNL     1     -41.069  24.131   5.450  1.00  0.00     0.006 C 
BRANCH   8   9
ATOM      9  C   UNL     1     -41.992  25.305   5.099  1.00  0.00     0.053 C 
BRANCH   9  10
ATOM     10  C   UNL     1     -41.893  26.410   6.104  1.00  0.00     0.041 C 
ATOM     11  O   UNL     1     -41.574  26.157   7.296  1.00  0.00    -0.550 OA
ATOM     12  O   UNL     1     -42.125  27.726   5.720  1.00  0.00    -0.550 OA
ENDBRANCH   9  10
ENDBRANCH   8   9
ENDBRANCH   7   8
ENDBRANCH   6   7
ENDBRANCH   5   6
ENDBRANCH   4   5
ENDBRANCH   3   4
ENDBRANCH   1   3
BRANCH   2  13
ATOM     13  C   UNL     1     -37.236  24.275   7.035  1.00  0.00     0.027 C 
BRANCH  13  14
ATOM     14  C   UNL     1     -36.516  25.585   7.369  1.00  0.00     0.004 C 
BRANCH  14  15
ATOM     15  C   UNL     1     -35.005  25.357   7.526  1.00  0.00     0.000 C 
BRANCH  15  16
ATOM     16  C   UNL     1     -34.506  25.653   8.948  1.00  0.00     0.000 C 
BRANCH  16  17
ATOM     17  C   UNL     1     -32.974  25.628   9.054  1.00  0.00    -0.000 C 
BRANCH  17  18
ATOM     18  C   UNL     1     -32.392  24.427   8.292  1.00  0.00    -0.000 C 
BRANCH  18  19
ATOM     19  C   UNL     1     -31.400  24.848   7.196  1.00  0.00    -0.003 C 
ATOM     20  C   UNL     1     -30.572  26.072   7.585  1.00  0.00     0.004 C 
ENDBRANCH  18  19
ENDBRANCH  17  18
ENDBRANCH  16  17
ENDBRANCH  15  16
ENDBRANCH  14  15
ENDBRANCH  13  14
ENDBRANCH   2  13
TORSDOF 15
ENDMDL
MODEL 2
REMARK VINA RESULT:     6.453     15.799     18.399
REMARK INTER + INTRA:          10.954
REMARK INTER:                  11.564
REMARK INTRA:                  -0.610
REMARK UNBOUND:                -1.157
REMARK SMILES CCCCCCCCC=CCCCCCCCC(=O)[O-]
REMARK SMILES IDX 10 1 9 2 11 3 12 4 13 5 14 6 15 7 16 8 17 9 18 10 19 11
REMARK SMILES IDX 20 12 8 13 7 14 6 15 5 16 4 17 3 18 2 19 1 20
REMARK H PARENT
REMARK Flexibility Score: inf
ROOT
ATOM      1  C   UNL     1     -41.385  31.057  -9.723  1.00  0.00    -0.031 C 
ATOM      2  C   UNL     1     -42.124  32.172  -9.803  1.00  0.00    -0.031 C 
ENDROOT
BRANCH   1   3
ATOM      3  C   UNL     1     -41.820  29.877  -8.895  1.00  0.00     0.027 C 
BRANCH   3   4
ATOM      4  C   UNL     1     -42.047  28.618  -9.745  1.00  0.00     0.004 C 
BRANCH   4   5
ATOM      5  C   UNL     1     -42.080  27.342  -8.891  1.00  0.00     0.000 C 
BRANCH   5   6
ATOM      6  C   UNL     1     -40.951  27.349  -7.850  1.00  0.00     0.000 C 
BRANCH   6   7
ATOM      7  C   UNL     1     -40.153  26.035  -7.836  1.00  0.00     0.000 C 
BRANCH   7   8
ATOM      8  C   UNL     1     -39.979  25.462  -6.419  1.00  0.00     0.006 C 
BRANCH   8   9
ATOM      9  C   UNL     1     -41.006  24.366  -6.106  1.00  0.00     0.053 C 
BRANCH   9  10
ATOM     10  C   UNL     1     -41.033  23.310  -7.168  1.00  0.00     0.041 C 
ATOM     11  O   UNL     1     -40.566  22.164  -6.935  1.00  0.00    -0.550 OA
ATOM     12  O   UNL     1     -41.602  23.581  -8.407  1.00  0.00    -0.550 OA
ENDBRANCH   9  10
ENDBRANCH   8   9
ENDBRANCH   7   8
ENDBRANCH   6   7
ENDBRANCH   5   6
ENDBRANCH   4   5
ENDBRANCH   3   4
ENDBRANCH   1   3
BRANCH   2  13
ATOM     13  C   UNL     1     -41.663  33.340 -10.631  1.00  0.00     0.027 C 
BRANCH  13  14
ATOM     14  C   UNL     1     -41.902  34.667  -9.903  1.00  0.00     0.004 C 
BRANCH  14  15
ATOM     15  C   UNL     1     -40.666  35.079  -9.091  1.00  0.00     0.000 C 
BRANCH  15  16
ATOM     16  C   UNL     1     -39.728  36.011  -9.873  1.00  0.00     0.000 C 
BRANCH  16  17
ATOM     17  C   UNL     1     -38.979  35.286 -11.001  1.00  0.00    -0.000 C 
BRANCH  17  18
ATOM     18  C   UNL     1     -37.640  34.726 -10.496  1.00  0.00    -0.000 C 
BRANCH  18  19
ATOM     19  C   UNL     1     -37.296  33.364 -11.121  1.00  0.00    -0.003 C 
ATOM     20  C   UNL     1     -38.261  32.257 -10.696  1.00  0.00     0.004 C 
ENDBRANCH  18  19
ENDBRANCH  17  18
ENDBRANCH  16  17
ENDBRANCH  15  16
ENDBRANCH  14  15
ENDBRANCH  13  14
ENDBRANCH   2  13
TORSDOF 15
ENDMDL
MODEL 3
REMARK VINA RESULT:     6.660      1.270      2.109
REMARK INTER + INTRA:          11.343
REMARK INTER:                  12.466
REMARK INTRA:                  -1.123
REMARK UNBOUND:                -1.157
REMARK SMILES CCCCCCCCC=CCCCCCCCC(=O)[O-]
REMARK SMILES IDX 10 1 9 2 11 3 12 4 13 5 14 6 15 7 16 8 17 9 18 10 19 11
REMARK SMILES IDX 20 12 8 13 7 14 6 15 5 16 4 17 3 18 2 19 1 20
REMARK H PARENT
REMARK Flexibility Score: inf
ROOT
ATOM      1  C   UNL     1     -37.852  24.338   7.209  1.00  0.00    -0.031 C 
ATOM      2  C   UNL     1     -37.200  25.504   7.326  1.00  0.00    -0.031 C 
ENDROOT
BRANCH   1   3
ATOM      3  C   UNL     1     -39.106  24.052   7.991  1.00  0.00     0.027 C 
BRANCH   3   4
ATOM      4  C   UNL     1     -38.880  23.014   9.100  1.00  0.00     0.004 C 
BRANCH   4   5
ATOM      5  C   UNL     1     -39.970  21.932   9.111  1.00  0.00     0.000 C 
BRANCH   5   6
ATOM      6  C   UNL     1     -41.358  22.549   8.880  1.00  0.00     0.000 C 
BRANCH   6   7
ATOM      7  C   UNL     1     -42.125  21.864   7.737  1.00  0.00     0.000 C 
BRANCH   7   8
ATOM      8  C   UNL     1     -41.598  22.261   6.348  1.00  0.00     0.006 C 
BRANCH   8   9
ATOM      9  C   UNL     1     -42.125  23.629   5.896  1.00  0.00     0.053 C 
BRANCH   9  10
ATOM     10  C   UNL     1     -41.109  24.378   5.090  1.00  0.00     0.041 C 
ATOM     11  O   UNL     1     -40.067  23.798   4.686  1.00  0.00    -0.550 OA
ATOM     12  O   UNL     1     -41.326  25.711   4.760  1.00  0.00    -0.550 OA
ENDBRANCH   9  10
ENDBRANCH   8   9
ENDBRANCH   7   8
ENDBRANCH   6   7
ENDBRANCH   5   6
ENDBRANCH   4   5
ENDBRANCH   3   4
ENDBRANCH   1   3
BRANCH   2  13
ATOM     13  C   UNL     1     -35.944  25.761   6.540  1.00  0.00     0.027 C 
BRANCH  13  14
ATOM     14  C   UNL     1     -34.933  26.573   7.357  1.00  0.00     0.004 C 
BRANCH  14  15
ATOM     15  C   UNL     1     -34.753  25.975   8.760  1.00  0.00     0.000 C 
BRANCH  15  16
ATOM     16  C   UNL     1     -33.398  25.273   8.934  1.00  0.00     0.000 C 
BRANCH  16  17
ATOM     17  C   UNL     1     -32.694  25.004   7.595  1.00  0.00    -0.000 C 
BRANCH  17  18
ATOM     18  C   UNL     1     -31.339  24.316   7.818  1.00  0.00    -0.000 C 
BRANCH  18  19
ATOM     19  C   UNL     1     -30.167  25.115   7.225  1.00  0.00    -0.003 C 
ATOM     20  C   UNL     1     -30.317  26.622   7.423  1.00  0.00     0.004 C 
ENDBRANCH  18  19
ENDBRANCH  17  18
ENDBRANCH  16  17
ENDBRANCH  15  16
ENDBRANCH  14  15
ENDBRANCH  13  14
ENDBRANCH   2  13
TORSDOF 15
ENDMDL
MODEL 4
REMARK VINA RESULT:     7.200     15.433     18.179
REMARK INTER + INTRA:          12.356
REMARK INTER:                  13.100
REMARK INTRA:                  -0.743
REMARK UNBOUND:                -1.157
REMARK SMILES CCCCCCCCC=CCCCCCCCC(=O)[O-]
REMARK SMILES IDX 10 1 9 2 11 3 12 4 13 5 14 6 15 7 16 8 17 9 18 10 19 11
REMARK SMILES IDX 20 12 8 13 7 14 6 15 5 16 4 17 3 18 2 19 1 20
REMARK H PARENT
REMARK Flexibility Score: inf
ROOT
ATOM      1  C   UNL     1     -41.392  29.711  -8.991  1.00  0.00    -0.031 C 
ATOM      2  C   UNL     1     -42.124  30.637  -9.627  1.00  0.00    -0.031 C 
ENDROOT
BRANCH   1   3
ATOM      3  C   UNL     1     -42.025  28.676  -8.101  1.00  0.00     0.027 C 
BRANCH   3   4
ATOM      4  C   UNL     1     -41.786  27.245  -8.606  1.00  0.00     0.004 C 
BRANCH   4   5
ATOM      5  C   UNL     1     -40.925  26.425  -7.634  1.00  0.00     0.000 C 
BRANCH   5   6
ATOM      6  C   UNL     1     -41.801  25.520  -6.754  1.00  0.00     0.000 C 
BRANCH   6   7
ATOM      7  C   UNL     1     -41.031  24.310  -6.201  1.00  0.00     0.000 C 
BRANCH   7   8
ATOM      8  C   UNL     1     -40.948  23.150  -7.208  1.00  0.00     0.006 C 
BRANCH   8   9
ATOM      9  C   UNL     1     -39.953  23.436  -8.341  1.00  0.00     0.053 C 
BRANCH   9  10
ATOM     10  C   UNL     1     -38.540  23.471  -7.845  1.00  0.00     0.041 C 
ATOM     11  O   UNL     1     -37.857  22.414  -7.802  1.00  0.00    -0.550 OA
ATOM     12  O   UNL     1     -37.967  24.677  -7.457  1.00  0.00    -0.550 OA
ENDBRANCH   9  10
ENDBRANCH   8   9
ENDBRANCH   7   8
ENDBRANCH   6   7
ENDBRANCH   5   6
ENDBRANCH   4   5
ENDBRANCH   3   4
ENDBRANCH   1   3
BRANCH   2  13
ATOM     13  C   UNL     1     -41.466  31.666 -10.504  1.00  0.00     0.027 C 
BRANCH  13  14
ATOM     14  C   UNL     1     -40.368  32.422  -9.749  1.00  0.00     0.004 C 
BRANCH  14  15
ATOM     15  C   UNL     1     -39.391  33.092 -10.725  1.00  0.00     0.000 C 
BRANCH  15  16
ATOM     16  C   UNL     1     -38.578  34.219 -10.069  1.00  0.00     0.000 C 
BRANCH  16  17
ATOM     17  C   UNL     1     -39.180  35.609 -10.327  1.00  0.00    -0.000 C 
BRANCH  17  18
ATOM     18  C   UNL     1     -39.963  36.102  -9.101  1.00  0.00    -0.000 C 
BRANCH  18  19
ATOM     19  C   UNL     1     -41.423  35.619  -9.099  1.00  0.00    -0.003 C 
ATOM     20  C   UNL     1     -42.072  35.692 -10.480  1.00  0.00     0.004 C 
ENDBRANCH  18  19
ENDBRANCH  17  18
ENDBRANCH  16  17
ENDBRANCH  15  16
ENDBRANCH  14  15
ENDBRANCH  13  14
ENDBRANCH   2  13
TORSDOF 15
ENDMDL
MODEL 5
REMARK VINA RESULT:     7.393      3.484      8.225
REMARK INTER + INTRA:          12.718
REMARK INTER:                  12.672
REMARK INTRA:                   0.046
REMARK UNBOUND:                -1.157
REMARK SMILES CCCCCCCCC=CCCCCCCCC(=O)[O-]
REMARK SMILES IDX 10 1 9 2 11 3 12 4 13 5 14 6 15 7 16 8 17 9 18 10 19 11
REMARK SMILES IDX 20 12 8 13 7 14 6 15 5 16 4 17 3 18 2 19 1 20
REMARK H PARENT
REMARK Flexibility Score: inf
ROOT
ATOM      1  C   UNL     1     -39.250  23.787   8.145  1.00  0.00    -0.031 C 
ATOM      2  C   UNL     1     -39.216  22.642   8.842  1.00  0.00    -0.031 C 
ENDROOT
BRANCH   1   3
ATOM      3  C   UNL     1     -38.005  24.592   7.885  1.00  0.00     0.027 C 
BRANCH   3   4
ATOM      4  C   UNL     1     -37.127  23.972   6.786  1.00  0.00     0.004 C 
BRANCH   4   5
ATOM      5  C   UNL     1     -36.231  25.017   6.105  1.00  0.00     0.000 C 
BRANCH   5   6
ATOM      6  C   UNL     1     -35.972  26.210   7.037  1.00  0.00     0.000 C 
BRANCH   6   7
ATOM      7  C   UNL     1     -34.480  26.398   7.354  1.00  0.00     0.000 C 
BRANCH   7   8
ATOM      8  C   UNL     1     -33.972  25.415   8.422  1.00  0.00     0.006 C 
BRANCH   8   9
ATOM      9  C   UNL     1     -32.497  25.651   8.774  1.00  0.00     0.053 C 
BRANCH   9  10
ATOM     10  C   UNL     1     -31.580  24.882   7.873  1.00  0.00     0.041 C 
ATOM     11  O   UNL     1     -31.801  23.666   7.632  1.00  0.00    -0.550 OA
ATOM     12  O   UNL     1     -30.497  25.516   7.275  1.00  0.00    -0.550 OA
ENDBRANCH   9  10
ENDBRANCH   8   9
ENDBRANCH   7   8
ENDBRANCH   6   7
ENDBRANCH   5   6
ENDBRANCH   4   5
ENDBRANCH   3   4
ENDBRANCH   1   3
BRANCH   2  13
ATOM     13  C   UNL     1     -40.476  21.862   9.095  1.00  0.00     0.027 C 
BRANCH  13  14
ATOM     14  C   UNL     1     -41.697  22.563   8.492  1.00  0.00     0.004 C 
BRANCH  14  15
ATOM     15  C   UNL     1     -42.125  21.891   7.180  1.00  0.00     0.000 C 
BRANCH  15  16
ATOM     16  C   UNL     1     -41.239  22.296   5.991  1.00  0.00     0.000 C 
BRANCH  16  17
ATOM     17  C   UNL     1     -42.007  23.094   4.927  1.00  0.00    -0.000 C 
BRANCH  17  18
ATOM     18  C   UNL     1     -42.037  24.589   5.280  1.00  0.00    -0.000 C 
BRANCH  18  19
ATOM     19  C   UNL     1     -42.124  24.836   6.794  1.00  0.00    -0.003 C 
ATOM     20  C   UNL     1     -41.552  26.191   7.207  1.00  0.00     0.004 C 
ENDBRANCH  18  19
ENDBRANCH  17  18
ENDBRANCH  16  17
ENDBRANCH  15  16
ENDBRANCH  14  15
ENDBRANCH  13  14
ENDBRANCH   2  13
TORSDOF 15
ENDMDL
MODEL 6
REMARK VINA RESULT:     7.400      1.728      2.076
REMARK INTER + INTRA:          12.731
REMARK INTER:                  10.484
REMARK INTRA:                   2.247
REMARK UNBOUND:                -1.157
REMARK SMILES CCCCCCCCC=CCCCCCCCC(=O)[O-]
REMARK SMILES IDX 10 1 9 2 11 3 12 4 13 5 14 6 15 7 16 8 17 9 18 10 19 11
REMARK SMILES IDX 20 12 8 13 7 14 6 15 5 16 4 17 3 18 2 19 1 20
REMARK H PARENT
REMARK Flexibility Score: inf
ROOT
ATOM      1  C   UNL     1     -39.398  23.480   8.348  1.00  0.00    -0.031 C 
ATOM      2  C   UNL     1     -38.186  23.817   7.885  1.00  0.00    -0.031 C 
ENDROOT
BRANCH   1   3
ATOM      3  C   UNL     1     -39.624  22.210   9.125  1.00  0.00     0.027 C 
BRANCH   3   4
ATOM      4  C   UNL     1     -40.642  21.282   8.446  1.00  0.00     0.004 C 
BRANCH   4   5
ATOM      5  C   UNL     1     -42.041  21.911   8.375  1.00  0.00     0.000 C 
BRANCH   5   6
ATOM      6  C   UNL     1     -42.125  22.937   7.234  1.00  0.00     0.000 C 
BRANCH   6   7
ATOM      7  C   UNL     1     -42.065  24.387   7.738  1.00  0.00     0.000 C 
BRANCH   7   8
ATOM      8  C   UNL     1     -41.357  25.330   6.750  1.00  0.00     0.006 C 
BRANCH   8   9
ATOM      9  C   UNL     1     -41.604  24.931   5.289  1.00  0.00     0.053 C 
BRANCH   9  10
ATOM     10  C   UNL     1     -40.745  23.776   4.875  1.00  0.00     0.041 C 
ATOM     11  O   UNL     1     -39.626  23.979   4.336  1.00  0.00    -0.550 OA
ATOM     12  O   UNL     1     -41.168  22.473   5.111  1.00  0.00    -0.550 OA
ENDBRANCH   9  10
ENDBRANCH   8   9
ENDBRANCH   7   8
ENDBRANCH   6   7
ENDBRANCH   5   6
ENDBRANCH   4   5
ENDBRANCH   3   4
ENDBRANCH   1   3
BRANCH   2  13
ATOM     13  C   UNL     1     -37.989  25.086   7.104  1.00  0.00     0.027 C 
BRANCH  13  14
ATOM     14  C   UNL     1     -36.756  25.854   7.591  1.00  0.00     0.004 C 
BRANCH  14  15
ATOM     15  C   UNL     1     -35.505  25.445   6.800  1.00  0.00     0.000 C 
BRANCH  15  16
ATOM     16  C   UNL     1     -34.207  25.647   7.597  1.00  0.00     0.000 C 
BRANCH  16  17
ATOM     17  C   UNL     1     -32.969  25.121   6.855  1.00  0.00    -0.000 C 
BRANCH  17  18
ATOM     18  C   UNL     1     -31.921  24.593   7.847  1.00  0.00    -0.000 C 
BRANCH  18  19
ATOM     19  C   UNL     1     -30.993  25.702   8.370  1.00  0.00    -0.003 C 
ATOM     20  C   UNL     1     -30.118  26.307   7.273  1.00  0.00     0.004 C 
ENDBRANCH  18  19
ENDBRANCH  17  18
ENDBRANCH  16  17
ENDBRANCH  15  16
ENDBRANCH  14  15
ENDBRANCH  13  14
ENDBRANCH   2  13
TORSDOF 15
ENDMDL
MODEL 7
REMARK VINA RESULT:     7.836      3.767      8.589
REMARK INTER + INTRA:          13.550
REMARK INTER:                  14.758
REMARK INTRA:                  -1.208
REMARK UNBOUND:                -1.157
REMARK SMILES CCCCCCCCC=CCCCCCCCC(=O)[O-]
REMARK SMILES IDX 10 1 9 2 11 3 12 4 13 5 14 6 15 7 16 8 17 9 18 10 19 11
REMARK SMILES IDX 20 12 8 13 7 14 6 15 5 16 4 17 3 18 2 19 1 20
REMARK H PARENT
REMARK Flexibility Score: inf
ROOT
ATOM      1  C   UNL     1     -37.598  23.982   7.483  1.00  0.00    -0.031 C 
ATOM      2  C   UNL     1     -38.926  23.989   7.671  1.00  0.00    -0.031 C 
ENDROOT
BRANCH   1   3
ATOM      3  C   UNL     1     -36.982  24.416   6.180  1.00  0.00     0.027 C 
BRANCH   3   4
ATOM      4  C   UNL     1     -35.765  25.331   6.385  1.00  0.00     0.004 C 
BRANCH   4   5
ATOM      5  C   UNL     1     -35.815  26.065   7.733  1.00  0.00     0.000 C 
BRANCH   5   6
ATOM      6  C   UNL     1     -34.467  25.965   8.464  1.00  0.00     0.000 C 
BRANCH   6   7
ATOM      7  C   UNL     1     -33.297  25.681   7.508  1.00  0.00     0.000 C 
BRANCH   7   8
ATOM      8  C   UNL     1     -32.420  24.507   7.977  1.00  0.00     0.006 C 
BRANCH   8   9
ATOM      9  C   UNL     1     -30.960  24.660   7.531  1.00  0.00     0.053 C 
BRANCH   9  10
ATOM     10  C   UNL     1     -30.491  26.078   7.641  1.00  0.00     0.041 C 
ATOM     11  O   UNL     1     -30.142  26.712   6.610  1.00  0.00    -0.550 OA
ATOM     12  O   UNL     1     -30.464  26.710   8.878  1.00  0.00    -0.550 OA
ENDBRANCH   9  10
ENDBRANCH   8   9
ENDBRANCH   7   8
ENDBRANCH   6   7
ENDBRANCH   5   6
ENDBRANCH   4   5
ENDBRANCH   3   4
ENDBRANCH   1   3
BRANCH   2  13
ATOM     13  C   UNL     1     -39.517  23.542   8.979  1.00  0.00     0.027 C 
BRANCH  13  14
ATOM     14  C   UNL     1     -40.979  23.114   8.811  1.00  0.00     0.004 C 
BRANCH  14  15
ATOM     15  C   UNL     1     -41.074  21.659   8.331  1.00  0.00     0.000 C 
BRANCH  15  16
ATOM     16  C   UNL     1     -41.973  21.501   7.095  1.00  0.00     0.000 C 
BRANCH  16  17
ATOM     17  C   UNL     1     -42.124  22.809   6.303  1.00  0.00    -0.000 C 
BRANCH  17  18
ATOM     18  C   UNL     1     -40.906  23.042   5.395  1.00  0.00    -0.000 C 
BRANCH  18  19
ATOM     19  C   UNL     1     -40.915  24.434   4.743  1.00  0.00    -0.003 C 
ATOM     20  C   UNL     1     -41.746  25.450   5.525  1.00  0.00     0.004 C 
ENDBRANCH  18  19
ENDBRANCH  17  18
ENDBRANCH  16  17
ENDBRANCH  15  16
ENDBRANCH  14  15
ENDBRANCH  13  14
ENDBRANCH   2  13
TORSDOF 15
ENDMDL
