MODEL 1
REMARK VINA RESULT:    -5.092      0.000      0.000
REMARK INTER + INTRA:          -5.486
REMARK INTER:                  -5.389
REMARK INTRA:                  -0.097
REMARK UNBOUND:                -0.097
REMARK SMILES C=C(C)[C@@H]1CC=C(C)C(=O)C1
REMARK SMILES IDX 8 1 7 2 6 3 5 4 4 5 11 6 9 7 10 8 2 9 1 10 3 11
REMARK H PARENT
REMARK Flexibility Score: inf
ROOT
ATOM      1  C   UNL     1     -24.529   9.996 -27.580  1.00  0.00     0.048 C 
ATOM      2  C   UNL     1     -25.474  10.947 -28.259  1.00  0.00    -0.012 C 
ATOM      3  C   UNL     1     -26.769  10.977 -27.896  1.00  0.00    -0.019 C 
ATOM      4  C   UNL     1     -27.754  11.921 -28.530  1.00  0.00     0.036 C 
ATOM      5  C   UNL     1     -27.400  12.183 -30.007  1.00  0.00     0.025 C 
ATOM      6  C   UNL     1     -25.950  12.687 -30.126  1.00  0.00     0.089 C 
ATOM      7  C   UNL     1     -25.007  11.759 -29.411  1.00  0.00     0.158 C 
ATOM      8  O   UNL     1     -23.802  11.706 -29.776  1.00  0.00    -0.295 OA
ENDROOT
BRANCH   5   9
ATOM      9  C   UNL     1     -28.384  13.147 -30.659  1.00  0.00    -0.077 C 
ATOM     10  C   UNL     1     -27.961  14.235 -31.325  1.00  0.00     0.008 C 
ATOM     11  C   UNL     1     -29.866  12.891 -30.566  1.00  0.00     0.039 C 
ENDBRANCH   5   9
TORSDOF 1
ENDMDL
MODEL 2
REMARK VINA RESULT:    -5.053      2.593      4.014
REMARK INTER + INTRA:          -5.445
REMARK INTER:                  -5.350
REMARK INTRA:                  -0.096
REMARK UNBOUND:                -0.097
REMARK SMILES C=C(C)[C@@H]1CC=C(C)C(=O)C1
REMARK SMILES IDX 8 1 7 2 6 3 5 4 4 5 11 6 9 7 10 8 2 9 1 10 3 11
REMARK H PARENT
REMARK Flexibility Score: inf
ROOT
ATOM      1  C   UNL     1     -29.412  11.446 -28.857  1.00  0.00     0.048 C 
ATOM      2  C   UNL     1     -28.284  12.231 -29.464  1.00  0.00    -0.012 C 
ATOM      3  C   UNL     1     -27.032  12.077 -28.996  1.00  0.00    -0.019 C 
ATOM      4  C   UNL     1     -25.863  12.824 -29.580  1.00  0.00     0.036 C 
ATOM      5  C   UNL     1     -26.291  14.216 -30.085  1.00  0.00     0.025 C 
ATOM      6  C   UNL     1     -27.457  14.086 -31.083  1.00  0.00     0.089 C 
ATOM      7  C   UNL     1     -28.570  13.265 -30.492  1.00  0.00     0.158 C 
ATOM      8  O   UNL     1     -29.747  13.437 -30.907  1.00  0.00    -0.295 OA
ENDROOT
BRANCH   5   9
ATOM      9  C   UNL     1     -25.119  14.979 -30.689  1.00  0.00    -0.077 C 
ATOM     10  C   UNL     1     -23.963  14.363 -30.992  1.00  0.00     0.008 C 
ATOM     11  C   UNL     1     -25.238  16.457 -30.957  1.00  0.00     0.039 C 
ENDBRANCH   5   9
TORSDOF 1
ENDMDL
MODEL 3
REMARK VINA RESULT:    -5.007      7.281      9.162
REMARK INTER + INTRA:          -5.397
REMARK INTER:                  -5.302
REMARK INTRA:                  -0.094
REMARK UNBOUND:                -0.097
REMARK SMILES C=C(C)[C@@H]1CC=C(C)C(=O)C1
REMARK SMILES IDX 8 1 7 2 6 3 5 4 4 5 11 6 9 7 10 8 2 9 1 10 3 11
REMARK H PARENT
REMARK Flexibility Score: inf
ROOT
ATOM      1  C   UNL     1     -30.062  19.239 -34.258  1.00  0.00     0.048 C 
ATOM      2  C   UNL     1     -28.612  19.287 -33.866  1.00  0.00    -0.012 C 
ATOM      3  C   UNL     1     -27.867  20.360 -34.188  1.00  0.00    -0.019 C 
ATOM      4  C   UNL     1     -26.416  20.469 -33.804  1.00  0.00     0.036 C 
ATOM      5  C   UNL     1     -25.740  19.084 -33.790  1.00  0.00     0.025 C 
ATOM      6  C   UNL     1     -26.516  18.121 -32.872  1.00  0.00     0.089 C 
ATOM      7  C   UNL     1     -27.975  18.103 -33.236  1.00  0.00     0.158 C 
ATOM      8  O   UNL     1     -28.663  17.082 -32.966  1.00  0.00    -0.295 OA
ENDROOT
BRANCH   5   9
ATOM      9  C   UNL     1     -24.272  19.177 -33.393  1.00  0.00    -0.077 C 
ATOM     10  C   UNL     1     -23.468  20.125 -33.905  1.00  0.00     0.008 C 
ATOM     11  C   UNL     1     -23.692  18.196 -32.407  1.00  0.00     0.039 C 
ENDBRANCH   5   9
TORSDOF 1
ENDMDL
MODEL 4
REMARK VINA RESULT:    -4.957      1.494      2.754
REMARK INTER + INTRA:          -5.343
REMARK INTER:                  -5.247
REMARK INTRA:                  -0.097
REMARK UNBOUND:                -0.097
REMARK SMILES C=C(C)[C@@H]1CC=C(C)C(=O)C1
REMARK SMILES IDX 8 1 7 2 6 3 5 4 4 5 11 6 9 7 10 8 2 9 1 10 3 11
REMARK H PARENT
REMARK Flexibility Score: inf
ROOT
ATOM      1  C   UNL     1     -23.143  13.594 -30.485  1.00  0.00     0.048 C 
ATOM      2  C   UNL     1     -24.600  13.228 -30.418  1.00  0.00    -0.012 C 
ATOM      3  C   UNL     1     -25.532  14.119 -30.800  1.00  0.00    -0.019 C 
ATOM      4  C   UNL     1     -27.002  13.799 -30.770  1.00  0.00     0.036 C 
ATOM      5  C   UNL     1     -27.338  12.836 -29.615  1.00  0.00     0.025 C 
ATOM      6  C   UNL     1     -26.466  11.569 -29.706  1.00  0.00     0.089 C 
ATOM      7  C   UNL     1     -25.011  11.935 -29.816  1.00  0.00     0.158 C 
ATOM      8  O   UNL     1     -24.140  11.112 -29.425  1.00  0.00    -0.295 OA
ENDROOT
BRANCH   5   9
ATOM      9  C   UNL     1     -28.822  12.494 -29.579  1.00  0.00    -0.077 C 
ATOM     10  C   UNL     1     -29.316  11.611 -28.695  1.00  0.00     0.008 C 
ATOM     11  C   UNL     1     -29.771  13.150 -30.549  1.00  0.00     0.039 C 
ENDBRANCH   5   9
TORSDOF 1
ENDMDL
MODEL 5
REMARK VINA RESULT:    -4.935      1.935      2.756
REMARK INTER + INTRA:          -5.320
REMARK INTER:                  -5.224
REMARK INTRA:                  -0.097
REMARK UNBOUND:                -0.097
REMARK SMILES C=C(C)[C@@H]1CC=C(C)C(=O)C1
REMARK SMILES IDX 8 1 7 2 6 3 5 4 4 5 11 6 9 7 10 8 2 9 1 10 3 11
REMARK H PARENT
REMARK Flexibility Score: inf
ROOT
ATOM      1  C   UNL     1     -22.571  13.304 -30.504  1.00  0.00     0.048 C 
ATOM      2  C   UNL     1     -24.045  13.251 -30.214  1.00  0.00    -0.012 C 
ATOM      3  C   UNL     1     -24.581  12.146 -29.667  1.00  0.00    -0.019 C 
ATOM      4  C   UNL     1     -26.047  12.047 -29.339  1.00  0.00     0.036 C 
ATOM      5  C   UNL     1     -26.895  12.855 -30.341  1.00  0.00     0.025 C 
ATOM      6  C   UNL     1     -26.407  14.314 -30.397  1.00  0.00     0.089 C 
ATOM      7  C   UNL     1     -24.925  14.368 -30.645  1.00  0.00     0.158 C 
ATOM      8  O   UNL     1     -24.429  15.390 -31.191  1.00  0.00    -0.295 OA
ENDROOT
BRANCH   5   9
ATOM      9  C   UNL     1     -28.381  12.772 -30.015  1.00  0.00    -0.077 C 
ATOM     10  C   UNL     1     -29.291  13.472 -30.714  1.00  0.00     0.008 C 
ATOM     11  C   UNL     1     -28.859  11.893 -28.888  1.00  0.00     0.039 C 
ENDBRANCH   5   9
TORSDOF 1
ENDMDL
MODEL 6
REMARK VINA RESULT:    -4.925      2.105      3.945
REMARK INTER + INTRA:          -5.309
REMARK INTER:                  -5.216
REMARK INTRA:                  -0.093
REMARK UNBOUND:                -0.097
REMARK SMILES C=C(C)[C@@H]1CC=C(C)C(=O)C1
REMARK SMILES IDX 8 1 7 2 6 3 5 4 4 5 11 6 9 7 10 8 2 9 1 10 3 11
REMARK H PARENT
REMARK Flexibility Score: inf
ROOT
ATOM      1  C   UNL     1     -29.748  11.518 -29.790  1.00  0.00     0.048 C 
ATOM      2  C   UNL     1     -28.600  12.478 -29.931  1.00  0.00    -0.012 C 
ATOM      3  C   UNL     1     -28.640  13.435 -30.876  1.00  0.00    -0.019 C 
ATOM      4  C   UNL     1     -27.526  14.432 -31.050  1.00  0.00     0.036 C 
ATOM      5  C   UNL     1     -26.162  13.810 -30.693  1.00  0.00     0.025 C 
ATOM      6  C   UNL     1     -26.201  13.220 -29.271  1.00  0.00     0.089 C 
ATOM      7  C   UNL     1     -27.374  12.292 -29.115  1.00  0.00     0.158 C 
ATOM      8  O   UNL     1     -27.320  11.374 -28.253  1.00  0.00    -0.295 OA
ENDROOT
BRANCH   5   9
ATOM      9  C   UNL     1     -25.027  14.812 -30.854  1.00  0.00    -0.077 C 
ATOM     10  C   UNL     1     -23.766  14.410 -31.089  1.00  0.00     0.008 C 
ATOM     11  C   UNL     1     -25.303  16.290 -30.750  1.00  0.00     0.039 C 
ENDBRANCH   5   9
TORSDOF 1
ENDMDL
MODEL 7
REMARK VINA RESULT:    -4.904      9.894     11.821
REMARK INTER + INTRA:          -5.287
REMARK INTER:                  -5.191
REMARK INTRA:                  -0.096
REMARK UNBOUND:                -0.097
REMARK SMILES C=C(C)[C@@H]1CC=C(C)C(=O)C1
REMARK SMILES IDX 8 1 7 2 6 3 5 4 4 5 11 6 9 7 10 8 2 9 1 10 3 11
REMARK H PARENT
REMARK Flexibility Score: inf
ROOT
ATOM      1  C   UNL     1     -18.256  11.324 -31.005  1.00  0.00     0.048 C 
ATOM      2  C   UNL     1     -17.228  12.402 -31.210  1.00  0.00    -0.012 C 
ATOM      3  C   UNL     1     -16.601  12.513 -32.395  1.00  0.00    -0.019 C 
ATOM      4  C   UNL     1     -15.577  13.584 -32.659  1.00  0.00     0.036 C 
ATOM      5  C   UNL     1     -14.792  13.929 -31.379  1.00  0.00     0.025 C 
ATOM      6  C   UNL     1     -15.762  14.316 -30.246  1.00  0.00     0.089 C 
ATOM      7  C   UNL     1     -16.817  13.259 -30.069  1.00  0.00     0.158 C 
ATOM      8  O   UNL     1     -17.377  13.132 -28.947  1.00  0.00    -0.295 OA
ENDROOT
BRANCH   5   9
ATOM      9  C   UNL     1     -13.758  15.019 -31.629  1.00  0.00    -0.077 C 
ATOM     10  C   UNL     1     -13.896  16.249 -31.103  1.00  0.00     0.008 C 
ATOM     11  C   UNL     1     -12.550  14.733 -32.483  1.00  0.00     0.039 C 
ENDBRANCH   5   9
TORSDOF 1
ENDMDL
MODEL 8
REMARK VINA RESULT:    -4.804      1.360      4.268
REMARK INTER + INTRA:          -5.182
REMARK INTER:                  -5.087
REMARK INTRA:                  -0.095
REMARK UNBOUND:                -0.097
REMARK SMILES C=C(C)[C@@H]1CC=C(C)C(=O)C1
REMARK SMILES IDX 8 1 7 2 6 3 5 4 4 5 11 6 9 7 10 8 2 9 1 10 3 11
REMARK H PARENT
REMARK Flexibility Score: inf
ROOT
ATOM      1  C   UNL     1     -28.271  14.969 -31.650  1.00  0.00     0.048 C 
ATOM      2  C   UNL     1     -27.748  13.803 -30.858  1.00  0.00    -0.012 C 
ATOM      3  C   UNL     1     -28.586  12.821 -30.479  1.00  0.00    -0.019 C 
ATOM      4  C   UNL     1     -28.112  11.623 -29.701  1.00  0.00     0.036 C 
ATOM      5  C   UNL     1     -26.947  11.995 -28.764  1.00  0.00     0.025 C 
ATOM      6  C   UNL     1     -25.810  12.658 -29.564  1.00  0.00     0.089 C 
ATOM      7  C   UNL     1     -26.339  13.798 -30.389  1.00  0.00     0.158 C 
ATOM      8  O   UNL     1     -25.561  14.735 -30.713  1.00  0.00    -0.295 OA
ENDROOT
BRANCH   5   9
ATOM      9  C   UNL     1     -26.450  10.789 -27.977  1.00  0.00    -0.077 C 
ATOM     10  C   UNL     1     -27.304   9.876 -27.482  1.00  0.00     0.008 C 
ATOM     11  C   UNL     1     -24.974  10.598 -27.738  1.00  0.00     0.039 C 
ENDBRANCH   5   9
TORSDOF 1
ENDMDL
MODEL 9
REMARK VINA RESULT:    -4.701      1.456      2.091
REMARK INTER + INTRA:          -5.072
REMARK INTER:                  -4.979
REMARK INTRA:                  -0.093
REMARK UNBOUND:                -0.097
REMARK SMILES C=C(C)[C@@H]1CC=C(C)C(=O)C1
REMARK SMILES IDX 8 1 7 2 6 3 5 4 4 5 11 6 9 7 10 8 2 9 1 10 3 11
REMARK H PARENT
REMARK Flexibility Score: inf
ROOT
ATOM      1  C   UNL     1     -24.301  10.003 -27.809  1.00  0.00     0.048 C 
ATOM      2  C   UNL     1     -25.389  10.667 -28.606  1.00  0.00    -0.012 C 
ATOM      3  C   UNL     1     -25.070  11.439 -29.660  1.00  0.00    -0.019 C 
ATOM      4  C   UNL     1     -26.120  12.113 -30.502  1.00  0.00     0.036 C 
ATOM      5  C   UNL     1     -27.349  12.497 -29.655  1.00  0.00     0.025 C 
ATOM      6  C   UNL     1     -27.897  11.261 -28.919  1.00  0.00     0.089 C 
ATOM      7  C   UNL     1     -26.800  10.571 -28.155  1.00  0.00     0.158 C 
ATOM      8  O   UNL     1     -27.098   9.877 -27.146  1.00  0.00    -0.295 OA
ENDROOT
BRANCH   5   9
ATOM      9  C   UNL     1     -28.424  13.171 -30.498  1.00  0.00    -0.077 C 
ATOM     10  C   UNL     1     -28.150  14.251 -31.251  1.00  0.00     0.008 C 
ATOM     11  C   UNL     1     -29.831  12.630 -30.501  1.00  0.00     0.039 C 
ENDBRANCH   5   9
TORSDOF 1
ENDMDL
