MODEL 1
REMARK VINA RESULT:    -3.997      0.000      0.000
REMARK INTER + INTRA:          -4.551
REMARK INTER:                  -4.464
REMARK INTRA:                  -0.087
REMARK UNBOUND:                -0.087
REMARK SMILES CCc1ccc(O)cc1O
REMARK SMILES IDX 3 1 9 2 8 3 6 4 5 5 4 6 2 7 1 8 10 9 7 11
REMARK H PARENT 10 10 7 12
REMARK Flexibility Score: inf
ROOT
ATOM      1  C   UNL     1      22.779  17.346  -1.136  1.00  0.00    -0.006 A 
ATOM      2  C   UNL     1      23.797  16.373  -1.076  1.00  0.00     0.122 A 
ATOM      3  C   UNL     1      24.540  16.210   0.103  1.00  0.00     0.092 A 
ATOM      4  C   UNL     1      24.267  17.002   1.226  1.00  0.00     0.119 A 
ATOM      5  C   UNL     1      23.248  17.956   1.172  1.00  0.00     0.047 A 
ATOM      6  C   UNL     1      22.504  18.125   0.001  1.00  0.00     0.011 A 
ENDROOT
BRANCH   1   7
ATOM      7  C   UNL     1      21.945  17.521  -2.380  1.00  0.00     0.036 C 
ATOM      8  C   UNL     1      20.571  18.086  -2.035  1.00  0.00     0.009 C 
ENDBRANCH   1   7
BRANCH   2   9
ATOM      9  O   UNL     1      24.068  15.572  -2.185  1.00  0.00    -0.508 OA
ATOM     10  H   UNL     1      23.517  15.633  -3.033  1.00  0.00     0.293 HD
ENDBRANCH   2   9
BRANCH   4  11
ATOM     11  O   UNL     1      25.000  16.846   2.401  1.00  0.00    -0.508 OA
ATOM     12  H   UNL     1      25.308  17.644   2.943  1.00  0.00     0.293 HD
ENDBRANCH   4  11
TORSDOF 3
ENDMDL
MODEL 2
REMARK VINA RESULT:    -3.382     16.409     17.399
REMARK INTER + INTRA:          -3.864
REMARK INTER:                  -3.761
REMARK INTRA:                  -0.103
REMARK UNBOUND:                -0.087
REMARK SMILES CCc1ccc(O)cc1O
REMARK SMILES IDX 3 1 9 2 8 3 6 4 5 5 4 6 2 7 1 8 10 9 7 11
REMARK H PARENT 10 10 7 12
REMARK Flexibility Score: inf
ROOT
ATOM      1  C   UNL     1      11.498   5.041  -1.452  1.00  0.00    -0.006 A 
ATOM      2  C   UNL     1      10.933   4.136  -2.374  1.00  0.00     0.122 A 
ATOM      3  C   UNL     1      11.724   3.123  -2.934  1.00  0.00     0.092 A 
ATOM      4  C   UNL     1      13.072   2.996  -2.573  1.00  0.00     0.119 A 
ATOM      5  C   UNL     1      13.629   3.884  -1.648  1.00  0.00     0.047 A 
ATOM      6  C   UNL     1      12.847   4.897  -1.087  1.00  0.00     0.011 A 
ENDROOT
BRANCH   1   7
ATOM      7  C   UNL     1      10.662   6.121  -0.812  1.00  0.00     0.036 C 
ATOM      8  C   UNL     1      10.768   7.423  -1.597  1.00  0.00     0.009 C 
ENDBRANCH   1   7
BRANCH   2   9
ATOM      9  O   UNL     1       9.589   4.246  -2.730  1.00  0.00    -0.508 OA
ATOM     10  H   UNL     1       9.019   3.429  -2.917  1.00  0.00     0.293 HD
ENDBRANCH   2   9
BRANCH   4  11
ATOM     11  O   UNL     1      13.864   1.992  -3.125  1.00  0.00    -0.508 OA
ATOM     12  H   UNL     1      13.489   1.073  -3.329  1.00  0.00     0.293 HD
ENDBRANCH   4  11
TORSDOF 3
ENDMDL
MODEL 3
REMARK VINA RESULT:    -3.116     16.653     17.877
REMARK INTER + INTRA:          -3.567
REMARK INTER:                  -3.505
REMARK INTRA:                  -0.062
REMARK UNBOUND:                -0.087
REMARK SMILES CCc1ccc(O)cc1O
REMARK SMILES IDX 3 1 9 2 8 3 6 4 5 5 4 6 2 7 1 8 10 9 7 11
REMARK H PARENT 10 10 7 12
REMARK Flexibility Score: inf
ROOT
ATOM      1  C   UNL     1      10.613   5.606  -1.141  1.00  0.00    -0.006 A 
ATOM      2  C   UNL     1       9.818   4.933  -2.091  1.00  0.00     0.122 A 
ATOM      3  C   UNL     1       8.692   5.567  -2.635  1.00  0.00     0.092 A 
ATOM      4  C   UNL     1       8.358   6.871  -2.248  1.00  0.00     0.119 A 
ATOM      5  C   UNL     1       9.153   7.545  -1.317  1.00  0.00     0.047 A 
ATOM      6  C   UNL     1      10.277   6.919  -0.770  1.00  0.00     0.011 A 
ENDROOT
BRANCH   1   7
ATOM      7  C   UNL     1      11.847   4.960  -0.563  1.00  0.00     0.036 C 
ATOM      8  C   UNL     1      13.032   5.114  -1.510  1.00  0.00     0.009 C 
ENDBRANCH   1   7
BRANCH   2   9
ATOM      9  O   UNL     1      10.150   3.639  -2.492  1.00  0.00    -0.508 OA
ATOM     10  H   UNL     1      10.730   3.466  -3.304  1.00  0.00     0.293 HD
ENDBRANCH   2   9
BRANCH   4  11
ATOM     11  O   UNL     1       7.240   7.507  -2.784  1.00  0.00    -0.508 OA
ATOM     12  H   UNL     1       7.125   7.622  -3.784  1.00  0.00     0.293 HD
ENDBRANCH   4  11
TORSDOF 3
ENDMDL
MODEL 4
REMARK VINA RESULT:    -3.107     15.357     16.308
REMARK INTER + INTRA:          -3.557
REMARK INTER:                  -3.451
REMARK INTRA:                  -0.107
REMARK UNBOUND:                -0.087
REMARK SMILES CCc1ccc(O)cc1O
REMARK SMILES IDX 3 1 9 2 8 3 6 4 5 5 4 6 2 7 1 8 10 9 7 11
REMARK H PARENT 10 10 7 12
REMARK Flexibility Score: inf
ROOT
ATOM      1  C   UNL     1      10.447   6.862  -1.345  1.00  0.00    -0.006 A 
ATOM      2  C   UNL     1      11.434   7.222  -2.284  1.00  0.00     0.122 A 
ATOM      3  C   UNL     1      12.618   6.476  -2.374  1.00  0.00     0.092 A 
ATOM      4  C   UNL     1      12.821   5.366  -1.543  1.00  0.00     0.119 A 
ATOM      5  C   UNL     1      11.836   5.000  -0.622  1.00  0.00     0.047 A 
ATOM      6  C   UNL     1      10.655   5.739  -0.525  1.00  0.00     0.011 A 
ENDROOT
BRANCH   1   7
ATOM      7  C   UNL     1       9.151   7.628  -1.248  1.00  0.00     0.036 C 
ATOM      8  C   UNL     1       8.079   6.989  -2.123  1.00  0.00     0.009 C 
ENDBRANCH   1   7
BRANCH   2   9
ATOM      9  O   UNL     1      11.236   8.317  -3.125  1.00  0.00    -0.508 OA
ATOM     10  H   UNL     1      10.336   8.777  -3.196  1.00  0.00     0.293 HD
ENDBRANCH   2   9
BRANCH   4  11
ATOM     11  O   UNL     1      13.995   4.620  -1.627  1.00  0.00    -0.508 OA
ATOM     12  H   UNL     1      14.064   3.694  -1.223  1.00  0.00     0.293 HD
ENDBRANCH   4  11
TORSDOF 3
ENDMDL
MODEL 5
REMARK VINA RESULT:    -3.105     15.280     16.359
REMARK INTER + INTRA:          -3.554
REMARK INTER:                  -3.465
REMARK INTRA:                  -0.089
REMARK UNBOUND:                -0.087
REMARK SMILES CCc1ccc(O)cc1O
REMARK SMILES IDX 3 1 9 2 8 3 6 4 5 5 4 6 2 7 1 8 10 9 7 11
REMARK H PARENT 10 10 7 12
REMARK Flexibility Score: inf
ROOT
ATOM      1  C   UNL     1      12.505   5.256  -1.445  1.00  0.00    -0.006 A 
ATOM      2  C   UNL     1      12.545   6.406  -2.259  1.00  0.00     0.122 A 
ATOM      3  C   UNL     1      11.504   7.343  -2.197  1.00  0.00     0.092 A 
ATOM      4  C   UNL     1      10.428   7.149  -1.321  1.00  0.00     0.119 A 
ATOM      5  C   UNL     1      10.394   6.016  -0.503  1.00  0.00     0.047 A 
ATOM      6  C   UNL     1      11.428   5.078  -0.560  1.00  0.00     0.011 A 
ENDROOT
BRANCH   1   7
ATOM      7  C   UNL     1      13.626   4.248  -1.469  1.00  0.00     0.036 C 
ATOM      8  C   UNL     1      13.380   3.191  -2.540  1.00  0.00     0.009 C 
ENDBRANCH   1   7
BRANCH   2   9
ATOM      9  O   UNL     1      13.618   6.616  -3.125  1.00  0.00    -0.508 OA
ATOM     10  H   UNL     1      14.560   6.330  -2.883  1.00  0.00     0.293 HD
ENDBRANCH   2   9
BRANCH   4  11
ATOM     11  O   UNL     1       9.389   8.075  -1.254  1.00  0.00    -0.508 OA
ATOM     12  H   UNL     1       8.730   8.077  -0.485  1.00  0.00     0.293 HD
ENDBRANCH   4  11
TORSDOF 3
ENDMDL
MODEL 6
REMARK VINA RESULT:    -2.975     16.300     17.314
REMARK INTER + INTRA:          -3.410
REMARK INTER:                  -3.341
REMARK INTRA:                  -0.070
REMARK UNBOUND:                -0.087
REMARK SMILES CCc1ccc(O)cc1O
REMARK SMILES IDX 3 1 9 2 8 3 6 4 5 5 4 6 2 7 1 8 10 9 7 11
REMARK H PARENT 10 10 7 12
REMARK Flexibility Score: inf
ROOT
ATOM      1  C   UNL     1      10.432   4.854  -2.099  1.00  0.00    -0.006 A 
ATOM      2  C   UNL     1      11.192   5.407  -1.049  1.00  0.00     0.122 A 
ATOM      3  C   UNL     1      12.531   5.025  -0.878  1.00  0.00     0.092 A 
ATOM      4  C   UNL     1      13.121   4.104  -1.754  1.00  0.00     0.119 A 
ATOM      5  C   UNL     1      12.373   3.567  -2.804  1.00  0.00     0.047 A 
ATOM      6  C   UNL     1      11.038   3.942  -2.980  1.00  0.00     0.011 A 
ENDROOT
BRANCH   1   7
ATOM      7  C   UNL     1       9.000   5.270  -2.324  1.00  0.00     0.036 C 
ATOM      8  C   UNL     1       8.933   6.565  -3.125  1.00  0.00     0.009 C 
ENDBRANCH   1   7
BRANCH   2   9
ATOM      9  O   UNL     1      10.617   6.334  -0.179  1.00  0.00    -0.508 OA
ATOM     10  H   UNL     1      10.899   6.398   0.792  1.00  0.00     0.293 HD
ENDBRANCH   2   9
BRANCH   4  11
ATOM     11  O   UNL     1      14.451   3.720  -1.590  1.00  0.00    -0.508 OA
ATOM     12  H   UNL     1      14.725   3.047  -0.884  1.00  0.00     0.293 HD
ENDBRANCH   4  11
TORSDOF 3
ENDMDL
MODEL 7
REMARK VINA RESULT:    -2.817     16.592     17.704
REMARK INTER + INTRA:          -3.234
REMARK INTER:                  -3.147
REMARK INTRA:                  -0.087
REMARK UNBOUND:                -0.087
REMARK SMILES CCc1ccc(O)cc1O
REMARK SMILES IDX 3 1 9 2 8 3 6 4 5 5 4 6 2 7 1 8 10 9 7 11
REMARK H PARENT 10 10 7 12
REMARK Flexibility Score: inf
ROOT
ATOM      1  C   UNL     1       9.053   6.355  -1.970  1.00  0.00    -0.006 A 
ATOM      2  C   UNL     1       9.344   5.032  -2.361  1.00  0.00     0.122 A 
ATOM      3  C   UNL     1      10.557   4.441  -1.980  1.00  0.00     0.092 A 
ATOM      4  C   UNL     1      11.478   5.155  -1.201  1.00  0.00     0.119 A 
ATOM      5  C   UNL     1      11.184   6.461  -0.801  1.00  0.00     0.047 A 
ATOM      6  C   UNL     1       9.978   7.057  -1.178  1.00  0.00     0.011 A 
ENDROOT
BRANCH   1   7
ATOM      7  C   UNL     1       7.743   7.004  -2.340  1.00  0.00     0.036 C 
ATOM      8  C   UNL     1       7.322   8.016  -1.280  1.00  0.00     0.009 C 
ENDBRANCH   1   7
BRANCH   2   9
ATOM      9  O   UNL     1       8.428   4.309  -3.125  1.00  0.00    -0.508 OA
ATOM     10  H   UNL     1       8.729   3.652  -3.835  1.00  0.00     0.293 HD
ENDBRANCH   2   9
BRANCH   4  11
ATOM     11  O   UNL     1      12.685   4.574  -0.818  1.00  0.00    -0.508 OA
ATOM     12  H   UNL     1      12.765   4.031   0.034  1.00  0.00     0.293 HD
ENDBRANCH   4  11
TORSDOF 3
ENDMDL
MODEL 8
REMARK VINA RESULT:    -2.772     11.480     13.300
REMARK INTER + INTRA:          -3.183
REMARK INTER:                  -3.085
REMARK INTRA:                  -0.098
REMARK UNBOUND:                -0.087
REMARK SMILES CCc1ccc(O)cc1O
REMARK SMILES IDX 3 1 9 2 8 3 6 4 5 5 4 6 2 7 1 8 10 9 7 11
REMARK H PARENT 10 10 7 12
REMARK Flexibility Score: inf
ROOT
ATOM      1  C   UNL     1      11.675  14.261  -1.491  1.00  0.00    -0.006 A 
ATOM      2  C   UNL     1      10.555  15.115  -1.438  1.00  0.00     0.122 A 
ATOM      3  C   UNL     1       9.332  14.635  -0.948  1.00  0.00     0.092 A 
ATOM      4  C   UNL     1       9.219  13.312  -0.500  1.00  0.00     0.119 A 
ATOM      5  C   UNL     1      10.333  12.469  -0.539  1.00  0.00     0.047 A 
ATOM      6  C   UNL     1      11.554  12.940  -1.027  1.00  0.00     0.011 A 
ENDROOT
BRANCH   1   7
ATOM      7  C   UNL     1      13.009  14.760  -1.985  1.00  0.00     0.036 C 
ATOM      8  C   UNL     1      13.826  15.345  -0.838  1.00  0.00     0.009 C 
ENDBRANCH   1   7
BRANCH   2   9
ATOM      9  O   UNL     1      10.660  16.438  -1.869  1.00  0.00    -0.508 OA
ATOM     10  H   UNL     1       9.872  16.930  -2.274  1.00  0.00     0.293 HD
ENDBRANCH   2   9
BRANCH   4  11
ATOM     11  O   UNL     1       8.007  12.828  -0.012  1.00  0.00    -0.508 OA
ATOM     12  H   UNL     1       7.601  11.969  -0.362  1.00  0.00     0.293 HD
ENDBRANCH   4  11
TORSDOF 3
ENDMDL
MODEL 9
REMARK VINA RESULT:    -2.706     16.647     17.577
REMARK INTER + INTRA:          -3.109
REMARK INTER:                  -3.024
REMARK INTRA:                  -0.085
REMARK UNBOUND:                -0.087
REMARK SMILES CCc1ccc(O)cc1O
REMARK SMILES IDX 3 1 9 2 8 3 6 4 5 5 4 6 2 7 1 8 10 9 7 11
REMARK H PARENT 10 10 7 12
REMARK Flexibility Score: inf
ROOT
ATOM      1  C   UNL     1      12.479   3.517  -2.486  1.00  0.00    -0.006 A 
ATOM      2  C   UNL     1      11.070   3.550  -2.520  1.00  0.00     0.122 A 
ATOM      3  C   UNL     1      10.382   4.628  -1.944  1.00  0.00     0.092 A 
ATOM      4  C   UNL     1      11.088   5.679  -1.345  1.00  0.00     0.119 A 
ATOM      5  C   UNL     1      12.485   5.654  -1.324  1.00  0.00     0.047 A 
ATOM      6  C   UNL     1      13.177   4.583  -1.894  1.00  0.00     0.011 A 
ENDROOT
BRANCH   1   7
ATOM      7  C   UNL     1      13.245   2.385  -3.124  1.00  0.00     0.036 C 
ATOM      8  C   UNL     1      14.732   2.490  -2.804  1.00  0.00     0.009 C 
ENDBRANCH   1   7
BRANCH   2   9
ATOM      9  O   UNL     1      10.358   2.514  -3.125  1.00  0.00    -0.508 OA
ATOM     10  H   UNL     1       9.350   2.448  -3.052  1.00  0.00     0.293 HD
ENDBRANCH   2   9
BRANCH   4  11
ATOM     11  O   UNL     1      10.411   6.753  -0.771  1.00  0.00    -0.508 OA
ATOM     12  H   UNL     1       9.412   6.875  -0.890  1.00  0.00     0.293 HD
ENDBRANCH   4  11
TORSDOF 3
ENDMDL
