MODEL 1
REMARK VINA RESULT:    -4.278      0.000      0.000
REMARK INTER + INTRA:          -4.524
REMARK INTER:                  -5.279
REMARK INTRA:                   0.755
REMARK UNBOUND:                 0.755
REMARK SMILES CC1=CC=CC(C)(C)CC1=O
REMARK SMILES IDX 1 1 2 2 3 3 10 4 11 5 9 6 4 8 5 9 6 10 7 11 8 12
REMARK H PARENT
REMARK Flexibility Score: 80.00
ROOT
ATOM      1  C   UNL     1      -0.059  26.581  28.762  1.00  0.00     0.048 C 
ATOM      2  C   UNL     1      -1.264  27.397  29.169  1.00  0.00    -0.008 C 
ATOM      3  C   UNL     1      -1.318  27.839  30.444  1.00  0.00     0.007 C 
ENDROOT
BRANCH   2   4
ATOM      4  C   UNL     1      -2.329  27.582  28.154  1.00  0.00     0.159 C 
ATOM      5  O   UNL     1      -2.280  26.903  27.091  1.00  0.00    -0.295 OA
BRANCH   4   6
ATOM      6  C   UNL     1      -3.463  28.547  28.311  1.00  0.00     0.091 CG0
ATOM      7  G   UNL     1      -4.331  28.268  29.558  1.00  0.00     0.000 G0
ENDBRANCH   4   6
ENDBRANCH   2   4
BRANCH   3   8
ATOM      8  C   UNL     1      -2.367  28.626  31.134  1.00  0.00    -0.003 C 
ATOM      9  C   UNL     1      -3.646  28.814  30.788  1.00  0.00    -0.020 C 
BRANCH   9  10
ATOM     10  C   UNL     1      -4.331  28.270  29.557  1.00  0.00    -0.010 CG0
ATOM     11  C   UNL     1      -5.670  29.023  29.375  1.00  0.00     0.016 C 
ATOM     12  C   UNL     1      -4.651  26.770  29.750  1.00  0.00     0.016 C 
ATOM     13  G   UNL     1      -3.456  28.537  28.312  1.00  0.00     0.000 G0
ENDBRANCH   9  10
ENDBRANCH   3   8
TORSDOF 0
ENDMDL
MODEL 2
REMARK VINA RESULT:    -3.966      1.566      3.647
REMARK INTER + INTRA:          -4.139
REMARK INTER:                  -4.896
REMARK INTRA:                   0.757
REMARK UNBOUND:                 0.755
REMARK SMILES CC1=CC=CC(C)(C)CC1=O
REMARK SMILES IDX 1 1 2 2 3 3 10 4 11 5 9 6 4 8 5 9 6 10 7 11 8 12
REMARK H PARENT
REMARK Flexibility Score: 80.00
ROOT
ATOM      1  C   UNL     1      -6.042  30.441  28.987  1.00  0.00     0.048 C 
ATOM      2  C   UNL     1      -5.073  29.283  28.924  1.00  0.00    -0.008 C 
ATOM      3  C   UNL     1      -5.388  28.166  29.615  1.00  0.00     0.007 C 
ENDROOT
BRANCH   2   4
ATOM      4  C   UNL     1      -3.814  29.496  28.168  1.00  0.00     0.159 C 
ATOM      5  O   UNL     1      -3.525  30.662  27.784  1.00  0.00    -0.295 OA
BRANCH   4   6
ATOM      6  C   UNL     1      -2.864  28.393  27.819  1.00  0.00     0.091 CG0
ATOM      7  G   UNL     1      -2.309  27.652  29.056  1.00  0.00     0.000 G0
ENDBRANCH   4   6
ENDBRANCH   2   4
BRANCH   3   8
ATOM      8  C   UNL     1      -4.637  26.898  29.765  1.00  0.00    -0.003 C 
ATOM      9  C   UNL     1      -3.339  26.655  29.549  1.00  0.00    -0.020 C 
BRANCH   9  10
ATOM     10  C   UNL     1      -2.310  27.646  29.059  1.00  0.00    -0.010 CG0
ATOM     11  C   UNL     1      -1.052  26.861  28.619  1.00  0.00     0.016 C 
ATOM     12  C   UNL     1      -1.902  28.595  30.210  1.00  0.00     0.016 C 
ATOM     13  G   UNL     1      -2.859  28.403  27.829  1.00  0.00     0.000 G0
ENDBRANCH   9  10
ENDBRANCH   3   8
TORSDOF 0
ENDMDL
MODEL 3
REMARK VINA RESULT:    -3.527      1.360      2.062
REMARK INTER + INTRA:          -3.597
REMARK INTER:                  -4.625
REMARK INTRA:                   1.028
REMARK UNBOUND:                 0.755
REMARK SMILES CC1=CC=CC(C)(C)CC1=O
REMARK SMILES IDX 1 1 2 2 3 3 10 4 11 5 9 6 4 8 5 9 6 10 7 11 8 12
REMARK H PARENT
REMARK Flexibility Score: 80.00
ROOT
ATOM      1  C   UNL     1      -1.041  26.747  28.234  1.00  0.00     0.048 C 
ATOM      2  C   UNL     1      -2.426  27.261  28.551  1.00  0.00    -0.008 C 
ATOM      3  C   UNL     1      -3.217  26.487  29.325  1.00  0.00     0.007 C 
ENDROOT
BRANCH   2   4
ATOM      4  C   UNL     1      -2.833  28.540  27.921  1.00  0.00     0.159 C 
ATOM      5  O   UNL     1      -1.943  29.279  27.416  1.00  0.00    -0.295 OA
BRANCH   4   6
ATOM      6  C   UNL     1      -4.250  29.018  27.860  1.00  0.00     0.091 CG0
ATOM      7  G   UNL     1      -4.899  29.177  29.254  1.00  0.00     0.000 G0
ENDBRANCH   4   6
ENDBRANCH   2   4
BRANCH   3   8
ATOM      8  C   UNL     1      -4.611  26.706  29.778  1.00  0.00    -0.003 C 
ATOM      9  C   UNL     1      -5.344  27.826  29.743  1.00  0.00    -0.020 C 
BRANCH   9  10
ATOM     10  C   UNL     1      -4.894  29.177  29.242  1.00  0.00    -0.010 CG0
ATOM     11  C   UNL     1      -3.841  29.734  30.228  1.00  0.00     0.016 C 
ATOM     12  C   UNL     1      -6.090  30.157  29.218  1.00  0.00     0.016 C 
ATOM     13  G   UNL     1      -4.223  29.023  27.858  1.00  0.00     0.000 G0
ENDBRANCH   9  10
ENDBRANCH   3   8
TORSDOF 0
ENDMDL
MODEL 4
REMARK VINA RESULT:    -3.325      1.529      2.502
REMARK INTER + INTRA:          -3.348
REMARK INTER:                  -4.375
REMARK INTRA:                   1.027
REMARK UNBOUND:                 0.755
REMARK SMILES CC1=CC=CC(C)(C)CC1=O
REMARK SMILES IDX 1 1 2 2 3 3 10 4 11 5 9 6 4 8 5 9 6 10 7 11 8 12
REMARK H PARENT
REMARK Flexibility Score: 80.00
ROOT
ATOM      1  C   UNL     1       0.125  25.729  28.216  1.00  0.00     0.048 C 
ATOM      2  C   UNL     1      -0.995  26.721  28.425  1.00  0.00    -0.008 C 
ATOM      3  C   UNL     1      -1.645  27.171  27.329  1.00  0.00     0.007 C 
ENDROOT
BRANCH   2   4
ATOM      4  C   UNL     1      -1.241  27.181  29.814  1.00  0.00     0.159 C 
ATOM      5  O   UNL     1      -0.733  26.530  30.768  1.00  0.00    -0.295 OA
BRANCH   4   6
ATOM      6  C   UNL     1      -2.075  28.377  30.154  1.00  0.00     0.091 CG0
ATOM      7  G   UNL     1      -3.530  28.269  29.643  1.00  0.00     0.000 G0
ENDBRANCH   4   6
ENDBRANCH   2   4
BRANCH   3   8
ATOM      8  C   UNL     1      -2.750  28.151  27.215  1.00  0.00    -0.003 C 
ATOM      9  C   UNL     1      -3.546  28.643  28.173  1.00  0.00    -0.020 C 
BRANCH   9  10
ATOM     10  C   UNL     1      -3.516  28.277  29.638  1.00  0.00    -0.010 CG0
ATOM     11  C   UNL     1      -4.004  26.817  29.784  1.00  0.00     0.016 C 
ATOM     12  C   UNL     1      -4.487  29.186  30.428  1.00  0.00     0.016 C 
ATOM     13  G   UNL     1      -2.066  28.354  30.165  1.00  0.00     0.000 G0
ENDBRANCH   9  10
ENDBRANCH   3   8
TORSDOF 0
ENDMDL
MODEL 5
REMARK VINA RESULT:    -3.242      2.214      3.398
REMARK INTER + INTRA:          -3.246
REMARK INTER:                  -4.279
REMARK INTRA:                   1.033
REMARK UNBOUND:                 0.755
REMARK SMILES CC1=CC=CC(C)(C)CC1=O
REMARK SMILES IDX 1 1 2 2 3 3 10 4 11 5 9 6 4 8 5 9 6 10 7 11 8 12
REMARK H PARENT
REMARK Flexibility Score: 80.00
ROOT
ATOM      1  C   UNL     1      -2.708  27.780  30.070  1.00  0.00     0.048 C 
ATOM      2  C   UNL     1      -3.700  28.697  29.395  1.00  0.00    -0.008 C 
ATOM      3  C   UNL     1      -4.777  29.088  30.110  1.00  0.00     0.007 C 
ENDROOT
BRANCH   2   4
ATOM      4  C   UNL     1      -3.450  29.032  27.972  1.00  0.00     0.159 C 
ATOM      5  O   UNL     1      -2.313  28.793  27.481  1.00  0.00    -0.295 OA
BRANCH   4   6
ATOM      6  C   UNL     1      -4.476  29.658  27.077  1.00  0.00     0.091 CG0
ATOM      7  G   UNL     1      -5.002  31.011  27.607  1.00  0.00     0.000 G0
ENDBRANCH   4   6
ENDBRANCH   2   4
BRANCH   3   8
ATOM      8  C   UNL     1      -5.918  29.949  29.717  1.00  0.00    -0.003 C 
ATOM      9  C   UNL     1      -6.043  30.751  28.653  1.00  0.00    -0.020 C 
BRANCH   9  10
ATOM     10  C   UNL     1      -5.003  30.993  27.585  1.00  0.00    -0.010 CG0
ATOM     11  C   UNL     1      -3.830  31.776  28.219  1.00  0.00     0.016 C 
ATOM     12  C   UNL     1      -5.600  31.863  26.454  1.00  0.00     0.016 C 
ATOM     13  G   UNL     1      -4.458  29.641  27.073  1.00  0.00     0.000 G0
ENDBRANCH   9  10
ENDBRANCH   3   8
TORSDOF 0
ENDMDL
MODEL 6
REMARK VINA RESULT:    -3.168      1.546      2.340
REMARK INTER + INTRA:          -3.155
REMARK INTER:                  -3.920
REMARK INTRA:                   0.766
REMARK UNBOUND:                 0.755
REMARK SMILES CC1=CC=CC(C)(C)CC1=O
REMARK SMILES IDX 1 1 2 2 3 3 10 4 11 5 9 6 4 8 5 9 6 10 7 11 8 12
REMARK H PARENT
REMARK Flexibility Score: 80.00
ROOT
ATOM      1  C   UNL     1      -0.589  26.749  28.949  1.00  0.00     0.048 C 
ATOM      2  C   UNL     1      -1.922  27.419  28.712  1.00  0.00    -0.008 C 
ATOM      3  C   UNL     1      -2.020  28.266  27.665  1.00  0.00     0.007 C 
ENDROOT
BRANCH   2   4
ATOM      4  C   UNL     1      -2.998  27.150  29.699  1.00  0.00     0.159 C 
ATOM      5  O   UNL     1      -2.704  26.553  30.770  1.00  0.00    -0.295 OA
BRANCH   4   6
ATOM      6  C   UNL     1      -4.428  27.539  29.488  1.00  0.00     0.091 CG0
ATOM      7  G   UNL     1      -4.625  29.059  29.293  1.00  0.00     0.000 G0
ENDBRANCH   4   6
ENDBRANCH   2   4
BRANCH   3   8
ATOM      8  C   UNL     1      -3.170  29.079  27.203  1.00  0.00    -0.003 C 
ATOM      9  C   UNL     1      -4.275  29.433  27.870  1.00  0.00    -0.020 C 
BRANCH   9  10
ATOM     10  C   UNL     1      -4.629  29.051  29.287  1.00  0.00    -0.010 CG0
ATOM     11  C   UNL     1      -6.124  29.372  29.517  1.00  0.00     0.016 C 
ATOM     12  C   UNL     1      -3.802  29.894  30.285  1.00  0.00     0.016 C 
ATOM     13  G   UNL     1      -4.429  27.531  29.482  1.00  0.00     0.000 G0
ENDBRANCH   9  10
ENDBRANCH   3   8
TORSDOF 0
ENDMDL
MODEL 7
REMARK VINA RESULT:    -3.149      2.149      3.614
REMARK INTER + INTRA:          -3.130
REMARK INTER:                  -4.205
REMARK INTRA:                   1.074
REMARK UNBOUND:                 0.755
REMARK SMILES CC1=CC=CC(C)(C)CC1=O
REMARK SMILES IDX 1 1 2 2 3 3 10 4 11 5 9 6 4 8 5 9 6 10 7 11 8 12
REMARK H PARENT
REMARK Flexibility Score: 80.00
ROOT
ATOM      1  C   UNL     1      -4.563  31.953  27.565  1.00  0.00     0.048 C 
ATOM      2  C   UNL     1      -4.255  30.519  27.928  1.00  0.00    -0.008 C 
ATOM      3  C   UNL     1      -3.132  29.971  27.416  1.00  0.00     0.007 C 
ENDROOT
BRANCH   2   4
ATOM      4  C   UNL     1      -5.255  29.802  28.757  1.00  0.00     0.159 C 
ATOM      5  O   UNL     1      -6.125  30.475  29.377  1.00  0.00    -0.295 OA
BRANCH   4   6
ATOM      6  C   UNL     1      -5.285  28.314  28.915  1.00  0.00     0.091 CG0
ATOM      7  G   UNL     1      -3.985  27.740  29.522  1.00  0.00     0.000 G0
ENDBRANCH   4   6
ENDBRANCH   2   4
BRANCH   3   8
ATOM      8  C   UNL     1      -2.587  28.601  27.568  1.00  0.00    -0.003 C 
ATOM      9  C   UNL     1      -2.940  27.644  28.434  1.00  0.00    -0.020 C 
BRANCH   9  10
ATOM     10  C   UNL     1      -3.992  27.752  29.511  1.00  0.00    -0.010 CG0
ATOM     11  C   UNL     1      -3.490  28.750  30.581  1.00  0.00     0.016 C 
ATOM     12  C   UNL     1      -4.191  26.380  30.196  1.00  0.00     0.016 C 
ATOM     13  G   UNL     1      -5.300  28.312  28.908  1.00  0.00     0.000 G0
ENDBRANCH   9  10
ENDBRANCH   3   8
TORSDOF 0
ENDMDL
MODEL 8
REMARK VINA RESULT:    -3.015      1.792      3.403
REMARK INTER + INTRA:          -2.965
REMARK INTER:                  -3.704
REMARK INTRA:                   0.739
REMARK UNBOUND:                 0.755
REMARK SMILES CC1=CC=CC(C)(C)CC1=O
REMARK SMILES IDX 1 1 2 2 3 3 10 4 11 5 9 6 4 8 5 9 6 10 7 11 8 12
REMARK H PARENT
REMARK Flexibility Score: 80.00
ROOT
ATOM      1  C   UNL     1      -3.860  32.038  27.313  1.00  0.00     0.048 C 
ATOM      2  C   UNL     1      -4.280  30.735  27.952  1.00  0.00    -0.008 C 
ATOM      3  C   UNL     1      -5.462  30.710  28.604  1.00  0.00     0.007 C 
ENDROOT
BRANCH   2   4
ATOM      4  C   UNL     1      -3.320  29.606  27.877  1.00  0.00     0.159 C 
ATOM      5  O   UNL     1      -2.141  29.834  27.489  1.00  0.00    -0.295 OA
BRANCH   4   6
ATOM      6  C   UNL     1      -3.677  28.194  28.225  1.00  0.00     0.091 CG0
ATOM      7  G   UNL     1      -4.158  28.029  29.684  1.00  0.00     0.000 G0
ENDBRANCH   4   6
ENDBRANCH   2   4
BRANCH   3   8
ATOM      8  C   UNL     1      -6.119  29.605  29.340  1.00  0.00    -0.003 C 
ATOM      9  C   UNL     1      -5.587  28.471  29.812  1.00  0.00    -0.020 C 
BRANCH   9  10
ATOM     10  C   UNL     1      -4.150  28.030  29.673  1.00  0.00    -0.010 CG0
ATOM     11  C   UNL     1      -4.072  26.521  30.003  1.00  0.00     0.016 C 
ATOM     12  C   UNL     1      -3.264  28.786  30.691  1.00  0.00     0.016 C 
ATOM     13  G   UNL     1      -3.682  28.227  28.214  1.00  0.00     0.000 G0
ENDBRANCH   9  10
ENDBRANCH   3   8
TORSDOF 0
ENDMDL
MODEL 9
REMARK VINA RESULT:    -2.994      1.751      3.860
REMARK INTER + INTRA:          -2.940
REMARK INTER:                  -3.692
REMARK INTRA:                   0.752
REMARK UNBOUND:                 0.755
REMARK SMILES CC1=CC=CC(C)(C)CC1=O
REMARK SMILES IDX 1 1 2 2 3 3 10 4 11 5 9 6 4 8 5 9 6 10 7 11 8 12
REMARK H PARENT
REMARK Flexibility Score: 80.00
ROOT
ATOM      1  C   UNL     1      -6.047  29.038  29.736  1.00  0.00     0.048 C 
ATOM      2  C   UNL     1      -4.635  28.780  29.262  1.00  0.00    -0.008 C 
ATOM      3  C   UNL     1      -4.309  29.190  28.017  1.00  0.00     0.007 C 
ENDROOT
BRANCH   2   4
ATOM      4  C   UNL     1      -3.742  28.027  30.177  1.00  0.00     0.159 C 
ATOM      5  O   UNL     1      -4.239  27.490  31.205  1.00  0.00    -0.295 OA
BRANCH   4   6
ATOM      6  C   UNL     1      -2.269  27.878  29.956  1.00  0.00     0.091 CG0
ATOM      7  G   UNL     1      -1.919  27.213  28.606  1.00  0.00     0.000 G0
ENDBRANCH   4   6
ENDBRANCH   2   4
BRANCH   3   8
ATOM      8  C   UNL     1      -3.033  29.056  27.276  1.00  0.00    -0.003 C 
ATOM      9  C   UNL     1      -2.008  28.224  27.502  1.00  0.00    -0.020 C 
BRANCH   9  10
ATOM     10  C   UNL     1      -1.903  27.214  28.619  1.00  0.00    -0.010 CG0
ATOM     11  C   UNL     1      -0.431  26.749  28.715  1.00  0.00     0.016 C 
ATOM     12  C   UNL     1      -2.773  25.977  28.297  1.00  0.00     0.016 C 
ATOM     13  G   UNL     1      -2.285  27.879  29.961  1.00  0.00     0.000 G0
ENDBRANCH   9  10
ENDBRANCH   3   8
TORSDOF 0
ENDMDL
