MODEL 1
REMARK VINA RESULT:    -5.138      0.000      0.000
REMARK INTER + INTRA:          -6.887
REMARK INTER:                  -6.340
REMARK INTRA:                  -0.547
REMARK UNBOUND:                -0.547
REMARK SMILES COc1ccc(-c2cc3cc(O)c(OC)cc3o2)c(O)c1
REMARK SMILES IDX 7 1 8 2 9 3 10 4 11 5 13 6 16 7 17 8 18 9 6 10 3 11 21 12
REMARK SMILES IDX 4 13 19 14 5 15 2 16 1 17 20 18 12 20 14 22 15 23
REMARK H PARENT 20 19 12 21
REMARK Flexibility Score: inf
ROOT
ATOM      1  C   UNL     1     148.022 151.460 157.727  1.00  0.00     0.139 A 
ATOM      2  C   UNL     1     149.015 150.510 157.982  1.00  0.00     0.060 A 
ATOM      3  C   UNL     1     148.407 149.303 157.729  1.00  0.00     0.025 A 
ATOM      4  C   UNL     1     148.899 148.003 157.801  1.00  0.00     0.062 A 
ATOM      5  C   UNL     1     148.024 146.948 157.468  1.00  0.00     0.158 A 
ATOM      6  C   UNL     1     146.690 147.217 157.069  1.00  0.00     0.164 A 
ATOM      7  C   UNL     1     146.233 148.557 157.005  1.00  0.00     0.098 A 
ATOM      8  C   UNL     1     147.126 149.571 157.342  1.00  0.00     0.138 A 
ATOM      9  O   UNL     1     146.907 150.862 157.341  1.00  0.00    -0.456 OA
ENDROOT
BRANCH   1  10
ATOM     10  C   UNL     1     148.153 152.934 157.825  1.00  0.00     0.059 A 
ATOM     11  C   UNL     1     148.508 155.730 158.010  1.00  0.00     0.122 A 
ATOM     12  C   UNL     1     147.233 155.170 158.125  1.00  0.00     0.093 A 
ATOM     13  C   UNL     1     149.610 154.886 157.788  1.00  0.00     0.047 A 
ATOM     14  C   UNL     1     147.043 153.783 158.025  1.00  0.00     0.130 A 
ATOM     15  C   UNL     1     149.430 153.505 157.692  1.00  0.00     0.020 A 
BRANCH  11  16
ATOM     16  O   UNL     1     148.637 157.123 158.116  1.00  0.00    -0.497 OA
ATOM     17  C   UNL     1     147.730 158.060 157.545  1.00  0.00     0.278 C 
ENDBRANCH  11  16
BRANCH  14  18
ATOM     18  O   UNL     1     145.751 153.263 158.099  1.00  0.00    -0.507 OA
ATOM     19  H   UNL     1     144.936 153.827 157.887  1.00  0.00     0.293 HD
ENDBRANCH  14  18
ENDBRANCH   1  10
BRANCH   5  20
ATOM     20  O   UNL     1     148.470 145.628 157.528  1.00  0.00    -0.504 OA
ATOM     21  H   UNL     1     147.865 144.854 157.283  1.00  0.00     0.293 HD
ENDBRANCH   5  20
BRANCH   6  22
ATOM     22  O   UNL     1     145.860 146.132 156.748  1.00  0.00    -0.493 OA
ATOM     23  C   UNL     1     145.122 145.376 157.703  1.00  0.00     0.278 C 
ENDBRANCH   6  22
TORSDOF 5
ENDMDL
MODEL 2
REMARK VINA RESULT:    -4.881      3.312      9.678
REMARK INTER + INTRA:          -6.569
REMARK INTER:                  -5.969
REMARK INTRA:                  -0.600
REMARK UNBOUND:                -0.547
REMARK SMILES COc1ccc(-c2cc3cc(O)c(OC)cc3o2)c(O)c1
REMARK SMILES IDX 7 1 8 2 9 3 10 4 11 5 13 6 16 7 17 8 18 9 6 10 3 11 21 12
REMARK SMILES IDX 4 13 19 14 5 15 2 16 1 17 20 18 12 20 14 22 15 23
REMARK H PARENT 20 19 12 21
REMARK Flexibility Score: inf
ROOT
ATOM      1  C   UNL     1     147.232 145.293 157.585  1.00  0.00     0.139 A 
ATOM      2  C   UNL     1     146.230 146.115 157.062  1.00  0.00     0.060 A 
ATOM      3  C   UNL     1     146.749 147.386 157.150  1.00  0.00     0.025 A 
ATOM      4  C   UNL     1     146.214 148.615 156.777  1.00  0.00     0.062 A 
ATOM      5  C   UNL     1     147.000 149.767 156.987  1.00  0.00     0.158 A 
ATOM      6  C   UNL     1     148.294 149.662 157.557  1.00  0.00     0.164 A 
ATOM      7  C   UNL     1     148.801 148.388 157.919  1.00  0.00     0.098 A 
ATOM      8  C   UNL     1     147.995 147.275 157.696  1.00  0.00     0.138 A 
ATOM      9  O   UNL     1     148.275 146.021 157.949  1.00  0.00    -0.456 OA
ENDROOT
BRANCH   1  10
ATOM     10  C   UNL     1     147.200 143.816 157.706  1.00  0.00     0.059 A 
ATOM     11  C   UNL     1     147.036 141.008 157.971  1.00  0.00     0.122 A 
ATOM     12  C   UNL     1     148.257 141.621 157.672  1.00  0.00     0.093 A 
ATOM     13  C   UNL     1     145.889 141.805 158.125  1.00  0.00     0.047 A 
ATOM     14  C   UNL     1     148.348 143.014 157.528  1.00  0.00     0.130 A 
ATOM     15  C   UNL     1     145.973 143.192 157.989  1.00  0.00     0.020 A 
BRANCH  11  16
ATOM     16  O   UNL     1     147.006 139.611 158.100  1.00  0.00    -0.497 OA
ATOM     17  C   UNL     1     146.023 138.770 157.505  1.00  0.00     0.278 C 
ENDBRANCH  11  16
BRANCH  14  18
ATOM     18  O   UNL     1     149.572 143.587 157.185  1.00  0.00    -0.507 OA
ATOM     19  H   UNL     1     150.317 143.699 157.864  1.00  0.00     0.293 HD
ENDBRANCH  14  18
ENDBRANCH   1  10
BRANCH   5  20
ATOM     20  O   UNL     1     146.507 151.022 156.632  1.00  0.00    -0.504 OA
ATOM     21  H   UNL     1     145.836 151.510 157.213  1.00  0.00     0.293 HD
ENDBRANCH   5  20
BRANCH   6  22
ATOM     22  O   UNL     1     149.036 150.838 157.747  1.00  0.00    -0.493 OA
ATOM     23  C   UNL     1     150.409 150.869 158.125  1.00  0.00     0.278 C 
ENDBRANCH   6  22
TORSDOF 5
ENDMDL
MODEL 3
REMARK VINA RESULT:    -4.837      1.425      7.986
REMARK INTER + INTRA:          -6.516
REMARK INTER:                  -6.598
REMARK INTRA:                   0.082
REMARK UNBOUND:                -0.547
REMARK SMILES COc1ccc(-c2cc3cc(O)c(OC)cc3o2)c(O)c1
REMARK SMILES IDX 7 1 8 2 9 3 10 4 11 5 13 6 16 7 17 8 18 9 6 10 3 11 21 12
REMARK SMILES IDX 4 13 19 14 5 15 2 16 1 17 20 18 12 20 14 22 15 23
REMARK H PARENT 20 19 12 21
REMARK Flexibility Score: inf
ROOT
ATOM      1  C   UNL     1     148.153 152.300 157.758  1.00  0.00     0.139 A 
ATOM      2  C   UNL     1     147.117 153.234 157.835  1.00  0.00     0.060 A 
ATOM      3  C   UNL     1     147.756 154.450 157.904  1.00  0.00     0.025 A 
ATOM      4  C   UNL     1     147.247 155.742 157.988  1.00  0.00     0.062 A 
ATOM      5  C   UNL     1     148.166 156.811 158.038  1.00  0.00     0.158 A 
ATOM      6  C   UNL     1     149.561 156.563 157.998  1.00  0.00     0.164 A 
ATOM      7  C   UNL     1     150.036 155.230 157.908  1.00  0.00     0.098 A 
ATOM      8  C   UNL     1     149.097 154.203 157.862  1.00  0.00     0.138 A 
ATOM      9  O   UNL     1     149.324 152.916 157.772  1.00  0.00    -0.456 OA
ENDROOT
BRANCH   1  10
ATOM     10  C   UNL     1     148.019 150.828 157.643  1.00  0.00     0.059 A 
ATOM     11  C   UNL     1     147.865 148.013 157.456  1.00  0.00     0.122 A 
ATOM     12  C   UNL     1     146.816 148.812 156.991  1.00  0.00     0.093 A 
ATOM     13  C   UNL     1     148.991 148.628 158.030  1.00  0.00     0.047 A 
ATOM     14  C   UNL     1     146.877 150.211 157.087  1.00  0.00     0.130 A 
ATOM     15  C   UNL     1     149.062 150.019 158.125  1.00  0.00     0.020 A 
BRANCH  11  16
ATOM     16  O   UNL     1     147.747 146.621 157.335  1.00  0.00    -0.497 OA
ATOM     17  C   UNL     1     146.609 145.872 157.748  1.00  0.00     0.278 C 
ENDBRANCH  11  16
BRANCH  14  18
ATOM     18  O   UNL     1     145.793 150.974 156.654  1.00  0.00    -0.507 OA
ATOM     19  H   UNL     1     145.878 151.636 155.891  1.00  0.00     0.293 HD
ENDBRANCH  14  18
ENDBRANCH   1  10
BRANCH   5  20
ATOM     20  O   UNL     1     147.704 158.124 158.125  1.00  0.00    -0.504 OA
ATOM     21  H   UNL     1     147.712 158.742 157.323  1.00  0.00     0.293 HD
ENDBRANCH   5  20
BRANCH   6  22
ATOM     22  O   UNL     1     150.434 157.661 158.051  1.00  0.00    -0.493 OA
ATOM     23  C   UNL     1     151.825 157.596 157.750  1.00  0.00     0.278 C 
ENDBRANCH   6  22
TORSDOF 5
ENDMDL
MODEL 4
REMARK VINA RESULT:    -4.754      4.380      7.803
REMARK INTER + INTRA:          -6.413
REMARK INTER:                  -5.823
REMARK INTRA:                  -0.590
REMARK UNBOUND:                -0.547
REMARK SMILES COc1ccc(-c2cc3cc(O)c(OC)cc3o2)c(O)c1
REMARK SMILES IDX 7 1 8 2 9 3 10 4 11 5 13 6 16 7 17 8 18 9 6 10 3 11 21 12
REMARK SMILES IDX 4 13 19 14 5 15 2 16 1 17 20 18 12 20 14 22 15 23
REMARK H PARENT 20 19 12 21
REMARK Flexibility Score: inf
ROOT
ATOM      1  C   UNL     1     147.353 143.696 157.641  1.00  0.00     0.139 A 
ATOM      2  C   UNL     1     148.376 142.747 157.705  1.00  0.00     0.060 A 
ATOM      3  C   UNL     1     147.721 141.544 157.822  1.00  0.00     0.025 A 
ATOM      4  C   UNL     1     148.212 140.245 157.919  1.00  0.00     0.062 A 
ATOM      5  C   UNL     1     147.278 139.193 158.021  1.00  0.00     0.158 A 
ATOM      6  C   UNL     1     145.886 139.463 158.020  1.00  0.00     0.164 A 
ATOM      7  C   UNL     1     145.430 140.801 157.915  1.00  0.00     0.098 A 
ATOM      8  C   UNL     1     146.383 141.812 157.817  1.00  0.00     0.138 A 
ATOM      9  O   UNL     1     146.174 143.100 157.705  1.00  0.00    -0.456 OA
ENDROOT
BRANCH   1  10
ATOM     10  C   UNL     1     147.506 145.163 157.488  1.00  0.00     0.059 A 
ATOM     11  C   UNL     1     147.904 147.943 157.187  1.00  0.00     0.122 A 
ATOM     12  C   UNL     1     146.644 147.441 157.525  1.00  0.00     0.093 A 
ATOM     13  C   UNL     1     148.968 147.046 156.986  1.00  0.00     0.047 A 
ATOM     14  C   UNL     1     146.432 146.061 157.667  1.00  0.00     0.130 A 
ATOM     15  C   UNL     1     148.766 145.672 157.131  1.00  0.00     0.020 A 
BRANCH  11  16
ATOM     16  O   UNL     1     148.056 149.332 157.056  1.00  0.00    -0.497 OA
ATOM     17  C   UNL     1     147.010 150.277 157.254  1.00  0.00     0.278 C 
ENDBRANCH  11  16
BRANCH  14  18
ATOM     18  O   UNL     1     145.152 145.594 157.961  1.00  0.00    -0.507 OA
ATOM     19  H   UNL     1     144.325 146.011 157.550  1.00  0.00     0.293 HD
ENDBRANCH  14  18
ENDBRANCH   1  10
BRANCH   5  20
ATOM     20  O   UNL     1     147.721 137.875 158.123  1.00  0.00    -0.504 OA
ATOM     21  H   UNL     1     147.085 137.118 158.341  1.00  0.00     0.293 HD
ENDBRANCH   5  20
BRANCH   6  22
ATOM     22  O   UNL     1     144.997 138.382 158.125  1.00  0.00    -0.493 OA
ATOM     23  C   UNL     1     144.059 138.014 157.120  1.00  0.00     0.278 C 
ENDBRANCH   6  22
TORSDOF 5
ENDMDL
MODEL 5
REMARK VINA RESULT:    -4.470      1.084      7.722
REMARK INTER + INTRA:          -6.062
REMARK INTER:                  -5.485
REMARK INTRA:                  -0.577
REMARK UNBOUND:                -0.547
REMARK SMILES COc1ccc(-c2cc3cc(O)c(OC)cc3o2)c(O)c1
REMARK SMILES IDX 7 1 8 2 9 3 10 4 11 5 13 6 16 7 17 8 18 9 6 10 3 11 21 12
REMARK SMILES IDX 4 13 19 14 5 15 2 16 1 17 20 18 12 20 14 22 15 23
REMARK H PARENT 20 19 12 21
REMARK Flexibility Score: inf
ROOT
ATOM      1  C   UNL     1     148.376 151.476 157.603  1.00  0.00     0.139 A 
ATOM      2  C   UNL     1     149.658 152.028 157.673  1.00  0.00     0.060 A 
ATOM      3  C   UNL     1     149.443 153.381 157.786  1.00  0.00     0.025 A 
ATOM      4  C   UNL     1     150.340 154.439 157.901  1.00  0.00     0.062 A 
ATOM      5  C   UNL     1     149.812 155.743 158.010  1.00  0.00     0.158 A 
ATOM      6  C   UNL     1     148.410 155.954 158.007  1.00  0.00     0.164 A 
ATOM      7  C   UNL     1     147.533 154.847 157.892  1.00  0.00     0.098 A 
ATOM      8  C   UNL     1     148.092 153.576 157.785  1.00  0.00     0.138 A 
ATOM      9  O   UNL     1     147.464 152.432 157.679  1.00  0.00    -0.456 OA
ENDROOT
BRANCH   1  10
ATOM     10  C   UNL     1     148.029 150.039 157.495  1.00  0.00     0.059 A 
ATOM     11  C   UNL     1     147.470 147.276 157.309  1.00  0.00     0.122 A 
ATOM     12  C   UNL     1     146.496 148.220 156.970  1.00  0.00     0.093 A 
ATOM     13  C   UNL     1     148.727 147.719 157.757  1.00  0.00     0.047 A 
ATOM     14  C   UNL     1     146.759 149.595 157.067  1.00  0.00     0.130 A 
ATOM     15  C   UNL     1     148.998 149.086 157.851  1.00  0.00     0.020 A 
BRANCH  11  16
ATOM     16  O   UNL     1     147.149 145.915 157.194  1.00  0.00    -0.497 OA
ATOM     17  C   UNL     1     147.920 144.857 157.754  1.00  0.00     0.278 C 
ENDBRANCH  11  16
BRANCH  14  18
ATOM     18  O   UNL     1     145.749 150.507 156.763  1.00  0.00    -0.507 OA
ATOM     19  H   UNL     1     145.950 151.482 156.574  1.00  0.00     0.293 HD
ENDBRANCH  14  18
ENDBRANCH   1  10
BRANCH   5  20
ATOM     20  O   UNL     1     150.671 156.835 158.125  1.00  0.00    -0.504 OA
ATOM     21  H   UNL     1     151.556 156.866 157.634  1.00  0.00     0.293 HD
ENDBRANCH   5  20
BRANCH   6  22
ATOM     22  O   UNL     1     147.935 157.270 158.118  1.00  0.00    -0.493 OA
ATOM     23  C   UNL     1     147.656 158.119 157.010  1.00  0.00     0.278 C 
ENDBRANCH   6  22
TORSDOF 5
ENDMDL
MODEL 6
REMARK VINA RESULT:    -4.195      1.369      2.422
REMARK INTER + INTRA:          -5.723
REMARK INTER:                  -5.129
REMARK INTRA:                  -0.594
REMARK UNBOUND:                -0.547
REMARK SMILES COc1ccc(-c2cc3cc(O)c(OC)cc3o2)c(O)c1
REMARK SMILES IDX 7 1 8 2 9 3 10 4 11 5 13 6 16 7 17 8 18 9 6 10 3 11 21 12
REMARK SMILES IDX 4 13 19 14 5 15 2 16 1 17 20 18 12 20 14 22 15 23
REMARK H PARENT 20 19 12 21
REMARK Flexibility Score: inf
ROOT
ATOM      1  C   UNL     1     147.954 151.777 157.524  1.00  0.00     0.139 A 
ATOM      2  C   UNL     1     146.777 151.255 156.980  1.00  0.00     0.060 A 
ATOM      3  C   UNL     1     146.933 149.892 157.071  1.00  0.00     0.025 A 
ATOM      4  C   UNL     1     146.087 148.852 156.698  1.00  0.00     0.062 A 
ATOM      5  C   UNL     1     146.525 147.531 156.926  1.00  0.00     0.158 A 
ATOM      6  C   UNL     1     147.788 147.284 157.521  1.00  0.00     0.164 A 
ATOM      7  C   UNL     1     148.616 148.374 157.890  1.00  0.00     0.098 A 
ATOM      8  C   UNL     1     148.148 149.663 157.648  1.00  0.00     0.138 A 
ATOM      9  O   UNL     1     148.749 150.796 157.917  1.00  0.00    -0.456 OA
ENDROOT
BRANCH   1  10
ATOM     10  C   UNL     1     148.299 153.209 157.691  1.00  0.00     0.059 A 
ATOM     11  C   UNL     1     148.858 155.963 157.981  1.00  0.00     0.122 A 
ATOM     12  C   UNL     1     149.883 155.018 158.085  1.00  0.00     0.093 A 
ATOM     13  C   UNL     1     147.544 155.525 157.744  1.00  0.00     0.047 A 
ATOM     14  C   UNL     1     149.616 153.647 157.952  1.00  0.00     0.130 A 
ATOM     15  C   UNL     1     147.271 154.163 157.606  1.00  0.00     0.020 A 
BRANCH  11  16
ATOM     16  O   UNL     1     149.185 157.320 158.125  1.00  0.00    -0.497 OA
ATOM     17  C   UNL     1     150.467 157.872 157.844  1.00  0.00     0.278 C 
ENDBRANCH  11  16
BRANCH  14  18
ATOM     18  O   UNL     1     150.656 152.730 158.106  1.00  0.00    -0.507 OA
ATOM     19  H   UNL     1     151.034 152.216 157.319  1.00  0.00     0.293 HD
ENDBRANCH  14  18
ENDBRANCH   1  10
BRANCH   5  20
ATOM     20  O   UNL     1     145.714 146.456 156.566  1.00  0.00    -0.504 OA
ATOM     21  H   UNL     1     145.921 145.884 155.757  1.00  0.00     0.293 HD
ENDBRANCH   5  20
BRANCH   6  22
ATOM     22  O   UNL     1     148.179 145.952 157.727  1.00  0.00    -0.493 OA
ATOM     23  C   UNL     1     149.086 145.243 156.889  1.00  0.00     0.278 C 
ENDBRANCH   6  22
TORSDOF 5
ENDMDL
MODEL 7
REMARK VINA RESULT:    -4.159      1.745      8.175
REMARK INTER + INTRA:          -5.678
REMARK INTER:                  -5.094
REMARK INTRA:                  -0.585
REMARK UNBOUND:                -0.547
REMARK SMILES COc1ccc(-c2cc3cc(O)c(OC)cc3o2)c(O)c1
REMARK SMILES IDX 7 1 8 2 9 3 10 4 11 5 13 6 16 7 17 8 18 9 6 10 3 11 21 12
REMARK SMILES IDX 4 13 19 14 5 15 2 16 1 17 20 18 12 20 14 22 15 23
REMARK H PARENT 20 19 12 21
REMARK Flexibility Score: inf
ROOT
ATOM      1  C   UNL     1     148.581 152.306 157.783  1.00  0.00     0.139 A 
ATOM      2  C   UNL     1     147.508 153.195 157.888  1.00  0.00     0.060 A 
ATOM      3  C   UNL     1     148.096 154.438 157.927  1.00  0.00     0.025 A 
ATOM      4  C   UNL     1     147.534 155.708 158.018  1.00  0.00     0.062 A 
ATOM      5  C   UNL     1     148.407 156.816 158.028  1.00  0.00     0.158 A 
ATOM      6  C   UNL     1     149.810 156.628 157.942  1.00  0.00     0.164 A 
ATOM      7  C   UNL     1     150.338 155.316 157.846  1.00  0.00     0.098 A 
ATOM      8  C   UNL     1     149.444 154.248 157.840  1.00  0.00     0.138 A 
ATOM      9  O   UNL     1     149.723 152.971 157.751  1.00  0.00    -0.456 OA
ENDROOT
BRANCH   1  10
ATOM     10  C   UNL     1     148.507 150.828 157.683  1.00  0.00     0.059 A 
ATOM     11  C   UNL     1     148.260 148.021 157.484  1.00  0.00     0.122 A 
ATOM     12  C   UNL     1     149.497 148.604 157.776  1.00  0.00     0.093 A 
ATOM     13  C   UNL     1     147.143 148.850 157.278  1.00  0.00     0.047 A 
ATOM     14  C   UNL     1     149.633 149.998 157.867  1.00  0.00     0.130 A 
ATOM     15  C   UNL     1     147.270 150.238 157.373  1.00  0.00     0.020 A 
BRANCH  11  16
ATOM     16  O   UNL     1     148.184 146.623 157.403  1.00  0.00    -0.497 OA
ATOM     17  C   UNL     1     146.988 145.871 157.577  1.00  0.00     0.278 C 
ENDBRANCH  11  16
BRANCH  14  18
ATOM     18  O   UNL     1     150.891 150.546 158.115  1.00  0.00    -0.507 OA
ATOM     19  H   UNL     1     151.020 151.540 158.267  1.00  0.00     0.293 HD
ENDBRANCH  14  18
ENDBRANCH   1  10
BRANCH   5  20
ATOM     20  O   UNL     1     147.892 158.108 158.121  1.00  0.00    -0.504 OA
ATOM     21  H   UNL     1     146.900 158.275 158.235  1.00  0.00     0.293 HD
ENDBRANCH   5  20
BRANCH   6  22
ATOM     22  O   UNL     1     150.636 157.762 157.957  1.00  0.00    -0.493 OA
ATOM     23  C   UNL     1     151.647 158.031 156.990  1.00  0.00     0.278 C 
ENDBRANCH   6  22
TORSDOF 5
ENDMDL
MODEL 8
REMARK VINA RESULT:    -4.136      1.759      2.671
REMARK INTER + INTRA:          -5.650
REMARK INTER:                  -5.049
REMARK INTRA:                  -0.602
REMARK UNBOUND:                -0.547
REMARK SMILES COc1ccc(-c2cc3cc(O)c(OC)cc3o2)c(O)c1
REMARK SMILES IDX 7 1 8 2 9 3 10 4 11 5 13 6 16 7 17 8 18 9 6 10 3 11 21 12
REMARK SMILES IDX 4 13 19 14 5 15 2 16 1 17 20 18 12 20 14 22 15 23
REMARK H PARENT 20 19 12 21
REMARK Flexibility Score: inf
ROOT
ATOM      1  C   UNL     1     148.128 148.974 157.606  1.00  0.00     0.139 A 
ATOM      2  C   UNL     1     149.182 148.241 157.054  1.00  0.00     0.060 A 
ATOM      3  C   UNL     1     148.805 146.928 157.212  1.00  0.00     0.025 A 
ATOM      4  C   UNL     1     149.446 145.747 156.848  1.00  0.00     0.062 A 
ATOM      5  C   UNL     1     148.798 144.529 157.139  1.00  0.00     0.158 A 
ATOM      6  C   UNL     1     147.532 144.521 157.777  1.00  0.00     0.164 A 
ATOM      7  C   UNL     1     146.913 145.748 158.125  1.00  0.00     0.098 A 
ATOM      8  C   UNL     1     147.585 146.930 157.822  1.00  0.00     0.138 A 
ATOM      9  O   UNL     1     147.188 148.157 158.051  1.00  0.00    -0.456 OA
ENDROOT
BRANCH   1  10
ATOM     10  C   UNL     1     148.011 150.450 157.678  1.00  0.00     0.059 A 
ATOM     11  C   UNL     1     147.888 153.267 157.857  1.00  0.00     0.122 A 
ATOM     12  C   UNL     1     146.758 152.531 157.488  1.00  0.00     0.093 A 
ATOM     13  C   UNL     1     149.090 152.589 158.125  1.00  0.00     0.047 A 
ATOM     14  C   UNL     1     146.810 151.132 157.386  1.00  0.00     0.130 A 
ATOM     15  C   UNL     1     149.148 151.197 158.031  1.00  0.00     0.020 A 
BRANCH  11  16
ATOM     16  O   UNL     1     147.776 154.663 157.940  1.00  0.00    -0.497 OA
ATOM     17  C   UNL     1     148.441 155.575 157.072  1.00  0.00     0.278 C 
ENDBRANCH  11  16
BRANCH  14  18
ATOM     18  O   UNL     1     145.676 150.435 156.972  1.00  0.00    -0.507 OA
ATOM     19  H   UNL     1     145.399 150.398 155.998  1.00  0.00     0.293 HD
ENDBRANCH  14  18
ENDBRANCH   1  10
BRANCH   5  20
ATOM     20  O   UNL     1     149.401 143.320 156.797  1.00  0.00    -0.504 OA
ATOM     21  H   UNL     1     149.108 142.794 155.982  1.00  0.00     0.293 HD
ENDBRANCH   5  20
BRANCH   6  22
ATOM     22  O   UNL     1     146.928 143.283 158.044  1.00  0.00    -0.493 OA
ATOM     23  C   UNL     1     145.522 143.058 158.044  1.00  0.00     0.278 C 
ENDBRANCH   6  22
TORSDOF 5
ENDMDL
