MODEL 1
REMARK VINA RESULT:    -4.846      0.000      0.000
REMARK INTER + INTRA:          -5.565
REMARK INTER:                  -5.413
REMARK INTRA:                  -0.153
REMARK UNBOUND:                -0.153
REMARK SMILES O=C([O-])c1ccccc1C(=O)[O-]
REMARK SMILES IDX 4 1 9 2 5 3 8 4 6 5 7 6 2 7 1 8 3 9 10 10 11 11 12 12
REMARK H PARENT
REMARK Flexibility Score: inf
ROOT
ATOM      1  C   UNL     1      35.262  19.045  11.697  1.00  0.00     0.006 A 
ATOM      2  C   UNL     1      35.821  18.880  10.399  1.00  0.00     0.006 A 
ATOM      3  C   UNL     1      34.197  19.947  11.874  1.00  0.00     0.010 A 
ATOM      4  C   UNL     1      35.336  19.672   9.340  1.00  0.00     0.010 A 
ATOM      5  C   UNL     1      33.718  20.706  10.805  1.00  0.00     0.001 A 
ATOM      6  C   UNL     1      34.294  20.577   9.544  1.00  0.00     0.001 A 
ENDROOT
BRANCH   1   7
ATOM      7  C   UNL     1      35.795  18.360  12.898  1.00  0.00     0.072 C 
ATOM      8  O   UNL     1      35.208  17.356  13.381  1.00  0.00    -0.545 OA
ATOM      9  O   UNL     1      36.991  18.780  13.466  1.00  0.00    -0.545 OA
ENDBRANCH   1   7
BRANCH   2  10
ATOM     10  C   UNL     1      36.845  17.856  10.094  1.00  0.00     0.072 C 
ATOM     11  O   UNL     1      36.551  16.632  10.142  1.00  0.00    -0.545 OA
ATOM     12  O   UNL     1      38.156  18.224   9.816  1.00  0.00    -0.545 OA
ENDBRANCH   2  10
TORSDOF 2
ENDMDL
MODEL 2
REMARK VINA RESULT:    -4.843      1.486      3.210
REMARK INTER + INTRA:          -5.562
REMARK INTER:                  -5.370
REMARK INTRA:                  -0.192
REMARK UNBOUND:                -0.153
REMARK SMILES O=C([O-])c1ccccc1C(=O)[O-]
REMARK SMILES IDX 4 1 9 2 5 3 8 4 6 5 7 6 2 7 1 8 3 9 10 10 11 11 12 12
REMARK H PARENT
REMARK Flexibility Score: inf
ROOT
ATOM      1  C   UNL     1      35.263  19.437   9.429  1.00  0.00     0.006 A 
ATOM      2  C   UNL     1      35.712  18.660  10.534  1.00  0.00     0.006 A 
ATOM      3  C   UNL     1      34.340  20.475   9.653  1.00  0.00     0.010 A 
ATOM      4  C   UNL     1      35.173  18.910  11.810  1.00  0.00     0.010 A 
ATOM      5  C   UNL     1      33.835  20.719  10.931  1.00  0.00     0.001 A 
ATOM      6  C   UNL     1      34.242  19.931  12.005  1.00  0.00     0.001 A 
ENDROOT
BRANCH   1   7
ATOM      7  C   UNL     1      35.667  19.161   8.031  1.00  0.00     0.072 C 
ATOM      8  O   UNL     1      34.889  18.562   7.242  1.00  0.00    -0.545 OA
ATOM      9  O   UNL     1      36.889  19.620   7.555  1.00  0.00    -0.545 OA
ENDBRANCH   1   7
BRANCH   2  10
ATOM     10  C   UNL     1      36.782  17.643  10.413  1.00  0.00     0.072 C 
ATOM     11  O   UNL     1      36.501  16.418  10.488  1.00  0.00    -0.545 OA
ATOM     12  O   UNL     1      38.111  18.024  10.284  1.00  0.00    -0.545 OA
ENDBRANCH   2  10
TORSDOF 2
ENDMDL
MODEL 3
REMARK VINA RESULT:    -4.828      1.481      2.563
REMARK INTER + INTRA:          -5.545
REMARK INTER:                  -5.376
REMARK INTRA:                  -0.169
REMARK UNBOUND:                -0.153
REMARK SMILES O=C([O-])c1ccccc1C(=O)[O-]
REMARK SMILES IDX 4 1 9 2 5 3 8 4 6 5 7 6 2 7 1 8 3 9 10 10 11 11 12 12
REMARK H PARENT
REMARK Flexibility Score: inf
ROOT
ATOM      1  C   UNL     1      35.654  18.741  10.618  1.00  0.00     0.006 A 
ATOM      2  C   UNL     1      35.248  19.523   9.501  1.00  0.00     0.006 A 
ATOM      3  C   UNL     1      35.063  18.982  11.872  1.00  0.00     0.010 A 
ATOM      4  C   UNL     1      34.315  20.559   9.694  1.00  0.00     0.010 A 
ATOM      5  C   UNL     1      34.123  20.000  12.036  1.00  0.00     0.001 A 
ATOM      6  C   UNL     1      33.758  20.794  10.951  1.00  0.00     0.001 A 
ENDROOT
BRANCH   1   7
ATOM      7  C   UNL     1      36.728  17.723  10.543  1.00  0.00     0.072 C 
ATOM      8  O   UNL     1      36.449  16.498  10.455  1.00  0.00    -0.545 OA
ATOM      9  O   UNL     1      38.059  18.116  10.503  1.00  0.00    -0.545 OA
ENDBRANCH   1   7
BRANCH   2  10
ATOM     10  C   UNL     1      35.712  19.248   8.122  1.00  0.00     0.072 C 
ATOM     11  O   UNL     1      36.846  19.646   7.744  1.00  0.00    -0.545 OA
ATOM     12  O   UNL     1      34.883  18.610   7.208  1.00  0.00    -0.545 OA
ENDBRANCH   2  10
TORSDOF 2
ENDMDL
MODEL 4
REMARK VINA RESULT:    -4.817      0.170      2.883
REMARK INTER + INTRA:          -5.533
REMARK INTER:                  -5.461
REMARK INTRA:                  -0.073
REMARK UNBOUND:                -0.153
REMARK SMILES O=C([O-])c1ccccc1C(=O)[O-]
REMARK SMILES IDX 4 1 9 2 5 3 8 4 6 5 7 6 2 7 1 8 3 9 10 10 11 11 12 12
REMARK H PARENT
REMARK Flexibility Score: inf
ROOT
ATOM      1  C   UNL     1      35.748  18.864  10.412  1.00  0.00     0.006 A 
ATOM      2  C   UNL     1      35.181  18.956  11.714  1.00  0.00     0.006 A 
ATOM      3  C   UNL     1      35.271  19.713   9.397  1.00  0.00     0.010 A 
ATOM      4  C   UNL     1      34.115  19.848  11.934  1.00  0.00     0.010 A 
ATOM      5  C   UNL     1      34.227  20.606   9.643  1.00  0.00     0.001 A 
ATOM      6  C   UNL     1      33.643  20.665  10.906  1.00  0.00     0.001 A 
ENDROOT
BRANCH   1   7
ATOM      7  C   UNL     1      36.777  17.862  10.049  1.00  0.00     0.072 C 
ATOM      8  O   UNL     1      36.556  16.631  10.192  1.00  0.00    -0.545 OA
ATOM      9  O   UNL     1      37.979  18.270   9.484  1.00  0.00    -0.545 OA
ENDBRANCH   1   7
BRANCH   2  10
ATOM     10  C   UNL     1      35.714  18.204  12.873  1.00  0.00     0.072 C 
ATOM     11  O   UNL     1      35.079  17.218  13.334  1.00  0.00    -0.545 OA
ATOM     12  O   UNL     1      36.881  18.611  13.508  1.00  0.00    -0.545 OA
ENDBRANCH   2  10
TORSDOF 2
ENDMDL
MODEL 5
REMARK VINA RESULT:    -4.793      2.589      4.133
REMARK INTER + INTRA:          -5.506
REMARK INTER:                  -5.341
REMARK INTRA:                  -0.165
REMARK UNBOUND:                -0.153
REMARK SMILES O=C([O-])c1ccccc1C(=O)[O-]
REMARK SMILES IDX 4 1 9 2 5 3 8 4 6 5 7 6 2 7 1 8 3 9 10 10 11 11 12 12
REMARK H PARENT
REMARK Flexibility Score: inf
ROOT
ATOM      1  C   UNL     1      37.980  18.120  10.964  1.00  0.00     0.006 A 
ATOM      2  C   UNL     1      38.637  18.576   9.787  1.00  0.00     0.006 A 
ATOM      3  C   UNL     1      38.736  17.912  12.132  1.00  0.00     0.010 A 
ATOM      4  C   UNL     1      40.034  18.745   9.805  1.00  0.00     0.010 A 
ATOM      5  C   UNL     1      40.118  18.107  12.133  1.00  0.00     0.001 A 
ATOM      6  C   UNL     1      40.767  18.512  10.969  1.00  0.00     0.001 A 
ENDROOT
BRANCH   1   7
ATOM      7  C   UNL     1      36.538  17.782  11.004  1.00  0.00     0.072 C 
ATOM      8  O   UNL     1      36.149  16.598  10.820  1.00  0.00    -0.545 OA
ATOM      9  O   UNL     1      35.601  18.761  11.310  1.00  0.00    -0.545 OA
ENDBRANCH   1   7
BRANCH   2  10
ATOM     10  C   UNL     1      37.903  18.953   8.557  1.00  0.00     0.072 C 
ATOM     11  O   UNL     1      38.098  18.321   7.485  1.00  0.00    -0.545 OA
ATOM     12  O   UNL     1      37.044  20.045   8.550  1.00  0.00    -0.545 OA
ENDBRANCH   2  10
TORSDOF 2
ENDMDL
MODEL 6
REMARK VINA RESULT:    -4.783      1.626      3.175
REMARK INTER + INTRA:          -5.495
REMARK INTER:                  -5.308
REMARK INTRA:                  -0.187
REMARK UNBOUND:                -0.153
REMARK SMILES O=C([O-])c1ccccc1C(=O)[O-]
REMARK SMILES IDX 4 1 9 2 5 3 8 4 6 5 7 6 2 7 1 8 3 9 10 10 11 11 12 12
REMARK H PARENT
REMARK Flexibility Score: inf
ROOT
ATOM      1  C   UNL     1      37.031  18.202  10.574  1.00  0.00     0.006 A 
ATOM      2  C   UNL     1      35.704  18.713  10.496  1.00  0.00     0.006 A 
ATOM      3  C   UNL     1      37.872  18.313   9.452  1.00  0.00     0.010 A 
ATOM      4  C   UNL     1      35.250  19.255   9.279  1.00  0.00     0.010 A 
ATOM      5  C   UNL     1      37.407  18.875   8.262  1.00  0.00     0.001 A 
ATOM      6  C   UNL     1      36.096  19.334   8.172  1.00  0.00     0.001 A 
ENDROOT
BRANCH   1   7
ATOM      7  C   UNL     1      37.553  17.491  11.764  1.00  0.00     0.072 C 
ATOM      8  O   UNL     1      37.295  16.273  11.951  1.00  0.00    -0.545 OA
ATOM      9  O   UNL     1      38.392  18.148  12.655  1.00  0.00    -0.545 OA
ENDBRANCH   1   7
BRANCH   2  10
ATOM     10  C   UNL     1      34.799  18.765  11.666  1.00  0.00     0.072 C 
ATOM     11  O   UNL     1      34.661  19.837  12.313  1.00  0.00    -0.545 OA
ATOM     12  O   UNL     1      34.143  17.623  12.108  1.00  0.00    -0.545 OA
ENDBRANCH   2  10
TORSDOF 2
ENDMDL
MODEL 7
REMARK VINA RESULT:    -4.779      1.626      2.664
REMARK INTER + INTRA:          -5.491
REMARK INTER:                  -5.310
REMARK INTRA:                  -0.181
REMARK UNBOUND:                -0.153
REMARK SMILES O=C([O-])c1ccccc1C(=O)[O-]
REMARK SMILES IDX 4 1 9 2 5 3 8 4 6 5 7 6 2 7 1 8 3 9 10 10 11 11 12 12
REMARK H PARENT
REMARK Flexibility Score: inf
ROOT
ATOM      1  C   UNL     1      35.740  18.716  10.542  1.00  0.00     0.006 A 
ATOM      2  C   UNL     1      37.065  18.200  10.587  1.00  0.00     0.006 A 
ATOM      3  C   UNL     1      35.261  19.268   9.340  1.00  0.00     0.010 A 
ATOM      4  C   UNL     1      37.883  18.314   9.447  1.00  0.00     0.010 A 
ATOM      5  C   UNL     1      36.082  19.350   8.214  1.00  0.00     0.001 A 
ATOM      6  C   UNL     1      37.394  18.885   8.271  1.00  0.00     0.001 A 
ENDROOT
BRANCH   1   7
ATOM      7  C   UNL     1      34.853  18.767  11.728  1.00  0.00     0.072 C 
ATOM      8  O   UNL     1      34.646  19.852  12.331  1.00  0.00    -0.545 OA
ATOM      9  O   UNL     1      34.186  17.623  12.149  1.00  0.00    -0.545 OA
ENDBRANCH   1   7
BRANCH   2  10
ATOM     10  C   UNL     1      37.603  17.479  11.764  1.00  0.00     0.072 C 
ATOM     11  O   UNL     1      37.293  16.275  11.964  1.00  0.00    -0.545 OA
ATOM     12  O   UNL     1      38.397  18.135  12.695  1.00  0.00    -0.545 OA
ENDBRANCH   2  10
TORSDOF 2
ENDMDL
MODEL 8
REMARK VINA RESULT:    -4.772      1.933      3.736
REMARK INTER + INTRA:          -5.482
REMARK INTER:                  -5.283
REMARK INTRA:                  -0.200
REMARK UNBOUND:                -0.153
REMARK SMILES O=C([O-])c1ccccc1C(=O)[O-]
REMARK SMILES IDX 4 1 9 2 5 3 8 4 6 5 7 6 2 7 1 8 3 9 10 10 11 11 12 12
REMARK H PARENT
REMARK Flexibility Score: inf
ROOT
ATOM      1  C   UNL     1      38.089  18.495   9.479  1.00  0.00     0.006 A 
ATOM      2  C   UNL     1      37.189  18.142  10.523  1.00  0.00     0.006 A 
ATOM      3  C   UNL     1      37.620  19.277   8.407  1.00  0.00     0.010 A 
ATOM      4  C   UNL     1      35.840  18.530  10.424  1.00  0.00     0.010 A 
ATOM      5  C   UNL     1      36.282  19.669   8.340  1.00  0.00     0.001 A 
ATOM      6  C   UNL     1      35.392  19.286   9.340  1.00  0.00     0.001 A 
ENDROOT
BRANCH   1   7
ATOM      7  C   UNL     1      39.491  18.019   9.426  1.00  0.00     0.072 C 
ATOM      8  O   UNL     1      39.804  17.014   8.734  1.00  0.00    -0.545 OA
ATOM      9  O   UNL     1      40.490  18.718  10.091  1.00  0.00    -0.545 OA
ENDBRANCH   1   7
BRANCH   2  10
ATOM     10  C   UNL     1      37.627  17.443  11.753  1.00  0.00     0.072 C 
ATOM     11  O   UNL     1      37.273  16.253  11.964  1.00  0.00    -0.545 OA
ATOM     12  O   UNL     1      38.374  18.106  12.718  1.00  0.00    -0.545 OA
ENDBRANCH   2  10
TORSDOF 2
ENDMDL
MODEL 9
REMARK VINA RESULT:    -4.747      1.911      2.694
REMARK INTER + INTRA:          -5.455
REMARK INTER:                  -5.277
REMARK INTRA:                  -0.178
REMARK UNBOUND:                -0.153
REMARK SMILES O=C([O-])c1ccccc1C(=O)[O-]
REMARK SMILES IDX 4 1 9 2 5 3 8 4 6 5 7 6 2 7 1 8 3 9 10 10 11 11 12 12
REMARK H PARENT
REMARK Flexibility Score: inf
ROOT
ATOM      1  C   UNL     1      37.199  18.252  10.513  1.00  0.00     0.006 A 
ATOM      2  C   UNL     1      38.031  18.598   9.412  1.00  0.00     0.006 A 
ATOM      3  C   UNL     1      35.837  18.603  10.478  1.00  0.00     0.010 A 
ATOM      4  C   UNL     1      37.484  19.338   8.347  1.00  0.00     0.010 A 
ATOM      5  C   UNL     1      35.311  19.319   9.401  1.00  0.00     0.001 A 
ATOM      6  C   UNL     1      36.135  19.695   8.343  1.00  0.00     0.001 A 
ENDROOT
BRANCH   1   7
ATOM      7  C   UNL     1      37.713  17.596  11.738  1.00  0.00     0.072 C 
ATOM      8  O   UNL     1      38.436  18.228  12.552  1.00  0.00    -0.545 OA
ATOM      9  O   UNL     1      37.346  16.289  12.035  1.00  0.00    -0.545 OA
ENDBRANCH   1   7
BRANCH   2  10
ATOM     10  C   UNL     1      39.438  18.149   9.301  1.00  0.00     0.072 C 
ATOM     11  O   UNL     1      39.710  17.049   8.750  1.00  0.00    -0.545 OA
ATOM     12  O   UNL     1      40.467  18.896   9.860  1.00  0.00    -0.545 OA
ENDBRANCH   2  10
TORSDOF 2
ENDMDL
