MODEL 1
REMARK VINA RESULT:    -7.050      0.000      0.000
REMARK INTER + INTRA:          -7.050
REMARK INTER:                  -7.050
REMARK INTRA:                   0.000
REMARK UNBOUND:                 0.000
REMARK SMILES O=c1ccc2ccccc2o1
REMARK SMILES IDX 7 1 8 2 9 3 10 4 5 5 6 6 4 7 3 8 2 9 1 10 11 11
REMARK H PARENT
REMARK Flexibility Score: inf
ROOT
ATOM      1  C   UNL     1      11.084   7.438  27.246  1.00  0.00     0.001 A 
ATOM      2  C   UNL     1      12.368   7.396  27.796  1.00  0.00     0.004 A 
ATOM      3  C   UNL     1      12.762   8.351  28.741  1.00  0.00     0.048 A 
ATOM      4  C   UNL     1      11.868   9.353  29.137  1.00  0.00     0.138 A 
ATOM      5  C   UNL     1      10.570   9.395  28.581  1.00  0.00     0.018 A 
ATOM      6  C   UNL     1      10.182   8.434  27.635  1.00  0.00     0.012 A 
ATOM      7  C   UNL     1       9.700  10.406  28.997  1.00  0.00     0.019 A 
ATOM      8  C   UNL     1      10.134  11.337  29.941  1.00  0.00     0.094 A 
ATOM      9  C   UNL     1      11.434  11.233  30.449  1.00  0.00     0.336 A 
ATOM     10  O   UNL     1      11.844  12.064  31.301  1.00  0.00    -0.246 OA
ATOM     11  O   UNL     1      12.242  10.260  30.036  1.00  0.00    -0.423 OA
ENDROOT
TORSDOF 0
ENDMDL
MODEL 2
REMARK VINA RESULT:    -6.983      0.950      2.166
REMARK INTER + INTRA:          -6.983
REMARK INTER:                  -6.983
REMARK INTRA:                   0.000
REMARK UNBOUND:                 0.000
REMARK SMILES O=c1ccc2ccccc2o1
REMARK SMILES IDX 7 1 8 2 9 3 10 4 5 5 6 6 4 7 3 8 2 9 1 10 11 11
REMARK H PARENT
REMARK Flexibility Score: inf
ROOT
ATOM      1  C   UNL     1      10.975   7.513  27.260  1.00  0.00     0.001 A 
ATOM      2  C   UNL     1       9.872   8.371  27.249  1.00  0.00     0.004 A 
ATOM      3  C   UNL     1       9.832   9.478  28.104  1.00  0.00     0.048 A 
ATOM      4  C   UNL     1      10.899   9.728  28.976  1.00  0.00     0.138 A 
ATOM      5  C   UNL     1      12.013   8.860  28.987  1.00  0.00     0.018 A 
ATOM      6  C   UNL     1      12.046   7.753  28.126  1.00  0.00     0.012 A 
ATOM      7  C   UNL     1      13.063   9.136  29.867  1.00  0.00     0.019 A 
ATOM      8  C   UNL     1      12.981  10.250  30.703  1.00  0.00     0.094 A 
ATOM      9  C   UNL     1      11.846  11.066  30.636  1.00  0.00     0.336 A 
ATOM     10  O   UNL     1      11.754  12.076  31.382  1.00  0.00    -0.246 OA
ATOM     11  O   UNL     1      10.861  10.781  29.789  1.00  0.00    -0.423 OA
ENDROOT
TORSDOF 0
ENDMDL
MODEL 3
REMARK VINA RESULT:    -6.981      1.695      2.457
REMARK INTER + INTRA:          -6.981
REMARK INTER:                  -6.981
REMARK INTRA:                   0.000
REMARK UNBOUND:                 0.000
REMARK SMILES O=c1ccc2ccccc2o1
REMARK SMILES IDX 7 1 8 2 9 3 10 4 5 5 6 6 4 7 3 8 2 9 1 10 11 11
REMARK H PARENT
REMARK Flexibility Score: inf
ROOT
ATOM      1  C   UNL     1      13.616   7.827  28.335  1.00  0.00     0.001 A 
ATOM      2  C   UNL     1      12.566   7.193  27.665  1.00  0.00     0.004 A 
ATOM      3  C   UNL     1      11.265   7.703  27.750  1.00  0.00     0.048 A 
ATOM      4  C   UNL     1      11.012   8.852  28.510  1.00  0.00     0.138 A 
ATOM      5  C   UNL     1      12.073   9.492  29.187  1.00  0.00     0.018 A 
ATOM      6  C   UNL     1      13.375   8.976  29.097  1.00  0.00     0.012 A 
ATOM      7  C   UNL     1      11.790  10.637  29.936  1.00  0.00     0.019 A 
ATOM      8  C   UNL     1      10.480  11.111  29.994  1.00  0.00     0.094 A 
ATOM      9  C   UNL     1       9.479  10.425  29.296  1.00  0.00     0.336 A 
ATOM     10  O   UNL     1       8.290  10.837  29.336  1.00  0.00    -0.246 OA
ATOM     11  O   UNL     1       9.775   9.337  28.590  1.00  0.00    -0.423 OA
ENDROOT
TORSDOF 0
ENDMDL
MODEL 4
REMARK VINA RESULT:    -6.817      1.491      2.215
REMARK INTER + INTRA:          -6.817
REMARK INTER:                  -6.817
REMARK INTRA:                   0.000
REMARK UNBOUND:                 0.000
REMARK SMILES O=c1ccc2ccccc2o1
REMARK SMILES IDX 7 1 8 2 9 3 10 4 5 5 6 6 4 7 3 8 2 9 1 10 11 11
REMARK H PARENT
REMARK Flexibility Score: inf
ROOT
ATOM      1  C   UNL     1      13.245   6.959  28.215  1.00  0.00     0.001 A 
ATOM      2  C   UNL     1      13.619   7.678  29.353  1.00  0.00     0.004 A 
ATOM      3  C   UNL     1      12.767   8.655  29.881  1.00  0.00     0.048 A 
ATOM      4  C   UNL     1      11.536   8.915  29.268  1.00  0.00     0.138 A 
ATOM      5  C   UNL     1      11.158   8.189  28.117  1.00  0.00     0.018 A 
ATOM      6  C   UNL     1      12.017   7.210  27.594  1.00  0.00     0.012 A 
ATOM      7  C   UNL     1       9.923   8.470  27.527  1.00  0.00     0.019 A 
ATOM      8  C   UNL     1       9.106   9.452  28.086  1.00  0.00     0.094 A 
ATOM      9  C   UNL     1       9.546  10.131  29.228  1.00  0.00     0.336 A 
ATOM     10  O   UNL     1       8.822  11.021  29.748  1.00  0.00    -0.246 OA
ATOM     11  O   UNL     1      10.726   9.844  29.770  1.00  0.00    -0.423 OA
ENDROOT
TORSDOF 0
ENDMDL
MODEL 5
REMARK VINA RESULT:    -6.729      1.515      3.750
REMARK INTER + INTRA:          -6.729
REMARK INTER:                  -6.729
REMARK INTRA:                   0.000
REMARK UNBOUND:                 0.000
REMARK SMILES O=c1ccc2ccccc2o1
REMARK SMILES IDX 7 1 8 2 9 3 10 4 5 5 6 6 4 7 3 8 2 9 1 10 11 11
REMARK H PARENT
REMARK Flexibility Score: inf
ROOT
ATOM      1  C   UNL     1       9.563  11.043  29.596  1.00  0.00     0.001 A 
ATOM      2  C   UNL     1      10.776  11.411  30.186  1.00  0.00     0.004 A 
ATOM      3  C   UNL     1      11.933  10.662  29.943  1.00  0.00     0.048 A 
ATOM      4  C   UNL     1      11.878   9.540  29.108  1.00  0.00     0.138 A 
ATOM      5  C   UNL     1      10.653   9.168  28.513  1.00  0.00     0.018 A 
ATOM      6  C   UNL     1       9.497   9.924  28.760  1.00  0.00     0.012 A 
ATOM      7  C   UNL     1      10.629   8.043  27.684  1.00  0.00     0.019 A 
ATOM      8  C   UNL     1      11.806   7.326  27.470  1.00  0.00     0.094 A 
ATOM      9  C   UNL     1      12.984   7.754  28.093  1.00  0.00     0.336 A 
ATOM     10  O   UNL     1      14.056   7.119  27.912  1.00  0.00    -0.246 OA
ATOM     11  O   UNL     1      12.979   8.828  28.877  1.00  0.00    -0.423 OA
ENDROOT
TORSDOF 0
ENDMDL
MODEL 6
REMARK VINA RESULT:    -6.400      1.673      3.848
REMARK INTER + INTRA:          -6.400
REMARK INTER:                  -6.400
REMARK INTRA:                   0.000
REMARK UNBOUND:                 0.000
REMARK SMILES O=c1ccc2ccccc2o1
REMARK SMILES IDX 7 1 8 2 9 3 10 4 5 5 6 6 4 7 3 8 2 9 1 10 11 11
REMARK H PARENT
REMARK Flexibility Score: inf
ROOT
ATOM      1  C   UNL     1      10.747  11.665  30.259  1.00  0.00     0.001 A 
ATOM      2  C   UNL     1      11.917  11.308  30.937  1.00  0.00     0.004 A 
ATOM      3  C   UNL     1      12.585  10.122  30.614  1.00  0.00     0.048 A 
ATOM      4  C   UNL     1      12.082   9.287  29.609  1.00  0.00     0.138 A 
ATOM      5  C   UNL     1      10.900   9.646  28.925  1.00  0.00     0.018 A 
ATOM      6  C   UNL     1      10.236  10.837  29.254  1.00  0.00     0.012 A 
ATOM      7  C   UNL     1      10.423   8.793  27.926  1.00  0.00     0.019 A 
ATOM      8  C   UNL     1      11.121   7.621  27.637  1.00  0.00     0.094 A 
ATOM      9  C   UNL     1      12.285   7.329  28.356  1.00  0.00     0.336 A 
ATOM     10  O   UNL     1      12.929   6.276  28.109  1.00  0.00    -0.246 OA
ATOM     11  O   UNL     1      12.718   8.159  29.301  1.00  0.00    -0.423 OA
ENDROOT
TORSDOF 0
ENDMDL
MODEL 7
REMARK VINA RESULT:    -6.390      2.509      4.120
REMARK INTER + INTRA:          -6.390
REMARK INTER:                  -6.390
REMARK INTRA:                   0.000
REMARK UNBOUND:                 0.000
REMARK SMILES O=c1ccc2ccccc2o1
REMARK SMILES IDX 7 1 8 2 9 3 10 4 5 5 6 6 4 7 3 8 2 9 1 10 11 11
REMARK H PARENT
REMARK Flexibility Score: inf
ROOT
ATOM      1  C   UNL     1       9.596   9.908  28.736  1.00  0.00     0.001 A 
ATOM      2  C   UNL     1       9.329   9.086  27.637  1.00  0.00     0.004 A 
ATOM      3  C   UNL     1      10.214   8.057  27.294  1.00  0.00     0.048 A 
ATOM      4  C   UNL     1      11.372   7.849  28.052  1.00  0.00     0.138 A 
ATOM      5  C   UNL     1      11.643   8.680  29.162  1.00  0.00     0.018 A 
ATOM      6  C   UNL     1      10.751   9.709  29.500  1.00  0.00     0.012 A 
ATOM      7  C   UNL     1      12.807   8.447  29.900  1.00  0.00     0.019 A 
ATOM      8  C   UNL     1      13.661   7.411  29.523  1.00  0.00     0.094 A 
ATOM      9  C   UNL     1      13.328   6.628  28.411  1.00  0.00     0.336 A 
ATOM     10  O   UNL     1      14.086   5.688  28.055  1.00  0.00    -0.246 OA
ATOM     11  O   UNL     1      12.214   6.871  27.726  1.00  0.00    -0.423 OA
ENDROOT
TORSDOF 0
ENDMDL
MODEL 8
REMARK VINA RESULT:    -6.268      1.896      4.227
REMARK INTER + INTRA:          -6.268
REMARK INTER:                  -6.268
REMARK INTRA:                   0.000
REMARK UNBOUND:                 0.000
REMARK SMILES O=c1ccc2ccccc2o1
REMARK SMILES IDX 7 1 8 2 9 3 10 4 5 5 6 6 4 7 3 8 2 9 1 10 11 11
REMARK H PARENT
REMARK Flexibility Score: inf
ROOT
ATOM      1  C   UNL     1      12.519  11.053  31.241  1.00  0.00     0.001 A 
ATOM      2  C   UNL     1      11.371  11.759  30.868  1.00  0.00     0.004 A 
ATOM      3  C   UNL     1      10.543  11.270  29.850  1.00  0.00     0.048 A 
ATOM      4  C   UNL     1      10.864  10.072  29.202  1.00  0.00     0.138 A 
ATOM      5  C   UNL     1      12.023   9.359  29.578  1.00  0.00     0.018 A 
ATOM      6  C   UNL     1      12.848   9.854  30.600  1.00  0.00     0.012 A 
ATOM      7  C   UNL     1      12.317   8.165  28.914  1.00  0.00     0.019 A 
ATOM      8  C   UNL     1      11.464   7.716  27.906  1.00  0.00     0.094 A 
ATOM      9  C   UNL     1      10.332   8.475  27.586  1.00  0.00     0.336 A 
ATOM     10  O   UNL     1       9.551   8.085  26.679  1.00  0.00    -0.246 OA
ATOM     11  O   UNL     1      10.076   9.607  28.235  1.00  0.00    -0.423 OA
ENDROOT
TORSDOF 0
ENDMDL
MODEL 9
REMARK VINA RESULT:    -5.156     10.651     11.734
REMARK INTER + INTRA:          -5.156
REMARK INTER:                  -5.156
REMARK INTRA:                   0.000
REMARK UNBOUND:                 0.000
REMARK SMILES O=c1ccc2ccccc2o1
REMARK SMILES IDX 7 1 8 2 9 3 10 4 5 5 6 6 4 7 3 8 2 9 1 10 11 11
REMARK H PARENT
REMARK Flexibility Score: inf
ROOT
ATOM      1  C   UNL     1      17.824  17.767  27.077  1.00  0.00     0.001 A 
ATOM      2  C   UNL     1      18.524  18.818  26.477  1.00  0.00     0.004 A 
ATOM      3  C   UNL     1      17.845  19.966  26.054  1.00  0.00     0.048 A 
ATOM      4  C   UNL     1      16.459  20.065  26.231  1.00  0.00     0.138 A 
ATOM      5  C   UNL     1      15.752  19.003  26.836  1.00  0.00     0.018 A 
ATOM      6  C   UNL     1      16.440  17.855  27.259  1.00  0.00     0.012 A 
ATOM      7  C   UNL     1      14.370  19.130  27.000  1.00  0.00     0.019 A 
ATOM      8  C   UNL     1      13.734  20.292  26.563  1.00  0.00     0.094 A 
ATOM      9  C   UNL     1      14.499  21.304  25.972  1.00  0.00     0.336 A 
ATOM     10  O   UNL     1      13.943  22.360  25.571  1.00  0.00    -0.246 OA
ATOM     11  O   UNL     1      15.813  21.157  25.829  1.00  0.00    -0.423 OA
ENDROOT
TORSDOF 0
ENDMDL
