MODEL 1
REMARK VINA RESULT:    -4.452      0.000      0.000
REMARK INTER + INTRA:          -4.728
REMARK INTER:                  -4.712
REMARK INTRA:                  -0.016
REMARK UNBOUND:                -0.016
REMARK SMILES O=C([O-])c1cccnc1
REMARK SMILES IDX 4 1 5 2 9 3 6 4 8 5 7 6 2 7 1 8 3 9
REMARK H PARENT
REMARK Flexibility Score: inf
ROOT
ATOM      1  C   UNL     1     136.091 128.785 135.253  1.00  0.00     0.016 A 
ATOM      2  C   UNL     1     135.453 128.445 134.047  1.00  0.00     0.013 A 
ATOM      3  C   UNL     1     136.746 127.771 135.972  1.00  0.00     0.120 A 
ATOM      4  C   UNL     1     135.480 127.127 133.588  1.00  0.00     0.021 A 
ATOM      5  N   UNL     1     136.758 126.495 135.502  1.00  0.00    -0.264 NA
ATOM      6  C   UNL     1     136.144 126.156 134.338  1.00  0.00     0.111 A 
ENDROOT
BRANCH   1   7
ATOM      7  C   UNL     1     136.075 130.177 135.756  1.00  0.00     0.073 C 
ATOM      8  O   UNL     1     135.327 130.502 136.716  1.00  0.00    -0.545 OA
ATOM      9  O   UNL     1     136.886 131.145 135.173  1.00  0.00    -0.545 OA
ENDBRANCH   1   7
TORSDOF 1
ENDMDL
MODEL 2
REMARK VINA RESULT:    -4.228      3.197      3.935
REMARK INTER + INTRA:          -4.491
REMARK INTER:                  -4.472
REMARK INTRA:                  -0.019
REMARK UNBOUND:                -0.016
REMARK SMILES O=C([O-])c1cccnc1
REMARK SMILES IDX 4 1 5 2 9 3 6 4 8 5 7 6 2 7 1 8 3 9
REMARK H PARENT
REMARK Flexibility Score: inf
ROOT
ATOM      1  C   UNL     1     135.924 126.439 135.722  1.00  0.00     0.016 A 
ATOM      2  C   UNL     1     135.715 126.465 134.332  1.00  0.00     0.013 A 
ATOM      3  C   UNL     1     136.000 127.662 136.409  1.00  0.00     0.120 A 
ATOM      4  C   UNL     1     135.589 127.685 133.666  1.00  0.00     0.021 A 
ATOM      5  N   UNL     1     135.873 128.837 135.736  1.00  0.00    -0.264 NA
ATOM      6  C   UNL     1     135.671 128.873 134.393  1.00  0.00     0.111 A 
ENDROOT
BRANCH   1   7
ATOM      7  C   UNL     1     136.060 125.156 136.446  1.00  0.00     0.073 C 
ATOM      8  O   UNL     1     136.865 124.275 136.044  1.00  0.00    -0.545 OA
ATOM      9  O   UNL     1     135.299 124.906 137.583  1.00  0.00    -0.545 OA
ENDBRANCH   1   7
TORSDOF 1
ENDMDL
MODEL 3
REMARK VINA RESULT:    -4.176      1.608      1.625
REMARK INTER + INTRA:          -4.437
REMARK INTER:                  -4.413
REMARK INTRA:                  -0.024
REMARK UNBOUND:                -0.016
REMARK SMILES O=C([O-])c1cccnc1
REMARK SMILES IDX 4 1 5 2 9 3 6 4 8 5 7 6 2 7 1 8 3 9
REMARK H PARENT
REMARK Flexibility Score: inf
ROOT
ATOM      1  C   UNL     1     134.921 128.178 135.652  1.00  0.00     0.016 A 
ATOM      2  C   UNL     1     135.137 128.217 134.263  1.00  0.00     0.013 A 
ATOM      3  C   UNL     1     135.324 127.032 136.358  1.00  0.00     0.120 A 
ATOM      4  C   UNL     1     135.738 127.136 133.617  1.00  0.00     0.021 A 
ATOM      5  N   UNL     1     135.908 125.992 135.703  1.00  0.00    -0.264 NA
ATOM      6  C   UNL     1     136.121 126.020 134.362  1.00  0.00     0.111 A 
ENDROOT
BRANCH   1   7
ATOM      7  C   UNL     1     134.287 129.313 136.356  1.00  0.00     0.073 C 
ATOM      8  O   UNL     1     134.112 129.277 137.602  1.00  0.00    -0.545 OA
ATOM      9  O   UNL     1     133.873 130.437 135.648  1.00  0.00    -0.545 OA
ENDBRANCH   1   7
TORSDOF 1
ENDMDL
MODEL 4
REMARK VINA RESULT:    -4.167      1.414      2.074
REMARK INTER + INTRA:          -4.427
REMARK INTER:                  -4.410
REMARK INTRA:                  -0.016
REMARK UNBOUND:                -0.016
REMARK SMILES O=C([O-])c1cccnc1
REMARK SMILES IDX 4 1 5 2 9 3 6 4 8 5 7 6 2 7 1 8 3 9
REMARK H PARENT
REMARK Flexibility Score: inf
ROOT
ATOM      1  C   UNL     1     135.950 127.511 135.291  1.00  0.00     0.016 A 
ATOM      2  C   UNL     1     136.054 126.551 134.270  1.00  0.00     0.013 A 
ATOM      3  C   UNL     1     136.307 127.138 136.598  1.00  0.00     0.120 A 
ATOM      4  C   UNL     1     136.503 125.263 134.563  1.00  0.00     0.021 A 
ATOM      5  N   UNL     1     136.742 125.875 136.856  1.00  0.00    -0.264 NA
ATOM      6  C   UNL     1     136.846 124.940 135.876  1.00  0.00     0.111 A 
ENDROOT
BRANCH   1   7
ATOM      7  C   UNL     1     135.477 128.883 135.001  1.00  0.00     0.073 C 
ATOM      8  O   UNL     1     136.234 129.715 134.435  1.00  0.00    -0.545 OA
ATOM      9  O   UNL     1     134.188 129.270 135.350  1.00  0.00    -0.545 OA
ENDBRANCH   1   7
TORSDOF 1
ENDMDL
MODEL 5
REMARK VINA RESULT:    -4.113      8.936     10.127
REMARK INTER + INTRA:          -4.370
REMARK INTER:                  -4.354
REMARK INTRA:                  -0.016
REMARK UNBOUND:                -0.016
REMARK SMILES O=C([O-])c1cccnc1
REMARK SMILES IDX 4 1 5 2 9 3 6 4 8 5 7 6 2 7 1 8 3 9
REMARK H PARENT
REMARK Flexibility Score: inf
ROOT
ATOM      1  C   UNL     1     134.125 134.064 143.535  1.00  0.00     0.016 A 
ATOM      2  C   UNL     1     134.071 132.814 144.176  1.00  0.00     0.013 A 
ATOM      3  C   UNL     1     134.493 134.105 142.180  1.00  0.00     0.120 A 
ATOM      4  C   UNL     1     134.378 131.651 143.469  1.00  0.00     0.021 A 
ATOM      5  N   UNL     1     134.787 132.956 141.514  1.00  0.00    -0.264 NA
ATOM      6  C   UNL     1     134.738 131.743 142.124  1.00  0.00     0.111 A 
ENDROOT
BRANCH   1   7
ATOM      7  C   UNL     1     133.803 135.308 144.267  1.00  0.00     0.073 C 
ATOM      8  O   UNL     1     132.665 135.839 144.159  1.00  0.00    -0.545 OA
ATOM      9  O   UNL     1     134.753 135.909 145.086  1.00  0.00    -0.545 OA
ENDBRANCH   1   7
TORSDOF 1
ENDMDL
MODEL 6
REMARK VINA RESULT:    -4.107      2.793      3.883
REMARK INTER + INTRA:          -4.364
REMARK INTER:                  -4.344
REMARK INTRA:                  -0.020
REMARK UNBOUND:                -0.016
REMARK SMILES O=C([O-])c1cccnc1
REMARK SMILES IDX 4 1 5 2 9 3 6 4 8 5 7 6 2 7 1 8 3 9
REMARK H PARENT
REMARK Flexibility Score: inf
ROOT
ATOM      1  C   UNL     1     135.385 128.579 134.975  1.00  0.00     0.016 A 
ATOM      2  C   UNL     1     136.167 129.725 134.752  1.00  0.00     0.013 A 
ATOM      3  C   UNL     1     134.423 128.616 135.999  1.00  0.00     0.120 A 
ATOM      4  C   UNL     1     135.981 130.864 135.537  1.00  0.00     0.021 A 
ATOM      5  N   UNL     1     134.261 129.739 136.749  1.00  0.00    -0.264 NA
ATOM      6  C   UNL     1     135.013 130.852 136.542  1.00  0.00     0.111 A 
ENDROOT
BRANCH   1   7
ATOM      7  C   UNL     1     135.566 127.362 134.154  1.00  0.00     0.073 C 
ATOM      8  O   UNL     1     135.642 127.442 132.899  1.00  0.00    -0.545 OA
ATOM      9  O   UNL     1     135.656 126.113 134.758  1.00  0.00    -0.545 OA
ENDBRANCH   1   7
TORSDOF 1
ENDMDL
MODEL 7
REMARK VINA RESULT:    -3.994      3.161      3.718
REMARK INTER + INTRA:          -4.244
REMARK INTER:                  -4.228
REMARK INTRA:                  -0.016
REMARK UNBOUND:                -0.016
REMARK SMILES O=C([O-])c1cccnc1
REMARK SMILES IDX 4 1 5 2 9 3 6 4 8 5 7 6 2 7 1 8 3 9
REMARK H PARENT
REMARK Flexibility Score: inf
ROOT
ATOM      1  C   UNL     1     135.947 126.925 135.461  1.00  0.00     0.016 A 
ATOM      2  C   UNL     1     135.614 127.962 134.572  1.00  0.00     0.013 A 
ATOM      3  C   UNL     1     135.323 126.898 136.719  1.00  0.00     0.120 A 
ATOM      4  C   UNL     1     134.684 128.933 134.945  1.00  0.00     0.021 A 
ATOM      5  N   UNL     1     134.419 127.857 137.058  1.00  0.00    -0.264 NA
ATOM      6  C   UNL     1     134.091 128.863 136.207  1.00  0.00     0.111 A 
ENDROOT
BRANCH   1   7
ATOM      7  C   UNL     1     136.930 125.886 135.083  1.00  0.00     0.073 C 
ATOM      8  O   UNL     1     136.577 124.889 134.399  1.00  0.00    -0.545 OA
ATOM      9  O   UNL     1     138.258 125.997 135.480  1.00  0.00    -0.545 OA
ENDBRANCH   1   7
TORSDOF 1
ENDMDL
MODEL 8
REMARK VINA RESULT:    -3.903      5.692      6.230
REMARK INTER + INTRA:          -4.148
REMARK INTER:                  -4.131
REMARK INTRA:                  -0.017
REMARK UNBOUND:                -0.016
REMARK SMILES O=C([O-])c1cccnc1
REMARK SMILES IDX 4 1 5 2 9 3 6 4 8 5 7 6 2 7 1 8 3 9
REMARK H PARENT
REMARK Flexibility Score: inf
ROOT
ATOM      1  C   UNL     1     131.276 129.949 138.262  1.00  0.00     0.016 A 
ATOM      2  C   UNL     1     130.546 129.603 139.412  1.00  0.00     0.013 A 
ATOM      3  C   UNL     1     131.614 128.932 137.354  1.00  0.00     0.120 A 
ATOM      4  C   UNL     1     130.175 128.276 139.634  1.00  0.00     0.021 A 
ATOM      5  N   UNL     1     131.240 127.646 137.593  1.00  0.00    -0.264 NA
ATOM      6  C   UNL     1     130.536 127.301 138.702  1.00  0.00     0.111 A 
ENDROOT
BRANCH   1   7
ATOM      7  C   UNL     1     131.678 131.350 138.009  1.00  0.00     0.073 C 
ATOM      8  O   UNL     1     131.237 131.972 137.006  1.00  0.00    -0.545 OA
ATOM      9  O   UNL     1     132.550 131.999 138.876  1.00  0.00    -0.545 OA
ENDBRANCH   1   7
TORSDOF 1
ENDMDL
MODEL 9
REMARK VINA RESULT:    -3.851      3.725      4.435
REMARK INTER + INTRA:          -4.093
REMARK INTER:                  -4.076
REMARK INTRA:                  -0.016
REMARK UNBOUND:                -0.016
REMARK SMILES O=C([O-])c1cccnc1
REMARK SMILES IDX 4 1 5 2 9 3 6 4 8 5 7 6 2 7 1 8 3 9
REMARK H PARENT
REMARK Flexibility Score: inf
ROOT
ATOM      1  C   UNL     1     135.796 126.053 136.317  1.00  0.00     0.016 A 
ATOM      2  C   UNL     1     135.374 125.224 137.371  1.00  0.00     0.013 A 
ATOM      3  C   UNL     1     135.216 127.327 136.196  1.00  0.00     0.120 A 
ATOM      4  C   UNL     1     134.401 125.670 138.266  1.00  0.00     0.021 A 
ATOM      5  N   UNL     1     134.270 127.738 137.083  1.00  0.00    -0.264 NA
ATOM      6  C   UNL     1     133.855 126.944 138.104  1.00  0.00     0.111 A 
ENDROOT
BRANCH   1   7
ATOM      7  C   UNL     1     136.827 125.598 135.358  1.00  0.00     0.073 C 
ATOM      8  O   UNL     1     136.512 124.882 134.371  1.00  0.00    -0.545 OA
ATOM      9  O   UNL     1     138.159 125.957 135.535  1.00  0.00    -0.545 OA
ENDBRANCH   1   7
TORSDOF 1
ENDMDL
