MODEL 1
REMARK VINA RESULT:    -2.721      0.000      0.000
REMARK INTER + INTRA:          -2.903
REMARK INTER:                  -2.880
REMARK INTRA:                  -0.023
REMARK UNBOUND:                -0.023
REMARK SMILES O=C([O-])[C@H]1CCC[NH2+]1
REMARK SMILES IDX 4 1 8 2 7 3 5 4 6 5 2 8 1 9 3 10
REMARK H PARENT 8 6 8 7
REMARK Flexibility Score: inf
ROOT
ATOM      1  C   UNL     1       0.408  13.270  -5.808  1.00  0.00     0.229 C 
ATOM      2  N   UNL     1      -0.792  12.876  -5.064  1.00  0.00    -0.339 N 
ATOM      3  C   UNL     1      -0.624  13.419  -3.713  1.00  0.00     0.261 C 
ATOM      4  C   UNL     1       0.857  14.604  -5.229  1.00  0.00     0.077 C 
ATOM      5  C   UNL     1       0.397  14.554  -3.784  1.00  0.00     0.068 C 
ATOM      6  H   UNL     1      -0.882  11.833  -5.036  1.00  0.00     0.346 HD
ATOM      7  H   UNL     1      -1.655  13.290  -5.493  1.00  0.00     0.346 HD
ENDROOT
BRANCH   1   8
ATOM      8  C   UNL     1       0.158  13.341  -7.292  1.00  0.00     0.099 C 
ATOM      9  O   UNL     1      -0.947  12.980  -7.777  1.00  0.00    -0.544 OA
ATOM     10  O   UNL     1       1.155  13.811  -8.139  1.00  0.00    -0.544 OA
ENDBRANCH   1   8
TORSDOF 1
ENDMDL
MODEL 2
REMARK VINA RESULT:    -2.468      1.560      2.301
REMARK INTER + INTRA:          -2.635
REMARK INTER:                  -2.609
REMARK INTRA:                  -0.026
REMARK UNBOUND:                -0.023
REMARK SMILES O=C([O-])[C@H]1CCC[NH2+]1
REMARK SMILES IDX 4 1 8 2 7 3 5 4 6 5 2 8 1 9 3 10
REMARK H PARENT 8 6 8 7
REMARK Flexibility Score: inf
ROOT
ATOM      1  C   UNL     1      -0.052  12.454  -7.274  1.00  0.00     0.229 C 
ATOM      2  N   UNL     1      -0.725  12.788  -6.015  1.00  0.00    -0.339 N 
ATOM      3  C   UNL     1       0.247  13.556  -5.231  1.00  0.00     0.261 C 
ATOM      4  C   UNL     1       0.909  13.596  -7.566  1.00  0.00     0.077 C 
ATOM      5  C   UNL     1       1.290  14.121  -6.195  1.00  0.00     0.068 C 
ATOM      6  H   UNL     1      -1.007  11.918  -5.506  1.00  0.00     0.346 HD
ATOM      7  H   UNL     1      -1.571  13.384  -6.185  1.00  0.00     0.346 HD
ENDROOT
BRANCH   1   8
ATOM      8  C   UNL     1      -1.031  12.222  -8.396  1.00  0.00     0.099 C 
ATOM      9  O   UNL     1      -1.313  13.146  -9.205  1.00  0.00    -0.544 OA
ATOM     10  O   UNL     1      -1.630  10.977  -8.544  1.00  0.00    -0.544 OA
ENDBRANCH   1   8
TORSDOF 1
ENDMDL
MODEL 3
REMARK VINA RESULT:    -2.456      3.818      4.953
REMARK INTER + INTRA:          -2.623
REMARK INTER:                  -2.595
REMARK INTRA:                  -0.027
REMARK UNBOUND:                -0.023
REMARK SMILES O=C([O-])[C@H]1CCC[NH2+]1
REMARK SMILES IDX 4 1 8 2 7 3 5 4 6 5 2 8 1 9 3 10
REMARK H PARENT 8 6 8 7
REMARK Flexibility Score: inf
ROOT
ATOM      1  C   UNL     1      -1.570  10.955  -8.967  1.00  0.00     0.229 C 
ATOM      2  N   UNL     1      -1.712  10.185  -7.727  1.00  0.00    -0.339 N 
ATOM      3  C   UNL     1      -1.378   8.800  -8.073  1.00  0.00     0.261 C 
ATOM      4  C   UNL     1      -0.470  10.278  -9.771  1.00  0.00     0.077 C 
ATOM      5  C   UNL     1      -0.550   8.821  -9.357  1.00  0.00     0.068 C 
ATOM      6  H   UNL     1      -2.692  10.250  -7.363  1.00  0.00     0.346 HD
ATOM      7  H   UNL     1      -1.044  10.523  -6.994  1.00  0.00     0.346 HD
ENDROOT
BRANCH   1   8
ATOM      8  C   UNL     1      -1.279  12.409  -8.702  1.00  0.00     0.099 C 
ATOM      9  O   UNL     1      -0.784  12.777  -7.603  1.00  0.00    -0.544 OA
ATOM     10  O   UNL     1      -1.559  13.359  -9.677  1.00  0.00    -0.544 OA
ENDBRANCH   1   8
TORSDOF 1
ENDMDL
MODEL 4
REMARK VINA RESULT:    -2.429      3.301      4.728
REMARK INTER + INTRA:          -2.594
REMARK INTER:                  -2.570
REMARK INTRA:                  -0.025
REMARK UNBOUND:                -0.023
REMARK SMILES O=C([O-])[C@H]1CCC[NH2+]1
REMARK SMILES IDX 4 1 8 2 7 3 5 4 6 5 2 8 1 9 3 10
REMARK H PARENT 8 6 8 7
REMARK Flexibility Score: inf
ROOT
ATOM      1  C   UNL     1      -1.293  11.452  -8.392  1.00  0.00     0.229 C 
ATOM      2  N   UNL     1      -1.757  10.297  -7.619  1.00  0.00    -0.339 N 
ATOM      3  C   UNL     1      -2.216   9.312  -8.603  1.00  0.00     0.261 C 
ATOM      4  C   UNL     1      -0.751  10.905  -9.704  1.00  0.00     0.077 C 
ATOM      5  C   UNL     1      -1.563   9.646  -9.944  1.00  0.00     0.068 C 
ATOM      6  H   UNL     1      -2.538  10.572  -6.978  1.00  0.00     0.346 HD
ATOM      7  H   UNL     1      -0.976   9.878  -7.058  1.00  0.00     0.346 HD
ENDROOT
BRANCH   1   8
ATOM      8  C   UNL     1      -0.270  12.264  -7.640  1.00  0.00     0.099 C 
ATOM      9  O   UNL     1      -0.605  13.312  -7.026  1.00  0.00    -0.544 OA
ATOM     10  O   UNL     1       1.058  11.855  -7.621  1.00  0.00    -0.544 OA
ENDBRANCH   1   8
TORSDOF 1
ENDMDL
MODEL 5
REMARK VINA RESULT:    -2.344      6.021      7.050
REMARK INTER + INTRA:          -2.504
REMARK INTER:                  -2.483
REMARK INTRA:                  -0.020
REMARK UNBOUND:                -0.023
REMARK SMILES O=C([O-])[C@H]1CCC[NH2+]1
REMARK SMILES IDX 4 1 8 2 7 3 5 4 6 5 2 8 1 9 3 10
REMARK H PARENT 8 6 8 7
REMARK Flexibility Score: inf
ROOT
ATOM      1  C   UNL     1      -1.684   7.821  -8.296  1.00  0.00     0.229 C 
ATOM      2  N   UNL     1      -1.342   9.085  -7.637  1.00  0.00    -0.339 N 
ATOM      3  C   UNL     1      -2.097  10.125  -8.343  1.00  0.00     0.261 C 
ATOM      4  C   UNL     1      -3.115   7.967  -8.792  1.00  0.00     0.077 C 
ATOM      5  C   UNL     1      -3.264   9.452  -9.065  1.00  0.00     0.068 C 
ATOM      6  H   UNL     1      -0.313   9.267  -7.701  1.00  0.00     0.346 HD
ATOM      7  H   UNL     1      -1.634   9.078  -6.630  1.00  0.00     0.346 HD
ENDROOT
BRANCH   1   8
ATOM      8  C   UNL     1      -1.510   6.638  -7.379  1.00  0.00     0.099 C 
ATOM      9  O   UNL     1      -1.957   5.505  -7.699  1.00  0.00    -0.544 OA
ATOM     10  O   UNL     1      -0.847   6.795  -6.168  1.00  0.00    -0.544 OA
ENDBRANCH   1   8
TORSDOF 1
ENDMDL
MODEL 6
REMARK VINA RESULT:    -2.255      4.749      5.848
REMARK INTER + INTRA:          -2.410
REMARK INTER:                  -2.382
REMARK INTRA:                  -0.027
REMARK UNBOUND:                -0.023
REMARK SMILES O=C([O-])[C@H]1CCC[NH2+]1
REMARK SMILES IDX 4 1 8 2 7 3 5 4 6 5 2 8 1 9 3 10
REMARK H PARENT 8 6 8 7
REMARK Flexibility Score: inf
ROOT
ATOM      1  C   UNL     1      -2.164   9.769  -8.972  1.00  0.00     0.229 C 
ATOM      2  N   UNL     1      -1.737  10.345  -7.693  1.00  0.00    -0.339 N 
ATOM      3  C   UNL     1      -1.012  11.574  -8.028  1.00  0.00     0.261 C 
ATOM      4  C   UNL     1      -2.401  10.939  -9.915  1.00  0.00     0.077 C 
ATOM      5  C   UNL     1      -1.439  12.007  -9.430  1.00  0.00     0.068 C 
ATOM      6  H   UNL     1      -1.116   9.678  -7.178  1.00  0.00     0.346 HD
ATOM      7  H   UNL     1      -2.562  10.589  -7.094  1.00  0.00     0.346 HD
ENDROOT
BRANCH   1   8
ATOM      8  C   UNL     1      -3.381   8.894  -8.821  1.00  0.00     0.099 C 
ATOM      9  O   UNL     1      -4.540   9.380  -8.917  1.00  0.00    -0.544 OA
ATOM     10  O   UNL     1      -3.229   7.535  -8.575  1.00  0.00    -0.544 OA
ENDBRANCH   1   8
TORSDOF 1
ENDMDL
MODEL 7
REMARK VINA RESULT:    -2.221      3.492      4.516
REMARK INTER + INTRA:          -2.374
REMARK INTER:                  -2.350
REMARK INTRA:                  -0.024
REMARK UNBOUND:                -0.023
REMARK SMILES O=C([O-])[C@H]1CCC[NH2+]1
REMARK SMILES IDX 4 1 8 2 7 3 5 4 6 5 2 8 1 9 3 10
REMARK H PARENT 8 6 8 7
REMARK Flexibility Score: inf
ROOT
ATOM      1  C   UNL     1      -0.702  10.943  -8.419  1.00  0.00     0.229 C 
ATOM      2  N   UNL     1      -0.688  11.758  -7.200  1.00  0.00    -0.339 N 
ATOM      3  C   UNL     1      -0.216  13.084  -7.609  1.00  0.00     0.261 C 
ATOM      4  C   UNL     1      -1.010  11.890  -9.568  1.00  0.00     0.077 C 
ATOM      5  C   UNL     1      -0.441  13.222  -9.114  1.00  0.00     0.068 C 
ATOM      6  H   UNL     1      -0.047  11.341  -6.485  1.00  0.00     0.346 HD
ATOM      7  H   UNL     1      -1.651  11.849  -6.795  1.00  0.00     0.346 HD
ENDROOT
BRANCH   1   8
ATOM      8  C   UNL     1      -1.687   9.806  -8.329  1.00  0.00     0.099 C 
ATOM      9  O   UNL     1      -1.320   8.666  -7.939  1.00  0.00    -0.544 OA
ATOM     10  O   UNL     1      -3.016  10.014  -8.680  1.00  0.00    -0.544 OA
ENDBRANCH   1   8
TORSDOF 1
ENDMDL
MODEL 8
REMARK VINA RESULT:    -2.163      8.757      9.379
REMARK INTER + INTRA:          -2.312
REMARK INTER:                  -2.289
REMARK INTRA:                  -0.024
REMARK UNBOUND:                -0.023
REMARK SMILES O=C([O-])[C@H]1CCC[NH2+]1
REMARK SMILES IDX 4 1 8 2 7 3 5 4 6 5 2 8 1 9 3 10
REMARK H PARENT 8 6 8 7
REMARK Flexibility Score: inf
ROOT
ATOM      1  C   UNL     1       0.433   4.848  -6.931  1.00  0.00     0.229 C 
ATOM      2  N   UNL     1      -0.089   3.658  -6.252  1.00  0.00    -0.339 N 
ATOM      3  C   UNL     1       0.591   2.514  -6.867  1.00  0.00     0.261 C 
ATOM      4  C   UNL     1       1.868   4.528  -7.322  1.00  0.00     0.077 C 
ATOM      5  C   UNL     1       1.869   3.026  -7.531  1.00  0.00     0.068 C 
ATOM      6  H   UNL     1      -1.125   3.585  -6.380  1.00  0.00     0.346 HD
ATOM      7  H   UNL     1       0.136   3.677  -5.229  1.00  0.00     0.346 HD
ENDROOT
BRANCH   1   8
ATOM      8  C   UNL     1       0.330   6.082  -6.072  1.00  0.00     0.099 C 
ATOM      9  O   UNL     1      -0.697   6.810  -6.110  1.00  0.00    -0.544 OA
ATOM     10  O   UNL     1       1.378   6.423  -5.225  1.00  0.00    -0.544 OA
ENDBRANCH   1   8
TORSDOF 1
ENDMDL
MODEL 9
REMARK VINA RESULT:    -2.141      2.126      3.631
REMARK INTER + INTRA:          -2.289
REMARK INTER:                  -2.268
REMARK INTRA:                  -0.022
REMARK UNBOUND:                -0.023
REMARK SMILES O=C([O-])[C@H]1CCC[NH2+]1
REMARK SMILES IDX 4 1 8 2 7 3 5 4 6 5 2 8 1 9 3 10
REMARK H PARENT 8 6 8 7
REMARK Flexibility Score: inf
ROOT
ATOM      1  C   UNL     1      -0.203  13.266  -6.754  1.00  0.00     0.229 C 
ATOM      2  N   UNL     1      -0.811  11.958  -7.017  1.00  0.00    -0.339 N 
ATOM      3  C   UNL     1      -0.626  11.709  -8.450  1.00  0.00     0.261 C 
ATOM      4  C   UNL     1       0.951  13.410  -7.735  1.00  0.00     0.077 C 
ATOM      5  C   UNL     1       0.520  12.594  -8.939  1.00  0.00     0.068 C 
ATOM      6  H   UNL     1      -1.828  11.968  -6.771  1.00  0.00     0.346 HD
ATOM      7  H   UNL     1      -0.328  11.201  -6.476  1.00  0.00     0.346 HD
ENDROOT
BRANCH   1   8
ATOM      8  C   UNL     1       0.237  13.409  -5.320  1.00  0.00     0.099 C 
ATOM      9  O   UNL     1       1.429  13.705  -5.039  1.00  0.00    -0.544 OA
ATOM     10  O   UNL     1      -0.679  13.215  -4.294  1.00  0.00    -0.544 OA
ENDBRANCH   1   8
TORSDOF 1
ENDMDL
