MODEL 1
REMARK VINA RESULT:    -3.971      0.000      0.000
REMARK INTER + INTRA:          -7.332
REMARK INTER:                  -6.292
REMARK INTRA:                  -1.040
REMARK UNBOUND:                -1.040
REMARK SMILES CCCCCCCCCCCC(=O)[O-]
REMARK SMILES IDX 7 1 8 2 9 3 10 4 11 5 12 6 13 7 14 8 6 9 5 10 4 11 3 12 2 13
REMARK SMILES IDX 1 14
REMARK H PARENT
REMARK Flexibility Score: inf
ROOT
ATOM      1  C   UNL     1       8.650  37.267  -0.711  1.00  0.00     0.000 C 
ENDROOT
BRANCH   1   2
ATOM      2  C   UNL     1       9.921  36.519  -1.144  1.00  0.00     0.000 C 
BRANCH   2   3
ATOM      3  C   UNL     1      10.168  35.298  -0.251  1.00  0.00     0.000 C 
BRANCH   3   4
ATOM      4  C   UNL     1      10.191  34.006  -1.077  1.00  0.00     0.006 C 
BRANCH   4   5
ATOM      5  C   UNL     1       9.231  32.965  -0.495  1.00  0.00     0.053 C 
BRANCH   5   6
ATOM      6  C   UNL     1       9.907  31.635  -0.381  1.00  0.00     0.041 C 
ATOM      7  O   UNL     1       9.686  30.894   0.614  1.00  0.00    -0.550 OA
ATOM      8  O   UNL     1      10.743  31.191  -1.398  1.00  0.00    -0.550 OA
ENDBRANCH   5   6
ENDBRANCH   4   5
ENDBRANCH   3   4
ENDBRANCH   2   3
ENDBRANCH   1   2
BRANCH   1   9
ATOM      9  C   UNL     1       7.368  36.457  -0.967  1.00  0.00     0.000 C 
BRANCH   9  10
ATOM     10  C   UNL     1       7.212  36.049  -2.442  1.00  0.00    -0.000 C 
BRANCH  10  11
ATOM     11  C   UNL     1       6.405  34.751  -2.624  1.00  0.00    -0.000 C 
BRANCH  11  12
ATOM     12  C   UNL     1       5.344  34.483  -1.540  1.00  0.00    -0.000 C 
BRANCH  12  13
ATOM     13  C   UNL     1       3.929  34.326  -2.113  1.00  0.00    -0.003 C 
ATOM     14  C   UNL     1       3.392  35.660  -2.625  1.00  0.00     0.004 C 
ENDBRANCH  12  13
ENDBRANCH  11  12
ENDBRANCH  10  11
ENDBRANCH   9  10
ENDBRANCH   1   9
TORSDOF 10
ENDMDL
MODEL 2
REMARK VINA RESULT:    -3.912      3.437      4.361
REMARK INTER + INTRA:          -7.239
REMARK INTER:                  -5.616
REMARK INTRA:                  -1.623
REMARK UNBOUND:                -1.040
REMARK SMILES CCCCCCCCCCCC(=O)[O-]
REMARK SMILES IDX 7 1 8 2 9 3 10 4 11 5 12 6 13 7 14 8 6 9 5 10 4 11 3 12 2 13
REMARK SMILES IDX 1 14
REMARK H PARENT
REMARK Flexibility Score: inf
ROOT
ATOM      1  C   UNL     1       7.848  34.938   0.940  1.00  0.00     0.000 C 
ENDROOT
BRANCH   1   2
ATOM      2  C   UNL     1       9.369  35.147   0.886  1.00  0.00     0.000 C 
BRANCH   2   3
ATOM      3  C   UNL     1       9.921  34.795  -0.501  1.00  0.00     0.000 C 
BRANCH   3   4
ATOM      4  C   UNL     1      10.310  36.060  -1.276  1.00  0.00     0.006 C 
BRANCH   4   5
ATOM      5  C   UNL     1      10.939  37.102  -0.348  1.00  0.00     0.053 C 
BRANCH   5   6
ATOM      6  C   UNL     1      10.458  38.475  -0.698  1.00  0.00     0.041 C 
ATOM      7  O   UNL     1       9.265  38.806  -0.467  1.00  0.00    -0.550 OA
ATOM      8  O   UNL     1      11.340  39.404  -1.234  1.00  0.00    -0.550 OA
ENDBRANCH   5   6
ENDBRANCH   4   5
ENDBRANCH   3   4
ENDBRANCH   2   3
ENDBRANCH   1   2
BRANCH   1   9
ATOM      9  C   UNL     1       7.062  36.251   0.792  1.00  0.00     0.000 C 
BRANCH   9  10
ATOM     10  C   UNL     1       6.115  36.238  -0.420  1.00  0.00    -0.000 C 
BRANCH  10  11
ATOM     11  C   UNL     1       6.773  36.779  -1.703  1.00  0.00    -0.000 C 
BRANCH  11  12
ATOM     12  C   UNL     1       6.910  35.758  -2.847  1.00  0.00    -0.000 C 
BRANCH  12  13
ATOM     13  C   UNL     1       6.381  34.366  -2.474  1.00  0.00    -0.003 C 
ATOM     14  C   UNL     1       7.428  33.289  -2.746  1.00  0.00     0.004 C 
ENDBRANCH  12  13
ENDBRANCH  11  12
ENDBRANCH  10  11
ENDBRANCH   9  10
ENDBRANCH   1   9
TORSDOF 10
ENDMDL
MODEL 3
REMARK VINA RESULT:    -3.889      2.559      4.994
REMARK INTER + INTRA:          -7.203
REMARK INTER:                  -5.622
REMARK INTRA:                  -1.581
REMARK UNBOUND:                -1.040
REMARK SMILES CCCCCCCCCCCC(=O)[O-]
REMARK SMILES IDX 7 1 8 2 9 3 10 4 11 5 12 6 13 7 14 8 6 9 5 10 4 11 3 12 2 13
REMARK SMILES IDX 1 14
REMARK H PARENT
REMARK Flexibility Score: inf
ROOT
ATOM      1  C   UNL     1       7.250  38.007   1.299  1.00  0.00     0.000 C 
ENDROOT
BRANCH   1   2
ATOM      2  C   UNL     1       7.530  36.724   0.502  1.00  0.00     0.000 C 
BRANCH   2   3
ATOM      3  C   UNL     1       7.799  37.044  -0.974  1.00  0.00     0.000 C 
BRANCH   3   4
ATOM      4  C   UNL     1       8.585  35.913  -1.649  1.00  0.00     0.006 C 
BRANCH   4   5
ATOM      5  C   UNL     1       8.838  34.761  -0.672  1.00  0.00     0.053 C 
BRANCH   5   6
ATOM      6  C   UNL     1       8.465  33.453  -1.296  1.00  0.00     0.041 C 
ATOM      7  O   UNL     1       7.418  33.358  -1.990  1.00  0.00    -0.550 OA
ATOM      8  O   UNL     1       9.300  32.352  -1.154  1.00  0.00    -0.550 OA
ENDBRANCH   5   6
ENDBRANCH   4   5
ENDBRANCH   3   4
ENDBRANCH   2   3
ENDBRANCH   1   2
BRANCH   1   9
ATOM      9  C   UNL     1       8.339  38.309   2.341  1.00  0.00     0.000 C 
BRANCH   9  10
ATOM     10  C   UNL     1       9.612  37.473   2.124  1.00  0.00    -0.000 C 
BRANCH  10  11
ATOM     11  C   UNL     1      10.779  38.295   1.547  1.00  0.00    -0.000 C 
BRANCH  11  12
ATOM     12  C   UNL     1      11.267  37.848   0.157  1.00  0.00    -0.000 C 
BRANCH  12  13
ATOM     13  C   UNL     1      11.039  38.910  -0.928  1.00  0.00    -0.003 C 
ATOM     14  C   UNL     1      10.262  40.102  -0.375  1.00  0.00     0.004 C 
ENDBRANCH  12  13
ENDBRANCH  11  12
ENDBRANCH  10  11
ENDBRANCH   9  10
ENDBRANCH   1   9
TORSDOF 10
ENDMDL
MODEL 4
REMARK VINA RESULT:    -3.886      3.016      5.354
REMARK INTER + INTRA:          -7.198
REMARK INTER:                  -6.087
REMARK INTRA:                  -1.111
REMARK UNBOUND:                -1.040
REMARK SMILES CCCCCCCCCCCC(=O)[O-]
REMARK SMILES IDX 7 1 8 2 9 3 10 4 11 5 12 6 13 7 14 8 6 9 5 10 4 11 3 12 2 13
REMARK SMILES IDX 1 14
REMARK H PARENT
REMARK Flexibility Score: inf
ROOT
ATOM      1  C   UNL     1       9.699  37.114  -1.037  1.00  0.00     0.000 C 
ENDROOT
BRANCH   1   2
ATOM      2  C   UNL     1       8.290  37.308  -0.457  1.00  0.00     0.000 C 
BRANCH   2   3
ATOM      3  C   UNL     1       7.218  36.946  -1.491  1.00  0.00     0.000 C 
BRANCH   3   4
ATOM      4  C   UNL     1       6.197  35.963  -0.905  1.00  0.00     0.006 C 
BRANCH   4   5
ATOM      5  C   UNL     1       5.979  34.772  -1.843  1.00  0.00     0.053 C 
BRANCH   5   6
ATOM      6  C   UNL     1       4.555  34.720  -2.300  1.00  0.00     0.041 C 
ATOM      7  O   UNL     1       3.971  35.770  -2.678  1.00  0.00    -0.550 OA
ATOM      8  O   UNL     1       3.888  33.503  -2.356  1.00  0.00    -0.550 OA
ENDBRANCH   5   6
ENDBRANCH   4   5
ENDBRANCH   3   4
ENDBRANCH   2   3
ENDBRANCH   1   2
BRANCH   1   9
ATOM      9  C   UNL     1      10.064  35.633  -1.230  1.00  0.00     0.000 C 
BRANCH   9  10
ATOM     10  C   UNL     1      10.051  34.845   0.091  1.00  0.00    -0.000 C 
BRANCH  10  11
ATOM     11  C   UNL     1       9.054  33.672   0.082  1.00  0.00    -0.000 C 
BRANCH  11  12
ATOM     12  C   UNL     1       9.214  32.688  -1.092  1.00  0.00    -0.000 C 
BRANCH  12  13
ATOM     13  C   UNL     1      10.217  31.564  -0.799  1.00  0.00    -0.003 C 
ATOM     14  C   UNL     1      11.080  31.264  -2.022  1.00  0.00     0.004 C 
ENDBRANCH  12  13
ENDBRANCH  11  12
ENDBRANCH  10  11
ENDBRANCH   9  10
ENDBRANCH   1   9
TORSDOF 10
ENDMDL
MODEL 5
REMARK VINA RESULT:    -3.882      2.038      4.604
REMARK INTER + INTRA:          -7.192
REMARK INTER:                  -6.247
REMARK INTRA:                  -0.945
REMARK UNBOUND:                -1.040
REMARK SMILES CCCCCCCCCCCC(=O)[O-]
REMARK SMILES IDX 7 1 8 2 9 3 10 4 11 5 12 6 13 7 14 8 6 9 5 10 4 11 3 12 2 13
REMARK SMILES IDX 1 14
REMARK H PARENT
REMARK Flexibility Score: inf
ROOT
ATOM      1  C   UNL     1       9.005  36.651  -0.914  1.00  0.00     0.000 C 
ENDROOT
BRANCH   1   2
ATOM      2  C   UNL     1       8.445  35.461  -0.120  1.00  0.00     0.000 C 
BRANCH   2   3
ATOM      3  C   UNL     1       7.605  34.548  -1.021  1.00  0.00     0.000 C 
BRANCH   3   4
ATOM      4  C   UNL     1       8.403  33.308  -1.446  1.00  0.00     0.006 C 
BRANCH   4   5
ATOM      5  C   UNL     1       9.569  33.051  -0.488  1.00  0.00     0.053 C 
BRANCH   5   6
ATOM      6  C   UNL     1       9.965  31.608  -0.521  1.00  0.00     0.041 C 
ATOM      7  O   UNL     1      10.615  31.151  -1.499  1.00  0.00    -0.550 OA
ATOM      8  O   UNL     1       9.660  30.779   0.550  1.00  0.00    -0.550 OA
ENDBRANCH   5   6
ENDBRANCH   4   5
ENDBRANCH   3   4
ENDBRANCH   2   3
ENDBRANCH   1   2
BRANCH   1   9
ATOM      9  C   UNL     1      10.538  36.618  -1.031  1.00  0.00     0.000 C 
BRANCH   9  10
ATOM     10  C   UNL     1      11.204  37.854  -0.402  1.00  0.00    -0.000 C 
BRANCH  10  11
ATOM     11  C   UNL     1      10.337  39.122  -0.505  1.00  0.00    -0.000 C 
BRANCH  11  12
ATOM     12  C   UNL     1      10.042  39.822   0.834  1.00  0.00    -0.000 C 
BRANCH  12  13
ATOM     13  C   UNL     1      10.229  38.899   2.046  1.00  0.00    -0.003 C 
ATOM     14  C   UNL     1       8.904  38.267   2.465  1.00  0.00     0.004 C 
ENDBRANCH  12  13
ENDBRANCH  11  12
ENDBRANCH  10  11
ENDBRANCH   9  10
ENDBRANCH   1   9
TORSDOF 10
ENDMDL
MODEL 6
REMARK VINA RESULT:    -3.860      3.272      4.519
REMARK INTER + INTRA:          -7.156
REMARK INTER:                  -5.446
REMARK INTRA:                  -1.711
REMARK UNBOUND:                -1.040
REMARK SMILES CCCCCCCCCCCC(=O)[O-]
REMARK SMILES IDX 7 1 8 2 9 3 10 4 11 5 12 6 13 7 14 8 6 9 5 10 4 11 3 12 2 13
REMARK SMILES IDX 1 14
REMARK H PARENT
REMARK Flexibility Score: inf
ROOT
ATOM      1  C   UNL     1       8.809  33.064  -0.606  1.00  0.00     0.000 C 
ENDROOT
BRANCH   1   2
ATOM      2  C   UNL     1       9.862  34.057  -0.092  1.00  0.00     0.000 C 
BRANCH   2   3
ATOM      3  C   UNL     1      10.680  34.636  -1.253  1.00  0.00     0.000 C 
BRANCH   3   4
ATOM      4  C   UNL     1      11.171  36.053  -0.929  1.00  0.00     0.006 C 
BRANCH   4   5
ATOM      5  C   UNL     1      10.793  36.451   0.501  1.00  0.00     0.053 C 
BRANCH   5   6
ATOM      6  C   UNL     1      10.721  37.940   0.627  1.00  0.00     0.041 C 
ATOM      7  O   UNL     1      10.589  38.658  -0.400  1.00  0.00    -0.550 OA
ATOM      8  O   UNL     1      10.749  38.533   1.883  1.00  0.00    -0.550 OA
ENDBRANCH   5   6
ENDBRANCH   4   5
ENDBRANCH   3   4
ENDBRANCH   2   3
ENDBRANCH   1   2
BRANCH   1   9
ATOM      9  C   UNL     1       8.684  33.069  -2.138  1.00  0.00     0.000 C 
BRANCH   9  10
ATOM     10  C   UNL     1       7.254  33.375  -2.614  1.00  0.00    -0.000 C 
BRANCH  10  11
ATOM     11  C   UNL     1       6.656  34.630  -1.951  1.00  0.00    -0.000 C 
BRANCH  11  12
ATOM     12  C   UNL     1       7.192  35.970  -2.488  1.00  0.00    -0.000 C 
BRANCH  12  13
ATOM     13  C   UNL     1       7.544  36.964  -1.373  1.00  0.00    -0.003 C 
ATOM     14  C   UNL     1       7.069  36.457  -0.014  1.00  0.00     0.004 C 
ENDBRANCH  12  13
ENDBRANCH  11  12
ENDBRANCH  10  11
ENDBRANCH   9  10
ENDBRANCH   1   9
TORSDOF 10
ENDMDL
MODEL 7
REMARK VINA RESULT:    -3.841      2.995      5.036
REMARK INTER + INTRA:          -7.127
REMARK INTER:                  -5.905
REMARK INTRA:                  -1.221
REMARK UNBOUND:                -1.040
REMARK SMILES CCCCCCCCCCCC(=O)[O-]
REMARK SMILES IDX 7 1 8 2 9 3 10 4 11 5 12 6 13 7 14 8 6 9 5 10 4 11 3 12 2 13
REMARK SMILES IDX 1 14
REMARK H PARENT
REMARK Flexibility Score: inf
ROOT
ATOM      1  C   UNL     1      11.624  36.164  -0.627  1.00  0.00     0.000 C 
ENDROOT
BRANCH   1   2
ATOM      2  C   UNL     1      10.146  35.863  -0.917  1.00  0.00     0.000 C 
BRANCH   2   3
ATOM      3  C   UNL     1       9.609  34.788   0.035  1.00  0.00     0.000 C 
BRANCH   3   4
ATOM      4  C   UNL     1       8.102  34.580  -0.161  1.00  0.00     0.006 C 
BRANCH   4   5
ATOM      5  C   UNL     1       7.821  33.736  -1.407  1.00  0.00     0.053 C 
BRANCH   5   6
ATOM      6  C   UNL     1       6.714  34.342  -2.212  1.00  0.00     0.041 C 
ATOM      7  O   UNL     1       5.529  33.943  -2.060  1.00  0.00    -0.550 OA
ATOM      8  O   UNL     1       6.984  35.381  -3.093  1.00  0.00    -0.550 OA
ENDBRANCH   5   6
ENDBRANCH   4   5
ENDBRANCH   3   4
ENDBRANCH   2   3
ENDBRANCH   1   2
BRANCH   1   9
ATOM      9  C   UNL     1      11.860  37.619  -0.191  1.00  0.00     0.000 C 
BRANCH   9  10
ATOM     10  C   UNL     1      10.851  38.595  -0.820  1.00  0.00    -0.000 C 
BRANCH  10  11
ATOM     11  C   UNL     1       9.972  39.307   0.225  1.00  0.00    -0.000 C 
BRANCH  11  12
ATOM     12  C   UNL     1      10.285  38.954   1.690  1.00  0.00    -0.000 C 
BRANCH  12  13
ATOM     13  C   UNL     1       9.224  38.048   2.328  1.00  0.00    -0.003 C 
ATOM     14  C   UNL     1       7.956  38.004   1.479  1.00  0.00     0.004 C 
ENDBRANCH  12  13
ENDBRANCH  11  12
ENDBRANCH  10  11
ENDBRANCH   9  10
ENDBRANCH   1   9
TORSDOF 10
ENDMDL
MODEL 8
REMARK VINA RESULT:    -3.836      2.497      3.980
REMARK INTER + INTRA:          -7.119
REMARK INTER:                  -5.573
REMARK INTRA:                  -1.545
REMARK UNBOUND:                -1.040
REMARK SMILES CCCCCCCCCCCC(=O)[O-]
REMARK SMILES IDX 7 1 8 2 9 3 10 4 11 5 12 6 13 7 14 8 6 9 5 10 4 11 3 12 2 13
REMARK SMILES IDX 1 14
REMARK H PARENT
REMARK Flexibility Score: inf
ROOT
ATOM      1  C   UNL     1      10.582  37.884  -0.685  1.00  0.00     0.000 C 
ENDROOT
BRANCH   1   2
ATOM      2  C   UNL     1       9.885  36.564  -1.046  1.00  0.00     0.000 C 
BRANCH   2   3
ATOM      3  C   UNL     1      10.384  35.420  -0.155  1.00  0.00     0.000 C 
BRANCH   3   4
ATOM      4  C   UNL     1       9.250  34.437   0.166  1.00  0.00     0.006 C 
BRANCH   4   5
ATOM      5  C   UNL     1       8.176  34.462  -0.925  1.00  0.00     0.053 C 
BRANCH   5   6
ATOM      6  C   UNL     1       8.284  33.249  -1.794  1.00  0.00     0.041 C 
ATOM      7  O   UNL     1       7.472  33.073  -2.741  1.00  0.00    -0.550 OA
ATOM      8  O   UNL     1       9.311  32.337  -1.589  1.00  0.00    -0.550 OA
ENDBRANCH   5   6
ENDBRANCH   4   5
ENDBRANCH   3   4
ENDBRANCH   2   3
ENDBRANCH   1   2
BRANCH   1   9
ATOM      9  C   UNL     1      11.194  37.867   0.725  1.00  0.00     0.000 C 
BRANCH   9  10
ATOM     10  C   UNL     1      10.408  38.736   1.721  1.00  0.00    -0.000 C 
BRANCH  10  11
ATOM     11  C   UNL     1       9.223  37.993   2.363  1.00  0.00    -0.000 C 
BRANCH  11  12
ATOM     12  C   UNL     1       7.833  38.416   1.854  1.00  0.00    -0.000 C 
BRANCH  12  13
ATOM     13  C   UNL     1       7.020  37.244   1.288  1.00  0.00    -0.003 C 
ATOM     14  C   UNL     1       6.423  37.594  -0.073  1.00  0.00     0.004 C 
ENDBRANCH  12  13
ENDBRANCH  11  12
ENDBRANCH  10  11
ENDBRANCH   9  10
ENDBRANCH   1   9
TORSDOF 10
ENDMDL
MODEL 9
REMARK VINA RESULT:    -3.824      2.167      3.307
REMARK INTER + INTRA:          -7.100
REMARK INTER:                  -5.743
REMARK INTRA:                  -1.357
REMARK UNBOUND:                -1.040
REMARK SMILES CCCCCCCCCCCC(=O)[O-]
REMARK SMILES IDX 7 1 8 2 9 3 10 4 11 5 12 6 13 7 14 8 6 9 5 10 4 11 3 12 2 13
REMARK SMILES IDX 1 14
REMARK H PARENT
REMARK Flexibility Score: inf
ROOT
ATOM      1  C   UNL     1       6.929  34.918  -0.205  1.00  0.00     0.000 C 
ENDROOT
BRANCH   1   2
ATOM      2  C   UNL     1       7.195  36.410   0.049  1.00  0.00     0.000 C 
BRANCH   2   3
ATOM      3  C   UNL     1       8.036  37.016  -1.081  1.00  0.00     0.000 C 
BRANCH   3   4
ATOM      4  C   UNL     1       9.287  37.709  -0.525  1.00  0.00     0.006 C 
BRANCH   4   5
ATOM      5  C   UNL     1      10.559  36.975  -0.956  1.00  0.00     0.053 C 
BRANCH   5   6
ATOM      6  C   UNL     1      10.691  35.679  -0.219  1.00  0.00     0.041 C 
ATOM      7  O   UNL     1      11.032  34.633  -0.832  1.00  0.00    -0.550 OA
ATOM      8  O   UNL     1      10.485  35.637   1.154  1.00  0.00    -0.550 OA
ENDBRANCH   5   6
ENDBRANCH   4   5
ENDBRANCH   3   4
ENDBRANCH   2   3
ENDBRANCH   1   2
BRANCH   1   9
ATOM      9  C   UNL     1       7.265  34.491  -1.644  1.00  0.00     0.000 C 
BRANCH   9  10
ATOM     10  C   UNL     1       6.009  34.194  -2.480  1.00  0.00    -0.000 C 
BRANCH  10  11
ATOM     11  C   UNL     1       4.704  34.588  -1.765  1.00  0.00    -0.000 C 
BRANCH  11  12
ATOM     12  C   UNL     1       3.920  35.738  -2.424  1.00  0.00    -0.000 C 
BRANCH  12  13
ATOM     13  C   UNL     1       4.821  36.898  -2.870  1.00  0.00    -0.003 C 
ATOM     14  C   UNL     1       4.629  38.119  -1.974  1.00  0.00     0.004 C 
ENDBRANCH  12  13
ENDBRANCH  11  12
ENDBRANCH  10  11
ENDBRANCH   9  10
ENDBRANCH   1   9
TORSDOF 10
ENDMDL
