MODEL 1
REMARK VINA RESULT:    -5.319      0.000      0.000
REMARK INTER + INTRA:          -6.149
REMARK INTER:                  -5.941
REMARK INTRA:                  -0.208
REMARK UNBOUND:                -0.208
REMARK SMILES O=C([O-])c1ccccc1C(=O)[O-]
REMARK SMILES IDX 4 1 9 2 5 3 8 4 6 5 7 6 2 7 1 8 3 9 10 10 11 11 12 12
REMARK H PARENT
REMARK Flexibility Score: inf
ROOT
ATOM      1  C   UNL     1     -14.429  -5.226  30.526  1.00  0.00     0.006 A 
ATOM      2  C   UNL     1     -13.732  -4.148  29.912  1.00  0.00     0.006 A 
ATOM      3  C   UNL     1     -15.281  -6.024  29.740  1.00  0.00     0.010 A 
ATOM      4  C   UNL     1     -13.862  -3.950  28.525  1.00  0.00     0.010 A 
ATOM      5  C   UNL     1     -15.413  -5.795  28.371  1.00  0.00     0.001 A 
ATOM      6  C   UNL     1     -14.696  -4.768  27.762  1.00  0.00     0.001 A 
ENDROOT
BRANCH   1   7
ATOM      7  C   UNL     1     -14.251  -5.597  31.949  1.00  0.00     0.072 C 
ATOM      8  O   UNL     1     -13.284  -6.318  32.311  1.00  0.00    -0.545 OA
ATOM      9  O   UNL     1     -15.193  -5.206  32.893  1.00  0.00    -0.545 OA
ENDBRANCH   1   7
BRANCH   2  10
ATOM     10  C   UNL     1     -12.921  -3.172  30.675  1.00  0.00     0.072 C 
ATOM     11  O   UNL     1     -13.389  -2.043  30.982  1.00  0.00    -0.545 OA
ATOM     12  O   UNL     1     -11.603  -3.467  31.004  1.00  0.00    -0.545 OA
ENDBRANCH   2  10
TORSDOF 2
ENDMDL
MODEL 2
REMARK VINA RESULT:    -5.308      0.052      3.178
REMARK INTER + INTRA:          -6.136
REMARK INTER:                  -5.928
REMARK INTRA:                  -0.208
REMARK UNBOUND:                -0.208
REMARK SMILES O=C([O-])c1ccccc1C(=O)[O-]
REMARK SMILES IDX 4 1 9 2 5 3 8 4 6 5 7 6 2 7 1 8 3 9 10 10 11 11 12 12
REMARK H PARENT
REMARK Flexibility Score: inf
ROOT
ATOM      1  C   UNL     1     -13.722  -4.113  29.889  1.00  0.00     0.006 A 
ATOM      2  C   UNL     1     -14.432  -5.191  30.489  1.00  0.00     0.006 A 
ATOM      3  C   UNL     1     -13.838  -3.906  28.502  1.00  0.00     0.010 A 
ATOM      4  C   UNL     1     -15.283  -5.978  29.690  1.00  0.00     0.010 A 
ATOM      5  C   UNL     1     -14.669  -4.713  27.726  1.00  0.00     0.001 A 
ATOM      6  C   UNL     1     -15.399  -5.740  28.320  1.00  0.00     0.001 A 
ENDROOT
BRANCH   1   7
ATOM      7  C   UNL     1     -12.912  -3.148  30.668  1.00  0.00     0.072 C 
ATOM      8  O   UNL     1     -13.373  -2.017  30.973  1.00  0.00    -0.545 OA
ATOM      9  O   UNL     1     -11.601  -3.458  31.013  1.00  0.00    -0.545 OA
ENDBRANCH   1   7
BRANCH   2  10
ATOM     10  C   UNL     1     -14.271  -5.574  31.910  1.00  0.00     0.072 C 
ATOM     11  O   UNL     1     -13.315  -6.309  32.276  1.00  0.00    -0.545 OA
ATOM     12  O   UNL     1     -15.216  -5.179  32.850  1.00  0.00    -0.545 OA
ENDBRANCH   2  10
TORSDOF 2
ENDMDL
MODEL 3
REMARK VINA RESULT:    -4.994      0.998      3.305
REMARK INTER + INTRA:          -5.787
REMARK INTER:                  -5.837
REMARK INTRA:                   0.051
REMARK UNBOUND:                -0.208
REMARK SMILES O=C([O-])c1ccccc1C(=O)[O-]
REMARK SMILES IDX 4 1 9 2 5 3 8 4 6 5 7 6 2 7 1 8 3 9 10 10 11 11 12 12
REMARK H PARENT
REMARK Flexibility Score: inf
ROOT
ATOM      1  C   UNL     1     -14.407  -4.930  29.782  1.00  0.00     0.006 A 
ATOM      2  C   UNL     1     -14.862  -6.060  30.520  1.00  0.00     0.006 A 
ATOM      3  C   UNL     1     -14.651  -4.875  28.398  1.00  0.00     0.010 A 
ATOM      4  C   UNL     1     -15.600  -7.057  29.856  1.00  0.00     0.010 A 
ATOM      5  C   UNL     1     -15.366  -5.886  27.757  1.00  0.00     0.001 A 
ATOM      6  C   UNL     1     -15.850  -6.970  28.486  1.00  0.00     0.001 A 
ENDROOT
BRANCH   1   7
ATOM      7  C   UNL     1     -13.742  -3.768  30.415  1.00  0.00     0.072 C 
ATOM      8  O   UNL     1     -14.190  -3.270  31.481  1.00  0.00    -0.545 OA
ATOM      9  O   UNL     1     -12.650  -3.169  29.797  1.00  0.00    -0.545 OA
ENDBRANCH   1   7
BRANCH   2  10
ATOM     10  C   UNL     1     -14.538  -6.276  31.948  1.00  0.00     0.072 C 
ATOM     11  O   UNL     1     -13.417  -6.738  32.293  1.00  0.00    -0.545 OA
ATOM     12  O   UNL     1     -15.496  -6.033  32.925  1.00  0.00    -0.545 OA
ENDBRANCH   2  10
TORSDOF 2
ENDMDL
MODEL 4
REMARK VINA RESULT:    -4.944      1.923      3.470
REMARK INTER + INTRA:          -5.731
REMARK INTER:                  -5.948
REMARK INTRA:                   0.218
REMARK UNBOUND:                -0.208
REMARK SMILES O=C([O-])c1ccccc1C(=O)[O-]
REMARK SMILES IDX 4 1 9 2 5 3 8 4 6 5 7 6 2 7 1 8 3 9 10 10 11 11 12 12
REMARK H PARENT
REMARK Flexibility Score: inf
ROOT
ATOM      1  C   UNL     1     -14.542  -5.429  30.794  1.00  0.00     0.006 A 
ATOM      2  C   UNL     1     -15.214  -6.064  29.712  1.00  0.00     0.006 A 
ATOM      3  C   UNL     1     -13.801  -4.259  30.545  1.00  0.00     0.010 A 
ATOM      4  C   UNL     1     -15.174  -5.469  28.437  1.00  0.00     0.010 A 
ATOM      5  C   UNL     1     -13.756  -3.699  29.269  1.00  0.00     0.001 A 
ATOM      6  C   UNL     1     -14.451  -4.295  28.219  1.00  0.00     0.001 A 
ENDROOT
BRANCH   1   7
ATOM      7  C   UNL     1     -14.638  -5.903  32.194  1.00  0.00     0.072 C 
ATOM      8  O   UNL     1     -13.871  -6.804  32.624  1.00  0.00    -0.545 OA
ATOM      9  O   UNL     1     -15.628  -5.402  33.032  1.00  0.00    -0.545 OA
ENDBRANCH   1   7
BRANCH   2  10
ATOM     10  C   UNL     1     -15.905  -7.367  29.843  1.00  0.00     0.072 C 
ATOM     11  O   UNL     1     -15.867  -8.215  28.912  1.00  0.00    -0.545 OA
ATOM     12  O   UNL     1     -16.664  -7.643  30.975  1.00  0.00    -0.545 OA
ENDBRANCH   2  10
TORSDOF 2
ENDMDL
MODEL 5
REMARK VINA RESULT:    -4.926      1.950      3.255
REMARK INTER + INTRA:          -5.710
REMARK INTER:                  -5.929
REMARK INTRA:                   0.219
REMARK UNBOUND:                -0.208
REMARK SMILES O=C([O-])c1ccccc1C(=O)[O-]
REMARK SMILES IDX 4 1 9 2 5 3 8 4 6 5 7 6 2 7 1 8 3 9 10 10 11 11 12 12
REMARK H PARENT
REMARK Flexibility Score: inf
ROOT
ATOM      1  C   UNL     1     -15.221  -6.107  29.725  1.00  0.00     0.006 A 
ATOM      2  C   UNL     1     -14.528  -5.493  30.807  1.00  0.00     0.006 A 
ATOM      3  C   UNL     1     -15.183  -5.499  28.456  1.00  0.00     0.010 A 
ATOM      4  C   UNL     1     -13.770  -4.333  30.563  1.00  0.00     0.010 A 
ATOM      5  C   UNL     1     -14.443  -4.337  28.243  1.00  0.00     0.001 A 
ATOM      6  C   UNL     1     -13.728  -3.761  29.290  1.00  0.00     0.001 A 
ENDROOT
BRANCH   1   7
ATOM      7  C   UNL     1     -15.932  -7.400  29.852  1.00  0.00     0.072 C 
ATOM      8  O   UNL     1     -15.914  -8.241  28.915  1.00  0.00    -0.545 OA
ATOM      9  O   UNL     1     -16.688  -7.670  30.987  1.00  0.00    -0.545 OA
ENDBRANCH   1   7
BRANCH   2  10
ATOM     10  C   UNL     1     -14.618  -5.978  32.203  1.00  0.00     0.072 C 
ATOM     11  O   UNL     1     -13.856  -6.890  32.619  1.00  0.00    -0.545 OA
ATOM     12  O   UNL     1     -15.597  -5.476  33.053  1.00  0.00    -0.545 OA
ENDBRANCH   2  10
TORSDOF 2
ENDMDL
MODEL 6
REMARK VINA RESULT:    -4.553      2.519      3.896
REMARK INTER + INTRA:          -5.294
REMARK INTER:                  -5.361
REMARK INTRA:                   0.067
REMARK UNBOUND:                -0.208
REMARK SMILES O=C([O-])c1ccccc1C(=O)[O-]
REMARK SMILES IDX 4 1 9 2 5 3 8 4 6 5 7 6 2 7 1 8 3 9 10 10 11 11 12 12
REMARK H PARENT
REMARK Flexibility Score: inf
ROOT
ATOM      1  C   UNL     1     -15.642  -6.679  30.692  1.00  0.00     0.006 A 
ATOM      2  C   UNL     1     -15.097  -5.886  31.742  1.00  0.00     0.006 A 
ATOM      3  C   UNL     1     -16.654  -7.609  30.994  1.00  0.00     0.010 A 
ATOM      4  C   UNL     1     -15.631  -6.007  33.038  1.00  0.00     0.010 A 
ATOM      5  C   UNL     1     -17.152  -7.728  32.291  1.00  0.00     0.001 A 
ATOM      6  C   UNL     1     -16.650  -6.921  33.309  1.00  0.00     0.001 A 
ENDROOT
BRANCH   1   7
ATOM      7  C   UNL     1     -15.243  -6.526  29.274  1.00  0.00     0.072 C 
ATOM      8  O   UNL     1     -15.140  -5.384  28.752  1.00  0.00    -0.545 OA
ATOM      9  O   UNL     1     -15.042  -7.651  28.483  1.00  0.00    -0.545 OA
ENDBRANCH   1   7
BRANCH   2  10
ATOM     10  C   UNL     1     -13.942  -4.980  31.553  1.00  0.00     0.072 C 
ATOM     11  O   UNL     1     -12.762  -5.399  31.695  1.00  0.00    -0.545 OA
ATOM     12  O   UNL     1     -14.150  -3.632  31.281  1.00  0.00    -0.545 OA
ENDBRANCH   2  10
TORSDOF 2
ENDMDL
MODEL 7
REMARK VINA RESULT:    -4.545      1.909      2.551
REMARK INTER + INTRA:          -5.285
REMARK INTER:                  -5.831
REMARK INTRA:                   0.546
REMARK UNBOUND:                -0.208
REMARK SMILES O=C([O-])c1ccccc1C(=O)[O-]
REMARK SMILES IDX 4 1 9 2 5 3 8 4 6 5 7 6 2 7 1 8 3 9 10 10 11 11 12 12
REMARK H PARENT
REMARK Flexibility Score: inf
ROOT
ATOM      1  C   UNL     1     -15.595  -6.846  30.586  1.00  0.00     0.006 A 
ATOM      2  C   UNL     1     -15.189  -6.116  29.433  1.00  0.00     0.006 A 
ATOM      3  C   UNL     1     -16.356  -8.018  30.420  1.00  0.00     0.010 A 
ATOM      4  C   UNL     1     -15.502  -6.622  28.158  1.00  0.00     0.010 A 
ATOM      5  C   UNL     1     -16.675  -8.488  29.146  1.00  0.00     0.001 A 
ATOM      6  C   UNL     1     -16.239  -7.799  28.017  1.00  0.00     0.001 A 
ENDROOT
BRANCH   1   7
ATOM      7  C   UNL     1     -15.198  -6.468  31.962  1.00  0.00     0.072 C 
ATOM      8  O   UNL     1     -14.079  -6.809  32.427  1.00  0.00    -0.545 OA
ATOM      9  O   UNL     1     -16.091  -5.787  32.782  1.00  0.00    -0.545 OA
ENDBRANCH   1   7
BRANCH   2  10
ATOM     10  C   UNL     1     -14.505  -4.805  29.507  1.00  0.00     0.072 C 
ATOM     11  O   UNL     1     -14.078  -4.361  30.606  1.00  0.00    -0.545 OA
ATOM     12  O   UNL     1     -14.387  -4.016  28.369  1.00  0.00    -0.545 OA
ENDBRANCH   2  10
TORSDOF 2
ENDMDL
MODEL 8
REMARK VINA RESULT:    -4.543      2.612      4.168
REMARK INTER + INTRA:          -5.283
REMARK INTER:                  -5.344
REMARK INTRA:                   0.062
REMARK UNBOUND:                -0.208
REMARK SMILES O=C([O-])c1ccccc1C(=O)[O-]
REMARK SMILES IDX 4 1 9 2 5 3 8 4 6 5 7 6 2 7 1 8 3 9 10 10 11 11 12 12
REMARK H PARENT
REMARK Flexibility Score: inf
ROOT
ATOM      1  C   UNL     1     -15.174  -6.114  31.663  1.00  0.00     0.006 A 
ATOM      2  C   UNL     1     -15.722  -6.934  30.636  1.00  0.00     0.006 A 
ATOM      3  C   UNL     1     -15.740  -6.162  32.950  1.00  0.00     0.010 A 
ATOM      4  C   UNL     1     -16.770  -7.818  30.953  1.00  0.00     0.010 A 
ATOM      5  C   UNL     1     -16.794  -7.029  33.236  1.00  0.00     0.001 A 
ATOM      6  C   UNL     1     -17.300  -7.864  32.243  1.00  0.00     0.001 A 
ENDROOT
BRANCH   1   7
ATOM      7  C   UNL     1     -13.985  -5.255  31.461  1.00  0.00     0.072 C 
ATOM      8  O   UNL     1     -12.840  -5.643  31.815  1.00  0.00    -0.545 OA
ATOM      9  O   UNL     1     -14.132  -3.975  30.937  1.00  0.00    -0.545 OA
ENDBRANCH   1   7
BRANCH   2  10
ATOM     10  C   UNL     1     -15.287  -6.858  29.223  1.00  0.00     0.072 C 
ATOM     11  O   UNL     1     -15.245  -5.752  28.620  1.00  0.00    -0.545 OA
ATOM     12  O   UNL     1     -14.983  -8.020  28.523  1.00  0.00    -0.545 OA
ENDBRANCH   2  10
TORSDOF 2
ENDMDL
MODEL 9
REMARK VINA RESULT:    -4.522      2.165      3.719
REMARK INTER + INTRA:          -5.259
REMARK INTER:                  -5.533
REMARK INTRA:                   0.273
REMARK UNBOUND:                -0.208
REMARK SMILES O=C([O-])c1ccccc1C(=O)[O-]
REMARK SMILES IDX 4 1 9 2 5 3 8 4 6 5 7 6 2 7 1 8 3 9 10 10 11 11 12 12
REMARK H PARENT
REMARK Flexibility Score: inf
ROOT
ATOM      1  C   UNL     1     -14.545  -5.147  31.505  1.00  0.00     0.006 A 
ATOM      2  C   UNL     1     -15.197  -5.906  30.491  1.00  0.00     0.006 A 
ATOM      3  C   UNL     1     -14.894  -5.363  32.851  1.00  0.00     0.010 A 
ATOM      4  C   UNL     1     -16.124  -6.896  30.868  1.00  0.00     0.010 A 
ATOM      5  C   UNL     1     -15.832  -6.335  33.199  1.00  0.00     0.001 A 
ATOM      6  C   UNL     1     -16.437  -7.108  32.211  1.00  0.00     0.001 A 
ENDROOT
BRANCH   1   7
ATOM      7  C   UNL     1     -13.460  -4.181  31.218  1.00  0.00     0.072 C 
ATOM      8  O   UNL     1     -12.266  -4.565  31.107  1.00  0.00    -0.545 OA
ATOM      9  O   UNL     1     -13.743  -2.822  31.134  1.00  0.00    -0.545 OA
ENDBRANCH   1   7
BRANCH   2  10
ATOM     10  C   UNL     1     -15.000  -5.659  29.045  1.00  0.00     0.072 C 
ATOM     11  O   UNL     1     -14.694  -4.513  28.622  1.00  0.00    -0.545 OA
ATOM     12  O   UNL     1     -15.218  -6.680  28.128  1.00  0.00    -0.545 OA
ENDBRANCH   2  10
TORSDOF 2
ENDMDL
