MODEL 1
REMARK VINA RESULT:    -3.632      0.000      0.000
REMARK INTER + INTRA:          -5.434
REMARK INTER:                  -5.543
REMARK INTRA:                   0.108
REMARK UNBOUND:                 0.108
REMARK SMILES CC1=CCC[C@@H](C)C(=O)C[C@@H](C(C)C)C(=O)C1
REMARK SMILES IDX 8 1 9 2 6 3 7 4 5 5 4 6 3 7 2 8 1 9 10 11 11 12 15 13 16 14
REMARK SMILES IDX 17 15 12 17 13 18 14 19
REMARK H PARENT
REMARK Flexibility Score: 70.00
ROOT
ATOM      1  C   UNL     1     -14.297   3.948  27.016  1.00  0.00     0.136 C 
ATOM      2  O   UNL     1     -13.219   3.474  27.346  1.00  0.00    -0.299 OA
ENDROOT
BRANCH   1   3
ATOM      3  C   UNL     1     -15.581   3.355  27.559  1.00  0.00     0.053 C 
ATOM      4  C   UNL     1     -16.508   2.996  26.394  1.00  0.00     0.016 C 
BRANCH   3   5
ATOM      5  C   UNL     1     -16.302   4.310  28.539  1.00  0.00     0.015 C 
BRANCH   5   6
ATOM      6  C   UNL     1     -17.582   4.937  27.967  1.00  0.00     0.028 C 
BRANCH   6   7
ATOM      7  C   UNL     1     -17.726   6.379  28.391  1.00  0.00    -0.028 C 
ATOM      8  C   UNL     1     -17.171   7.433  27.754  1.00  0.00    -0.070 CG0
ATOM      9  C   UNL     1     -17.421   8.812  28.312  1.00  0.00     0.039 C 
ATOM     10  G   UNL     1     -16.324   7.288  26.502  1.00  0.00     0.000 G0
ENDBRANCH   6   7
ENDBRANCH   5   6
ENDBRANCH   3   5
ENDBRANCH   1   3
BRANCH   1  11
ATOM     11  C   UNL     1     -14.324   5.162  26.117  1.00  0.00     0.087 C 
BRANCH  11  12
ATOM     12  C   UNL     1     -13.820   6.461  26.800  1.00  0.00     0.066 C 
BRANCH  12  13
ATOM     13  C   UNL     1     -14.861   7.569  26.668  1.00  0.00     0.140 C 
ATOM     14  O   UNL     1     -14.500   8.731  26.784  1.00  0.00    -0.299 OA
BRANCH  13  15
ATOM     15  C   UNL     1     -16.343   7.300  26.494  1.00  0.00     0.106 CG0
ATOM     16  G   UNL     1     -17.155   7.423  27.771  1.00  0.00     0.000 G0
ENDBRANCH  13  15
ENDBRANCH  12  13
BRANCH  12  17
ATOM     17  C   UNL     1     -12.453   6.927  26.201  1.00  0.00    -0.006 C 
ATOM     18  C   UNL     1     -11.328   5.923  26.513  1.00  0.00     0.008 C 
ATOM     19  C   UNL     1     -12.525   7.131  24.677  1.00  0.00     0.008 C 
ENDBRANCH  12  17
ENDBRANCH  11  12
ENDBRANCH   1  11
TORSDOF 1
ENDMDL
MODEL 2
REMARK VINA RESULT:    -3.544      6.093      7.865
REMARK INTER + INTRA:          -5.300
REMARK INTER:                  -5.048
REMARK INTRA:                  -0.252
REMARK UNBOUND:                 0.108
REMARK SMILES CC1=CCC[C@@H](C)C(=O)C[C@@H](C(C)C)C(=O)C1
REMARK SMILES IDX 8 1 9 2 6 3 7 4 5 5 4 6 3 7 2 8 1 9 10 11 11 12 15 13 16 14
REMARK SMILES IDX 17 15 12 17 13 18 14 19
REMARK H PARENT
REMARK Flexibility Score: 70.00
ROOT
ATOM      1  C   UNL     1     -18.114  -1.118  28.043  1.00  0.00     0.136 C 
ATOM      2  O   UNL     1     -17.519  -1.471  27.034  1.00  0.00    -0.299 OA
ENDROOT
BRANCH   1   3
ATOM      3  C   UNL     1     -19.188  -2.006  28.636  1.00  0.00     0.053 C 
ATOM      4  C   UNL     1     -20.019  -2.622  27.506  1.00  0.00     0.016 C 
BRANCH   3   5
ATOM      5  C   UNL     1     -20.108  -1.241  29.617  1.00  0.00     0.015 C 
BRANCH   5   6
ATOM      6  C   UNL     1     -19.977  -1.701  31.077  1.00  0.00     0.028 C 
BRANCH   6   7
ATOM      7  C   UNL     1     -20.059  -0.534  32.031  1.00  0.00    -0.028 C 
ATOM      8  C   UNL     1     -18.997   0.137  32.527  1.00  0.00    -0.070 CG0
ATOM      9  C   UNL     1     -19.259   1.286  33.469  1.00  0.00     0.039 C 
ATOM     10  G   UNL     1     -17.562  -0.207  32.168  1.00  0.00     0.000 G0
ENDBRANCH   6   7
ENDBRANCH   5   6
ENDBRANCH   3   5
ENDBRANCH   1   3
BRANCH   1  11
ATOM     11  C   UNL     1     -17.719   0.176  28.716  1.00  0.00     0.087 C 
BRANCH  11  12
ATOM     12  C   UNL     1     -16.551   0.027  29.726  1.00  0.00     0.066 C 
BRANCH  12  13
ATOM     13  C   UNL     1     -16.935   0.627  31.075  1.00  0.00     0.140 C 
ATOM     14  O   UNL     1     -16.672   1.801  31.294  1.00  0.00    -0.299 OA
BRANCH  13  15
ATOM     15  C   UNL     1     -17.543  -0.185  32.203  1.00  0.00     0.106 CG0
ATOM     16  G   UNL     1     -18.994   0.148  32.501  1.00  0.00     0.000 G0
ENDBRANCH  13  15
ENDBRANCH  12  13
BRANCH  12  17
ATOM     17  C   UNL     1     -15.243   0.695  29.189  1.00  0.00    -0.006 C 
ATOM     18  C   UNL     1     -14.098  -0.326  29.060  1.00  0.00     0.008 C 
ATOM     19  C   UNL     1     -15.456   1.374  27.824  1.00  0.00     0.008 C 
ENDBRANCH  12  17
ENDBRANCH  11  12
ENDBRANCH   1  11
TORSDOF 1
ENDMDL
MODEL 3
REMARK VINA RESULT:    -3.440      7.423      9.629
REMARK INTER + INTRA:          -5.141
REMARK INTER:                  -4.627
REMARK INTRA:                  -0.515
REMARK UNBOUND:                 0.108
REMARK SMILES CC1=CCC[C@@H](C)C(=O)C[C@@H](C(C)C)C(=O)C1
REMARK SMILES IDX 8 1 9 2 6 3 7 4 5 5 4 6 3 7 2 8 1 9 10 11 11 12 15 13 16 14
REMARK SMILES IDX 17 15 12 17 13 18 14 19
REMARK H PARENT
REMARK Flexibility Score: 70.00
ROOT
ATOM      1  C   UNL     1     -18.212   2.228  31.581  1.00  0.00     0.136 C 
ATOM      2  O   UNL     1     -17.477   2.752  30.756  1.00  0.00    -0.299 OA
ENDROOT
BRANCH   1   3
ATOM      3  C   UNL     1     -17.617   1.556  32.802  1.00  0.00     0.053 C 
ATOM      4  C   UNL     1     -16.820   2.584  33.610  1.00  0.00     0.016 C 
BRANCH   3   5
ATOM      5  C   UNL     1     -16.715   0.355  32.432  1.00  0.00     0.015 C 
BRANCH   5   6
ATOM      6  C   UNL     1     -17.453  -0.992  32.408  1.00  0.00     0.028 C 
BRANCH   6   7
ATOM      7  C   UNL     1     -17.981  -1.307  31.029  1.00  0.00    -0.028 C 
ATOM      8  C   UNL     1     -19.288  -1.383  30.699  1.00  0.00    -0.070 CG0
ATOM      9  C   UNL     1     -19.642  -1.705  29.268  1.00  0.00     0.039 C 
ATOM     10  G   UNL     1     -20.407  -1.145  31.697  1.00  0.00     0.000 G0
ENDBRANCH   6   7
ENDBRANCH   5   6
ENDBRANCH   3   5
ENDBRANCH   1   3
BRANCH   1  11
ATOM     11  C   UNL     1     -19.709   2.315  31.397  1.00  0.00     0.087 C 
BRANCH  11  12
ATOM     12  C   UNL     1     -20.515   1.417  32.372  1.00  0.00     0.066 C 
BRANCH  12  13
ATOM     13  C   UNL     1     -21.072   0.202  31.637  1.00  0.00     0.140 C 
ATOM     14  O   UNL     1     -22.132   0.312  31.037  1.00  0.00    -0.299 OA
BRANCH  13  15
ATOM     15  C   UNL     1     -20.426  -1.170  31.690  1.00  0.00     0.106 CG0
ATOM     16  G   UNL     1     -19.281  -1.360  30.712  1.00  0.00     0.000 G0
ENDBRANCH  13  15
ENDBRANCH  12  13
BRANCH  12  17
ATOM     17  C   UNL     1     -21.673   2.214  33.057  1.00  0.00    -0.006 C 
ATOM     18  C   UNL     1     -21.459   2.326  34.578  1.00  0.00     0.008 C 
ATOM     19  C   UNL     1     -21.829   3.630  32.473  1.00  0.00     0.008 C 
ENDBRANCH  12  17
ENDBRANCH  11  12
ENDBRANCH   1  11
TORSDOF 1
ENDMDL
MODEL 4
REMARK VINA RESULT:    -3.400      9.323     11.870
REMARK INTER + INTRA:          -5.081
REMARK INTER:                  -4.634
REMARK INTRA:                  -0.447
REMARK UNBOUND:                 0.108
REMARK SMILES CC1=CCC[C@@H](C)C(=O)C[C@@H](C(C)C)C(=O)C1
REMARK SMILES IDX 8 1 9 2 6 3 7 4 5 5 4 6 3 7 2 8 1 9 10 11 11 12 15 13 16 14
REMARK SMILES IDX 17 15 12 17 13 18 14 19
REMARK H PARENT
REMARK Flexibility Score: 70.00
ROOT
ATOM      1  C   UNL     1     -21.917  -2.727  19.700  1.00  0.00     0.136 C 
ATOM      2  O   UNL     1     -22.219  -2.624  18.519  1.00  0.00    -0.299 OA
ENDROOT
BRANCH   1   3
ATOM      3  C   UNL     1     -22.947  -2.428  20.771  1.00  0.00     0.053 C 
ATOM      4  C   UNL     1     -24.128  -3.392  20.624  1.00  0.00     0.016 C 
BRANCH   3   5
ATOM      5  C   UNL     1     -23.444  -0.964  20.717  1.00  0.00     0.015 C 
BRANCH   5   6
ATOM      6  C   UNL     1     -22.342   0.076  20.966  1.00  0.00     0.028 C 
BRANCH   6   7
ATOM      7  C   UNL     1     -21.917   0.091  22.415  1.00  0.00    -0.028 C 
ATOM      8  C   UNL     1     -20.682  -0.224  22.863  1.00  0.00    -0.070 CG0
ATOM      9  C   UNL     1     -20.425  -0.152  24.347  1.00  0.00     0.039 C 
ATOM     10  G   UNL     1     -19.548  -0.632  21.939  1.00  0.00     0.000 G0
ENDBRANCH   6   7
ENDBRANCH   5   6
ENDBRANCH   3   5
ENDBRANCH   1   3
BRANCH   1  11
ATOM     11  C   UNL     1     -20.535  -3.211  20.068  1.00  0.00     0.087 C 
BRANCH  11  12
ATOM     12  C   UNL     1     -20.250  -3.197  21.593  1.00  0.00     0.066 C 
BRANCH  12  13
ATOM     13  C   UNL     1     -19.220  -2.123  21.931  1.00  0.00     0.140 C 
ATOM     14  O   UNL     1     -18.103  -2.470  22.289  1.00  0.00    -0.299 OA
BRANCH  13  15
ATOM     15  C   UNL     1     -19.538  -0.640  21.939  1.00  0.00     0.106 CG0
ATOM     16  G   UNL     1     -20.659  -0.246  22.884  1.00  0.00     0.000 G0
ENDBRANCH  13  15
ENDBRANCH  12  13
BRANCH  12  17
ATOM     17  C   UNL     1     -19.760  -4.594  22.095  1.00  0.00    -0.006 C 
ATOM     18  C   UNL     1     -20.327  -4.925  23.488  1.00  0.00     0.008 C 
ATOM     19  C   UNL     1     -20.140  -5.727  21.125  1.00  0.00     0.008 C 
ENDBRANCH  12  17
ENDBRANCH  11  12
ENDBRANCH   1  11
TORSDOF 1
ENDMDL
MODEL 5
REMARK VINA RESULT:    -3.351      4.917      6.465
REMARK INTER + INTRA:          -5.006
REMARK INTER:                  -4.947
REMARK INTRA:                  -0.059
REMARK UNBOUND:                 0.108
REMARK SMILES CC1=CCC[C@@H](C)C(=O)C[C@@H](C(C)C)C(=O)C1
REMARK SMILES IDX 8 1 9 2 6 3 7 4 5 5 4 6 3 7 2 8 1 9 10 11 11 12 15 13 16 14
REMARK SMILES IDX 17 15 12 17 13 18 14 19
REMARK H PARENT
REMARK Flexibility Score: 70.00
ROOT
ATOM      1  C   UNL     1     -16.357  -0.532  30.984  1.00  0.00     0.136 C 
ATOM      2  O   UNL     1     -15.220  -0.537  31.434  1.00  0.00    -0.299 OA
ENDROOT
BRANCH   1   3
ATOM      3  C   UNL     1     -17.450  -1.311  31.687  1.00  0.00     0.053 C 
ATOM      4  C   UNL     1     -18.677  -1.402  30.774  1.00  0.00     0.016 C 
BRANCH   3   5
ATOM      5  C   UNL     1     -17.841  -0.681  33.044  1.00  0.00     0.015 C 
BRANCH   5   6
ATOM      6  C   UNL     1     -18.834   0.485  32.925  1.00  0.00     0.028 C 
BRANCH   6   7
ATOM      7  C   UNL     1     -18.196   1.794  33.323  1.00  0.00    -0.028 C 
ATOM      8  C   UNL     1     -17.813   2.762  32.463  1.00  0.00    -0.070 CG0
ATOM      9  C   UNL     1     -17.193   4.015  33.033  1.00  0.00     0.039 C 
ATOM     10  G   UNL     1     -17.989   2.647  30.959  1.00  0.00     0.000 G0
ENDBRANCH   6   7
ENDBRANCH   5   6
ENDBRANCH   3   5
ENDBRANCH   1   3
BRANCH   1  11
ATOM     11  C   UNL     1     -16.664   0.305  29.765  1.00  0.00     0.087 C 
BRANCH  11  12
ATOM     12  C   UNL     1     -15.864   1.633  29.697  1.00  0.00     0.066 C 
BRANCH  12  13
ATOM     13  C   UNL     1     -16.739   2.803  30.135  1.00  0.00     0.140 C 
ATOM     14  O   UNL     1     -16.367   3.941  29.886  1.00  0.00    -0.299 OA
BRANCH  13  15
ATOM     15  C   UNL     1     -18.004   2.634  30.954  1.00  0.00     0.106 CG0
ATOM     16  G   UNL     1     -17.798   2.747  32.454  1.00  0.00     0.000 G0
ENDBRANCH  13  15
ENDBRANCH  12  13
BRANCH  12  17
ATOM     17  C   UNL     1     -15.300   1.886  28.261  1.00  0.00    -0.006 C 
ATOM     18  C   UNL     1     -13.845   2.388  28.306  1.00  0.00     0.008 C 
ATOM     19  C   UNL     1     -15.361   0.624  27.381  1.00  0.00     0.008 C 
ENDBRANCH  12  17
ENDBRANCH  11  12
ENDBRANCH   1  11
TORSDOF 1
ENDMDL
MODEL 6
REMARK VINA RESULT:    -3.293      5.778      7.738
REMARK INTER + INTRA:          -4.918
REMARK INTER:                  -4.573
REMARK INTRA:                  -0.345
REMARK UNBOUND:                 0.108
REMARK SMILES CC1=CCC[C@@H](C)C(=O)C[C@@H](C(C)C)C(=O)C1
REMARK SMILES IDX 8 1 9 2 6 3 7 4 5 5 4 6 3 7 2 8 1 9 10 11 11 12 15 13 16 14
REMARK SMILES IDX 17 15 12 17 13 18 14 19
REMARK H PARENT
REMARK Flexibility Score: 70.00
ROOT
ATOM      1  C   UNL     1     -15.966  -0.366  31.259  1.00  0.00     0.136 C 
ATOM      2  O   UNL     1     -14.977  -1.048  31.492  1.00  0.00    -0.299 OA
ENDROOT
BRANCH   1   3
ATOM      3  C   UNL     1     -16.818   0.143  32.403  1.00  0.00     0.053 C 
ATOM      4  C   UNL     1     -15.941   0.339  33.643  1.00  0.00     0.016 C 
BRANCH   3   5
ATOM      5  C   UNL     1     -17.994  -0.807  32.728  1.00  0.00     0.015 C 
BRANCH   5   6
ATOM      6  C   UNL     1     -19.376  -0.147  32.615  1.00  0.00     0.028 C 
BRANCH   6   7
ATOM      7  C   UNL     1     -20.248  -0.859  31.610  1.00  0.00    -0.028 C 
ATOM      8  C   UNL     1     -20.505  -0.420  30.358  1.00  0.00    -0.070 CG0
ATOM      9  C   UNL     1     -21.397  -1.261  29.479  1.00  0.00     0.039 C 
ATOM     10  G   UNL     1     -19.927   0.869  29.801  1.00  0.00     0.000 G0
ENDBRANCH   6   7
ENDBRANCH   5   6
ENDBRANCH   3   5
ENDBRANCH   1   3
BRANCH   1  11
ATOM     11  C   UNL     1     -16.283   0.009  29.830  1.00  0.00     0.087 C 
BRANCH  11  12
ATOM     12  C   UNL     1     -17.270   1.198  29.697  1.00  0.00     0.066 C 
BRANCH  12  13
ATOM     13  C   UNL     1     -18.587   0.729  29.085  1.00  0.00     0.140 C 
ATOM     14  O   UNL     1     -18.581   0.282  27.947  1.00  0.00    -0.299 OA
BRANCH  13  15
ATOM     15  C   UNL     1     -19.926   0.876  29.783  1.00  0.00     0.106 CG0
ATOM     16  G   UNL     1     -20.480  -0.418  30.352  1.00  0.00     0.000 G0
ENDBRANCH  13  15
ENDBRANCH  12  13
BRANCH  12  17
ATOM     17  C   UNL     1     -16.658   2.355  28.842  1.00  0.00    -0.006 C 
ATOM     18  C   UNL     1     -17.291   3.714  29.194  1.00  0.00     0.008 C 
ATOM     19  C   UNL     1     -15.132   2.461  29.014  1.00  0.00     0.008 C 
ENDBRANCH  12  17
ENDBRANCH  11  12
ENDBRANCH   1  11
TORSDOF 1
ENDMDL
MODEL 7
REMARK VINA RESULT:    -3.240      6.850      8.926
REMARK INTER + INTRA:          -4.836
REMARK INTER:                  -5.003
REMARK INTRA:                   0.167
REMARK UNBOUND:                 0.108
REMARK SMILES CC1=CCC[C@@H](C)C(=O)C[C@@H](C(C)C)C(=O)C1
REMARK SMILES IDX 8 1 9 2 6 3 7 4 5 5 4 6 3 7 2 8 1 9 10 11 11 12 15 13 16 14
REMARK SMILES IDX 17 15 12 17 13 18 14 19
REMARK H PARENT
REMARK Flexibility Score: 70.00
ROOT
ATOM      1  C   UNL     1     -20.403   1.249  32.863  1.00  0.00     0.136 C 
ATOM      2  O   UNL     1     -21.337   1.778  33.450  1.00  0.00    -0.299 OA
ENDROOT
BRANCH   1   3
ATOM      3  C   UNL     1     -20.624   0.629  31.499  1.00  0.00     0.053 C 
ATOM      4  C   UNL     1     -21.815   1.310  30.818  1.00  0.00     0.016 C 
BRANCH   3   5
ATOM      5  C   UNL     1     -20.856  -0.898  31.577  1.00  0.00     0.015 C 
BRANCH   5   6
ATOM      6  C   UNL     1     -19.632  -1.734  31.177  1.00  0.00     0.028 C 
BRANCH   6   7
ATOM      7  C   UNL     1     -18.794  -1.023  30.142  1.00  0.00    -0.028 C 
ATOM      8  C   UNL     1     -17.524  -0.602  30.330  1.00  0.00    -0.070 CG0
ATOM      9  C   UNL     1     -16.828   0.090  29.184  1.00  0.00     0.039 C 
ATOM     10  G   UNL     1     -16.771  -0.806  31.632  1.00  0.00     0.000 G0
ENDBRANCH   6   7
ENDBRANCH   5   6
ENDBRANCH   3   5
ENDBRANCH   1   3
BRANCH   1  11
ATOM     11  C   UNL     1     -19.028   1.280  33.487  1.00  0.00     0.087 C 
BRANCH  11  12
ATOM     12  C   UNL     1     -17.878   1.471  32.463  1.00  0.00     0.066 C 
BRANCH  12  13
ATOM     13  C   UNL     1     -16.857   0.345  32.595  1.00  0.00     0.140 C 
ATOM     14  O   UNL     1     -16.026   0.405  33.491  1.00  0.00    -0.299 OA
BRANCH  13  15
ATOM     15  C   UNL     1     -16.755  -0.805  31.610  1.00  0.00     0.106 CG0
ATOM     16  G   UNL     1     -17.517  -0.587  30.315  1.00  0.00     0.000 G0
ENDBRANCH  13  15
ENDBRANCH  12  13
BRANCH  12  17
ATOM     17  C   UNL     1     -17.180   2.858  32.641  1.00  0.00    -0.006 C 
ATOM     18  C   UNL     1     -17.815   3.930  31.736  1.00  0.00     0.008 C 
ATOM     19  C   UNL     1     -17.227   3.351  34.099  1.00  0.00     0.008 C 
ENDBRANCH  12  17
ENDBRANCH  11  12
ENDBRANCH   1  11
TORSDOF 1
ENDMDL
MODEL 8
REMARK VINA RESULT:    -3.152      7.727      9.144
REMARK INTER + INTRA:          -4.702
REMARK INTER:                  -4.270
REMARK INTRA:                  -0.433
REMARK UNBOUND:                 0.108
REMARK SMILES CC1=CCC[C@@H](C)C(=O)C[C@@H](C(C)C)C(=O)C1
REMARK SMILES IDX 8 1 9 2 6 3 7 4 5 5 4 6 3 7 2 8 1 9 10 11 11 12 15 13 16 14
REMARK SMILES IDX 17 15 12 17 13 18 14 19
REMARK H PARENT
REMARK Flexibility Score: 70.00
ROOT
ATOM      1  C   UNL     1     -18.760  -0.475  31.981  1.00  0.00     0.136 C 
ATOM      2  O   UNL     1     -18.066  -1.134  32.742  1.00  0.00    -0.299 OA
ENDROOT
BRANCH   1   3
ATOM      3  C   UNL     1     -18.717   1.038  32.040  1.00  0.00     0.053 C 
ATOM      4  C   UNL     1     -17.272   1.513  31.861  1.00  0.00     0.016 C 
BRANCH   3   5
ATOM      5  C   UNL     1     -19.300   1.592  33.362  1.00  0.00     0.015 C 
BRANCH   5   6
ATOM      6  C   UNL     1     -20.828   1.480  33.462  1.00  0.00     0.028 C 
BRANCH   6   7
ATOM      7  C   UNL     1     -21.512   2.324  32.413  1.00  0.00    -0.028 C 
ATOM      8  C   UNL     1     -22.272   1.841  31.405  1.00  0.00    -0.070 CG0
ATOM      9  C   UNL     1     -22.887   2.828  30.444  1.00  0.00     0.039 C 
ATOM     10  G   UNL     1     -22.540   0.359  31.210  1.00  0.00     0.000 G0
ENDBRANCH   6   7
ENDBRANCH   5   6
ENDBRANCH   3   5
ENDBRANCH   1   3
BRANCH   1  11
ATOM     11  C   UNL     1     -19.604  -1.186  30.950  1.00  0.00     0.087 C 
BRANCH  11  12
ATOM     12  C   UNL     1     -20.276  -0.235  29.924  1.00  0.00     0.066 C 
BRANCH  12  13
ATOM     13  C   UNL     1     -21.794  -0.294  30.061  1.00  0.00     0.140 C 
ATOM     14  O   UNL     1     -22.445  -0.822  29.170  1.00  0.00    -0.299 OA
BRANCH  13  15
ATOM     15  C   UNL     1     -22.551   0.357  31.202  1.00  0.00     0.106 CG0
ATOM     16  G   UNL     1     -22.260   1.836  31.381  1.00  0.00     0.000 G0
ENDBRANCH  13  15
ENDBRANCH  12  13
BRANCH  12  17
ATOM     17  C   UNL     1     -19.850  -0.583  28.460  1.00  0.00    -0.006 C 
ATOM     18  C   UNL     1     -18.896   0.479  27.882  1.00  0.00     0.008 C 
ATOM     19  C   UNL     1     -19.172  -1.962  28.363  1.00  0.00     0.008 C 
ENDBRANCH  12  17
ENDBRANCH  11  12
ENDBRANCH   1  11
TORSDOF 1
ENDMDL
MODEL 9
REMARK VINA RESULT:    -3.135      5.855      8.118
REMARK INTER + INTRA:          -4.676
REMARK INTER:                  -4.674
REMARK INTRA:                  -0.002
REMARK UNBOUND:                 0.108
REMARK SMILES CC1=CCC[C@@H](C)C(=O)C[C@@H](C(C)C)C(=O)C1
REMARK SMILES IDX 8 1 9 2 6 3 7 4 5 5 4 6 3 7 2 8 1 9 10 11 11 12 15 13 16 14
REMARK SMILES IDX 17 15 12 17 13 18 14 19
REMARK H PARENT
REMARK Flexibility Score: 70.00
ROOT
ATOM      1  C   UNL     1     -17.096   2.156  30.944  1.00  0.00     0.136 C 
ATOM      2  O   UNL     1     -16.972   3.339  30.662  1.00  0.00    -0.299 OA
ENDROOT
BRANCH   1   3
ATOM      3  C   UNL     1     -17.556   1.754  32.330  1.00  0.00     0.053 C 
ATOM      4  C   UNL     1     -17.731   3.009  33.191  1.00  0.00     0.016 C 
BRANCH   3   5
ATOM      5  C   UNL     1     -16.576   0.772  33.014  1.00  0.00     0.015 C 
BRANCH   5   6
ATOM      6  C   UNL     1     -17.084  -0.677  33.064  1.00  0.00     0.028 C 
BRANCH   6   7
ATOM      7  C   UNL     1     -18.566  -0.752  32.786  1.00  0.00    -0.028 C 
ATOM      8  C   UNL     1     -19.115  -1.061  31.591  1.00  0.00    -0.070 CG0
ATOM      9  C   UNL     1     -20.619  -1.095  31.488  1.00  0.00     0.039 C 
ATOM     10  G   UNL     1     -18.285  -1.385  30.361  1.00  0.00     0.000 G0
ENDBRANCH   6   7
ENDBRANCH   5   6
ENDBRANCH   3   5
ENDBRANCH   1   3
BRANCH   1  11
ATOM     11  C   UNL     1     -16.846   1.114  29.879  1.00  0.00     0.087 C 
BRANCH  11  12
ATOM     12  C   UNL     1     -18.053   0.880  28.933  1.00  0.00     0.066 C 
BRANCH  12  13
ATOM     13  C   UNL     1     -18.630  -0.517  29.143  1.00  0.00     0.140 C 
ATOM     14  O   UNL     1     -19.459  -0.936  28.349  1.00  0.00    -0.299 OA
BRANCH  13  15
ATOM     15  C   UNL     1     -18.298  -1.380  30.345  1.00  0.00     0.106 CG0
ATOM     16  G   UNL     1     -19.122  -1.071  31.582  1.00  0.00     0.000 G0
ENDBRANCH  13  15
ENDBRANCH  12  13
BRANCH  12  17
ATOM     17  C   UNL     1     -17.651   1.081  27.435  1.00  0.00    -0.006 C 
ATOM     18  C   UNL     1     -17.820   2.547  26.996  1.00  0.00     0.008 C 
ATOM     19  C   UNL     1     -16.200   0.647  27.159  1.00  0.00     0.008 C 
ENDBRANCH  12  17
ENDBRANCH  11  12
ENDBRANCH   1  11
TORSDOF 1
ENDMDL
