MODEL 1
REMARK VINA RESULT:    71.402      0.000      0.000
REMARK INTER + INTRA:          97.254
REMARK INTER:                  96.447
REMARK INTRA:                   0.807
REMARK UNBOUND:                 0.807
REMARK SMILES O=c1c(-c2ccc(O)cc2)coc2c([C@H]3O[C@@H](CO)[C@@H](O)[C@H](O)[C@H]3O)c(O)ccc12
REMARK SMILES IDX 3 1 11 2 12 3 13 4 30 5 2 6 1 7 29 8 28 9 26 10 14 11 4 12
REMARK SMILES IDX 5 13 6 14 7 15 10 16 9 17 8 18 15 20 24 21 16 22 22 23 17 24
REMARK SMILES IDX 20 25 25 26 23 28 18 30 19 31 21 33 27 35
REMARK H PARENT 8 19 25 27 23 29 19 32 21 34 27 36
REMARK Flexibility Score: inf
ROOT
ATOM      1  C   UNL     1      -5.621   3.306   0.768  1.00  0.00     0.065 A 
ATOM      2  C   UNL     1      -4.757   2.872   1.782  1.00  0.00     0.208 A 
ATOM      3  O   UNL     1      -4.305   1.625   1.804  1.00  0.00    -0.463 OA
ATOM      4  C   UNL     1      -4.630   0.714   0.890  1.00  0.00     0.147 A 
ATOM      5  C   UNL     1      -5.509   1.064  -0.162  1.00  0.00     0.066 A 
ATOM      6  C   UNL     1      -6.009   2.377  -0.215  1.00  0.00     0.200 A 
ATOM      7  O   UNL     1      -6.816   2.716  -1.125  1.00  0.00    -0.288 OA
ATOM      8  C   UNL     1      -5.872   0.097  -1.112  1.00  0.00     0.020 A 
ATOM      9  C   UNL     1      -5.380  -1.203  -1.014  1.00  0.00     0.047 A 
ATOM     10  C   UNL     1      -4.512  -1.561   0.023  1.00  0.00     0.125 A 
ATOM     11  C   UNL     1      -4.106  -0.599   0.976  1.00  0.00     0.069 A 
ENDROOT
BRANCH   1  12
ATOM     12  C   UNL     1      -6.106   4.709   0.759  1.00  0.00    -0.011 A 
ATOM     13  C   UNL     1      -7.323   5.043   1.380  1.00  0.00     0.013 A 
ATOM     14  C   UNL     1      -7.778   6.365   1.381  1.00  0.00     0.047 A 
ATOM     15  C   UNL     1      -7.024   7.369   0.767  1.00  0.00     0.115 A 
ATOM     16  C   UNL     1      -5.350   5.726   0.149  1.00  0.00     0.013 A 
ATOM     17  C   UNL     1      -5.807   7.047   0.152  1.00  0.00     0.047 A 
BRANCH  15  18
ATOM     18  O   UNL     1      -7.490   8.682   0.775  1.00  0.00    -0.508 OA
ATOM     19  H   UNL     1      -7.950   9.087  -0.032  1.00  0.00     0.293 HD
ENDBRANCH  15  18
ENDBRANCH   1  12
BRANCH  11  20
ATOM     20  C   UNL     1      -3.178  -1.010   2.113  1.00  0.00     0.188 C 
ATOM     21  C   UNL     1      -3.890  -0.868   3.483  1.00  0.00     0.179 C 
ATOM     22  O   UNL     1      -1.984  -0.243   2.075  1.00  0.00    -0.362 OA
ATOM     23  C   UNL     1      -2.926  -1.247   4.627  1.00  0.00     0.177 C 
ATOM     24  C   UNL     1      -1.036  -0.741   3.003  1.00  0.00     0.176 C 
ATOM     25  C   UNL     1      -1.549  -0.573   4.457  1.00  0.00     0.177 C 
BRANCH  21  26
ATOM     26  O   UNL     1      -4.347   0.448   3.677  1.00  0.00    -0.387 OA
ATOM     27  H   UNL     1      -3.682   1.056   3.260  1.00  0.00     0.211 HD
ENDBRANCH  21  26
BRANCH  23  28
ATOM     28  O   UNL     1      -2.749  -2.642   4.657  1.00  0.00    -0.387 OA
ATOM     29  H   UNL     1      -2.817  -2.962   3.719  1.00  0.00     0.211 HD
ENDBRANCH  23  28
BRANCH  24  30
ATOM     30  C   UNL     1       0.300  -0.014   2.797  1.00  0.00     0.191 C 
BRANCH  30  31
ATOM     31  O   UNL     1       1.303  -0.604   3.579  1.00  0.00    -0.394 OA
ATOM     32  H   UNL     1       1.330  -0.100   4.436  1.00  0.00     0.210 HD
ENDBRANCH  30  31
ENDBRANCH  24  30
BRANCH  25  33
ATOM     33  O   UNL     1      -1.601   0.778   4.854  1.00  0.00    -0.388 OA
ATOM     34  H   UNL     1      -0.753   1.003   5.316  1.00  0.00     0.211 HD
ENDBRANCH  25  33
ENDBRANCH  11  20
BRANCH  10  35
ATOM     35  O   UNL     1      -4.055  -2.876   0.111  1.00  0.00    -0.507 OA
ATOM     36  H   UNL     1      -3.742  -3.274   0.990  1.00  0.00     0.293 HD
ENDBRANCH  10  35
TORSDOF 9
ENDMDL
MODEL 2
REMARK VINA RESULT:    71.476      4.149      8.574
REMARK INTER + INTRA:          97.354
REMARK INTER:                  95.156
REMARK INTRA:                   2.198
REMARK UNBOUND:                 0.807
REMARK SMILES O=c1c(-c2ccc(O)cc2)coc2c([C@H]3O[C@@H](CO)[C@@H](O)[C@H](O)[C@H]3O)c(O)ccc12
REMARK SMILES IDX 3 1 11 2 12 3 13 4 30 5 2 6 1 7 29 8 28 9 26 10 14 11 4 12
REMARK SMILES IDX 5 13 6 14 7 15 10 16 9 17 8 18 15 20 24 21 16 22 22 23 17 24
REMARK SMILES IDX 20 25 25 26 23 28 18 30 19 31 21 33 27 35
REMARK H PARENT 8 19 25 27 23 29 19 32 21 34 27 36
REMARK Flexibility Score: inf
ROOT
ATOM      1  C   UNL     1       1.417  -0.665   4.531  1.00  0.00     0.065 A 
ATOM      2  C   UNL     1       0.034  -0.674   4.762  1.00  0.00     0.208 A 
ATOM      3  O   UNL     1      -0.823  -0.510   3.763  1.00  0.00    -0.463 OA
ATOM      4  C   UNL     1      -0.447  -0.328   2.500  1.00  0.00     0.147 A 
ATOM      5  C   UNL     1       0.931  -0.293   2.179  1.00  0.00     0.066 A 
ATOM      6  C   UNL     1       1.868  -0.461   3.214  1.00  0.00     0.200 A 
ATOM      7  O   UNL     1       3.105  -0.408   2.969  1.00  0.00    -0.288 OA
ATOM      8  C   UNL     1       1.329  -0.076   0.851  1.00  0.00     0.020 A 
ATOM      9  C   UNL     1       0.374   0.114  -0.145  1.00  0.00     0.047 A 
ATOM     10  C   UNL     1      -0.992   0.084   0.160  1.00  0.00     0.125 A 
ATOM     11  C   UNL     1      -1.421  -0.163   1.484  1.00  0.00     0.069 A 
ENDROOT
BRANCH   1  12
ATOM     12  C   UNL     1       2.357  -0.860   5.663  1.00  0.00    -0.011 A 
ATOM     13  C   UNL     1       3.073  -2.064   5.791  1.00  0.00     0.013 A 
ATOM     14  C   UNL     1       3.966  -2.248   6.851  1.00  0.00     0.047 A 
ATOM     15  C   UNL     1       4.158  -1.232   7.793  1.00  0.00     0.115 A 
ATOM     16  C   UNL     1       2.561   0.159   6.611  1.00  0.00     0.013 A 
ATOM     17  C   UNL     1       3.455  -0.027   7.669  1.00  0.00     0.047 A 
BRANCH  15  18
ATOM     18  O   UNL     1       5.052  -1.429   8.844  1.00  0.00    -0.508 OA
ATOM     19  H   UNL     1       5.296  -2.359   9.164  1.00  0.00     0.293 HD
ENDBRANCH  15  18
ENDBRANCH   1  12
BRANCH  11  20
ATOM     20  C   UNL     1      -2.911  -0.171   1.804  1.00  0.00     0.188 C 
ATOM     21  C   UNL     1      -3.145  -0.368   3.323  1.00  0.00     0.179 C 
ATOM     22  O   UNL     1      -3.570  -1.178   1.050  1.00  0.00    -0.362 OA
ATOM     23  C   UNL     1      -4.658  -0.416   3.628  1.00  0.00     0.177 C 
ATOM     24  C   UNL     1      -4.976  -1.072   1.192  1.00  0.00     0.176 C 
ATOM     25  C   UNL     1      -5.403  -1.354   2.656  1.00  0.00     0.177 C 
BRANCH  21  26
ATOM     26  O   UNL     1      -2.542  -1.556   3.776  1.00  0.00    -0.387 OA
ATOM     27  H   UNL     1      -3.007  -2.310   3.328  1.00  0.00     0.211 HD
ENDBRANCH  21  26
BRANCH  23  28
ATOM     28  O   UNL     1      -5.205   0.875   3.524  1.00  0.00    -0.387 OA
ATOM     29  H   UNL     1      -6.074   0.784   3.050  1.00  0.00     0.211 HD
ENDBRANCH  23  28
BRANCH  24  30
ATOM     30  C   UNL     1      -5.654  -2.046   0.217  1.00  0.00     0.191 C 
BRANCH  30  31
ATOM     31  O   UNL     1      -4.805  -3.125  -0.065  1.00  0.00    -0.394 OA
ATOM     32  H   UNL     1      -4.001  -2.746  -0.510  1.00  0.00     0.210 HD
ENDBRANCH  30  31
ENDBRANCH  24  30
BRANCH  25  33
ATOM     33  O   UNL     1      -5.216  -2.702   3.019  1.00  0.00    -0.388 OA
ATOM     34  H   UNL     1      -4.759  -3.168   2.272  1.00  0.00     0.211 HD
ENDBRANCH  25  33
ENDBRANCH  11  20
BRANCH  10  35
ATOM     35  O   UNL     1      -1.925   0.303  -0.854  1.00  0.00    -0.507 OA
ATOM     36  H   UNL     1      -2.910   0.436  -0.652  1.00  0.00     0.293 HD
ENDBRANCH  10  35
TORSDOF 9
ENDMDL
MODEL 3
REMARK VINA RESULT:    73.733      2.832      7.385
REMARK INTER + INTRA:         100.402
REMARK INTER:                  97.302
REMARK INTRA:                   3.100
REMARK UNBOUND:                 0.807
REMARK SMILES O=c1c(-c2ccc(O)cc2)coc2c([C@H]3O[C@@H](CO)[C@@H](O)[C@H](O)[C@H]3O)c(O)ccc12
REMARK SMILES IDX 3 1 11 2 12 3 13 4 30 5 2 6 1 7 29 8 28 9 26 10 14 11 4 12
REMARK SMILES IDX 5 13 6 14 7 15 10 16 9 17 8 18 15 20 24 21 16 22 22 23 17 24
REMARK SMILES IDX 20 25 25 26 23 28 18 30 19 31 21 33 27 35
REMARK H PARENT 8 19 25 27 23 29 19 32 21 34 27 36
REMARK Flexibility Score: inf
ROOT
ATOM      1  C   UNL     1      -1.913  -0.387   2.873  1.00  0.00     0.065 A 
ATOM      2  C   UNL     1      -2.658   0.578   3.565  1.00  0.00     0.208 A 
ATOM      3  O   UNL     1      -3.981   0.608   3.478  1.00  0.00    -0.463 OA
ATOM      4  C   UNL     1      -4.685  -0.253   2.747  1.00  0.00     0.147 A 
ATOM      5  C   UNL     1      -4.013  -1.252   2.005  1.00  0.00     0.066 A 
ATOM      6  C   UNL     1      -2.609  -1.312   2.072  1.00  0.00     0.200 A 
ATOM      7  O   UNL     1      -1.974  -2.174   1.402  1.00  0.00    -0.288 OA
ATOM      8  C   UNL     1      -4.752  -2.144   1.214  1.00  0.00     0.020 A 
ATOM      9  C   UNL     1      -6.140  -2.040   1.149  1.00  0.00     0.047 A 
ATOM     10  C   UNL     1      -6.816  -1.054   1.876  1.00  0.00     0.125 A 
ATOM     11  C   UNL     1      -6.098  -0.162   2.705  1.00  0.00     0.069 A 
ENDROOT
BRANCH   1  12
ATOM     12  C   UNL     1      -0.434  -0.407   2.993  1.00  0.00    -0.011 A 
ATOM     13  C   UNL     1       0.175  -0.800   4.198  1.00  0.00     0.013 A 
ATOM     14  C   UNL     1       1.568  -0.829   4.311  1.00  0.00     0.047 A 
ATOM     15  C   UNL     1       2.370  -0.470   3.224  1.00  0.00     0.115 A 
ATOM     16  C   UNL     1       0.379  -0.054   1.901  1.00  0.00     0.013 A 
ATOM     17  C   UNL     1       1.772  -0.084   2.017  1.00  0.00     0.047 A 
BRANCH  15  18
ATOM     18  O   UNL     1       3.757  -0.503   3.351  1.00  0.00    -0.508 OA
ATOM     19  H   UNL     1       4.206  -0.958   4.137  1.00  0.00     0.293 HD
ENDBRANCH  15  18
ENDBRANCH   1  12
BRANCH  11  20
ATOM     20  C   UNL     1      -6.847   0.921   3.473  1.00  0.00     0.188 C 
ATOM     21  C   UNL     1      -8.377   0.676   3.417  1.00  0.00     0.179 C 
ATOM     22  O   UNL     1      -6.515   2.203   2.964  1.00  0.00    -0.362 OA
ATOM     23  C   UNL     1      -9.124   1.801   4.164  1.00  0.00     0.177 C 
ATOM     24  C   UNL     1      -7.051   3.225   3.787  1.00  0.00     0.176 C 
ATOM     25  C   UNL     1      -8.602   3.196   3.759  1.00  0.00     0.177 C 
BRANCH  21  26
ATOM     26  O   UNL     1      -8.829   0.621   2.086  1.00  0.00    -0.387 OA
ATOM     27  H   UNL     1      -8.294  -0.075   1.623  1.00  0.00     0.211 HD
ENDBRANCH  21  26
BRANCH  23  28
ATOM     28  O   UNL     1      -8.964   1.640   5.551  1.00  0.00    -0.387 OA
ATOM     29  H   UNL     1      -7.993   1.508   5.717  1.00  0.00     0.211 HD
ENDBRANCH  23  28
BRANCH  24  30
ATOM     30  C   UNL     1      -6.513   4.584   3.317  1.00  0.00     0.191 C 
BRANCH  30  31
ATOM     31  O   UNL     1      -7.371   5.616   3.722  1.00  0.00    -0.394 OA
ATOM     32  H   UNL     1      -6.936   6.469   3.458  1.00  0.00     0.210 HD
ENDBRANCH  30  31
ENDBRANCH  24  30
BRANCH  25  33
ATOM     33  O   UNL     1      -9.123   3.582   2.509  1.00  0.00    -0.388 OA
ATOM     34  H   UNL     1     -10.086   3.342   2.482  1.00  0.00     0.211 HD
ENDBRANCH  25  33
ENDBRANCH  11  20
BRANCH  10  35
ATOM     35  O   UNL     1      -8.204  -0.957   1.772  1.00  0.00    -0.507 OA
ATOM     36  H   UNL     1      -8.679  -1.041   0.880  1.00  0.00     0.293 HD
ENDBRANCH  10  35
TORSDOF 9
ENDMDL
MODEL 4
REMARK VINA RESULT:    74.311      1.973      3.776
REMARK INTER + INTRA:         101.184
REMARK INTER:                 101.169
REMARK INTRA:                   0.015
REMARK UNBOUND:                 0.807
REMARK SMILES O=c1c(-c2ccc(O)cc2)coc2c([C@H]3O[C@@H](CO)[C@@H](O)[C@H](O)[C@H]3O)c(O)ccc12
REMARK SMILES IDX 3 1 11 2 12 3 13 4 30 5 2 6 1 7 29 8 28 9 26 10 14 11 4 12
REMARK SMILES IDX 5 13 6 14 7 15 10 16 9 17 8 18 15 20 24 21 16 22 22 23 17 24
REMARK SMILES IDX 20 25 25 26 23 28 18 30 19 31 21 33 27 35
REMARK H PARENT 8 19 25 27 23 29 19 32 21 34 27 36
REMARK Flexibility Score: inf
ROOT
ATOM      1  C   UNL     1      -6.803   5.203   1.707  1.00  0.00     0.065 A 
ATOM      2  C   UNL     1      -6.248   4.351   0.742  1.00  0.00     0.208 A 
ATOM      3  O   UNL     1      -5.803   3.146   1.072  1.00  0.00    -0.463 OA
ATOM      4  C   UNL     1      -5.848   2.666   2.313  1.00  0.00     0.147 A 
ATOM      5  C   UNL     1      -6.381   3.464   3.352  1.00  0.00     0.066 A 
ATOM      6  C   UNL     1      -6.860   4.749   3.038  1.00  0.00     0.200 A 
ATOM      7  O   UNL     1      -7.317   5.498   3.945  1.00  0.00    -0.288 OA
ATOM      8  C   UNL     1      -6.405   2.968   4.664  1.00  0.00     0.020 A 
ATOM      9  C   UNL     1      -5.897   1.702   4.945  1.00  0.00     0.047 A 
ATOM     10  C   UNL     1      -5.365   0.904   3.926  1.00  0.00     0.125 A 
ATOM     11  C   UNL     1      -5.356   1.366   2.591  1.00  0.00     0.069 A 
ENDROOT
BRANCH   1  12
ATOM     12  C   UNL     1      -7.303   6.544   1.312  1.00  0.00    -0.011 A 
ATOM     13  C   UNL     1      -8.652   6.884   1.512  1.00  0.00     0.013 A 
ATOM     14  C   UNL     1      -9.125   8.150   1.149  1.00  0.00     0.047 A 
ATOM     15  C   UNL     1      -8.256   9.090   0.587  1.00  0.00     0.115 A 
ATOM     16  C   UNL     1      -6.434   7.497   0.751  1.00  0.00     0.013 A 
ATOM     17  C   UNL     1      -6.909   8.761   0.390  1.00  0.00     0.047 A 
BRANCH  15  18
ATOM     18  O   UNL     1      -8.741  10.347   0.230  1.00  0.00    -0.508 OA
ATOM     19  H   UNL     1      -9.661  10.660   0.516  1.00  0.00     0.293 HD
ENDBRANCH  15  18
ENDBRANCH   1  12
BRANCH  11  20
ATOM     20  C   UNL     1      -4.753   0.495   1.496  1.00  0.00     0.188 C 
ATOM     21  C   UNL     1      -5.651  -0.738   1.217  1.00  0.00     0.179 C 
ATOM     22  O   UNL     1      -3.437   0.099   1.851  1.00  0.00    -0.362 OA
ATOM     23  C   UNL     1      -5.009  -1.632   0.136  1.00  0.00     0.177 C 
ATOM     24  C   UNL     1      -2.796  -0.548   0.765  1.00  0.00     0.176 C 
ATOM     25  C   UNL     1      -3.512  -1.880   0.419  1.00  0.00     0.177 C 
BRANCH  21  26
ATOM     26  O   UNL     1      -5.847  -1.492   2.388  1.00  0.00    -0.387 OA
ATOM     27  H   UNL     1      -6.796  -1.783   2.395  1.00  0.00     0.211 HD
ENDBRANCH  21  26
BRANCH  23  28
ATOM     28  O   UNL     1      -5.138  -1.023  -1.125  1.00  0.00    -0.387 OA
ATOM     29  H   UNL     1      -4.274  -0.571  -1.318  1.00  0.00     0.211 HD
ENDBRANCH  23  28
BRANCH  24  30
ATOM     30  C   UNL     1      -1.322  -0.786   1.121  1.00  0.00     0.191 C 
BRANCH  30  31
ATOM     31  O   UNL     1      -0.979  -0.076   2.281  1.00  0.00    -0.394 OA
ATOM     32  H   UNL     1       0.006  -0.156   2.383  1.00  0.00     0.210 HD
ENDBRANCH  30  31
ENDBRANCH  24  30
BRANCH  25  33
ATOM     33  O   UNL     1      -3.348  -2.854   1.424  1.00  0.00    -0.388 OA
ATOM     34  H   UNL     1      -2.465  -3.290   1.297  1.00  0.00     0.211 HD
ENDBRANCH  25  33
ENDBRANCH  11  20
BRANCH  10  35
ATOM     35  O   UNL     1      -4.841  -0.350   4.241  1.00  0.00    -0.507 OA
ATOM     36  H   UNL     1      -5.438  -1.131   4.490  1.00  0.00     0.293 HD
ENDBRANCH  10  35
TORSDOF 9
ENDMDL
MODEL 5
REMARK VINA RESULT:    74.377      2.368      7.749
REMARK INTER + INTRA:         101.273
REMARK INTER:                  98.240
REMARK INTRA:                   3.034
REMARK UNBOUND:                 0.807
REMARK SMILES O=c1c(-c2ccc(O)cc2)coc2c([C@H]3O[C@@H](CO)[C@@H](O)[C@H](O)[C@H]3O)c(O)ccc12
REMARK SMILES IDX 3 1 11 2 12 3 13 4 30 5 2 6 1 7 29 8 28 9 26 10 14 11 4 12
REMARK SMILES IDX 5 13 6 14 7 15 10 16 9 17 8 18 15 20 24 21 16 22 22 23 17 24
REMARK SMILES IDX 20 25 25 26 23 28 18 30 19 31 21 33 27 35
REMARK H PARENT 8 19 25 27 23 29 19 32 21 34 27 36
REMARK Flexibility Score: inf
ROOT
ATOM      1  C   UNL     1      -1.909   0.197   2.725  1.00  0.00     0.065 A 
ATOM      2  C   UNL     1      -2.221   1.560   2.629  1.00  0.00     0.208 A 
ATOM      3  O   UNL     1      -3.477   1.979   2.713  1.00  0.00    -0.463 OA
ATOM      4  C   UNL     1      -4.510   1.159   2.889  1.00  0.00     0.147 A 
ATOM      5  C   UNL     1      -4.287  -0.235   2.983  1.00  0.00     0.066 A 
ATOM      6  C   UNL     1      -2.967  -0.714   2.896  1.00  0.00     0.200 A 
ATOM      7  O   UNL     1      -2.734  -1.954   2.949  1.00  0.00    -0.288 OA
ATOM      8  C   UNL     1      -5.378  -1.103   3.143  1.00  0.00     0.020 A 
ATOM      9  C   UNL     1      -6.675  -0.597   3.198  1.00  0.00     0.047 A 
ATOM     10  C   UNL     1      -6.908   0.780   3.104  1.00  0.00     0.125 A 
ATOM     11  C   UNL     1      -5.825   1.679   2.972  1.00  0.00     0.069 A 
ENDROOT
BRANCH   1  12
ATOM     12  C   UNL     1      -0.495  -0.247   2.637  1.00  0.00    -0.011 A 
ATOM     13  C   UNL     1       0.187  -0.205   1.409  1.00  0.00     0.013 A 
ATOM     14  C   UNL     1       1.521  -0.614   1.324  1.00  0.00     0.047 A 
ATOM     15  C   UNL     1       2.191  -1.065   2.465  1.00  0.00     0.115 A 
ATOM     16  C   UNL     1       0.188  -0.696   3.782  1.00  0.00     0.013 A 
ATOM     17  C   UNL     1       1.522  -1.103   3.695  1.00  0.00     0.047 A 
BRANCH  15  18
ATOM     18  O   UNL     1       3.521  -1.469   2.367  1.00  0.00    -0.508 OA
ATOM     19  H   UNL     1       3.772  -2.386   2.016  1.00  0.00     0.293 HD
ENDBRANCH  15  18
ENDBRANCH   1  12
BRANCH  11  20
ATOM     20  C   UNL     1      -6.097   3.173   2.849  1.00  0.00     0.188 C 
ATOM     21  C   UNL     1      -7.330   3.579   3.696  1.00  0.00     0.179 C 
ATOM     22  O   UNL     1      -6.273   3.529   1.486  1.00  0.00    -0.362 OA
ATOM     23  C   UNL     1      -7.619   5.086   3.529  1.00  0.00     0.177 C 
ATOM     24  C   UNL     1      -6.335   4.938   1.339  1.00  0.00     0.176 C 
ATOM     25  C   UNL     1      -7.593   5.509   2.045  1.00  0.00     0.177 C 
BRANCH  21  26
ATOM     26  O   UNL     1      -8.467   2.843   3.314  1.00  0.00    -0.387 OA
ATOM     27  H   UNL     1      -9.029   2.729   4.125  1.00  0.00     0.211 HD
ENDBRANCH  21  26
BRANCH  23  28
ATOM     28  O   UNL     1      -6.659   5.835   4.232  1.00  0.00    -0.387 OA
ATOM     29  H   UNL     1      -6.016   6.185   3.560  1.00  0.00     0.211 HD
ENDBRANCH  23  28
BRANCH  24  30
ATOM     30  C   UNL     1      -6.330   5.288  -0.156  1.00  0.00     0.191 C 
BRANCH  30  31
ATOM     31  O   UNL     1      -5.819   4.219  -0.906  1.00  0.00    -0.394 OA
ATOM     32  H   UNL     1      -6.051   3.388  -0.414  1.00  0.00     0.210 HD
ENDBRANCH  30  31
ENDBRANCH  24  30
BRANCH  25  33
ATOM     33  O   UNL     1      -8.787   5.136   1.397  1.00  0.00    -0.388 OA
ATOM     34  H   UNL     1      -8.834   4.145   1.370  1.00  0.00     0.211 HD
ENDBRANCH  25  33
ENDBRANCH  11  20
BRANCH  10  35
ATOM     35  O   UNL     1      -8.219   1.256   3.136  1.00  0.00    -0.507 OA
ATOM     36  H   UNL     1      -8.762   1.267   3.993  1.00  0.00     0.293 HD
ENDBRANCH  10  35
TORSDOF 9
ENDMDL
