MODEL 1
REMARK VINA RESULT:    -4.165      0.000      0.000
REMARK INTER + INTRA:          -4.825
REMARK INTER:                  -4.773
REMARK INTRA:                  -0.052
REMARK UNBOUND:                -0.052
REMARK SMILES O=C([O-])c1cc(O)c(O)c(O)c1
REMARK SMILES IDX 4 1 5 2 12 3 6 4 10 5 8 6 2 7 1 8 3 9 7 10 11 12 9 14
REMARK H PARENT 7 11 11 13 9 15
REMARK Flexibility Score: inf
ROOT
ATOM      1  C   UNL     1      16.295 -14.503  13.846  1.00  0.00     0.005 A 
ATOM      2  C   UNL     1      15.376 -13.467  14.067  1.00  0.00     0.060 A 
ATOM      3  C   UNL     1      17.200 -14.395  12.778  1.00  0.00     0.060 A 
ATOM      4  C   UNL     1      15.357 -12.342  13.237  1.00  0.00     0.162 A 
ATOM      5  C   UNL     1      17.195 -13.275  11.938  1.00  0.00     0.162 A 
ATOM      6  C   UNL     1      16.264 -12.234  12.167  1.00  0.00     0.200 A 
ENDROOT
BRANCH   1   7
ATOM      7  C   UNL     1      16.307 -15.690  14.730  1.00  0.00     0.072 C 
ATOM      8  O   UNL     1      17.316 -16.445  14.776  1.00  0.00    -0.545 OA
ATOM      9  O   UNL     1      15.206 -15.991  15.521  1.00  0.00    -0.545 OA
ENDBRANCH   1   7
BRANCH   4  10
ATOM     10  O   UNL     1      14.425 -11.336  13.495  1.00  0.00    -0.504 OA
ATOM     11  H   UNL     1      14.139 -11.091  14.436  1.00  0.00     0.293 HD
ENDBRANCH   4  10
BRANCH   5  12
ATOM     12  O   UNL     1      18.125 -13.242  10.897  1.00  0.00    -0.504 OA
ATOM     13  H   UNL     1      18.894 -13.888  10.802  1.00  0.00     0.293 HD
ENDBRANCH   5  12
BRANCH   6  14
ATOM     14  O   UNL     1      16.210 -11.092  11.363  1.00  0.00    -0.502 OA
ATOM     15  H   UNL     1      15.877 -11.084  10.410  1.00  0.00     0.293 HD
ENDBRANCH   6  14
TORSDOF 4
ENDMDL
MODEL 2
REMARK VINA RESULT:    -4.141      0.092      2.446
REMARK INTER + INTRA:          -4.798
REMARK INTER:                  -4.746
REMARK INTRA:                  -0.052
REMARK UNBOUND:                -0.052
REMARK SMILES O=C([O-])c1cc(O)c(O)c(O)c1
REMARK SMILES IDX 4 1 5 2 12 3 6 4 10 5 8 6 2 7 1 8 3 9 7 10 11 12 9 14
REMARK H PARENT 7 11 11 13 9 15
REMARK Flexibility Score: inf
ROOT
ATOM      1  C   UNL     1      16.235 -14.537  13.839  1.00  0.00     0.005 A 
ATOM      2  C   UNL     1      17.113 -14.461  12.749  1.00  0.00     0.060 A 
ATOM      3  C   UNL     1      15.346 -13.475  14.073  1.00  0.00     0.060 A 
ATOM      4  C   UNL     1      17.110 -13.347  11.905  1.00  0.00     0.162 A 
ATOM      5  C   UNL     1      15.330 -12.352  13.238  1.00  0.00     0.162 A 
ATOM      6  C   UNL     1      16.220 -12.282  12.140  1.00  0.00     0.200 A 
ENDROOT
BRANCH   1   7
ATOM      7  C   UNL     1      16.247 -15.721  14.726  1.00  0.00     0.072 C 
ATOM      8  O   UNL     1      17.237 -16.500  14.744  1.00  0.00    -0.545 OA
ATOM      9  O   UNL     1      15.164 -15.993  15.553  1.00  0.00    -0.545 OA
ENDBRANCH   1   7
BRANCH   4  10
ATOM     10  O   UNL     1      18.003 -13.316  10.833  1.00  0.00    -0.504 OA
ATOM     11  H   UNL     1      18.618 -14.091  10.619  1.00  0.00     0.293 HD
ENDBRANCH   4  10
BRANCH   5  12
ATOM     12  O   UNL     1      14.418 -11.336  13.537  1.00  0.00    -0.504 OA
ATOM     13  H   UNL     1      14.680 -10.387  13.760  1.00  0.00     0.293 HD
ENDBRANCH   5  12
BRANCH   6  14
ATOM     14  O   UNL     1      16.250 -11.187  11.272  1.00  0.00    -0.502 OA
ATOM     15  H   UNL     1      16.487 -11.246  10.293  1.00  0.00     0.293 HD
ENDBRANCH   6  14
TORSDOF 4
ENDMDL
MODEL 3
REMARK VINA RESULT:    -4.140      7.189     10.004
REMARK INTER + INTRA:          -4.797
REMARK INTER:                  -4.746
REMARK INTRA:                  -0.052
REMARK UNBOUND:                -0.052
REMARK SMILES O=C([O-])c1cc(O)c(O)c(O)c1
REMARK SMILES IDX 4 1 5 2 12 3 6 4 10 5 8 6 2 7 1 8 3 9 7 10 11 12 9 14
REMARK H PARENT 7 11 11 13 9 15
REMARK Flexibility Score: inf
ROOT
ATOM      1  C   UNL     1      12.041 -18.844  18.330  1.00  0.00     0.005 A 
ATOM      2  C   UNL     1      10.955 -18.936  19.212  1.00  0.00     0.060 A 
ATOM      3  C   UNL     1      12.302 -19.912  17.457  1.00  0.00     0.060 A 
ATOM      4  C   UNL     1      10.143 -20.073  19.228  1.00  0.00     0.162 A 
ATOM      5  C   UNL     1      11.498 -21.058  17.459  1.00  0.00     0.162 A 
ATOM      6  C   UNL     1      10.405 -21.144  18.354  1.00  0.00     0.200 A 
ENDROOT
BRANCH   1   7
ATOM      7  C   UNL     1      12.895 -17.634  18.321  1.00  0.00     0.072 C 
ATOM      8  O   UNL     1      12.955 -16.884  19.331  1.00  0.00    -0.545 OA
ATOM      9  O   UNL     1      13.643 -17.309  17.196  1.00  0.00    -0.545 OA
ENDBRANCH   1   7
BRANCH   4  10
ATOM     10  O   UNL     1       9.074 -20.120  20.125  1.00  0.00    -0.504 OA
ATOM     11  H   UNL     1       8.171 -20.503  19.871  1.00  0.00     0.293 HD
ENDBRANCH   4  10
BRANCH   5  12
ATOM     12  O   UNL     1      11.822 -22.079  16.563  1.00  0.00    -0.504 OA
ATOM     13  H   UNL     1      11.170 -22.489  15.911  1.00  0.00     0.293 HD
ENDBRANCH   5  12
BRANCH   6  14
ATOM     14  O   UNL     1       9.568 -22.262  18.403  1.00  0.00    -0.502 OA
ATOM     15  H   UNL     1       9.741 -23.075  18.975  1.00  0.00     0.293 HD
ENDBRANCH   6  14
TORSDOF 4
ENDMDL
MODEL 4
REMARK VINA RESULT:    -4.093     12.399     12.951
REMARK INTER + INTRA:          -4.743
REMARK INTER:                  -4.692
REMARK INTRA:                  -0.052
REMARK UNBOUND:                -0.052
REMARK SMILES O=C([O-])c1cc(O)c(O)c(O)c1
REMARK SMILES IDX 4 1 5 2 12 3 6 4 10 5 8 6 2 7 1 8 3 9 7 10 11 12 9 14
REMARK H PARENT 7 11 11 13 9 15
REMARK Flexibility Score: inf
ROOT
ATOM      1  C   UNL     1       5.065 -13.842   7.782  1.00  0.00     0.005 A 
ATOM      2  C   UNL     1       5.610 -13.113   6.715  1.00  0.00     0.060 A 
ATOM      3  C   UNL     1       4.286 -13.171   8.739  1.00  0.00     0.060 A 
ATOM      4  C   UNL     1       5.385 -11.738   6.603  1.00  0.00     0.162 A 
ATOM      5  C   UNL     1       4.052 -11.795   8.641  1.00  0.00     0.162 A 
ATOM      6  C   UNL     1       4.606 -11.065   7.562  1.00  0.00     0.200 A 
ENDROOT
BRANCH   1   7
ATOM      7  C   UNL     1       5.308 -15.298   7.892  1.00  0.00     0.072 C 
ATOM      8  O   UNL     1       5.664 -15.967   6.885  1.00  0.00    -0.545 OA
ATOM      9  O   UNL     1       5.146 -15.949   9.109  1.00  0.00    -0.545 OA
ENDBRANCH   1   7
BRANCH   4  10
ATOM     10  O   UNL     1       5.949 -11.054   5.524  1.00  0.00    -0.504 OA
ATOM     11  H   UNL     1       5.948 -10.043   5.464  1.00  0.00     0.293 HD
ENDBRANCH   4  10
BRANCH   5  12
ATOM     12  O   UNL     1       3.269 -11.198   9.632  1.00  0.00    -0.504 OA
ATOM     13  H   UNL     1       3.273 -10.211   9.841  1.00  0.00     0.293 HD
ENDBRANCH   5  12
BRANCH   6  14
ATOM     14  O   UNL     1       4.408  -9.690   7.411  1.00  0.00    -0.502 OA
ATOM     15  H   UNL     1       4.135  -9.071   8.160  1.00  0.00     0.293 HD
ENDBRANCH   6  14
TORSDOF 4
ENDMDL
MODEL 5
REMARK VINA RESULT:    -4.042     12.396     12.797
REMARK INTER + INTRA:          -4.685
REMARK INTER:                  -4.633
REMARK INTRA:                  -0.052
REMARK UNBOUND:                -0.052
REMARK SMILES O=C([O-])c1cc(O)c(O)c(O)c1
REMARK SMILES IDX 4 1 5 2 12 3 6 4 10 5 8 6 2 7 1 8 3 9 7 10 11 12 9 14
REMARK H PARENT 7 11 11 13 9 15
REMARK Flexibility Score: inf
ROOT
ATOM      1  C   UNL     1       5.015 -13.843   7.842  1.00  0.00     0.005 A 
ATOM      2  C   UNL     1       4.196 -13.173   8.762  1.00  0.00     0.060 A 
ATOM      3  C   UNL     1       5.577 -13.120   6.777  1.00  0.00     0.060 A 
ATOM      4  C   UNL     1       3.939 -11.806   8.625  1.00  0.00     0.162 A 
ATOM      5  C   UNL     1       5.330 -11.751   6.626  1.00  0.00     0.162 A 
ATOM      6  C   UNL     1       4.502 -11.081   7.558  1.00  0.00     0.200 A 
ENDROOT
BRANCH   1   7
ATOM      7  C   UNL     1       5.281 -15.291   7.995  1.00  0.00     0.072 C 
ATOM      8  O   UNL     1       5.745 -15.963   7.035  1.00  0.00    -0.545 OA
ATOM      9  O   UNL     1       5.022 -15.931   9.201  1.00  0.00    -0.545 OA
ENDBRANCH   1   7
BRANCH   4  10
ATOM     10  O   UNL     1       3.118 -11.182   9.565  1.00  0.00    -0.504 OA
ATOM     11  H   UNL     1       2.484 -11.701  10.160  1.00  0.00     0.293 HD
ENDBRANCH   4  10
BRANCH   5  12
ATOM     12  O   UNL     1       5.924 -11.102   5.540  1.00  0.00    -0.504 OA
ATOM     13  H   UNL     1       6.012 -10.100   5.458  1.00  0.00     0.293 HD
ENDBRANCH   5  12
BRANCH   6  14
ATOM     14  O   UNL     1       4.219  -9.716   7.459  1.00  0.00    -0.502 OA
ATOM     15  H   UNL     1       4.820  -8.986   7.810  1.00  0.00     0.293 HD
ENDBRANCH   6  14
TORSDOF 4
ENDMDL
MODEL 6
REMARK VINA RESULT:    -4.023     13.470     14.272
REMARK INTER + INTRA:          -4.663
REMARK INTER:                  -4.611
REMARK INTRA:                  -0.053
REMARK UNBOUND:                -0.052
REMARK SMILES O=C([O-])c1cc(O)c(O)c(O)c1
REMARK SMILES IDX 4 1 5 2 12 3 6 4 10 5 8 6 2 7 1 8 3 9 7 10 11 12 9 14
REMARK H PARENT 7 11 11 13 9 15
REMARK Flexibility Score: inf
ROOT
ATOM      1  C   UNL     1       5.228 -17.652   8.082  1.00  0.00     0.005 A 
ATOM      2  C   UNL     1       5.922 -18.847   7.847  1.00  0.00     0.060 A 
ATOM      3  C   UNL     1       3.890 -17.547   7.668  1.00  0.00     0.060 A 
ATOM      4  C   UNL     1       5.296 -19.922   7.209  1.00  0.00     0.162 A 
ATOM      5  C   UNL     1       3.249 -18.614   7.029  1.00  0.00     0.162 A 
ATOM      6  C   UNL     1       3.956 -19.818   6.794  1.00  0.00     0.200 A 
ENDROOT
BRANCH   1   7
ATOM      7  C   UNL     1       5.900 -16.519   8.758  1.00  0.00     0.072 C 
ATOM      8  O   UNL     1       7.038 -16.667   9.279  1.00  0.00    -0.545 OA
ATOM      9  O   UNL     1       5.284 -15.276   8.830  1.00  0.00    -0.545 OA
ENDBRANCH   1   7
BRANCH   4  10
ATOM     10  O   UNL     1       6.027 -21.092   6.996  1.00  0.00    -0.504 OA
ATOM     11  H   UNL     1       5.729 -21.990   7.357  1.00  0.00     0.293 HD
ENDBRANCH   4  10
BRANCH   5  12
ATOM     12  O   UNL     1       1.917 -18.434   6.646  1.00  0.00    -0.504 OA
ATOM     13  H   UNL     1       1.293 -17.762   7.066  1.00  0.00     0.293 HD
ENDBRANCH   5  12
BRANCH   6  14
ATOM     14  O   UNL     1       3.369 -20.916   6.160  1.00  0.00    -0.502 OA
ATOM     15  H   UNL     1       2.427 -20.926   5.799  1.00  0.00     0.293 HD
ENDBRANCH   6  14
TORSDOF 4
ENDMDL
MODEL 7
REMARK VINA RESULT:    -4.020     13.567     14.182
REMARK INTER + INTRA:          -4.659
REMARK INTER:                  -4.606
REMARK INTRA:                  -0.053
REMARK UNBOUND:                -0.052
REMARK SMILES O=C([O-])c1cc(O)c(O)c(O)c1
REMARK SMILES IDX 4 1 5 2 12 3 6 4 10 5 8 6 2 7 1 8 3 9 7 10 11 12 9 14
REMARK H PARENT 7 11 11 13 9 15
REMARK Flexibility Score: inf
ROOT
ATOM      1  C   UNL     1       5.125 -17.632   8.027  1.00  0.00     0.005 A 
ATOM      2  C   UNL     1       3.774 -17.586   7.654  1.00  0.00     0.060 A 
ATOM      3  C   UNL     1       5.882 -18.771   7.710  1.00  0.00     0.060 A 
ATOM      4  C   UNL     1       3.184 -18.658   6.977  1.00  0.00     0.162 A 
ATOM      5  C   UNL     1       5.306 -19.853   7.032  1.00  0.00     0.162 A 
ATOM      6  C   UNL     1       3.942 -19.800   6.660  1.00  0.00     0.200 A 
ENDROOT
BRANCH   1   7
ATOM      7  C   UNL     1       5.740 -16.492   8.744  1.00  0.00     0.072 C 
ATOM      8  O   UNL     1       6.890 -16.597   9.248  1.00  0.00    -0.545 OA
ATOM      9  O   UNL     1       5.058 -15.288   8.870  1.00  0.00    -0.545 OA
ENDBRANCH   1   7
BRANCH   4  10
ATOM     10  O   UNL     1       1.836 -18.568   6.627  1.00  0.00    -0.504 OA
ATOM     11  H   UNL     1       1.260 -17.777   6.891  1.00  0.00     0.293 HD
ENDBRANCH   4  10
BRANCH   5  12
ATOM     12  O   UNL     1       6.123 -20.951   6.754  1.00  0.00    -0.504 OA
ATOM     13  H   UNL     1       7.008 -21.128   7.205  1.00  0.00     0.293 HD
ENDBRANCH   5  12
BRANCH   6  14
ATOM     14  O   UNL     1       3.312 -20.848   5.983  1.00  0.00    -0.502 OA
ATOM     15  H   UNL     1       3.030 -21.715   6.416  1.00  0.00     0.293 HD
ENDBRANCH   6  14
TORSDOF 4
ENDMDL
MODEL 8
REMARK VINA RESULT:    -3.897      9.437     11.104
REMARK INTER + INTRA:          -4.518
REMARK INTER:                  -4.470
REMARK INTRA:                  -0.049
REMARK UNBOUND:                -0.052
REMARK SMILES O=C([O-])c1cc(O)c(O)c(O)c1
REMARK SMILES IDX 4 1 5 2 12 3 6 4 10 5 8 6 2 7 1 8 3 9 7 10 11 12 9 14
REMARK H PARENT 7 11 11 13 9 15
REMARK Flexibility Score: inf
ROOT
ATOM      1  C   UNL     1      16.471 -22.689  17.855  1.00  0.00     0.005 A 
ATOM      2  C   UNL     1      15.232 -22.403  17.263  1.00  0.00     0.060 A 
ATOM      3  C   UNL     1      17.013 -23.977  17.712  1.00  0.00     0.060 A 
ATOM      4  C   UNL     1      14.543 -23.383  16.541  1.00  0.00     0.162 A 
ATOM      5  C   UNL     1      16.336 -24.968  16.993  1.00  0.00     0.162 A 
ATOM      6  C   UNL     1      15.086 -24.672  16.399  1.00  0.00     0.200 A 
ENDROOT
BRANCH   1   7
ATOM      7  C   UNL     1      17.193 -21.645  18.617  1.00  0.00     0.072 C 
ATOM      8  O   UNL     1      17.733 -21.917  19.723  1.00  0.00    -0.545 OA
ATOM      9  O   UNL     1      17.285 -20.350  18.123  1.00  0.00    -0.545 OA
ENDBRANCH   1   7
BRANCH   4  10
ATOM     10  O   UNL     1      13.313 -23.052  15.970  1.00  0.00    -0.504 OA
ATOM     11  H   UNL     1      12.482 -22.898  16.527  1.00  0.00     0.293 HD
ENDBRANCH   4  10
BRANCH   5  12
ATOM     12  O   UNL     1      16.940 -26.225  16.896  1.00  0.00    -0.504 OA
ATOM     13  H   UNL     1      16.440 -27.081  16.707  1.00  0.00     0.293 HD
ENDBRANCH   5  12
BRANCH   6  14
ATOM     14  O   UNL     1      14.364 -25.621  15.669  1.00  0.00    -0.502 OA
ATOM     15  H   UNL     1      14.055 -26.507  16.041  1.00  0.00     0.293 HD
ENDBRANCH   6  14
TORSDOF 4
ENDMDL
MODEL 9
REMARK VINA RESULT:    -3.895     12.543     13.727
REMARK INTER + INTRA:          -4.517
REMARK INTER:                  -4.464
REMARK INTRA:                  -0.053
REMARK UNBOUND:                -0.052
REMARK SMILES O=C([O-])c1cc(O)c(O)c(O)c1
REMARK SMILES IDX 4 1 5 2 12 3 6 4 10 5 8 6 2 7 1 8 3 9 7 10 11 12 9 14
REMARK H PARENT 7 11 11 13 9 15
REMARK Flexibility Score: inf
ROOT
ATOM      1  C   UNL     1       4.610 -12.528   7.432  1.00  0.00     0.005 A 
ATOM      2  C   UNL     1       5.729 -11.742   7.120  1.00  0.00     0.060 A 
ATOM      3  C   UNL     1       3.342 -12.112   6.995  1.00  0.00     0.060 A 
ATOM      4  C   UNL     1       5.589 -10.560   6.388  1.00  0.00     0.162 A 
ATOM      5  C   UNL     1       3.185 -10.932   6.260  1.00  0.00     0.162 A 
ATOM      6  C   UNL     1       4.319 -10.143   5.950  1.00  0.00     0.200 A 
ENDROOT
BRANCH   1   7
ATOM      7  C   UNL     1       4.769 -13.778   8.208  1.00  0.00     0.072 C 
ATOM      8  O   UNL     1       3.760 -14.435   8.579  1.00  0.00    -0.545 OA
ATOM      9  O   UNL     1       6.035 -14.246   8.540  1.00  0.00    -0.545 OA
ENDBRANCH   1   7
BRANCH   4  10
ATOM     10  O   UNL     1       6.731  -9.810   6.103  1.00  0.00    -0.504 OA
ATOM     11  H   UNL     1       7.076  -9.688   5.158  1.00  0.00     0.293 HD
ENDBRANCH   4  10
BRANCH   5  12
ATOM     12  O   UNL     1       1.891 -10.584   5.862  1.00  0.00    -0.504 OA
ATOM     13  H   UNL     1       1.190 -11.249   5.571  1.00  0.00     0.293 HD
ENDBRANCH   5  12
BRANCH   6  14
ATOM     14  O   UNL     1       4.224  -8.955   5.221  1.00  0.00    -0.502 OA
ATOM     15  H   UNL     1       3.997  -8.058   5.624  1.00  0.00     0.293 HD
ENDBRANCH   6  14
TORSDOF 4
ENDMDL
