MODEL 1
REMARK VINA RESULT:    -3.382      0.000      0.000
REMARK INTER + INTRA:          -8.480
REMARK INTER:                  -6.150
REMARK INTRA:                  -2.330
REMARK UNBOUND:                -2.330
REMARK SMILES CCCCCCCCCCCCCC[C@@H](C)C(=O)[O-]
REMARK SMILES IDX 9 1 10 2 11 3 12 4 13 5 14 6 15 7 16 8 17 9 18 10 19 11 8 12
REMARK SMILES IDX 7 13 6 14 5 15 4 16 3 17 2 18 1 19
REMARK H PARENT
REMARK Flexibility Score: inf
ROOT
ATOM      1  C   UNL     1      61.422  33.778  58.931  1.00  0.00     0.000 C 
ENDROOT
BRANCH   1   2
ATOM      2  C   UNL     1      61.525  35.296  59.192  1.00  0.00     0.000 C 
BRANCH   2   3
ATOM      3  C   UNL     1      61.081  35.712  60.607  1.00  0.00     0.000 C 
BRANCH   3   4
ATOM      4  C   UNL     1      61.882  36.875  61.220  1.00  0.00     0.000 C 
BRANCH   4   5
ATOM      5  C   UNL     1      63.274  37.108  60.599  1.00  0.00     0.001 C 
BRANCH   5   6
ATOM      6  C   UNL     1      64.468  36.675  61.473  1.00  0.00     0.009 C 
BRANCH   6   7
ATOM      7  C   UNL     1      65.207  35.406  60.990  1.00  0.00     0.032 C 
ATOM      8  C   UNL     1      64.412  34.124  61.274  1.00  0.00     0.014 C 
BRANCH   7   9
ATOM      9  C   UNL     1      65.479  35.516  59.515  1.00  0.00     0.044 C 
ATOM     10  O   UNL     1      64.954  34.700  58.712  1.00  0.00    -0.550 OA
ATOM     11  O   UNL     1      66.322  36.508  59.028  1.00  0.00    -0.550 OA
ENDBRANCH   7   9
ENDBRANCH   6   7
ENDBRANCH   5   6
ENDBRANCH   4   5
ENDBRANCH   3   4
ENDBRANCH   2   3
ENDBRANCH   1   2
BRANCH   1  12
ATOM     12  C   UNL     1      61.085  32.984  60.202  1.00  0.00     0.000 C 
BRANCH  12  13
ATOM     13  C   UNL     1      60.477  31.620  59.855  1.00  0.00    -0.000 C 
BRANCH  13  14
ATOM     14  C   UNL     1      60.378  30.729  61.102  1.00  0.00    -0.000 C 
BRANCH  14  15
ATOM     15  C   UNL     1      61.709  30.625  61.862  1.00  0.00    -0.000 C 
BRANCH  15  16
ATOM     16  C   UNL     1      62.405  29.269  61.655  1.00  0.00    -0.000 C 
BRANCH  16  17
ATOM     17  C   UNL     1      63.351  29.263  60.441  1.00  0.00    -0.000 C 
BRANCH  17  18
ATOM     18  C   UNL     1      64.247  30.516  60.351  1.00  0.00    -0.003 C 
ATOM     19  C   UNL     1      64.208  31.166  58.968  1.00  0.00     0.004 C 
ENDBRANCH  17  18
ENDBRANCH  16  17
ENDBRANCH  15  16
ENDBRANCH  14  15
ENDBRANCH  13  14
ENDBRANCH  12  13
ENDBRANCH   1  12
TORSDOF 14
ENDMDL
MODEL 2
REMARK VINA RESULT:    -3.295     10.429     12.499
REMARK INTER + INTRA:          -8.322
REMARK INTER:                  -6.737
REMARK INTRA:                  -1.585
REMARK UNBOUND:                -2.330
REMARK SMILES CCCCCCCCCCCCCC[C@@H](C)C(=O)[O-]
REMARK SMILES IDX 9 1 10 2 11 3 12 4 13 5 14 6 15 7 16 8 17 9 18 10 19 11 8 12
REMARK SMILES IDX 7 13 6 14 5 15 4 16 3 17 2 18 1 19
REMARK H PARENT
REMARK Flexibility Score: inf
ROOT
ATOM      1  C   UNL     1      59.628  27.698  49.353  1.00  0.00     0.000 C 
ENDROOT
BRANCH   1   2
ATOM      2  C   UNL     1      60.322  27.201  50.639  1.00  0.00     0.000 C 
BRANCH   2   3
ATOM      3  C   UNL     1      61.579  26.351  50.374  1.00  0.00     0.000 C 
BRANCH   3   4
ATOM      4  C   UNL     1      62.853  27.158  50.067  1.00  0.00     0.000 C 
BRANCH   4   5
ATOM      5  C   UNL     1      63.003  28.470  50.865  1.00  0.00     0.001 C 
BRANCH   5   6
ATOM      6  C   UNL     1      63.016  29.759  50.018  1.00  0.00     0.009 C 
BRANCH   6   7
ATOM      7  C   UNL     1      61.955  30.812  50.413  1.00  0.00     0.032 C 
ATOM      8  C   UNL     1      61.415  30.593  51.833  1.00  0.00     0.014 C 
BRANCH   7   9
ATOM      9  C   UNL     1      62.552  32.189  50.307  1.00  0.00     0.044 C 
ATOM     10  O   UNL     1      63.152  32.540  49.256  1.00  0.00    -0.550 OA
ATOM     11  O   UNL     1      62.459  33.079  51.370  1.00  0.00    -0.550 OA
ENDBRANCH   7   9
ENDBRANCH   6   7
ENDBRANCH   5   6
ENDBRANCH   4   5
ENDBRANCH   3   4
ENDBRANCH   2   3
ENDBRANCH   1   2
BRANCH   1  12
ATOM     12  C   UNL     1      58.859  29.010  49.569  1.00  0.00     0.000 C 
BRANCH  12  13
ATOM     13  C   UNL     1      58.146  29.015  50.926  1.00  0.00    -0.000 C 
BRANCH  13  14
ATOM     14  C   UNL     1      56.644  29.287  50.757  1.00  0.00    -0.000 C 
BRANCH  14  15
ATOM     15  C   UNL     1      55.831  28.000  50.545  1.00  0.00    -0.000 C 
BRANCH  15  16
ATOM     16  C   UNL     1      54.333  28.276  50.329  1.00  0.00    -0.000 C 
BRANCH  16  17
ATOM     17  C   UNL     1      53.513  26.990  50.124  1.00  0.00    -0.000 C 
BRANCH  17  18
ATOM     18  C   UNL     1      54.358  25.788  49.650  1.00  0.00    -0.003 C 
ATOM     19  C   UNL     1      53.700  24.447  49.974  1.00  0.00     0.004 C 
ENDBRANCH  17  18
ENDBRANCH  16  17
ENDBRANCH  15  16
ENDBRANCH  14  15
ENDBRANCH  13  14
ENDBRANCH  12  13
ENDBRANCH   1  12
TORSDOF 14
ENDMDL
MODEL 3
REMARK VINA RESULT:    -3.272      1.773      3.610
REMARK INTER + INTRA:          -8.281
REMARK INTER:                  -5.687
REMARK INTRA:                  -2.594
REMARK UNBOUND:                -2.330
REMARK SMILES CCCCCCCCCCCCCC[C@@H](C)C(=O)[O-]
REMARK SMILES IDX 9 1 10 2 11 3 12 4 13 5 14 6 15 7 16 8 17 9 18 10 19 11 8 12
REMARK SMILES IDX 7 13 6 14 5 15 4 16 3 17 2 18 1 19
REMARK H PARENT
REMARK Flexibility Score: inf
ROOT
ATOM      1  C   UNL     1      61.070  30.694  61.752  1.00  0.00     0.000 C 
ENDROOT
BRANCH   1   2
ATOM      2  C   UNL     1      60.220  30.613  60.465  1.00  0.00     0.000 C 
BRANCH   2   3
ATOM      3  C   UNL     1      60.341  31.858  59.565  1.00  0.00     0.000 C 
BRANCH   3   4
ATOM      4  C   UNL     1      61.029  33.067  60.223  1.00  0.00     0.000 C 
BRANCH   4   5
ATOM      5  C   UNL     1      62.404  33.439  59.630  1.00  0.00     0.001 C 
BRANCH   5   6
ATOM      6  C   UNL     1      63.417  34.028  60.632  1.00  0.00     0.009 C 
BRANCH   6   7
ATOM      7  C   UNL     1      63.644  35.552  60.514  1.00  0.00     0.032 C 
ATOM      8  C   UNL     1      62.514  36.363  61.164  1.00  0.00     0.014 C 
BRANCH   7   9
ATOM      9  C   UNL     1      64.957  35.915  61.151  1.00  0.00     0.044 C 
ATOM     10  O   UNL     1      66.014  35.923  60.466  1.00  0.00    -0.550 OA
ATOM     11  O   UNL     1      65.018  36.230  62.504  1.00  0.00    -0.550 OA
ENDBRANCH   7   9
ENDBRANCH   6   7
ENDBRANCH   5   6
ENDBRANCH   4   5
ENDBRANCH   3   4
ENDBRANCH   2   3
ENDBRANCH   1   2
BRANCH   1  12
ATOM     12  C   UNL     1      62.250  29.711  61.740  1.00  0.00     0.000 C 
BRANCH  12  13
ATOM     13  C   UNL     1      63.580  30.447  61.543  1.00  0.00    -0.000 C 
BRANCH  13  14
ATOM     14  C   UNL     1      64.171  30.153  60.156  1.00  0.00    -0.000 C 
BRANCH  14  15
ATOM     15  C   UNL     1      63.596  28.874  59.527  1.00  0.00    -0.000 C 
BRANCH  15  16
ATOM     16  C   UNL     1      63.049  29.106  58.109  1.00  0.00    -0.000 C 
BRANCH  16  17
ATOM     17  C   UNL     1      63.372  30.509  57.567  1.00  0.00    -0.000 C 
BRANCH  17  18
ATOM     18  C   UNL     1      62.297  31.062  56.607  1.00  0.00    -0.003 C 
ATOM     19  C   UNL     1      61.130  30.094  56.417  1.00  0.00     0.004 C 
ENDBRANCH  17  18
ENDBRANCH  16  17
ENDBRANCH  15  16
ENDBRANCH  14  15
ENDBRANCH  13  14
ENDBRANCH  12  13
ENDBRANCH   1  12
TORSDOF 14
ENDMDL
MODEL 4
REMARK VINA RESULT:    -3.228      3.003      6.309
REMARK INTER + INTRA:          -8.200
REMARK INTER:                  -5.699
REMARK INTRA:                  -2.501
REMARK UNBOUND:                -2.330
REMARK SMILES CCCCCCCCCCCCCC[C@@H](C)C(=O)[O-]
REMARK SMILES IDX 9 1 10 2 11 3 12 4 13 5 14 6 15 7 16 8 17 9 18 10 19 11 8 12
REMARK SMILES IDX 7 13 6 14 5 15 4 16 3 17 2 18 1 19
REMARK H PARENT
REMARK Flexibility Score: inf
ROOT
ATOM      1  C   UNL     1      63.565  33.075  59.301  1.00  0.00     0.000 C 
ENDROOT
BRANCH   1   2
ATOM      2  C   UNL     1      62.095  32.637  59.125  1.00  0.00     0.000 C 
BRANCH   2   3
ATOM      3  C   UNL     1      61.290  32.626  60.438  1.00  0.00     0.000 C 
BRANCH   3   4
ATOM      4  C   UNL     1      60.776  31.241  60.871  1.00  0.00     0.000 C 
BRANCH   4   5
ATOM      5  C   UNL     1      61.622  30.541  61.954  1.00  0.00     0.001 C 
BRANCH   5   6
ATOM      6  C   UNL     1      62.367  29.272  61.492  1.00  0.00     0.009 C 
BRANCH   6   7
ATOM      7  C   UNL     1      62.869  29.303  60.031  1.00  0.00     0.032 C 
ATOM      8  C   UNL     1      64.398  29.406  59.940  1.00  0.00     0.014 C 
BRANCH   7   9
ATOM      9  C   UNL     1      62.402  28.067  59.313  1.00  0.00     0.044 C 
ATOM     10  O   UNL     1      61.253  27.601  59.535  1.00  0.00    -0.550 OA
ATOM     11  O   UNL     1      63.239  27.420  58.410  1.00  0.00    -0.550 OA
ENDBRANCH   7   9
ENDBRANCH   6   7
ENDBRANCH   5   6
ENDBRANCH   4   5
ENDBRANCH   3   4
ENDBRANCH   2   3
ENDBRANCH   1   2
BRANCH   1  12
ATOM     12  C   UNL     1      63.986  33.141  60.777  1.00  0.00     0.000 C 
BRANCH  12  13
ATOM     13  C   UNL     1      64.496  34.539  61.143  1.00  0.00    -0.000 C 
BRANCH  13  14
ATOM     14  C   UNL     1      63.711  35.625  60.393  1.00  0.00    -0.000 C 
BRANCH  14  15
ATOM     15  C   UNL     1      62.630  36.283  61.265  1.00  0.00    -0.000 C 
BRANCH  15  16
ATOM     16  C   UNL     1      61.254  36.315  60.580  1.00  0.00    -0.000 C 
BRANCH  16  17
ATOM     17  C   UNL     1      61.338  36.696  59.091  1.00  0.00    -0.000 C 
BRANCH  17  18
ATOM     18  C   UNL     1      60.550  35.745  58.166  1.00  0.00    -0.003 C 
ATOM     19  C   UNL     1      59.253  35.251  58.804  1.00  0.00     0.004 C 
ENDBRANCH  17  18
ENDBRANCH  16  17
ENDBRANCH  15  16
ENDBRANCH  14  15
ENDBRANCH  13  14
ENDBRANCH  12  13
ENDBRANCH   1  12
TORSDOF 14
ENDMDL
MODEL 5
REMARK VINA RESULT:    -3.216     11.919     13.640
REMARK INTER + INTRA:          -8.178
REMARK INTER:                  -6.094
REMARK INTRA:                  -2.083
REMARK UNBOUND:                -2.330
REMARK SMILES CCCCCCCCCCCCCC[C@@H](C)C(=O)[O-]
REMARK SMILES IDX 9 1 10 2 11 3 12 4 13 5 14 6 15 7 16 8 17 9 18 10 19 11 8 12
REMARK SMILES IDX 7 13 6 14 5 15 4 16 3 17 2 18 1 19
REMARK H PARENT
REMARK Flexibility Score: inf
ROOT
ATOM      1  C   UNL     1      56.536  29.304  50.446  1.00  0.00     0.000 C 
ENDROOT
BRANCH   1   2
ATOM      2  C   UNL     1      57.889  29.281  51.190  1.00  0.00     0.000 C 
BRANCH   2   3
ATOM      3  C   UNL     1      59.110  29.371  50.256  1.00  0.00     0.000 C 
BRANCH   3   4
ATOM      4  C   UNL     1      59.342  28.132  49.373  1.00  0.00     0.000 C 
BRANCH   4   5
ATOM      5  C   UNL     1      60.521  27.235  49.803  1.00  0.00     0.001 C 
BRANCH   5   6
ATOM      6  C   UNL     1      60.160  25.764  50.093  1.00  0.00     0.009 C 
BRANCH   6   7
ATOM      7  C   UNL     1      61.011  25.085  51.190  1.00  0.00     0.032 C 
ATOM      8  C   UNL     1      60.363  25.186  52.578  1.00  0.00     0.014 C 
BRANCH   7   9
ATOM      9  C   UNL     1      61.225  23.639  50.836  1.00  0.00     0.044 C 
ATOM     10  O   UNL     1      60.324  22.790  51.067  1.00  0.00    -0.550 OA
ATOM     11  O   UNL     1      62.423  23.226  50.263  1.00  0.00    -0.550 OA
ENDBRANCH   7   9
ENDBRANCH   6   7
ENDBRANCH   5   6
ENDBRANCH   4   5
ENDBRANCH   3   4
ENDBRANCH   2   3
ENDBRANCH   1   2
BRANCH   1  12
ATOM     12  C   UNL     1      55.337  29.208  51.402  1.00  0.00     0.000 C 
BRANCH  12  13
ATOM     13  C   UNL     1      54.013  29.332  50.640  1.00  0.00    -0.000 C 
BRANCH  13  14
ATOM     14  C   UNL     1      53.568  27.971  50.085  1.00  0.00    -0.000 C 
BRANCH  14  15
ATOM     15  C   UNL     1      53.357  26.923  51.190  1.00  0.00    -0.000 C 
BRANCH  15  16
ATOM     16  C   UNL     1      54.131  25.621  50.925  1.00  0.00    -0.000 C 
BRANCH  16  17
ATOM     17  C   UNL     1      55.278  25.803  49.916  1.00  0.00    -0.000 C 
BRANCH  17  18
ATOM     18  C   UNL     1      56.676  25.550  50.518  1.00  0.00    -0.003 C 
ATOM     19  C   UNL     1      56.724  25.826  52.021  1.00  0.00     0.004 C 
ENDBRANCH  17  18
ENDBRANCH  16  17
ENDBRANCH  15  16
ENDBRANCH  14  15
ENDBRANCH  13  14
ENDBRANCH  12  13
ENDBRANCH   1  12
TORSDOF 14
ENDMDL
MODEL 6
REMARK VINA RESULT:    -3.203     11.338     13.303
REMARK INTER + INTRA:          -8.154
REMARK INTER:                  -6.055
REMARK INTRA:                  -2.099
REMARK UNBOUND:                -2.330
REMARK SMILES CCCCCCCCCCCCCC[C@@H](C)C(=O)[O-]
REMARK SMILES IDX 9 1 10 2 11 3 12 4 13 5 14 6 15 7 16 8 17 9 18 10 19 11 8 12
REMARK SMILES IDX 7 13 6 14 5 15 4 16 3 17 2 18 1 19
REMARK H PARENT
REMARK Flexibility Score: inf
ROOT
ATOM      1  C   UNL     1      57.375  28.399  52.625  1.00  0.00     0.000 C 
ENDROOT
BRANCH   1   2
ATOM      2  C   UNL     1      57.849  29.559  51.722  1.00  0.00     0.000 C 
BRANCH   2   3
ATOM      3  C   UNL     1      57.791  29.236  50.217  1.00  0.00     0.000 C 
BRANCH   3   4
ATOM      4  C   UNL     1      59.135  29.356  49.477  1.00  0.00     0.000 C 
BRANCH   4   5
ATOM      5  C   UNL     1      60.297  28.557  50.101  1.00  0.00     0.001 C 
BRANCH   5   6
ATOM      6  C   UNL     1      60.378  27.074  49.682  1.00  0.00     0.009 C 
BRANCH   6   7
ATOM      7  C   UNL     1      59.799  26.072  50.707  1.00  0.00     0.032 C 
ATOM      8  C   UNL     1      58.434  25.519  50.276  1.00  0.00     0.014 C 
BRANCH   7   9
ATOM      9  C   UNL     1      60.767  24.937  50.899  1.00  0.00     0.044 C 
ATOM     10  O   UNL     1      60.366  23.832  51.351  1.00  0.00    -0.550 OA
ATOM     11  O   UNL     1      62.113  25.101  50.590  1.00  0.00    -0.550 OA
ENDBRANCH   7   9
ENDBRANCH   6   7
ENDBRANCH   5   6
ENDBRANCH   4   5
ENDBRANCH   3   4
ENDBRANCH   2   3
ENDBRANCH   1   2
BRANCH   1  12
ATOM     12  C   UNL     1      56.060  28.718  53.351  1.00  0.00     0.000 C 
BRANCH  12  13
ATOM     13  C   UNL     1      55.561  30.124  52.995  1.00  0.00    -0.000 C 
BRANCH  13  14
ATOM     14  C   UNL     1      54.180  30.064  52.325  1.00  0.00    -0.000 C 
BRANCH  14  15
ATOM     15  C   UNL     1      54.263  29.728  50.828  1.00  0.00    -0.000 C 
BRANCH  15  16
ATOM     16  C   UNL     1      52.993  29.038  50.305  1.00  0.00    -0.000 C 
BRANCH  16  17
ATOM     17  C   UNL     1      53.229  27.568  49.916  1.00  0.00    -0.000 C 
BRANCH  17  18
ATOM     18  C   UNL     1      54.684  27.100  50.128  1.00  0.00    -0.003 C 
ATOM     19  C   UNL     1      54.840  25.588  49.972  1.00  0.00     0.004 C 
ENDBRANCH  17  18
ENDBRANCH  16  17
ENDBRANCH  15  16
ENDBRANCH  14  15
ENDBRANCH  13  14
ENDBRANCH  12  13
ENDBRANCH   1  12
TORSDOF 14
ENDMDL
MODEL 7
REMARK VINA RESULT:    -3.169      2.742      4.015
REMARK INTER + INTRA:          -8.093
REMARK INTER:                  -5.577
REMARK INTRA:                  -2.515
REMARK UNBOUND:                -2.330
REMARK SMILES CCCCCCCCCCCCCC[C@@H](C)C(=O)[O-]
REMARK SMILES IDX 9 1 10 2 11 3 12 4 13 5 14 6 15 7 16 8 17 9 18 10 19 11 8 12
REMARK SMILES IDX 7 13 6 14 5 15 4 16 3 17 2 18 1 19
REMARK H PARENT
REMARK Flexibility Score: inf
ROOT
ATOM      1  C   UNL     1      62.720  33.846  60.593  1.00  0.00     0.000 C 
ENDROOT
BRANCH   1   2
ATOM      2  C   UNL     1      63.593  35.114  60.477  1.00  0.00     0.000 C 
BRANCH   2   3
ATOM      3  C   UNL     1      62.840  36.416  60.807  1.00  0.00     0.000 C 
BRANCH   3   4
ATOM      4  C   UNL     1      61.317  36.259  60.970  1.00  0.00     0.000 C 
BRANCH   4   5
ATOM      5  C   UNL     1      60.483  36.680  59.742  1.00  0.00     0.001 C 
BRANCH   5   6
ATOM      6  C   UNL     1      59.580  35.578  59.150  1.00  0.00     0.009 C 
BRANCH   6   7
ATOM      7  C   UNL     1      59.655  35.428  57.613  1.00  0.00     0.032 C 
ATOM      8  C   UNL     1      61.097  35.485  57.089  1.00  0.00     0.014 C 
BRANCH   7   9
ATOM      9  C   UNL     1      59.021  34.126  57.206  1.00  0.00     0.044 C 
ATOM     10  O   UNL     1      58.997  33.785  55.994  1.00  0.00    -0.550 OA
ATOM     11  O   UNL     1      58.444  33.296  58.161  1.00  0.00    -0.550 OA
ENDBRANCH   7   9
ENDBRANCH   6   7
ENDBRANCH   5   6
ENDBRANCH   4   5
ENDBRANCH   3   4
ENDBRANCH   2   3
ENDBRANCH   1   2
BRANCH   1  12
ATOM     12  C   UNL     1      62.586  33.099  59.257  1.00  0.00     0.000 C 
BRANCH  12  13
ATOM     13  C   UNL     1      61.450  32.072  59.310  1.00  0.00    -0.000 C 
BRANCH  13  14
ATOM     14  C   UNL     1      60.835  32.004  60.716  1.00  0.00    -0.000 C 
BRANCH  14  15
ATOM     15  C   UNL     1      60.835  30.580  61.293  1.00  0.00    -0.000 C 
BRANCH  15  16
ATOM     16  C   UNL     1      62.232  30.127  61.751  1.00  0.00    -0.000 C 
BRANCH  16  17
ATOM     17  C   UNL     1      62.823  29.022  60.857  1.00  0.00    -0.000 C 
BRANCH  17  18
ATOM     18  C   UNL     1      64.116  29.446  60.127  1.00  0.00    -0.003 C 
ATOM     19  C   UNL     1      64.766  30.678  60.757  1.00  0.00     0.004 C 
ENDBRANCH  17  18
ENDBRANCH  16  17
ENDBRANCH  15  16
ENDBRANCH  14  15
ENDBRANCH  13  14
ENDBRANCH  12  13
ENDBRANCH   1  12
TORSDOF 14
ENDMDL
MODEL 8
REMARK VINA RESULT:    -3.141      2.139      5.855
REMARK INTER + INTRA:          -8.043
REMARK INTER:                  -5.635
REMARK INTRA:                  -2.408
REMARK UNBOUND:                -2.330
REMARK SMILES CCCCCCCCCCCCCC[C@@H](C)C(=O)[O-]
REMARK SMILES IDX 9 1 10 2 11 3 12 4 13 5 14 6 15 7 16 8 17 9 18 10 19 11 8 12
REMARK SMILES IDX 7 13 6 14 5 15 4 16 3 17 2 18 1 19
REMARK H PARENT
REMARK Flexibility Score: inf
ROOT
ATOM      1  C   UNL     1      63.676  29.206  58.719  1.00  0.00     0.000 C 
ENDROOT
BRANCH   1   2
ATOM      2  C   UNL     1      62.485  28.781  59.605  1.00  0.00     0.000 C 
BRANCH   2   3
ATOM      3  C   UNL     1      62.756  28.919  61.115  1.00  0.00     0.000 C 
BRANCH   3   4
ATOM      4  C   UNL     1      62.303  30.253  61.735  1.00  0.00     0.000 C 
BRANCH   4   5
ATOM      5  C   UNL     1      60.899  30.727  61.308  1.00  0.00     0.001 C 
BRANCH   5   6
ATOM      6  C   UNL     1      60.854  32.086  60.580  1.00  0.00     0.009 C 
BRANCH   6   7
ATOM      7  C   UNL     1      60.551  32.007  59.066  1.00  0.00     0.032 C 
ATOM      8  C   UNL     1      59.569  30.877  58.725  1.00  0.00     0.014 C 
BRANCH   7   9
ATOM      9  C   UNL     1      59.990  33.322  58.598  1.00  0.00     0.044 C 
ATOM     10  O   UNL     1      60.753  34.308  58.417  1.00  0.00    -0.550 OA
ATOM     11  O   UNL     1      58.625  33.464  58.374  1.00  0.00    -0.550 OA
ENDBRANCH   7   9
ENDBRANCH   6   7
ENDBRANCH   5   6
ENDBRANCH   4   5
ENDBRANCH   3   4
ENDBRANCH   2   3
ENDBRANCH   1   2
BRANCH   1  12
ATOM     12  C   UNL     1      63.285  30.262  57.675  1.00  0.00     0.000 C 
BRANCH  12  13
ATOM     13  C   UNL     1      64.201  31.488  57.762  1.00  0.00    -0.000 C 
BRANCH  13  14
ATOM     14  C   UNL     1      64.463  31.877  59.224  1.00  0.00    -0.000 C 
BRANCH  14  15
ATOM     15  C   UNL     1      64.529  33.399  59.429  1.00  0.00    -0.000 C 
BRANCH  15  16
ATOM     16  C   UNL     1      64.166  33.819  60.863  1.00  0.00    -0.000 C 
BRANCH  16  17
ATOM     17  C   UNL     1      63.081  34.909  60.909  1.00  0.00    -0.000 C 
BRANCH  17  18
ATOM     18  C   UNL     1      63.637  36.321  61.189  1.00  0.00    -0.003 C 
ATOM     19  C   UNL     1      65.029  36.287  61.821  1.00  0.00     0.004 C 
ENDBRANCH  17  18
ENDBRANCH  16  17
ENDBRANCH  15  16
ENDBRANCH  14  15
ENDBRANCH  13  14
ENDBRANCH  12  13
ENDBRANCH   1  12
TORSDOF 14
ENDMDL
MODEL 9
REMARK VINA RESULT:    -3.138     10.509     12.642
REMARK INTER + INTRA:          -8.036
REMARK INTER:                  -5.208
REMARK INTRA:                  -2.828
REMARK UNBOUND:                -2.330
REMARK SMILES CCCCCCCCCCCCCC[C@@H](C)C(=O)[O-]
REMARK SMILES IDX 9 1 10 2 11 3 12 4 13 5 14 6 15 7 16 8 17 9 18 10 19 11 8 12
REMARK SMILES IDX 7 13 6 14 5 15 4 16 3 17 2 18 1 19
REMARK H PARENT
REMARK Flexibility Score: inf
ROOT
ATOM      1  C   UNL     1      57.642  28.488  53.026  1.00  0.00     0.000 C 
ENDROOT
BRANCH   1   2
ATOM      2  C   UNL     1      58.287  29.487  52.042  1.00  0.00     0.000 C 
BRANCH   2   3
ATOM      3  C   UNL     1      57.692  29.428  50.622  1.00  0.00     0.000 C 
BRANCH   3   4
ATOM      4  C   UNL     1      58.508  28.600  49.613  1.00  0.00     0.000 C 
BRANCH   4   5
ATOM      5  C   UNL     1      59.961  28.303  50.036  1.00  0.00     0.001 C 
BRANCH   5   6
ATOM      6  C   UNL     1      60.431  26.851  49.808  1.00  0.00     0.009 C 
BRANCH   6   7
ATOM      7  C   UNL     1      61.148  26.199  51.012  1.00  0.00     0.032 C 
ATOM      8  C   UNL     1      61.046  24.667  50.993  1.00  0.00     0.014 C 
BRANCH   7   9
ATOM      9  C   UNL     1      62.595  26.608  51.015  1.00  0.00     0.044 C 
ATOM     10  O   UNL     1      63.372  26.200  50.112  1.00  0.00    -0.550 OA
ATOM     11  O   UNL     1      63.091  27.429  52.022  1.00  0.00    -0.550 OA
ENDBRANCH   7   9
ENDBRANCH   6   7
ENDBRANCH   5   6
ENDBRANCH   4   5
ENDBRANCH   3   4
ENDBRANCH   2   3
ENDBRANCH   1   2
BRANCH   1  12
ATOM     12  C   UNL     1      58.618  27.391  53.476  1.00  0.00     0.000 C 
BRANCH  12  13
ATOM     13  C   UNL     1      58.134  26.006  53.032  1.00  0.00    -0.000 C 
BRANCH  13  14
ATOM     14  C   UNL     1      56.756  26.094  52.359  1.00  0.00    -0.000 C 
BRANCH  14  15
ATOM     15  C   UNL     1      56.770  25.577  50.912  1.00  0.00    -0.000 C 
BRANCH  15  16
ATOM     16  C   UNL     1      55.513  25.985  50.126  1.00  0.00    -0.000 C 
BRANCH  16  17
ATOM     17  C   UNL     1      54.568  26.888  50.937  1.00  0.00    -0.000 C 
BRANCH  17  18
ATOM     18  C   UNL     1      54.084  28.130  50.159  1.00  0.00    -0.003 C 
ATOM     19  C   UNL     1      54.157  29.408  50.994  1.00  0.00     0.004 C 
ENDBRANCH  17  18
ENDBRANCH  16  17
ENDBRANCH  15  16
ENDBRANCH  14  15
ENDBRANCH  13  14
ENDBRANCH  12  13
ENDBRANCH   1  12
TORSDOF 14
ENDMDL
