MODEL 1
REMARK VINA RESULT:    -4.562      0.000      0.000
REMARK INTER + INTRA:          -5.020
REMARK INTER:                  -4.962
REMARK INTRA:                  -0.058
REMARK UNBOUND:                -0.058
REMARK SMILES COc1cc2ccc(=O)oc2cc1O
REMARK SMILES IDX 3 1 13 2 12 3 11 4 5 5 4 6 6 7 7 8 8 9 9 10 10 11 2 12 1 13
REMARK SMILES IDX 14 14
REMARK H PARENT 14 15
REMARK Flexibility Score: inf
ROOT
ATOM      1  C   UNL     1      31.240  10.401  32.148  1.00  0.00     0.161 A 
ATOM      2  C   UNL     1      30.649  11.271  31.218  1.00  0.00     0.161 A 
ATOM      3  C   UNL     1      30.096  10.771  30.030  1.00  0.00     0.098 A 
ATOM      4  C   UNL     1      30.129   9.400  29.762  1.00  0.00     0.142 A 
ATOM      5  C   UNL     1      30.721   8.518  30.690  1.00  0.00     0.022 A 
ATOM      6  C   UNL     1      31.274   9.018  31.877  1.00  0.00     0.062 A 
ATOM      7  C   UNL     1      30.739   7.152  30.392  1.00  0.00     0.019 A 
ATOM      8  C   UNL     1      30.176   6.704  29.198  1.00  0.00     0.094 A 
ATOM      9  C   UNL     1      29.607   7.636  28.326  1.00  0.00     0.336 A 
ATOM     10  O   UNL     1      29.093   7.251  27.242  1.00  0.00    -0.246 OA
ATOM     11  O   UNL     1      29.603   8.931  28.633  1.00  0.00    -0.423 OA
ENDROOT
BRANCH   1  12
ATOM     12  O   UNL     1      31.781  10.946  33.323  1.00  0.00    -0.493 OA
ATOM     13  C   UNL     1      33.124  10.758  33.756  1.00  0.00     0.278 C 
ENDBRANCH   1  12
BRANCH   2  14
ATOM     14  O   UNL     1      30.615  12.639  31.484  1.00  0.00    -0.504 OA
ATOM     15  H   UNL     1      30.844  13.008  32.401  1.00  0.00     0.293 HD
ENDBRANCH   2  14
TORSDOF 2
ENDMDL
MODEL 2
REMARK VINA RESULT:    -4.556      1.066      1.130
REMARK INTER + INTRA:          -5.013
REMARK INTER:                  -4.948
REMARK INTRA:                  -0.065
REMARK UNBOUND:                -0.058
REMARK SMILES COc1cc2ccc(=O)oc2cc1O
REMARK SMILES IDX 3 1 13 2 12 3 11 4 5 5 4 6 6 7 7 8 8 9 9 10 10 11 2 12 1 13
REMARK SMILES IDX 14 14
REMARK H PARENT 14 15
REMARK Flexibility Score: inf
ROOT
ATOM      1  C   UNL     1      31.671   9.708  32.973  1.00  0.00     0.161 A 
ATOM      2  C   UNL     1      31.110  10.719  32.175  1.00  0.00     0.161 A 
ATOM      3  C   UNL     1      30.521  10.403  30.942  1.00  0.00     0.098 A 
ATOM      4  C   UNL     1      30.488   9.079  30.496  1.00  0.00     0.142 A 
ATOM      5  C   UNL     1      31.048   8.058  31.291  1.00  0.00     0.022 A 
ATOM      6  C   UNL     1      31.637   8.372  32.524  1.00  0.00     0.062 A 
ATOM      7  C   UNL     1      30.999   6.743  30.818  1.00  0.00     0.019 A 
ATOM      8  C   UNL     1      30.403   6.481  29.586  1.00  0.00     0.094 A 
ATOM      9  C   UNL     1      29.868   7.544  28.852  1.00  0.00     0.336 A 
ATOM     10  O   UNL     1      29.325   7.328  27.736  1.00  0.00    -0.246 OA
ATOM     11  O   UNL     1      29.928   8.786  29.325  1.00  0.00    -0.423 OA
ENDROOT
BRANCH   1  12
ATOM     12  O   UNL     1      32.249  10.070  34.200  1.00  0.00    -0.493 OA
ATOM     13  C   UNL     1      31.624   9.899  35.468  1.00  0.00     0.278 C 
ENDBRANCH   1  12
BRANCH   2  14
ATOM     14  O   UNL     1      31.142  12.040  32.618  1.00  0.00    -0.504 OA
ATOM     15  H   UNL     1      31.884  12.380  33.220  1.00  0.00     0.293 HD
ENDBRANCH   2  14
TORSDOF 2
ENDMDL
MODEL 3
REMARK VINA RESULT:    -4.529      2.095      3.777
REMARK INTER + INTRA:          -4.984
REMARK INTER:                  -4.919
REMARK INTRA:                  -0.065
REMARK UNBOUND:                -0.058
REMARK SMILES COc1cc2ccc(=O)oc2cc1O
REMARK SMILES IDX 3 1 13 2 12 3 11 4 5 5 4 6 6 7 7 8 8 9 9 10 10 11 2 12 1 13
REMARK SMILES IDX 14 14
REMARK H PARENT 14 15
REMARK Flexibility Score: inf
ROOT
ATOM      1  C   UNL     1      29.824  11.259  29.894  1.00  0.00     0.161 A 
ATOM      2  C   UNL     1      30.280  11.779  31.116  1.00  0.00     0.161 A 
ATOM      3  C   UNL     1      30.838  10.931  32.084  1.00  0.00     0.098 A 
ATOM      4  C   UNL     1      30.946   9.560  31.839  1.00  0.00     0.142 A 
ATOM      5  C   UNL     1      30.491   9.028  30.615  1.00  0.00     0.022 A 
ATOM      6  C   UNL     1      29.933   9.875  29.647  1.00  0.00     0.062 A 
ATOM      7  C   UNL     1      30.612   7.652  30.400  1.00  0.00     0.019 A 
ATOM      8  C   UNL     1      31.175   6.851  31.394  1.00  0.00     0.094 A 
ATOM      9  C   UNL     1      31.604   7.448  32.583  1.00  0.00     0.336 A 
ATOM     10  O   UNL     1      32.114   6.742  33.492  1.00  0.00    -0.246 OA
ATOM     11  O   UNL     1      31.476   8.760  32.762  1.00  0.00    -0.423 OA
ENDROOT
BRANCH   1  12
ATOM     12  O   UNL     1      29.273  12.145  28.955  1.00  0.00    -0.493 OA
ATOM     13  C   UNL     1      29.938  12.586  27.775  1.00  0.00     0.278 C 
ENDBRANCH   1  12
BRANCH   2  14
ATOM     14  O   UNL     1      30.173  13.147  31.361  1.00  0.00    -0.504 OA
ATOM     15  H   UNL     1      29.583  13.509  32.102  1.00  0.00     0.293 HD
ENDBRANCH   2  14
TORSDOF 2
ENDMDL
MODEL 4
REMARK VINA RESULT:    -4.507      1.811      5.461
REMARK INTER + INTRA:          -4.960
REMARK INTER:                  -4.906
REMARK INTRA:                  -0.054
REMARK UNBOUND:                -0.058
REMARK SMILES COc1cc2ccc(=O)oc2cc1O
REMARK SMILES IDX 3 1 13 2 12 3 11 4 5 5 4 6 6 7 7 8 8 9 9 10 10 11 2 12 1 13
REMARK SMILES IDX 14 14
REMARK H PARENT 14 15
REMARK Flexibility Score: inf
ROOT
ATOM      1  C   UNL     1      29.314   7.181  26.885  1.00  0.00     0.161 A 
ATOM      2  C   UNL     1      28.946   8.518  26.671  1.00  0.00     0.161 A 
ATOM      3  C   UNL     1      29.162   9.481  27.669  1.00  0.00     0.098 A 
ATOM      4  C   UNL     1      29.747   9.116  28.884  1.00  0.00     0.142 A 
ATOM      5  C   UNL     1      30.120   7.774  29.107  1.00  0.00     0.022 A 
ATOM      6  C   UNL     1      29.904   6.811  28.111  1.00  0.00     0.062 A 
ATOM      7  C   UNL     1      30.702   7.440  30.333  1.00  0.00     0.019 A 
ATOM      8  C   UNL     1      30.897   8.433  31.292  1.00  0.00     0.094 A 
ATOM      9  C   UNL     1      30.501   9.743  31.001  1.00  0.00     0.336 A 
ATOM     10  O   UNL     1      30.668  10.654  31.854  1.00  0.00    -0.246 OA
ATOM     11  O   UNL     1      29.949  10.034  29.827  1.00  0.00    -0.423 OA
ENDROOT
BRANCH   1  12
ATOM     12  O   UNL     1      29.080   6.252  25.859  1.00  0.00    -0.493 OA
ATOM     13  C   UNL     1      30.040   5.875  24.877  1.00  0.00     0.278 C 
ENDBRANCH   1  12
BRANCH   2  14
ATOM     14  O   UNL     1      28.362   8.885  25.460  1.00  0.00    -0.504 OA
ATOM     15  H   UNL     1      27.356   8.883  25.333  1.00  0.00     0.293 HD
ENDBRANCH   2  14
TORSDOF 2
ENDMDL
MODEL 5
REMARK VINA RESULT:    -4.488      1.608      2.841
REMARK INTER + INTRA:          -4.939
REMARK INTER:                  -4.877
REMARK INTRA:                  -0.063
REMARK UNBOUND:                -0.058
REMARK SMILES COc1cc2ccc(=O)oc2cc1O
REMARK SMILES IDX 3 1 13 2 12 3 11 4 5 5 4 6 6 7 7 8 8 9 9 10 10 11 2 12 1 13
REMARK SMILES IDX 14 14
REMARK H PARENT 14 15
REMARK Flexibility Score: inf
ROOT
ATOM      1  C   UNL     1      31.071   8.736  31.856  1.00  0.00     0.161 A 
ATOM      2  C   UNL     1      31.234   7.354  31.670  1.00  0.00     0.161 A 
ATOM      3  C   UNL     1      30.837   6.749  30.468  1.00  0.00     0.098 A 
ATOM      4  C   UNL     1      30.276   7.518  29.445  1.00  0.00     0.142 A 
ATOM      5  C   UNL     1      30.108   8.907  29.624  1.00  0.00     0.022 A 
ATOM      6  C   UNL     1      30.504   9.513  30.825  1.00  0.00     0.062 A 
ATOM      7  C   UNL     1      29.543   9.649  28.582  1.00  0.00     0.019 A 
ATOM      8  C   UNL     1      29.165   9.001  27.407  1.00  0.00     0.094 A 
ATOM      9  C   UNL     1      29.361   7.620  27.301  1.00  0.00     0.336 A 
ATOM     10  O   UNL     1      29.026   7.017  26.248  1.00  0.00    -0.246 OA
ATOM     11  O   UNL     1      29.901   6.938  28.308  1.00  0.00    -0.423 OA
ENDROOT
BRANCH   1  12
ATOM     12  O   UNL     1      31.483   9.299  33.075  1.00  0.00    -0.493 OA
ATOM     13  C   UNL     1      32.553  10.228  33.213  1.00  0.00     0.278 C 
ENDBRANCH   1  12
BRANCH   2  14
ATOM     14  O   UNL     1      31.794   6.586  32.689  1.00  0.00    -0.504 OA
ATOM     15  H   UNL     1      32.379   5.782  32.487  1.00  0.00     0.293 HD
ENDBRANCH   2  14
TORSDOF 2
ENDMDL
MODEL 6
REMARK VINA RESULT:    -4.461      4.260      6.427
REMARK INTER + INTRA:          -4.910
REMARK INTER:                  -4.861
REMARK INTRA:                  -0.050
REMARK UNBOUND:                -0.058
REMARK SMILES COc1cc2ccc(=O)oc2cc1O
REMARK SMILES IDX 3 1 13 2 12 3 11 4 5 5 4 6 6 7 7 8 8 9 9 10 10 11 2 12 1 13
REMARK SMILES IDX 14 14
REMARK H PARENT 14 15
REMARK Flexibility Score: inf
ROOT
ATOM      1  C   UNL     1      30.708   7.684  37.441  1.00  0.00     0.161 A 
ATOM      2  C   UNL     1      31.217   8.905  37.912  1.00  0.00     0.161 A 
ATOM      3  C   UNL     1      31.760   9.839  37.017  1.00  0.00     0.098 A 
ATOM      4  C   UNL     1      31.799   9.561  35.648  1.00  0.00     0.142 A 
ATOM      5  C   UNL     1      31.291   8.337  35.167  1.00  0.00     0.022 A 
ATOM      6  C   UNL     1      30.748   7.403  36.060  1.00  0.00     0.062 A 
ATOM      7  C   UNL     1      31.344   8.088  33.792  1.00  0.00     0.019 A 
ATOM      8  C   UNL     1      31.894   9.049  32.943  1.00  0.00     0.094 A 
ATOM      9  C   UNL     1      32.379  10.240  33.492  1.00  0.00     0.336 A 
ATOM     10  O   UNL     1      32.879  11.119  32.742  1.00  0.00    -0.246 OA
ATOM     11  O   UNL     1      32.316  10.451  34.804  1.00  0.00    -0.423 OA
ENDROOT
BRANCH   1  12
ATOM     12  O   UNL     1      30.174   6.780  38.373  1.00  0.00    -0.493 OA
ATOM     13  C   UNL     1      29.039   5.954  38.136  1.00  0.00     0.278 C 
ENDBRANCH   1  12
BRANCH   2  14
ATOM     14  O   UNL     1      31.179   9.184  39.277  1.00  0.00    -0.504 OA
ATOM     15  H   UNL     1      30.569   8.675  39.906  1.00  0.00     0.293 HD
ENDBRANCH   2  14
TORSDOF 2
ENDMDL
MODEL 7
REMARK VINA RESULT:    -4.380      1.436      4.914
REMARK INTER + INTRA:          -4.822
REMARK INTER:                  -4.763
REMARK INTRA:                  -0.059
REMARK UNBOUND:                -0.058
REMARK SMILES COc1cc2ccc(=O)oc2cc1O
REMARK SMILES IDX 3 1 13 2 12 3 11 4 5 5 4 6 6 7 7 8 8 9 9 10 10 11 2 12 1 13
REMARK SMILES IDX 14 14
REMARK H PARENT 14 15
REMARK Flexibility Score: inf
ROOT
ATOM      1  C   UNL     1      29.962   7.452  28.911  1.00  0.00     0.161 A 
ATOM      2  C   UNL     1      29.763   8.841  28.894  1.00  0.00     0.161 A 
ATOM      3  C   UNL     1      30.127   9.623  30.000  1.00  0.00     0.098 A 
ATOM      4  C   UNL     1      30.691   9.024  31.130  1.00  0.00     0.142 A 
ATOM      5  C   UNL     1      30.894   7.629  31.155  1.00  0.00     0.022 A 
ATOM      6  C   UNL     1      30.531   6.847  30.050  1.00  0.00     0.062 A 
ATOM      7  C   UNL     1      31.460   7.059  32.300  1.00  0.00     0.019 A 
ATOM      8  C   UNL     1      31.806   7.880  33.374  1.00  0.00     0.094 A 
ATOM      9  C   UNL     1      31.575   9.255  33.277  1.00  0.00     0.336 A 
ATOM     10  O   UNL     1      31.879  10.012  34.236  1.00  0.00    -0.246 OA
ATOM     11  O   UNL     1      31.034   9.771  32.176  1.00  0.00    -0.423 OA
ENDROOT
BRANCH   1  12
ATOM     12  O   UNL     1      29.583   6.709  27.781  1.00  0.00    -0.493 OA
ATOM     13  C   UNL     1      30.466   5.892  27.020  1.00  0.00     0.278 C 
ENDBRANCH   1  12
BRANCH   2  14
ATOM     14  O   UNL     1      29.201   9.441  27.768  1.00  0.00    -0.504 OA
ATOM     15  H   UNL     1      28.416   9.023  27.280  1.00  0.00     0.293 HD
ENDBRANCH   2  14
TORSDOF 2
ENDMDL
MODEL 8
REMARK VINA RESULT:    -4.353      2.506      5.420
REMARK INTER + INTRA:          -4.793
REMARK INTER:                  -4.743
REMARK INTRA:                  -0.049
REMARK UNBOUND:                -0.058
REMARK SMILES COc1cc2ccc(=O)oc2cc1O
REMARK SMILES IDX 3 1 13 2 12 3 11 4 5 5 4 6 6 7 7 8 8 9 9 10 10 11 2 12 1 13
REMARK SMILES IDX 14 14
REMARK H PARENT 14 15
REMARK Flexibility Score: inf
ROOT
ATOM      1  C   UNL     1      29.958   8.040  27.641  1.00  0.00     0.161 A 
ATOM      2  C   UNL     1      30.498   6.746  27.721  1.00  0.00     0.161 A 
ATOM      3  C   UNL     1      31.020   6.270  28.933  1.00  0.00     0.098 A 
ATOM      4  C   UNL     1      31.007   7.080  30.071  1.00  0.00     0.142 A 
ATOM      5  C   UNL     1      30.467   8.381  29.999  1.00  0.00     0.022 A 
ATOM      6  C   UNL     1      29.945   8.858  28.789  1.00  0.00     0.062 A 
ATOM      7  C   UNL     1      30.468   9.167  31.156  1.00  0.00     0.019 A 
ATOM      8  C   UNL     1      30.998   8.648  32.336  1.00  0.00     0.094 A 
ATOM      9  C   UNL     1      31.517   7.350  32.332  1.00  0.00     0.336 A 
ATOM     10  O   UNL     1      32.001   6.863  33.388  1.00  0.00    -0.246 OA
ATOM     11  O   UNL     1      31.504   6.623  31.218  1.00  0.00    -0.423 OA
ENDROOT
BRANCH   1  12
ATOM     12  O   UNL     1      29.447   8.474  26.407  1.00  0.00    -0.493 OA
ATOM     13  C   UNL     1      28.309   9.318  26.258  1.00  0.00     0.278 C 
ENDBRANCH   1  12
BRANCH   2  14
ATOM     14  O   UNL     1      30.512   5.936  26.586  1.00  0.00    -0.504 OA
ATOM     15  H   UNL     1      29.974   5.078  26.541  1.00  0.00     0.293 HD
ENDBRANCH   2  14
TORSDOF 2
ENDMDL
MODEL 9
REMARK VINA RESULT:    -4.324      2.065      3.616
REMARK INTER + INTRA:          -4.761
REMARK INTER:                  -4.706
REMARK INTRA:                  -0.055
REMARK UNBOUND:                -0.058
REMARK SMILES COc1cc2ccc(=O)oc2cc1O
REMARK SMILES IDX 3 1 13 2 12 3 11 4 5 5 4 6 6 7 7 8 8 9 9 10 10 11 2 12 1 13
REMARK SMILES IDX 14 14
REMARK H PARENT 14 15
REMARK Flexibility Score: inf
ROOT
ATOM      1  C   UNL     1      30.643   8.191  30.635  1.00  0.00     0.161 A 
ATOM      2  C   UNL     1      31.176   6.896  30.540  1.00  0.00     0.161 A 
ATOM      3  C   UNL     1      31.164   6.213  29.315  1.00  0.00     0.098 A 
ATOM      4  C   UNL     1      30.621   6.817  28.178  1.00  0.00     0.142 A 
ATOM      5  C   UNL     1      30.083   8.117  28.264  1.00  0.00     0.022 A 
ATOM      6  C   UNL     1      30.094   8.801  29.488  1.00  0.00     0.062 A 
ATOM      7  C   UNL     1      29.546   8.694  27.109  1.00  0.00     0.019 A 
ATOM      8  C   UNL     1      29.558   7.974  25.915  1.00  0.00     0.094 A 
ATOM      9  C   UNL     1      30.108   6.689  25.905  1.00  0.00     0.336 A 
ATOM     10  O   UNL     1      30.128   6.022  24.837  1.00  0.00    -0.246 OA
ATOM     11  O   UNL     1      30.612   6.163  27.018  1.00  0.00    -0.423 OA
ENDROOT
BRANCH   1  12
ATOM     12  O   UNL     1      30.676   8.837  31.881  1.00  0.00    -0.493 OA
ATOM     13  C   UNL     1      31.174  10.154  32.094  1.00  0.00     0.278 C 
ENDBRANCH   1  12
BRANCH   2  14
ATOM     14  O   UNL     1      31.719   6.292  31.673  1.00  0.00    -0.504 OA
ATOM     15  H   UNL     1      31.179   5.649  32.241  1.00  0.00     0.293 HD
ENDBRANCH   2  14
TORSDOF 2
ENDMDL
