MODEL 1
REMARK VINA RESULT:    -3.066      0.000      0.000
REMARK INTER + INTRA:          -3.471
REMARK INTER:                  -3.424
REMARK INTRA:                  -0.046
REMARK UNBOUND:                -0.046
REMARK SMILES CCCC(=O)[O-]
REMARK SMILES IDX 3 1 4 2 5 3 6 4 2 5 1 6
REMARK H PARENT
REMARK Flexibility Score: inf
ROOT
ATOM      1  C   UNL     1      -9.234  -0.673   3.231  1.00  0.00     0.052 C 
ENDROOT
BRANCH   1   2
ATOM      2  C   UNL     1      -9.270  -2.162   3.371  1.00  0.00     0.041 C 
ATOM      3  O   UNL     1      -8.449  -2.747   4.125  1.00  0.00    -0.550 OA
ATOM      4  O   UNL     1     -10.177  -2.908   2.630  1.00  0.00    -0.550 OA
ENDBRANCH   1   2
BRANCH   1   5
ATOM      5  C   UNL     1      -8.646  -0.276   1.875  1.00  0.00     0.003 C 
ATOM      6  C   UNL     1      -7.128  -0.134   1.954  1.00  0.00     0.004 C 
ENDBRANCH   1   5
TORSDOF 2
ENDMDL
MODEL 2
REMARK VINA RESULT:    -2.989      0.198      1.337
REMARK INTER + INTRA:          -3.385
REMARK INTER:                  -3.333
REMARK INTRA:                  -0.052
REMARK UNBOUND:                -0.046
REMARK SMILES CCCC(=O)[O-]
REMARK SMILES IDX 3 1 4 2 5 3 6 4 2 5 1 6
REMARK H PARENT
REMARK Flexibility Score: inf
ROOT
ATOM      1  C   UNL     1      -9.465  -0.801   3.199  1.00  0.00     0.052 C 
ENDROOT
BRANCH   1   2
ATOM      2  C   UNL     1      -9.345  -2.289   3.283  1.00  0.00     0.041 C 
ATOM      3  O   UNL     1     -10.127  -3.026   2.625  1.00  0.00    -0.550 OA
ATOM      4  O   UNL     1      -8.403  -2.865   4.125  1.00  0.00    -0.550 OA
ENDBRANCH   1   2
BRANCH   1   5
ATOM      5  C   UNL     1      -8.867  -0.289   1.886  1.00  0.00     0.003 C 
ATOM      6  C   UNL     1      -7.353  -0.125   1.996  1.00  0.00     0.004 C 
ENDBRANCH   1   5
TORSDOF 2
ENDMDL
MODEL 3
REMARK VINA RESULT:    -2.922      2.192      3.546
REMARK INTER + INTRA:          -3.311
REMARK INTER:                  -3.303
REMARK INTRA:                  -0.007
REMARK UNBOUND:                -0.046
REMARK SMILES CCCC(=O)[O-]
REMARK SMILES IDX 3 1 4 2 5 3 6 4 2 5 1 6
REMARK H PARENT
REMARK Flexibility Score: inf
ROOT
ATOM      1  C   UNL     1      -8.499  -3.169   4.268  1.00  0.00     0.052 C 
ENDROOT
BRANCH   1   2
ATOM      2  C   UNL     1      -9.409  -2.344   3.414  1.00  0.00     0.041 C 
ATOM      3  O   UNL     1      -9.630  -1.139   3.705  1.00  0.00    -0.550 OA
ATOM      4  O   UNL     1     -10.054  -2.919   2.327  1.00  0.00    -0.550 OA
ENDBRANCH   1   2
BRANCH   1   5
ATOM      5  C   UNL     1      -9.206  -3.582   5.562  1.00  0.00     0.003 C 
ATOM      6  C   UNL     1      -8.208  -4.103   6.592  1.00  0.00     0.004 C 
ENDBRANCH   1   5
TORSDOF 2
ENDMDL
MODEL 4
REMARK VINA RESULT:    -2.914      2.193      3.684
REMARK INTER + INTRA:          -3.301
REMARK INTER:                  -3.295
REMARK INTRA:                  -0.006
REMARK UNBOUND:                -0.046
REMARK SMILES CCCC(=O)[O-]
REMARK SMILES IDX 3 1 4 2 5 3 6 4 2 5 1 6
REMARK H PARENT
REMARK Flexibility Score: inf
ROOT
ATOM      1  C   UNL     1      -8.472  -3.160   4.254  1.00  0.00     0.052 C 
ENDROOT
BRANCH   1   2
ATOM      2  C   UNL     1      -9.348  -2.316   3.383  1.00  0.00     0.041 C 
ATOM      3  O   UNL     1      -9.919  -2.822   2.381  1.00  0.00    -0.550 OA
ATOM      4  O   UNL     1      -9.494  -0.961   3.647  1.00  0.00    -0.550 OA
ENDBRANCH   1   2
BRANCH   1   5
ATOM      5  C   UNL     1      -9.223  -3.581   5.520  1.00  0.00     0.003 C 
ATOM      6  C   UNL     1      -8.262  -4.122   6.576  1.00  0.00     0.004 C 
ENDBRANCH   1   5
TORSDOF 2
ENDMDL
MODEL 5
REMARK VINA RESULT:    -2.782      2.122      2.787
REMARK INTER + INTRA:          -3.153
REMARK INTER:                  -3.146
REMARK INTRA:                  -0.007
REMARK UNBOUND:                -0.046
REMARK SMILES CCCC(=O)[O-]
REMARK SMILES IDX 3 1 4 2 5 3 6 4 2 5 1 6
REMARK H PARENT
REMARK Flexibility Score: inf
ROOT
ATOM      1  C   UNL     1      -8.405  -3.247   4.346  1.00  0.00     0.052 C 
ENDROOT
BRANCH   1   2
ATOM      2  C   UNL     1      -8.958  -3.693   5.663  1.00  0.00     0.041 C 
ATOM      3  O   UNL     1      -8.184  -3.920   6.630  1.00  0.00    -0.550 OA
ATOM      4  O   UNL     1     -10.322  -3.906   5.809  1.00  0.00    -0.550 OA
ENDBRANCH   1   2
BRANCH   1   5
ATOM      5  C   UNL     1      -9.327  -2.208   3.703  1.00  0.00     0.003 C 
ATOM      6  C   UNL     1      -8.533  -1.213   2.860  1.00  0.00     0.004 C 
ENDBRANCH   1   5
TORSDOF 2
ENDMDL
MODEL 6
REMARK VINA RESULT:    -2.765      1.989      3.110
REMARK INTER + INTRA:          -3.135
REMARK INTER:                  -3.121
REMARK INTRA:                  -0.014
REMARK UNBOUND:                -0.046
REMARK SMILES CCCC(=O)[O-]
REMARK SMILES IDX 3 1 4 2 5 3 6 4 2 5 1 6
REMARK H PARENT
REMARK Flexibility Score: inf
ROOT
ATOM      1  C   UNL     1      -9.542  -1.822   3.724  1.00  0.00     0.052 C 
ENDROOT
BRANCH   1   2
ATOM      2  C   UNL     1      -8.954  -0.898   2.704  1.00  0.00     0.041 C 
ATOM      3  O   UNL     1      -7.706  -0.755   2.624  1.00  0.00    -0.550 OA
ATOM      4  O   UNL     1      -9.787  -0.156   1.876  1.00  0.00    -0.550 OA
ENDBRANCH   1   2
BRANCH   1   5
ATOM      5  C   UNL     1      -8.536  -2.914   4.098  1.00  0.00     0.003 C 
ATOM      6  C   UNL     1      -8.945  -3.620   5.388  1.00  0.00     0.004 C 
ENDBRANCH   1   5
TORSDOF 2
ENDMDL
MODEL 7
REMARK VINA RESULT:    -2.736      2.591      2.786
REMARK INTER + INTRA:          -3.102
REMARK INTER:                  -3.062
REMARK INTRA:                  -0.040
REMARK UNBOUND:                -0.046
REMARK SMILES CCCC(=O)[O-]
REMARK SMILES IDX 3 1 4 2 5 3 6 4 2 5 1 6
REMARK H PARENT
REMARK Flexibility Score: inf
ROOT
ATOM      1  C   UNL     1      -9.281  -0.457   3.139  1.00  0.00     0.052 C 
ENDROOT
BRANCH   1   2
ATOM      2  C   UNL     1     -10.210   0.693   2.910  1.00  0.00     0.041 C 
ATOM      3  O   UNL     1     -10.181   1.693   3.676  1.00  0.00    -0.550 OA
ATOM      4  O   UNL     1     -11.143   0.640   1.883  1.00  0.00    -0.550 OA
ENDBRANCH   1   2
BRANCH   1   5
ATOM      5  C   UNL     1      -8.466  -0.746   1.875  1.00  0.00     0.003 C 
ATOM      6  C   UNL     1      -7.124  -0.020   1.908  1.00  0.00     0.004 C 
ENDBRANCH   1   5
TORSDOF 2
ENDMDL
MODEL 8
REMARK VINA RESULT:    -2.653      0.921      1.589
REMARK INTER + INTRA:          -3.009
REMARK INTER:                  -2.945
REMARK INTRA:                  -0.064
REMARK UNBOUND:                -0.046
REMARK SMILES CCCC(=O)[O-]
REMARK SMILES IDX 3 1 4 2 5 3 6 4 2 5 1 6
REMARK H PARENT
REMARK Flexibility Score: inf
ROOT
ATOM      1  C   UNL     1      -8.362  -0.889   2.711  1.00  0.00     0.052 C 
ENDROOT
BRANCH   1   2
ATOM      2  C   UNL     1      -9.008  -2.164   3.155  1.00  0.00     0.041 C 
ATOM      3  O   UNL     1      -8.565  -2.780   4.160  1.00  0.00    -0.550 OA
ATOM      4  O   UNL     1     -10.066  -2.697   2.432  1.00  0.00    -0.550 OA
ENDBRANCH   1   2
BRANCH   1   5
ATOM      5  C   UNL     1      -9.423   0.179   2.432  1.00  0.00     0.003 C 
ATOM      6  C   UNL     1     -10.143   0.587   3.715  1.00  0.00     0.004 C 
ENDBRANCH   1   5
TORSDOF 2
ENDMDL
MODEL 9
REMARK VINA RESULT:    -2.621      2.279      3.016
REMARK INTER + INTRA:          -2.974
REMARK INTER:                  -2.964
REMARK INTRA:                  -0.010
REMARK UNBOUND:                -0.046
REMARK SMILES CCCC(=O)[O-]
REMARK SMILES IDX 3 1 4 2 5 3 6 4 2 5 1 6
REMARK H PARENT
REMARK Flexibility Score: inf
ROOT
ATOM      1  C   UNL     1      -9.688   0.334   2.427  1.00  0.00     0.052 C 
ENDROOT
BRANCH   1   2
ATOM      2  C   UNL     1      -8.438  -0.475   2.576  1.00  0.00     0.041 C 
ATOM      3  O   UNL     1      -8.481  -1.614   3.112  1.00  0.00    -0.550 OA
ATOM      4  O   UNL     1      -7.218   0.049   2.171  1.00  0.00    -0.550 OA
ENDBRANCH   1   2
BRANCH   1   5
ATOM      5  C   UNL     1     -10.303   0.628   3.798  1.00  0.00     0.003 C 
ATOM      6  C   UNL     1     -10.623   2.112   3.951  1.00  0.00     0.004 C 
ENDBRANCH   1   5
TORSDOF 2
ENDMDL
