MODEL 1
REMARK VINA RESULT:    -5.410      0.000      0.000
REMARK INTER + INTRA:          -7.905
REMARK INTER:                  -7.308
REMARK INTRA:                  -0.597
REMARK UNBOUND:                -0.597
REMARK SMILES COc1ccc(-c2cc(=O)c3c(OC)c(OC)c(OC)c(OC)c3o2)cc1
REMARK SMILES IDX 7 1 8 2 9 3 10 4 11 5 24 6 25 7 21 8 18 9 15 10 12 11 6 12
REMARK SMILES IDX 3 13 4 14 27 15 5 16 26 17 2 18 1 19 22 20 23 21 13 22 14 23
REMARK SMILES IDX 19 24 20 25 16 26 17 27
REMARK H PARENT
REMARK Flexibility Score: inf
ROOT
ATOM      1  C   UNL     1     106.667 121.020 120.807  1.00  0.00     0.138 A 
ATOM      2  C   UNL     1     105.747 120.364 121.630  1.00  0.00     0.100 A 
ATOM      3  C   UNL     1     104.406 120.726 121.577  1.00  0.00     0.197 A 
ATOM      4  O   UNL     1     103.593 120.125 122.331  1.00  0.00    -0.289 OA
ATOM      5  C   UNL     1     103.985 121.753 120.696  1.00  0.00     0.115 A 
ATOM      6  C   UNL     1     104.972 122.376 119.897  1.00  0.00     0.188 A 
ATOM      7  O   UNL     1     106.243 121.985 119.996  1.00  0.00    -0.452 OA
ATOM      8  C   UNL     1     104.615 123.399 118.986  1.00  0.00     0.209 A 
ATOM      9  C   UNL     1     103.267 123.836 118.918  1.00  0.00     0.211 A 
ATOM     10  C   UNL     1     102.280 123.227 119.738  1.00  0.00     0.208 A 
ATOM     11  C   UNL     1     102.633 122.155 120.595  1.00  0.00     0.179 A 
ENDROOT
BRANCH   1  12
ATOM     12  C   UNL     1     108.109 120.668 120.827  1.00  0.00     0.018 A 
ATOM     13  C   UNL     1     110.852 119.990 120.826  1.00  0.00     0.118 A 
ATOM     14  C   UNL     1     110.215 120.362 122.015  1.00  0.00     0.047 A 
ATOM     15  C   UNL     1     110.107 119.953 119.633  1.00  0.00     0.047 A 
ATOM     16  C   UNL     1     108.857 120.692 122.020  1.00  0.00     0.016 A 
ATOM     17  C   UNL     1     108.750 120.288 119.636  1.00  0.00     0.016 A 
BRANCH  13  18
ATOM     18  O   UNL     1     112.216 119.664 120.873  1.00  0.00    -0.497 OA
ATOM     19  C   UNL     1     113.269 120.623 120.917  1.00  0.00     0.278 C 
ENDBRANCH  13  18
ENDBRANCH   1  12
BRANCH   8  20
ATOM     20  O   UNL     1     105.551 123.996 118.120  1.00  0.00    -0.490 OA
ATOM     21  C   UNL     1     106.294 125.190 118.329  1.00  0.00     0.278 C 
ENDBRANCH   8  20
BRANCH  11  22
ATOM     22  O   UNL     1     101.680 121.466 121.375  1.00  0.00    -0.492 OA
ATOM     23  C   UNL     1     100.935 121.972 122.480  1.00  0.00     0.278 C 
ENDBRANCH  11  22
BRANCH   9  24
ATOM     24  O   UNL     1     102.853 124.861 118.044  1.00  0.00    -0.490 OA
ATOM     25  C   UNL     1     102.397 124.733 116.703  1.00  0.00     0.279 C 
ENDBRANCH   9  24
BRANCH  10  26
ATOM     26  O   UNL     1     100.939 123.663 119.755  1.00  0.00    -0.490 OA
ATOM     27  C   UNL     1      99.857 123.194 118.958  1.00  0.00     0.278 C 
ENDBRANCH  10  26
TORSDOF 6
ENDMDL
MODEL 2
REMARK VINA RESULT:    -5.333      2.152      3.807
REMARK INTER + INTRA:          -7.800
REMARK INTER:                  -7.115
REMARK INTRA:                  -0.685
REMARK UNBOUND:                -0.597
REMARK SMILES COc1ccc(-c2cc(=O)c3c(OC)c(OC)c(OC)c(OC)c3o2)cc1
REMARK SMILES IDX 7 1 8 2 9 3 10 4 11 5 24 6 25 7 21 8 18 9 15 10 12 11 6 12
REMARK SMILES IDX 3 13 4 14 27 15 5 16 26 17 2 18 1 19 22 20 23 21 13 22 14 23
REMARK SMILES IDX 19 24 20 25 16 26 17 27
REMARK H PARENT
REMARK Flexibility Score: inf
ROOT
ATOM      1  C   UNL     1     107.106 121.134 119.387  1.00  0.00     0.138 A 
ATOM      2  C   UNL     1     106.829 122.366 118.788  1.00  0.00     0.100 A 
ATOM      3  C   UNL     1     105.524 122.662 118.409  1.00  0.00     0.197 A 
ATOM      4  O   UNL     1     105.297 123.778 117.866  1.00  0.00    -0.289 OA
ATOM      5  C   UNL     1     104.493 121.717 118.628  1.00  0.00     0.115 A 
ATOM      6  C   UNL     1     104.848 120.488 119.234  1.00  0.00     0.188 A 
ATOM      7  O   UNL     1     106.118 120.264 119.573  1.00  0.00    -0.452 OA
ATOM      8  C   UNL     1     103.861 119.507 119.494  1.00  0.00     0.209 A 
ATOM      9  C   UNL     1     102.521 119.738 119.092  1.00  0.00     0.211 A 
ATOM     10  C   UNL     1     102.169 120.961 118.461  1.00  0.00     0.208 A 
ATOM     11  C   UNL     1     103.148 121.968 118.270  1.00  0.00     0.179 A 
ENDROOT
BRANCH   1  12
ATOM     12  C   UNL     1     108.482 120.773 119.810  1.00  0.00     0.018 A 
ATOM     13  C   UNL     1     111.101 120.056 120.589  1.00  0.00     0.118 A 
ATOM     14  C   UNL     1     110.424 121.089 121.248  1.00  0.00     0.047 A 
ATOM     15  C   UNL     1     110.459 119.377 119.538  1.00  0.00     0.047 A 
ATOM     16  C   UNL     1     109.127 121.442 120.869  1.00  0.00     0.016 A 
ATOM     17  C   UNL     1     109.162 119.733 119.155  1.00  0.00     0.016 A 
BRANCH  13  18
ATOM     18  O   UNL     1     112.402 119.737 121.008  1.00  0.00    -0.497 OA
ATOM     19  C   UNL     1     113.499 120.645 120.985  1.00  0.00     0.278 C 
ENDBRANCH  13  18
ENDBRANCH   1  12
BRANCH   8  20
ATOM     20  O   UNL     1     104.156 118.301 120.160  1.00  0.00    -0.490 OA
ATOM     21  C   UNL     1     104.109 118.044 121.557  1.00  0.00     0.278 C 
ENDBRANCH   8  20
BRANCH  11  22
ATOM     22  O   UNL     1     102.837 123.229 117.718  1.00  0.00    -0.492 OA
ATOM     23  C   UNL     1     102.123 124.294 118.339  1.00  0.00     0.278 C 
ENDBRANCH  11  22
BRANCH   9  24
ATOM     24  O   UNL     1     101.498 118.793 119.308  1.00  0.00    -0.490 OA
ATOM     25  C   UNL     1     101.202 117.635 118.536  1.00  0.00     0.279 C 
ENDBRANCH   9  24
BRANCH  10  26
ATOM     26  O   UNL     1     100.866 121.219 117.988  1.00  0.00    -0.490 OA
ATOM     27  C   UNL     1     100.343 120.972 116.687  1.00  0.00     0.278 C 
ENDBRANCH  10  26
TORSDOF 6
ENDMDL
MODEL 3
REMARK VINA RESULT:    -5.302      3.410      6.575
REMARK INTER + INTRA:          -7.759
REMARK INTER:                  -7.055
REMARK INTRA:                  -0.704
REMARK UNBOUND:                -0.597
REMARK SMILES COc1ccc(-c2cc(=O)c3c(OC)c(OC)c(OC)c(OC)c3o2)cc1
REMARK SMILES IDX 7 1 8 2 9 3 10 4 11 5 24 6 25 7 21 8 18 9 15 10 12 11 6 12
REMARK SMILES IDX 3 13 4 14 27 15 5 16 26 17 2 18 1 19 22 20 23 21 13 22 14 23
REMARK SMILES IDX 19 24 20 25 16 26 17 27
REMARK H PARENT
REMARK Flexibility Score: inf
ROOT
ATOM      1  C   UNL     1     103.888 121.066 123.725  1.00  0.00     0.138 A 
ATOM      2  C   UNL     1     102.981 122.031 123.280  1.00  0.00     0.100 A 
ATOM      3  C   UNL     1     103.214 122.679 122.072  1.00  0.00     0.197 A 
ATOM      4  O   UNL     1     102.385 123.550 121.691  1.00  0.00    -0.289 OA
ATOM      5  C   UNL     1     104.364 122.361 121.309  1.00  0.00     0.115 A 
ATOM      6  C   UNL     1     105.241 121.378 121.825  1.00  0.00     0.188 A 
ATOM      7  O   UNL     1     104.963 120.794 122.991  1.00  0.00    -0.452 OA
ATOM      8  C   UNL     1     106.401 121.004 121.104  1.00  0.00     0.209 A 
ATOM      9  C   UNL     1     106.709 121.661 119.885  1.00  0.00     0.211 A 
ATOM     10  C   UNL     1     105.842 122.665 119.379  1.00  0.00     0.208 A 
ATOM     11  C   UNL     1     104.646 122.983 120.071  1.00  0.00     0.179 A 
ENDROOT
BRANCH   1  12
ATOM     12  C   UNL     1     103.682 120.345 125.007  1.00  0.00     0.018 A 
ATOM     13  C   UNL     1     103.306 119.005 127.465  1.00  0.00     0.118 A 
ATOM     14  C   UNL     1     102.975 118.378 126.259  1.00  0.00     0.047 A 
ATOM     15  C   UNL     1     103.832 120.309 127.437  1.00  0.00     0.047 A 
ATOM     16  C   UNL     1     103.165 119.035 125.041  1.00  0.00     0.016 A 
ATOM     17  C   UNL     1     104.019 120.970 126.219  1.00  0.00     0.016 A 
BRANCH  13  18
ATOM     18  O   UNL     1     103.099 118.302 128.662  1.00  0.00    -0.497 OA
ATOM     19  C   UNL     1     103.201 118.880 129.960  1.00  0.00     0.278 C 
ENDBRANCH  13  18
ENDBRANCH   1  12
BRANCH   8  20
ATOM     20  O   UNL     1     107.262 119.980 121.543  1.00  0.00    -0.490 OA
ATOM     21  C   UNL     1     108.345 120.085 122.458  1.00  0.00     0.278 C 
ENDBRANCH   8  20
BRANCH  11  22
ATOM     22  O   UNL     1     103.713 123.918 119.575  1.00  0.00    -0.492 OA
ATOM     23  C   UNL     1     102.897 123.794 118.413  1.00  0.00     0.278 C 
ENDBRANCH  11  22
BRANCH   9  24
ATOM     24  O   UNL     1     107.857 121.344 119.131  1.00  0.00    -0.490 OA
ATOM     25  C   UNL     1     109.178 121.845 119.299  1.00  0.00     0.279 C 
ENDBRANCH   9  24
BRANCH  10  26
ATOM     26  O   UNL     1     106.131 123.392 118.206  1.00  0.00    -0.490 OA
ATOM     27  C   UNL     1     106.828 124.627 118.092  1.00  0.00     0.278 C 
ENDBRANCH  10  26
TORSDOF 6
ENDMDL
MODEL 4
REMARK VINA RESULT:    -5.254      1.360      3.579
REMARK INTER + INTRA:          -7.694
REMARK INTER:                  -6.948
REMARK INTRA:                  -0.746
REMARK UNBOUND:                -0.597
REMARK SMILES COc1ccc(-c2cc(=O)c3c(OC)c(OC)c(OC)c(OC)c3o2)cc1
REMARK SMILES IDX 7 1 8 2 9 3 10 4 11 5 24 6 25 7 21 8 18 9 15 10 12 11 6 12
REMARK SMILES IDX 3 13 4 14 27 15 5 16 26 17 2 18 1 19 22 20 23 21 13 22 14 23
REMARK SMILES IDX 19 24 20 25 16 26 17 27
REMARK H PARENT
REMARK Flexibility Score: inf
ROOT
ATOM      1  C   UNL     1     106.225 121.896 119.991  1.00  0.00     0.138 A 
ATOM      2  C   UNL     1     105.967 122.279 118.672  1.00  0.00     0.100 A 
ATOM      3  C   UNL     1     104.706 122.761 118.337  1.00  0.00     0.197 A 
ATOM      4  O   UNL     1     104.492 123.096 117.140  1.00  0.00    -0.289 OA
ATOM      5  C   UNL     1     103.699 122.856 119.328  1.00  0.00     0.115 A 
ATOM      6  C   UNL     1     104.031 122.445 120.641  1.00  0.00     0.188 A 
ATOM      7  O   UNL     1     105.257 121.990 120.898  1.00  0.00    -0.452 OA
ATOM      8  C   UNL     1     103.074 122.529 121.681  1.00  0.00     0.209 A 
ATOM      9  C   UNL     1     101.760 122.975 121.388  1.00  0.00     0.211 A 
ATOM     10  C   UNL     1     101.419 123.364 120.065  1.00  0.00     0.208 A 
ATOM     11  C   UNL     1     102.403 123.346 119.046  1.00  0.00     0.179 A 
ENDROOT
BRANCH   1  12
ATOM     12  C   UNL     1     107.556 121.378 120.398  1.00  0.00     0.018 A 
ATOM     13  C   UNL     1     110.071 120.378 121.206  1.00  0.00     0.118 A 
ATOM     14  C   UNL     1     109.939 121.067 119.996  1.00  0.00     0.047 A 
ATOM     15  C   UNL     1     108.936 120.194 122.017  1.00  0.00     0.047 A 
ATOM     16  C   UNL     1     108.698 121.568 119.595  1.00  0.00     0.016 A 
ATOM     17  C   UNL     1     107.693 120.691 121.616  1.00  0.00     0.016 A 
BRANCH  13  18
ATOM     18  O   UNL     1     111.339 119.897 121.566  1.00  0.00    -0.497 OA
ATOM     19  C   UNL     1     112.550 120.249 120.901  1.00  0.00     0.278 C 
ENDBRANCH  13  18
ENDBRANCH   1  12
BRANCH   8  20
ATOM     20  O   UNL     1     103.382 122.200 123.015  1.00  0.00    -0.490 OA
ATOM     21  C   UNL     1     103.335 120.919 123.630  1.00  0.00     0.278 C 
ENDBRANCH   8  20
BRANCH  11  22
ATOM     22  O   UNL     1     102.139 123.792 117.733  1.00  0.00    -0.492 OA
ATOM     23  C   UNL     1     101.943 125.135 117.297  1.00  0.00     0.278 C 
ENDBRANCH  11  22
BRANCH   9  24
ATOM     24  O   UNL     1     100.759 123.064 122.377  1.00  0.00    -0.490 OA
ATOM     25  C   UNL     1      99.848 122.053 122.791  1.00  0.00     0.279 C 
ENDBRANCH   9  24
BRANCH  10  26
ATOM     26  O   UNL     1     100.113 123.757 119.706  1.00  0.00    -0.490 OA
ATOM     27  C   UNL     1      99.059 122.940 119.210  1.00  0.00     0.278 C 
ENDBRANCH  10  26
TORSDOF 6
ENDMDL
MODEL 5
REMARK VINA RESULT:    -5.249      2.646      3.747
REMARK INTER + INTRA:          -7.687
REMARK INTER:                  -7.004
REMARK INTRA:                  -0.683
REMARK UNBOUND:                -0.597
REMARK SMILES COc1ccc(-c2cc(=O)c3c(OC)c(OC)c(OC)c(OC)c3o2)cc1
REMARK SMILES IDX 7 1 8 2 9 3 10 4 11 5 24 6 25 7 21 8 18 9 15 10 12 11 6 12
REMARK SMILES IDX 3 13 4 14 27 15 5 16 26 17 2 18 1 19 22 20 23 21 13 22 14 23
REMARK SMILES IDX 19 24 20 25 16 26 17 27
REMARK H PARENT
REMARK Flexibility Score: inf
ROOT
ATOM      1  C   UNL     1     106.201 120.239 122.525  1.00  0.00     0.138 A 
ATOM      2  C   UNL     1     105.717 118.974 122.869  1.00  0.00     0.100 A 
ATOM      3  C   UNL     1     104.382 118.830 123.231  1.00  0.00     0.197 A 
ATOM      4  O   UNL     1     103.967 117.680 123.541  1.00  0.00    -0.289 OA
ATOM      5  C   UNL     1     103.530 119.961 123.250  1.00  0.00     0.115 A 
ATOM      6  C   UNL     1     104.090 121.210 122.896  1.00  0.00     0.188 A 
ATOM      7  O   UNL     1     105.379 121.283 122.561  1.00  0.00    -0.452 OA
ATOM      8  C   UNL     1     103.288 122.377 122.882  1.00  0.00     0.209 A 
ATOM      9  C   UNL     1     101.929 122.296 123.280  1.00  0.00     0.211 A 
ATOM     10  C   UNL     1     101.372 121.046 123.660  1.00  0.00     0.208 A 
ATOM     11  C   UNL     1     102.163 119.871 123.602  1.00  0.00     0.179 A 
ENDROOT
BRANCH   1  12
ATOM     12  C   UNL     1     107.618 120.443 122.131  1.00  0.00     0.018 A 
ATOM     13  C   UNL     1     110.302 120.852 121.350  1.00  0.00     0.118 A 
ATOM     14  C   UNL     1     110.001 120.043 122.451  1.00  0.00     0.047 A 
ATOM     15  C   UNL     1     109.251 121.455 120.635  1.00  0.00     0.047 A 
ATOM     16  C   UNL     1     108.675 119.834 122.837  1.00  0.00     0.016 A 
ATOM     17  C   UNL     1     107.924 121.250 121.022  1.00  0.00     0.016 A 
BRANCH  13  18
ATOM     18  O   UNL     1     111.649 121.030 121.001  1.00  0.00    -0.497 OA
ATOM     19  C   UNL     1     112.603 119.974 120.918  1.00  0.00     0.278 C 
ENDBRANCH  13  18
ENDBRANCH   1  12
BRANCH   8  20
ATOM     20  O   UNL     1     103.784 123.627 122.466  1.00  0.00    -0.490 OA
ATOM     21  C   UNL     1     103.990 124.084 121.135  1.00  0.00     0.278 C 
ENDBRANCH   8  20
BRANCH  11  22
ATOM     22  O   UNL     1     101.640 118.593 123.896  1.00  0.00    -0.492 OA
ATOM     23  C   UNL     1     100.717 117.835 123.118  1.00  0.00     0.278 C 
ENDBRANCH  11  22
BRANCH   9  24
ATOM     24  O   UNL     1     101.084 123.424 123.303  1.00  0.00    -0.490 OA
ATOM     25  C   UNL     1     100.934 124.381 124.344  1.00  0.00     0.279 C 
ENDBRANCH   9  24
BRANCH  10  26
ATOM     26  O   UNL     1     100.046 120.918 124.121  1.00  0.00    -0.490 OA
ATOM     27  C   UNL     1      99.574 121.003 125.461  1.00  0.00     0.278 C 
ENDBRANCH  10  26
TORSDOF 6
ENDMDL
MODEL 6
REMARK VINA RESULT:    -5.245      1.288      1.353
REMARK INTER + INTRA:          -7.681
REMARK INTER:                  -7.067
REMARK INTRA:                  -0.614
REMARK UNBOUND:                -0.597
REMARK SMILES COc1ccc(-c2cc(=O)c3c(OC)c(OC)c(OC)c(OC)c3o2)cc1
REMARK SMILES IDX 7 1 8 2 9 3 10 4 11 5 24 6 25 7 21 8 18 9 15 10 12 11 6 12
REMARK SMILES IDX 3 13 4 14 27 15 5 16 26 17 2 18 1 19 22 20 23 21 13 22 14 23
REMARK SMILES IDX 19 24 20 25 16 26 17 27
REMARK H PARENT
REMARK Flexibility Score: inf
ROOT
ATOM      1  C   UNL     1     106.732 121.119 121.690  1.00  0.00     0.138 A 
ATOM      2  C   UNL     1     106.102 120.770 122.887  1.00  0.00     0.100 A 
ATOM      3  C   UNL     1     104.776 121.136 123.091  1.00  0.00     0.197 A 
ATOM      4  O   UNL     1     104.228 120.815 124.181  1.00  0.00    -0.289 OA
ATOM      5  C   UNL     1     104.080 121.857 122.091  1.00  0.00     0.115 A 
ATOM      6  C   UNL     1     104.784 122.180 120.906  1.00  0.00     0.188 A 
ATOM      7  O   UNL     1     106.055 121.803 120.772  1.00  0.00    -0.452 OA
ATOM      8  C   UNL     1     104.140 122.887 119.862  1.00  0.00     0.209 A 
ATOM      9  C   UNL     1     102.800 123.320 120.032  1.00  0.00     0.211 A 
ATOM     10  C   UNL     1     102.101 123.017 121.230  1.00  0.00     0.208 A 
ATOM     11  C   UNL     1     102.729 122.247 122.241  1.00  0.00     0.179 A 
ENDROOT
BRANCH   1  12
ATOM     12  C   UNL     1     108.146 120.750 121.425  1.00  0.00     0.018 A 
ATOM     13  C   UNL     1     110.829 120.051 120.883  1.00  0.00     0.118 A 
ATOM     14  C   UNL     1     110.358 120.081 122.200  1.00  0.00     0.047 A 
ATOM     15  C   UNL     1     109.948 120.367 119.832  1.00  0.00     0.047 A 
ATOM     16  C   UNL     1     109.030 120.421 122.471  1.00  0.00     0.016 A 
ATOM     17  C   UNL     1     108.621 120.712 120.103  1.00  0.00     0.016 A 
BRANCH  13  18
ATOM     18  O   UNL     1     112.169 119.700 120.661  1.00  0.00    -0.497 OA
ATOM     19  C   UNL     1     113.278 120.555 120.929  1.00  0.00     0.278 C 
ENDBRANCH  13  18
ENDBRANCH   1  12
BRANCH   8  20
ATOM     20  O   UNL     1     104.778 123.166 118.637  1.00  0.00    -0.490 OA
ATOM     21  C   UNL     1     105.635 124.258 118.331  1.00  0.00     0.278 C 
ENDBRANCH   8  20
BRANCH  11  22
ATOM     22  O   UNL     1     102.056 121.854 123.418  1.00  0.00    -0.492 OA
ATOM     23  C   UNL     1     101.595 122.693 124.473  1.00  0.00     0.278 C 
ENDBRANCH  11  22
BRANCH   9  24
ATOM     24  O   UNL     1     102.112 124.041 119.035  1.00  0.00    -0.490 OA
ATOM     25  C   UNL     1     101.364 123.524 117.942  1.00  0.00     0.279 C 
ENDBRANCH   9  24
BRANCH  10  26
ATOM     26  O   UNL     1     100.791 123.474 121.476  1.00  0.00    -0.490 OA
ATOM     27  C   UNL     1      99.564 122.821 121.167  1.00  0.00     0.278 C 
ENDBRANCH  10  26
TORSDOF 6
ENDMDL
MODEL 7
REMARK VINA RESULT:    -5.240      4.192      6.057
REMARK INTER + INTRA:          -7.674
REMARK INTER:                  -7.091
REMARK INTRA:                  -0.583
REMARK UNBOUND:                -0.597
REMARK SMILES COc1ccc(-c2cc(=O)c3c(OC)c(OC)c(OC)c(OC)c3o2)cc1
REMARK SMILES IDX 7 1 8 2 9 3 10 4 11 5 24 6 25 7 21 8 18 9 15 10 12 11 6 12
REMARK SMILES IDX 3 13 4 14 27 15 5 16 26 17 2 18 1 19 22 20 23 21 13 22 14 23
REMARK SMILES IDX 19 24 20 25 16 26 17 27
REMARK H PARENT
REMARK Flexibility Score: inf
ROOT
ATOM      1  C   UNL     1     105.665 119.386 122.729  1.00  0.00     0.138 A 
ATOM      2  C   UNL     1     104.894 118.837 121.702  1.00  0.00     0.100 A 
ATOM      3  C   UNL     1     103.578 118.467 121.960  1.00  0.00     0.197 A 
ATOM      4  O   UNL     1     102.901 117.969 121.020  1.00  0.00    -0.289 OA
ATOM      5  C   UNL     1     103.035 118.646 123.256  1.00  0.00     0.115 A 
ATOM      6  C   UNL     1     103.877 119.204 124.248  1.00  0.00     0.188 A 
ATOM      7  O   UNL     1     105.130 119.535 123.938  1.00  0.00    -0.452 OA
ATOM      8  C   UNL     1     103.390 119.422 125.559  1.00  0.00     0.209 A 
ATOM      9  C   UNL     1     102.068 119.027 125.890  1.00  0.00     0.211 A 
ATOM     10  C   UNL     1     101.231 118.445 124.901  1.00  0.00     0.208 A 
ATOM     11  C   UNL     1     101.702 118.296 123.572  1.00  0.00     0.179 A 
ENDROOT
BRANCH   1  12
ATOM     12  C   UNL     1     107.074 119.798 122.503  1.00  0.00     0.018 A 
ATOM     13  C   UNL     1     109.741 120.605 122.042  1.00  0.00     0.118 A 
ATOM     14  C   UNL     1     109.456 119.601 122.975  1.00  0.00     0.047 A 
ATOM     15  C   UNL     1     108.683 121.202 121.334  1.00  0.00     0.047 A 
ATOM     16  C   UNL     1     108.139 119.196 123.201  1.00  0.00     0.016 A 
ATOM     17  C   UNL     1     107.364 120.800 121.562  1.00  0.00     0.016 A 
BRANCH  13  18
ATOM     18  O   UNL     1     111.081 120.975 121.849  1.00  0.00    -0.497 OA
ATOM     19  C   UNL     1     111.982 120.301 120.975  1.00  0.00     0.278 C 
ENDBRANCH  13  18
ENDBRANCH   1  12
BRANCH   8  20
ATOM     20  O   UNL     1     104.167 120.040 126.558  1.00  0.00    -0.490 OA
ATOM     21  C   UNL     1     104.062 121.372 127.044  1.00  0.00     0.278 C 
ENDBRANCH   8  20
BRANCH  11  22
ATOM     22  O   UNL     1     100.888 117.794 122.534  1.00  0.00    -0.492 OA
ATOM     23  C   UNL     1      99.753 118.420 121.944  1.00  0.00     0.278 C 
ENDBRANCH  11  22
BRANCH   9  24
ATOM     24  O   UNL     1     101.532 119.203 127.182  1.00  0.00    -0.490 OA
ATOM     25  C   UNL     1     101.873 118.502 128.371  1.00  0.00     0.279 C 
ENDBRANCH   9  24
BRANCH  10  26
ATOM     26  O   UNL     1      99.932 117.980 125.189  1.00  0.00    -0.490 OA
ATOM     27  C   UNL     1      99.542 116.674 125.601  1.00  0.00     0.278 C 
ENDBRANCH  10  26
TORSDOF 6
ENDMDL
MODEL 8
REMARK VINA RESULT:    -5.186      2.481      4.008
REMARK INTER + INTRA:          -7.602
REMARK INTER:                  -6.910
REMARK INTRA:                  -0.692
REMARK UNBOUND:                -0.597
REMARK SMILES COc1ccc(-c2cc(=O)c3c(OC)c(OC)c(OC)c(OC)c3o2)cc1
REMARK SMILES IDX 7 1 8 2 9 3 10 4 11 5 24 6 25 7 21 8 18 9 15 10 12 11 6 12
REMARK SMILES IDX 3 13 4 14 27 15 5 16 26 17 2 18 1 19 22 20 23 21 13 22 14 23
REMARK SMILES IDX 19 24 20 25 16 26 17 27
REMARK H PARENT
REMARK Flexibility Score: inf
ROOT
ATOM      1  C   UNL     1     105.923 122.077 119.215  1.00  0.00     0.138 A 
ATOM      2  C   UNL     1     105.693 123.425 118.923  1.00  0.00     0.100 A 
ATOM      3  C   UNL     1     104.492 123.798 118.330  1.00  0.00     0.197 A 
ATOM      4  O   UNL     1     104.307 125.019 118.071  1.00  0.00    -0.289 OA
ATOM      5  C   UNL     1     103.519 122.815 118.025  1.00  0.00     0.115 A 
ATOM      6  C   UNL     1     103.823 121.471 118.344  1.00  0.00     0.188 A 
ATOM      7  O   UNL     1     104.994 121.177 118.910  1.00  0.00    -0.452 OA
ATOM      8  C   UNL     1     102.887 120.443 118.078  1.00  0.00     0.209 A 
ATOM      9  C   UNL     1     101.661 120.760 117.437  1.00  0.00     0.211 A 
ATOM     10  C   UNL     1     101.366 122.106 117.095  1.00  0.00     0.208 A 
ATOM     11  C   UNL     1     102.278 123.139 117.430  1.00  0.00     0.179 A 
ENDROOT
BRANCH   1  12
ATOM     12  C   UNL     1     107.189 121.630 119.849  1.00  0.00     0.018 A 
ATOM     13  C   UNL     1     109.577 120.770 121.089  1.00  0.00     0.118 A 
ATOM     14  C   UNL     1     109.605 121.315 119.800  1.00  0.00     0.047 A 
ATOM     15  C   UNL     1     108.346 120.661 121.760  1.00  0.00     0.047 A 
ATOM     16  C   UNL     1     108.427 121.746 119.187  1.00  0.00     0.016 A 
ATOM     17  C   UNL     1     107.165 121.088 121.145  1.00  0.00     0.016 A 
BRANCH  13  18
ATOM     18  O   UNL     1     110.787 120.353 121.664  1.00  0.00    -0.497 OA
ATOM     19  C   UNL     1     111.861 119.762 120.936  1.00  0.00     0.278 C 
ENDBRANCH  13  18
ENDBRANCH   1  12
BRANCH   8  20
ATOM     20  O   UNL     1     103.116 119.102 118.444  1.00  0.00    -0.490 OA
ATOM     21  C   UNL     1     102.820 118.475 119.685  1.00  0.00     0.278 C 
ENDBRANCH   8  20
BRANCH  11  22
ATOM     22  O   UNL     1     102.001 124.500 117.180  1.00  0.00    -0.492 OA
ATOM     23  C   UNL     1     100.938 125.282 117.719  1.00  0.00     0.278 C 
ENDBRANCH  11  22
BRANCH   9  24
ATOM     24  O   UNL     1     100.697 119.779 117.132  1.00  0.00    -0.490 OA
ATOM     25  C   UNL     1     100.610 118.975 115.961  1.00  0.00     0.279 C 
ENDBRANCH   9  24
BRANCH  10  26
ATOM     26  O   UNL     1     100.192 122.470 116.404  1.00  0.00    -0.490 OA
ATOM     27  C   UNL     1     100.011 122.606 114.999  1.00  0.00     0.278 C 
ENDBRANCH  10  26
TORSDOF 6
ENDMDL
MODEL 9
REMARK VINA RESULT:    -5.123      2.863      4.941
REMARK INTER + INTRA:          -7.517
REMARK INTER:                  -6.808
REMARK INTRA:                  -0.709
REMARK UNBOUND:                -0.597
REMARK SMILES COc1ccc(-c2cc(=O)c3c(OC)c(OC)c(OC)c(OC)c3o2)cc1
REMARK SMILES IDX 7 1 8 2 9 3 10 4 11 5 24 6 25 7 21 8 18 9 15 10 12 11 6 12
REMARK SMILES IDX 3 13 4 14 27 15 5 16 26 17 2 18 1 19 22 20 23 21 13 22 14 23
REMARK SMILES IDX 19 24 20 25 16 26 17 27
REMARK H PARENT
REMARK Flexibility Score: inf
ROOT
ATOM      1  C   UNL     1     105.776 121.328 122.144  1.00  0.00     0.138 A 
ATOM      2  C   UNL     1     105.285 122.616 121.915  1.00  0.00     0.100 A 
ATOM      3  C   UNL     1     104.015 122.953 122.373  1.00  0.00     0.197 A 
ATOM      4  O   UNL     1     103.590 124.119 122.152  1.00  0.00    -0.289 OA
ATOM      5  C   UNL     1     103.234 121.992 123.061  1.00  0.00     0.115 A 
ATOM      6  C   UNL     1     103.795 120.707 123.251  1.00  0.00     0.188 A 
ATOM      7  O   UNL     1     105.016 120.445 122.786  1.00  0.00    -0.452 OA
ATOM      8  C   UNL     1     103.071 119.706 123.944  1.00  0.00     0.209 A 
ATOM      9  C   UNL     1     101.756 119.982 124.398  1.00  0.00     0.211 A 
ATOM     10  C   UNL     1     101.184 121.264 124.186  1.00  0.00     0.208 A 
ATOM     11  C   UNL     1     101.942 122.282 123.556  1.00  0.00     0.179 A 
ENDROOT
BRANCH   1  12
ATOM     12  C   UNL     1     107.125 120.921 121.675  1.00  0.00     0.018 A 
ATOM     13  C   UNL     1     109.701 120.136 120.821  1.00  0.00     0.118 A 
ATOM     14  C   UNL     1     108.810 120.737 119.925  1.00  0.00     0.047 A 
ATOM     15  C   UNL     1     109.298 119.933 122.154  1.00  0.00     0.047 A 
ATOM     16  C   UNL     1     107.538 121.132 120.345  1.00  0.00     0.016 A 
ATOM     17  C   UNL     1     108.024 120.323 122.574  1.00  0.00     0.016 A 
BRANCH  13  18
ATOM     18  O   UNL     1     110.968 119.760 120.352  1.00  0.00    -0.497 OA
ATOM     19  C   UNL     1     112.195 120.107 120.987  1.00  0.00     0.278 C 
ENDBRANCH  13  18
ENDBRANCH   1  12
BRANCH   8  20
ATOM     20  O   UNL     1     103.617 118.437 124.220  1.00  0.00    -0.490 OA
ATOM     21  C   UNL     1     103.603 117.284 123.389  1.00  0.00     0.278 C 
ENDBRANCH   8  20
BRANCH  11  22
ATOM     22  O   UNL     1     101.450 123.595 123.387  1.00  0.00    -0.492 OA
ATOM     23  C   UNL     1     101.077 124.518 124.406  1.00  0.00     0.278 C 
ENDBRANCH  11  22
BRANCH   9  24
ATOM     24  O   UNL     1     100.980 119.022 125.079  1.00  0.00    -0.490 OA
ATOM     25  C   UNL     1     100.109 118.047 124.518  1.00  0.00     0.279 C 
ENDBRANCH   9  24
BRANCH  10  26
ATOM     26  O   UNL     1      99.861 121.573 124.562  1.00  0.00    -0.490 OA
ATOM     27  C   UNL     1      98.678 121.452 123.780  1.00  0.00     0.278 C 
ENDBRANCH  10  26
TORSDOF 6
ENDMDL
