MODEL 1
REMARK VINA RESULT:    -6.453      0.000      0.000
REMARK INTER + INTRA:          -8.101
REMARK INTER:                  -7.774
REMARK INTRA:                  -0.328
REMARK UNBOUND:                -0.328
REMARK SMILES O=c1c(O)c(-c2ccc(O)c(O)c2)oc2cc(O)cc(O)c12
REMARK SMILES IDX 5 1 3 2 2 3 1 4 22 5 20 6 19 7 17 8 16 9 15 10 14 11 6 12
REMARK SMILES IDX 7 13 8 14 9 15 13 16 11 17 10 18 12 20 4 22 21 24 18 26
REMARK H PARENT 10 19 12 21 4 23 21 25 18 27
REMARK Flexibility Score: inf
ROOT
ATOM      1  C   UNL     1      14.319 -35.962  -2.567  1.00  0.00     0.180 A 
ATOM      2  C   UNL     1      14.264 -34.611  -2.182  1.00  0.00     0.208 A 
ATOM      3  C   UNL     1      13.104 -33.870  -2.459  1.00  0.00     0.238 A 
ATOM      4  O   UNL     1      13.091 -32.644  -2.178  1.00  0.00    -0.285 OA
ATOM      5  C   UNL     1      11.992 -34.503  -3.066  1.00  0.00     0.111 A 
ATOM      6  C   UNL     1      10.749 -33.860  -3.351  1.00  0.00     0.134 A 
ATOM      7  C   UNL     1       9.756 -34.558  -4.050  1.00  0.00     0.093 A 
ATOM      8  C   UNL     1       9.935 -35.891  -4.418  1.00  0.00     0.123 A 
ATOM      9  C   UNL     1      11.125 -36.545  -4.095  1.00  0.00     0.094 A 
ATOM     10  C   UNL     1      12.149 -35.865  -3.432  1.00  0.00     0.146 A 
ATOM     11  O   UNL     1      13.272 -36.518  -3.164  1.00  0.00    -0.452 OA
ENDROOT
BRANCH   1  12
ATOM     12  C   UNL     1      15.513 -36.803  -2.324  1.00  0.00     0.025 A 
ATOM     13  C   UNL     1      15.546 -37.643  -1.199  1.00  0.00     0.016 A 
ATOM     14  C   UNL     1      16.653 -38.462  -0.960  1.00  0.00     0.051 A 
ATOM     15  C   UNL     1      17.735 -38.465  -1.846  1.00  0.00     0.157 A 
ATOM     16  C   UNL     1      16.592 -36.823  -3.224  1.00  0.00     0.062 A 
ATOM     17  C   UNL     1      17.703 -37.645  -2.987  1.00  0.00     0.158 A 
BRANCH  15  18
ATOM     18  O   UNL     1      18.827 -39.290  -1.580  1.00  0.00    -0.504 OA
ATOM     19  H   UNL     1      18.737 -40.297  -1.512  1.00  0.00     0.293 HD
ENDBRANCH  15  18
BRANCH  17  20
ATOM     20  O   UNL     1      18.773 -37.655  -3.882  1.00  0.00    -0.504 OA
ATOM     21  H   UNL     1      18.627 -37.582  -4.883  1.00  0.00     0.293 HD
ENDBRANCH  17  20
ENDBRANCH   1  12
BRANCH   2  22
ATOM     22  O   UNL     1      15.345 -34.025  -1.515  1.00  0.00    -0.502 OA
ATOM     23  H   UNL     1      16.298 -34.103  -1.850  1.00  0.00     0.293 HD
ENDBRANCH   2  22
BRANCH   6  24
ATOM     24  O   UNL     1      10.429 -32.559  -2.952  1.00  0.00    -0.507 OA
ATOM     25  H   UNL     1       9.714 -31.985  -3.371  1.00  0.00     0.293 HD
ENDBRANCH   6  24
BRANCH   8  26
ATOM     26  O   UNL     1       8.918 -36.559  -5.097  1.00  0.00    -0.508 OA
ATOM     27  H   UNL     1       8.940 -37.564  -5.230  1.00  0.00     0.293 HD
ENDBRANCH   8  26
TORSDOF 6
ENDMDL
MODEL 2
REMARK VINA RESULT:    -6.421      1.427      3.285
REMARK INTER + INTRA:          -8.062
REMARK INTER:                  -7.815
REMARK INTRA:                  -0.247
REMARK UNBOUND:                -0.328
REMARK SMILES O=c1c(O)c(-c2ccc(O)c(O)c2)oc2cc(O)cc(O)c12
REMARK SMILES IDX 5 1 3 2 2 3 1 4 22 5 20 6 19 7 17 8 16 9 15 10 14 11 6 12
REMARK SMILES IDX 7 13 8 14 9 15 13 16 11 17 10 18 12 20 4 22 21 24 18 26
REMARK H PARENT 10 19 12 21 4 23 21 25 18 27
REMARK Flexibility Score: inf
ROOT
ATOM      1  C   UNL     1      14.840 -37.072  -3.170  1.00  0.00     0.180 A 
ATOM      2  C   UNL     1      13.900 -37.956  -3.728  1.00  0.00     0.208 A 
ATOM      3  C   UNL     1      12.591 -37.503  -3.957  1.00  0.00     0.238 A 
ATOM      4  O   UNL     1      11.737 -38.320  -4.387  1.00  0.00    -0.285 OA
ATOM      5  C   UNL     1      12.253 -36.156  -3.679  1.00  0.00     0.111 A 
ATOM      6  C   UNL     1      10.969 -35.576  -3.916  1.00  0.00     0.134 A 
ATOM      7  C   UNL     1      10.719 -34.261  -3.503  1.00  0.00     0.093 A 
ATOM      8  C   UNL     1      11.722 -33.485  -2.922  1.00  0.00     0.123 A 
ATOM      9  C   UNL     1      12.996 -34.024  -2.737  1.00  0.00     0.094 A 
ATOM     10  C   UNL     1      13.265 -35.345  -3.104  1.00  0.00     0.146 A 
ATOM     11  O   UNL     1      14.484 -35.825  -2.890  1.00  0.00    -0.452 OA
ENDROOT
BRANCH   1  12
ATOM     12  C   UNL     1      16.234 -37.482  -2.886  1.00  0.00     0.025 A 
ATOM     13  C   UNL     1      17.282 -36.931  -3.642  1.00  0.00     0.016 A 
ATOM     14  C   UNL     1      18.608 -37.286  -3.377  1.00  0.00     0.051 A 
ATOM     15  C   UNL     1      18.907 -38.182  -2.346  1.00  0.00     0.157 A 
ATOM     16  C   UNL     1      16.539 -38.366  -1.836  1.00  0.00     0.062 A 
ATOM     17  C   UNL     1      17.869 -38.722  -1.569  1.00  0.00     0.158 A 
BRANCH  15  18
ATOM     18  O   UNL     1      20.238 -38.520  -2.108  1.00  0.00    -0.504 OA
ATOM     19  H   UNL     1      20.499 -39.370  -1.622  1.00  0.00     0.293 HD
ENDBRANCH  15  18
BRANCH  17  20
ATOM     20  O   UNL     1      18.163 -39.605  -0.529  1.00  0.00    -0.504 OA
ATOM     21  H   UNL     1      17.719 -40.514  -0.465  1.00  0.00     0.293 HD
ENDBRANCH  17  20
ENDBRANCH   1  12
BRANCH   2  22
ATOM     22  O   UNL     1      14.275 -39.259  -4.067  1.00  0.00    -0.502 OA
ATOM     23  H   UNL     1      14.314 -40.008  -3.385  1.00  0.00     0.293 HD
ENDBRANCH   2  22
BRANCH   6  24
ATOM     24  O   UNL     1       9.921 -36.232  -4.568  1.00  0.00    -0.507 OA
ATOM     25  H   UNL     1       9.227 -36.806  -4.115  1.00  0.00     0.293 HD
ENDBRANCH   6  24
BRANCH   8  26
ATOM     26  O   UNL     1      11.442 -32.175  -2.540  1.00  0.00    -0.508 OA
ATOM     27  H   UNL     1      11.698 -31.386  -3.123  1.00  0.00     0.293 HD
ENDBRANCH   8  26
TORSDOF 6
ENDMDL
MODEL 3
REMARK VINA RESULT:    -6.259      0.648      1.443
REMARK INTER + INTRA:          -7.867
REMARK INTER:                  -7.607
REMARK INTRA:                  -0.261
REMARK UNBOUND:                -0.328
REMARK SMILES O=c1c(O)c(-c2ccc(O)c(O)c2)oc2cc(O)cc(O)c12
REMARK SMILES IDX 5 1 3 2 2 3 1 4 22 5 20 6 19 7 17 8 16 9 15 10 14 11 6 12
REMARK SMILES IDX 7 13 8 14 9 15 13 16 11 17 10 18 12 20 4 22 21 24 18 26
REMARK H PARENT 10 19 12 21 4 23 21 25 18 27
REMARK Flexibility Score: inf
ROOT
ATOM      1  C   UNL     1      14.500 -36.032  -2.775  1.00  0.00     0.180 A 
ATOM      2  C   UNL     1      14.382 -34.673  -2.438  1.00  0.00     0.208 A 
ATOM      3  C   UNL     1      13.176 -34.006  -2.707  1.00  0.00     0.238 A 
ATOM      4  O   UNL     1      13.103 -32.772  -2.472  1.00  0.00    -0.285 OA
ATOM      5  C   UNL     1      12.083 -34.721  -3.257  1.00  0.00     0.111 A 
ATOM      6  C   UNL     1      10.799 -34.158  -3.529  1.00  0.00     0.134 A 
ATOM      7  C   UNL     1       9.827 -34.934  -4.172  1.00  0.00     0.093 A 
ATOM      8  C   UNL     1      10.069 -36.268  -4.496  1.00  0.00     0.123 A 
ATOM      9  C   UNL     1      11.302 -36.845  -4.185  1.00  0.00     0.094 A 
ATOM     10  C   UNL     1      12.305 -36.085  -3.578  1.00  0.00     0.146 A 
ATOM     11  O   UNL     1      13.469 -36.667  -3.319  1.00  0.00    -0.452 OA
ENDROOT
BRANCH   1  12
ATOM     12  C   UNL     1      15.745 -36.798  -2.535  1.00  0.00     0.025 A 
ATOM     13  C   UNL     1      16.855 -36.586  -3.369  1.00  0.00     0.016 A 
ATOM     14  C   UNL     1      18.047 -37.282  -3.150  1.00  0.00     0.051 A 
ATOM     15  C   UNL     1      18.154 -38.185  -2.088  1.00  0.00     0.157 A 
ATOM     16  C   UNL     1      15.861 -37.690  -1.456  1.00  0.00     0.062 A 
ATOM     17  C   UNL     1      17.057 -38.388  -1.233  1.00  0.00     0.158 A 
BRANCH  15  18
ATOM     18  O   UNL     1      19.354 -38.866  -1.896  1.00  0.00    -0.504 OA
ATOM     19  H   UNL     1      19.741 -39.026  -0.973  1.00  0.00     0.293 HD
ENDBRANCH  15  18
BRANCH  17  20
ATOM     20  O   UNL     1      17.161 -39.277  -0.163  1.00  0.00    -0.504 OA
ATOM     21  H   UNL     1      17.119 -40.280  -0.301  1.00  0.00     0.293 HD
ENDBRANCH  17  20
ENDBRANCH   1  12
BRANCH   2  22
ATOM     22  O   UNL     1      15.446 -34.004  -1.825  1.00  0.00    -0.502 OA
ATOM     23  H   UNL     1      15.441 -33.004  -1.665  1.00  0.00     0.293 HD
ENDBRANCH   2  22
BRANCH   6  24
ATOM     24  O   UNL     1      10.420 -32.861  -3.169  1.00  0.00    -0.507 OA
ATOM     25  H   UNL     1       9.474 -32.566  -2.985  1.00  0.00     0.293 HD
ENDBRANCH   6  24
BRANCH   8  26
ATOM     26  O   UNL     1       9.072 -37.016  -5.120  1.00  0.00    -0.508 OA
ATOM     27  H   UNL     1       9.266 -37.574  -5.944  1.00  0.00     0.293 HD
ENDBRANCH   8  26
TORSDOF 6
ENDMDL
MODEL 4
REMARK VINA RESULT:    -6.011      2.831      7.499
REMARK INTER + INTRA:          -7.569
REMARK INTER:                  -7.237
REMARK INTRA:                  -0.332
REMARK UNBOUND:                -0.328
REMARK SMILES O=c1c(O)c(-c2ccc(O)c(O)c2)oc2cc(O)cc(O)c12
REMARK SMILES IDX 5 1 3 2 2 3 1 4 22 5 20 6 19 7 17 8 16 9 15 10 14 11 6 12
REMARK SMILES IDX 7 13 8 14 9 15 13 16 11 17 10 18 12 20 4 22 21 24 18 26
REMARK H PARENT 10 19 12 21 4 23 21 25 18 27
REMARK Flexibility Score: inf
ROOT
ATOM      1  C   UNL     1      14.685 -34.730   0.085  1.00  0.00     0.180 A 
ATOM      2  C   UNL     1      15.224 -34.129   1.235  1.00  0.00     0.208 A 
ATOM      3  C   UNL     1      16.299 -34.752   1.890  1.00  0.00     0.238 A 
ATOM      4  O   UNL     1      16.728 -34.247   2.959  1.00  0.00    -0.285 OA
ATOM      5  C   UNL     1      16.858 -35.938   1.354  1.00  0.00     0.111 A 
ATOM      6  C   UNL     1      17.979 -36.629   1.908  1.00  0.00     0.134 A 
ATOM      7  C   UNL     1      18.379 -37.851   1.354  1.00  0.00     0.093 A 
ATOM      8  C   UNL     1      17.742 -38.375   0.229  1.00  0.00     0.123 A 
ATOM      9  C   UNL     1      16.682 -37.679  -0.354  1.00  0.00     0.094 A 
ATOM     10  C   UNL     1      16.235 -36.477   0.199  1.00  0.00     0.146 A 
ATOM     11  O   UNL     1      15.209 -35.860  -0.374  1.00  0.00    -0.452 OA
ENDROOT
BRANCH   1  12
ATOM     12  C   UNL     1      13.542 -34.141  -0.649  1.00  0.00     0.025 A 
ATOM     13  C   UNL     1      13.788 -33.317  -1.760  1.00  0.00     0.016 A 
ATOM     14  C   UNL     1      12.724 -32.768  -2.481  1.00  0.00     0.051 A 
ATOM     15  C   UNL     1      11.403 -33.045  -2.116  1.00  0.00     0.157 A 
ATOM     16  C   UNL     1      12.213 -34.435  -0.296  1.00  0.00     0.062 A 
ATOM     17  C   UNL     1      11.145 -33.886  -1.020  1.00  0.00     0.158 A 
BRANCH  15  18
ATOM     18  O   UNL     1      10.364 -32.480  -2.853  1.00  0.00    -0.504 OA
ATOM     19  H   UNL     1      10.353 -32.493  -3.866  1.00  0.00     0.293 HD
ENDBRANCH  15  18
BRANCH  17  20
ATOM     20  O   UNL     1       9.830 -34.177  -0.659  1.00  0.00    -0.504 OA
ATOM     21  H   UNL     1       9.247 -33.498  -0.185  1.00  0.00     0.293 HD
ENDBRANCH  17  20
ENDBRANCH   1  12
BRANCH   2  22
ATOM     22  O   UNL     1      14.707 -32.917   1.704  1.00  0.00    -0.502 OA
ATOM     23  H   UNL     1      15.007 -32.500   2.577  1.00  0.00     0.293 HD
ENDBRANCH   2  22
BRANCH   6  24
ATOM     24  O   UNL     1      18.743 -36.153   2.978  1.00  0.00    -0.507 OA
ATOM     25  H   UNL     1      18.457 -36.168   3.944  1.00  0.00     0.293 HD
ENDBRANCH   6  24
BRANCH   8  26
ATOM     26  O   UNL     1      18.178 -39.585  -0.306  1.00  0.00    -0.508 OA
ATOM     27  H   UNL     1      17.824 -39.932  -1.191  1.00  0.00     0.293 HD
ENDBRANCH   8  26
TORSDOF 6
ENDMDL
MODEL 5
REMARK VINA RESULT:    -5.955      3.430      6.210
REMARK INTER + INTRA:          -7.501
REMARK INTER:                  -7.348
REMARK INTRA:                  -0.153
REMARK UNBOUND:                -0.328
REMARK SMILES O=c1c(O)c(-c2ccc(O)c(O)c2)oc2cc(O)cc(O)c12
REMARK SMILES IDX 5 1 3 2 2 3 1 4 22 5 20 6 19 7 17 8 16 9 15 10 14 11 6 12
REMARK SMILES IDX 7 13 8 14 9 15 13 16 11 17 10 18 12 20 4 22 21 24 18 26
REMARK H PARENT 10 19 12 21 4 23 21 25 18 27
REMARK Flexibility Score: inf
ROOT
ATOM      1  C   UNL     1      15.401 -38.143  -2.145  1.00  0.00     0.180 A 
ATOM      2  C   UNL     1      16.728 -38.475  -1.821  1.00  0.00     0.208 A 
ATOM      3  C   UNL     1      17.407 -37.711  -0.858  1.00  0.00     0.238 A 
ATOM      4  O   UNL     1      18.617 -37.968  -0.629  1.00  0.00    -0.285 OA
ATOM      5  C   UNL     1      16.733 -36.661  -0.189  1.00  0.00     0.111 A 
ATOM      6  C   UNL     1      17.308 -35.852   0.838  1.00  0.00     0.134 A 
ATOM      7  C   UNL     1      16.581 -34.772   1.355  1.00  0.00     0.093 A 
ATOM      8  C   UNL     1      15.278 -34.512   0.930  1.00  0.00     0.123 A 
ATOM      9  C   UNL     1      14.686 -35.331  -0.032  1.00  0.00     0.094 A 
ATOM     10  C   UNL     1      15.400 -36.392  -0.595  1.00  0.00     0.146 A 
ATOM     11  O   UNL     1      14.807 -37.132  -1.523  1.00  0.00    -0.452 OA
ENDROOT
BRANCH   1  12
ATOM     12  C   UNL     1      14.627 -38.891  -3.160  1.00  0.00     0.025 A 
ATOM     13  C   UNL     1      14.294 -40.234  -2.921  1.00  0.00     0.016 A 
ATOM     14  C   UNL     1      13.545 -40.955  -3.856  1.00  0.00     0.051 A 
ATOM     15  C   UNL     1      13.105 -40.342  -5.033  1.00  0.00     0.157 A 
ATOM     16  C   UNL     1      14.166 -38.271  -4.335  1.00  0.00     0.062 A 
ATOM     17  C   UNL     1      13.413 -38.992  -5.273  1.00  0.00     0.158 A 
BRANCH  15  18
ATOM     18  O   UNL     1      12.363 -41.086  -5.948  1.00  0.00    -0.504 OA
ATOM     19  H   UNL     1      11.956 -41.983  -5.709  1.00  0.00     0.293 HD
ENDBRANCH  15  18
BRANCH  17  20
ATOM     20  O   UNL     1      12.965 -38.371  -6.439  1.00  0.00    -0.504 OA
ATOM     21  H   UNL     1      12.213 -37.692  -6.422  1.00  0.00     0.293 HD
ENDBRANCH  17  20
ENDBRANCH   1  12
BRANCH   2  22
ATOM     22  O   UNL     1      17.351 -39.564  -2.439  1.00  0.00    -0.502 OA
ATOM     23  H   UNL     1      17.070 -39.907  -3.350  1.00  0.00     0.293 HD
ENDBRANCH   2  22
BRANCH   6  24
ATOM     24  O   UNL     1      18.569 -36.076   1.399  1.00  0.00    -0.507 OA
ATOM     25  H   UNL     1      19.296 -36.634   0.980  1.00  0.00     0.293 HD
ENDBRANCH   6  24
BRANCH   8  26
ATOM     26  O   UNL     1      14.578 -33.440   1.480  1.00  0.00    -0.508 OA
ATOM     27  H   UNL     1      14.792 -33.085   2.405  1.00  0.00     0.293 HD
ENDBRANCH   8  26
TORSDOF 6
ENDMDL
MODEL 6
REMARK VINA RESULT:    -5.908     11.367     13.254
REMARK INTER + INTRA:          -7.445
REMARK INTER:                  -7.123
REMARK INTRA:                  -0.322
REMARK UNBOUND:                -0.328
REMARK SMILES O=c1c(O)c(-c2ccc(O)c(O)c2)oc2cc(O)cc(O)c12
REMARK SMILES IDX 5 1 3 2 2 3 1 4 22 5 20 6 19 7 17 8 16 9 15 10 14 11 6 12
REMARK SMILES IDX 7 13 8 14 9 15 13 16 11 17 10 18 12 20 4 22 21 24 18 26
REMARK H PARENT 10 19 12 21 4 23 21 25 18 27
REMARK Flexibility Score: inf
ROOT
ATOM      1  C   UNL     1      25.531 -39.396  -5.940  1.00  0.00     0.180 A 
ATOM      2  C   UNL     1      26.272 -40.588  -5.877  1.00  0.00     0.208 A 
ATOM      3  C   UNL     1      25.737 -41.755  -6.446  1.00  0.00     0.238 A 
ATOM      4  O   UNL     1      26.372 -42.834  -6.319  1.00  0.00    -0.285 OA
ATOM      5  C   UNL     1      24.494 -41.703  -7.122  1.00  0.00     0.111 A 
ATOM      6  C   UNL     1      23.878 -42.813  -7.775  1.00  0.00     0.134 A 
ATOM      7  C   UNL     1      22.596 -42.669  -8.321  1.00  0.00     0.093 A 
ATOM      8  C   UNL     1      21.935 -41.442  -8.293  1.00  0.00     0.123 A 
ATOM      9  C   UNL     1      22.551 -40.336  -7.706  1.00  0.00     0.094 A 
ATOM     10  C   UNL     1      23.813 -40.457  -7.119  1.00  0.00     0.146 A 
ATOM     11  O   UNL     1      24.353 -39.386  -6.552  1.00  0.00    -0.452 OA
ENDROOT
BRANCH   1  12
ATOM     12  C   UNL     1      26.023 -38.130  -5.350  1.00  0.00     0.025 A 
ATOM     13  C   UNL     1      25.708 -37.824  -4.016  1.00  0.00     0.016 A 
ATOM     14  C   UNL     1      26.178 -36.645  -3.431  1.00  0.00     0.051 A 
ATOM     15  C   UNL     1      26.981 -35.764  -4.162  1.00  0.00     0.157 A 
ATOM     16  C   UNL     1      26.846 -37.253  -6.077  1.00  0.00     0.062 A 
ATOM     17  C   UNL     1      27.321 -36.071  -5.490  1.00  0.00     0.158 A 
BRANCH  15  18
ATOM     18  O   UNL     1      27.432 -34.595  -3.553  1.00  0.00    -0.504 OA
ATOM     19  H   UNL     1      26.845 -33.773  -3.463  1.00  0.00     0.293 HD
ENDBRANCH  15  18
BRANCH  17  20
ATOM     20  O   UNL     1      28.133 -35.203  -6.221  1.00  0.00    -0.504 OA
ATOM     21  H   UNL     1      29.018 -35.506  -6.610  1.00  0.00     0.293 HD
ENDBRANCH  17  20
ENDBRANCH   1  12
BRANCH   2  22
ATOM     22  O   UNL     1      27.533 -40.602  -5.272  1.00  0.00    -0.502 OA
ATOM     23  H   UNL     1      28.329 -40.110  -5.661  1.00  0.00     0.293 HD
ENDBRANCH   2  22
BRANCH   6  24
ATOM     24  O   UNL     1      24.485 -44.062  -7.938  1.00  0.00    -0.507 OA
ATOM     25  H   UNL     1      25.006 -44.549  -7.226  1.00  0.00     0.293 HD
ENDBRANCH   6  24
BRANCH   8  26
ATOM     26  O   UNL     1      20.667 -41.331  -8.861  1.00  0.00    -0.508 OA
ATOM     27  H   UNL     1      19.832 -41.284  -8.288  1.00  0.00     0.293 HD
ENDBRANCH   8  26
TORSDOF 6
ENDMDL
MODEL 7
REMARK VINA RESULT:    -5.906      1.941      7.393
REMARK INTER + INTRA:          -7.442
REMARK INTER:                  -7.183
REMARK INTRA:                  -0.259
REMARK UNBOUND:                -0.328
REMARK SMILES O=c1c(O)c(-c2ccc(O)c(O)c2)oc2cc(O)cc(O)c12
REMARK SMILES IDX 5 1 3 2 2 3 1 4 22 5 20 6 19 7 17 8 16 9 15 10 14 11 6 12
REMARK SMILES IDX 7 13 8 14 9 15 13 16 11 17 10 18 12 20 4 22 21 24 18 26
REMARK H PARENT 10 19 12 21 4 23 21 25 18 27
REMARK Flexibility Score: inf
ROOT
ATOM      1  C   UNL     1      14.577 -36.096  -1.669  1.00  0.00     0.180 A 
ATOM      2  C   UNL     1      15.163 -36.931  -2.635  1.00  0.00     0.208 A 
ATOM      3  C   UNL     1      16.222 -37.772  -2.257  1.00  0.00     0.238 A 
ATOM      4  O   UNL     1      16.790 -38.461  -3.143  1.00  0.00    -0.285 OA
ATOM      5  C   UNL     1      16.643 -37.811  -0.905  1.00  0.00     0.111 A 
ATOM      6  C   UNL     1      17.675 -38.660  -0.401  1.00  0.00     0.134 A 
ATOM      7  C   UNL     1      18.079 -38.536   0.934  1.00  0.00     0.093 A 
ATOM      8  C   UNL     1      17.448 -37.642   1.798  1.00  0.00     0.123 A 
ATOM      9  C   UNL     1      16.401 -36.847   1.329  1.00  0.00     0.094 A 
ATOM     10  C   UNL     1      16.000 -36.920  -0.007  1.00  0.00     0.146 A 
ATOM     11  O   UNL     1      15.015 -36.131  -0.416  1.00  0.00    -0.452 OA
ENDROOT
BRANCH   1  12
ATOM     12  C   UNL     1      13.468 -35.171  -1.995  1.00  0.00     0.025 A 
ATOM     13  C   UNL     1      13.736 -33.800  -2.147  1.00  0.00     0.016 A 
ATOM     14  C   UNL     1      12.709 -32.911  -2.475  1.00  0.00     0.051 A 
ATOM     15  C   UNL     1      11.405 -33.378  -2.672  1.00  0.00     0.157 A 
ATOM     16  C   UNL     1      12.161 -35.640  -2.213  1.00  0.00     0.062 A 
ATOM     17  C   UNL     1      11.130 -34.749  -2.545  1.00  0.00     0.158 A 
BRANCH  15  18
ATOM     18  O   UNL     1      10.401 -32.467  -2.996  1.00  0.00    -0.504 OA
ATOM     19  H   UNL     1      10.601 -31.493  -3.195  1.00  0.00     0.293 HD
ENDBRANCH  15  18
BRANCH  17  20
ATOM     20  O   UNL     1       9.835 -35.223  -2.754  1.00  0.00    -0.504 OA
ATOM     21  H   UNL     1       9.165 -34.707  -3.312  1.00  0.00     0.293 HD
ENDBRANCH  17  20
ENDBRANCH   1  12
BRANCH   2  22
ATOM     22  O   UNL     1      14.682 -36.933  -3.948  1.00  0.00    -0.502 OA
ATOM     23  H   UNL     1      14.940 -36.223  -4.623  1.00  0.00     0.293 HD
ENDBRANCH   2  22
BRANCH   6  24
ATOM     24  O   UNL     1      18.313 -39.650  -1.154  1.00  0.00    -0.507 OA
ATOM     25  H   UNL     1      18.288 -39.718  -2.159  1.00  0.00     0.293 HD
ENDBRANCH   6  24
BRANCH   8  26
ATOM     26  O   UNL     1      17.865 -37.558   3.125  1.00  0.00    -0.508 OA
ATOM     27  H   UNL     1      17.402 -36.947   3.788  1.00  0.00     0.293 HD
ENDBRANCH   8  26
TORSDOF 6
ENDMDL
MODEL 8
REMARK VINA RESULT:    -5.906      2.153      3.932
REMARK INTER + INTRA:          -7.442
REMARK INTER:                  -7.237
REMARK INTRA:                  -0.205
REMARK UNBOUND:                -0.328
REMARK SMILES O=c1c(O)c(-c2ccc(O)c(O)c2)oc2cc(O)cc(O)c12
REMARK SMILES IDX 5 1 3 2 2 3 1 4 22 5 20 6 19 7 17 8 16 9 15 10 14 11 6 12
REMARK SMILES IDX 7 13 8 14 9 15 13 16 11 17 10 18 12 20 4 22 21 24 18 26
REMARK H PARENT 10 19 12 21 4 23 21 25 18 27
REMARK Flexibility Score: inf
ROOT
ATOM      1  C   UNL     1      15.679 -36.136  -1.850  1.00  0.00     0.180 A 
ATOM      2  C   UNL     1      14.666 -36.164  -2.824  1.00  0.00     0.208 A 
ATOM      3  C   UNL     1      13.600 -35.256  -2.726  1.00  0.00     0.238 A 
ATOM      4  O   UNL     1      12.661 -35.336  -3.559  1.00  0.00    -0.285 OA
ATOM      5  C   UNL     1      13.589 -34.292  -1.688  1.00  0.00     0.111 A 
ATOM      6  C   UNL     1      12.582 -33.293  -1.519  1.00  0.00     0.134 A 
ATOM      7  C   UNL     1      12.619 -32.460  -0.393  1.00  0.00     0.093 A 
ATOM      8  C   UNL     1      13.656 -32.546   0.534  1.00  0.00     0.123 A 
ATOM      9  C   UNL     1      14.675 -33.482   0.348  1.00  0.00     0.094 A 
ATOM     10  C   UNL     1      14.647 -34.353  -0.744  1.00  0.00     0.146 A 
ATOM     11  O   UNL     1      15.623 -35.242  -0.870  1.00  0.00    -0.452 OA
ENDROOT
BRANCH   1  12
ATOM     12  C   UNL     1      16.826 -37.072  -1.878  1.00  0.00     0.025 A 
ATOM     13  C   UNL     1      17.807 -36.930  -2.873  1.00  0.00     0.016 A 
ATOM     14  C   UNL     1      18.909 -37.789  -2.907  1.00  0.00     0.051 A 
ATOM     15  C   UNL     1      19.056 -38.789  -1.940  1.00  0.00     0.157 A 
ATOM     16  C   UNL     1      16.986 -38.064  -0.895  1.00  0.00     0.062 A 
ATOM     17  C   UNL     1      18.093 -38.925  -0.927  1.00  0.00     0.158 A 
BRANCH  15  18
ATOM     18  O   UNL     1      20.164 -39.632  -2.001  1.00  0.00    -0.504 OA
ATOM     19  H   UNL     1      21.003 -39.460  -1.458  1.00  0.00     0.293 HD
ENDBRANCH  15  18
BRANCH  17  20
ATOM     20  O   UNL     1      18.241 -39.911   0.049  1.00  0.00    -0.504 OA
ATOM     21  H   UNL     1      17.824 -40.829  -0.057  1.00  0.00     0.293 HD
ENDBRANCH  17  20
ENDBRANCH   1  12
BRANCH   2  22
ATOM     22  O   UNL     1      14.735 -37.073  -3.884  1.00  0.00    -0.502 OA
ATOM     23  H   UNL     1      15.385 -36.962  -4.654  1.00  0.00     0.293 HD
ENDBRANCH   2  22
BRANCH   6  24
ATOM     24  O   UNL     1      11.548 -33.060  -2.430  1.00  0.00    -0.507 OA
ATOM     25  H   UNL     1      11.200 -33.735  -3.093  1.00  0.00     0.293 HD
ENDBRANCH   6  24
BRANCH   8  26
ATOM     26  O   UNL     1      13.670 -31.690   1.632  1.00  0.00    -0.508 OA
ATOM     27  H   UNL     1      13.991 -30.732   1.554  1.00  0.00     0.293 HD
ENDBRANCH   8  26
TORSDOF 6
ENDMDL
MODEL 9
REMARK VINA RESULT:    -5.707     12.361     14.723
REMARK INTER + INTRA:          -7.203
REMARK INTER:                  -6.900
REMARK INTRA:                  -0.303
REMARK UNBOUND:                -0.328
REMARK SMILES O=c1c(O)c(-c2ccc(O)c(O)c2)oc2cc(O)cc(O)c12
REMARK SMILES IDX 5 1 3 2 2 3 1 4 22 5 20 6 19 7 17 8 16 9 15 10 14 11 6 12
REMARK SMILES IDX 7 13 8 14 9 15 13 16 11 17 10 18 12 20 4 22 21 24 18 26
REMARK H PARENT 10 19 12 21 4 23 21 25 18 27
REMARK Flexibility Score: inf
ROOT
ATOM      1  C   UNL     1      27.098 -32.921  -0.959  1.00  0.00     0.180 A 
ATOM      2  C   UNL     1      26.038 -33.414  -0.180  1.00  0.00     0.208 A 
ATOM      3  C   UNL     1      25.679 -34.767  -0.294  1.00  0.00     0.238 A 
ATOM      4  O   UNL     1      24.683 -35.183   0.350  1.00  0.00    -0.285 OA
ATOM      5  C   UNL     1      26.422 -35.623  -1.143  1.00  0.00     0.111 A 
ATOM      6  C   UNL     1      26.178 -37.022  -1.302  1.00  0.00     0.134 A 
ATOM      7  C   UNL     1      26.909 -37.747  -2.250  1.00  0.00     0.093 A 
ATOM      8  C   UNL     1      27.918 -37.143  -2.999  1.00  0.00     0.123 A 
ATOM      9  C   UNL     1      28.203 -35.789  -2.812  1.00  0.00     0.094 A 
ATOM     10  C   UNL     1      27.465 -35.029  -1.901  1.00  0.00     0.146 A 
ATOM     11  O   UNL     1      27.755 -33.741  -1.771  1.00  0.00    -0.452 OA
ENDROOT
BRANCH   1  12
ATOM     12  C   UNL     1      27.523 -31.504  -0.905  1.00  0.00     0.025 A 
ATOM     13  C   UNL     1      28.386 -31.082   0.120  1.00  0.00     0.016 A 
ATOM     14  C   UNL     1      28.817 -29.754   0.179  1.00  0.00     0.051 A 
ATOM     15  C   UNL     1      28.408 -28.833  -0.791  1.00  0.00     0.157 A 
ATOM     16  C   UNL     1      27.130 -30.582  -1.891  1.00  0.00     0.062 A 
ATOM     17  C   UNL     1      27.563 -29.249  -1.833  1.00  0.00     0.158 A 
BRANCH  15  18
ATOM     18  O   UNL     1      28.852 -27.515  -0.703  1.00  0.00    -0.504 OA
ATOM     19  H   UNL     1      29.078 -27.080   0.184  1.00  0.00     0.293 HD
ENDBRANCH  15  18
BRANCH  17  20
ATOM     20  O   UNL     1      27.163 -28.339  -2.812  1.00  0.00    -0.504 OA
ATOM     21  H   UNL     1      27.668 -27.475  -2.970  1.00  0.00     0.293 HD
ENDBRANCH  17  20
ENDBRANCH   1  12
BRANCH   2  22
ATOM     22  O   UNL     1      25.366 -32.570   0.709  1.00  0.00    -0.502 OA
ATOM     23  H   UNL     1      25.754 -32.307   1.608  1.00  0.00     0.293 HD
ENDBRANCH   2  22
BRANCH   6  24
ATOM     24  O   UNL     1      25.253 -37.746  -0.543  1.00  0.00    -0.507 OA
ATOM     25  H   UNL     1      24.864 -37.444   0.336  1.00  0.00     0.293 HD
ENDBRANCH   6  24
BRANCH   8  26
ATOM     26  O   UNL     1      28.637 -37.900  -3.921  1.00  0.00    -0.508 OA
ATOM     27  H   UNL     1      29.258 -38.645  -3.626  1.00  0.00     0.293 HD
ENDBRANCH   8  26
TORSDOF 6
ENDMDL
