MODEL 1
REMARK VINA RESULT:    -7.312      0.000      0.000
REMARK INTER + INTRA:          -8.663
REMARK INTER:                  -8.808
REMARK INTRA:                   0.145
REMARK UNBOUND:                 0.145
REMARK SMILES O=c1c(O)c(-c2ccc(O)c(O)c2)oc2cc(O)cc(O)c12
REMARK SMILES IDX 5 1 3 2 2 3 1 4 22 5 20 6 19 7 17 8 16 9 15 10 14 11 6 12
REMARK SMILES IDX 7 13 8 14 9 15 13 16 11 17 10 18 12 20 4 22 21 24 18 26
REMARK H PARENT 10 19 12 21 4 23 21 25 18 27
REMARK Flexibility Score: inf
ROOT
ATOM      1  C   UNL     1       4.087  36.975  27.932  1.00  0.00     0.180 A 
ATOM      2  C   UNL     1       4.098  37.408  29.270  1.00  0.00     0.208 A 
ATOM      3  C   UNL     1       3.488  36.607  30.249  1.00  0.00     0.238 A 
ATOM      4  O   UNL     1       3.566  36.964  31.453  1.00  0.00    -0.285 OA
ATOM      5  C   UNL     1       2.826  35.414  29.872  1.00  0.00     0.111 A 
ATOM      6  C   UNL     1       2.135  34.549  30.775  1.00  0.00     0.134 A 
ATOM      7  C   UNL     1       1.608  33.339  30.304  1.00  0.00     0.093 A 
ATOM      8  C   UNL     1       1.690  32.993  28.957  1.00  0.00     0.123 A 
ATOM      9  C   UNL     1       2.314  33.857  28.056  1.00  0.00     0.094 A 
ATOM     10  C   UNL     1       2.883  35.053  28.500  1.00  0.00     0.146 A 
ATOM     11  O   UNL     1       3.486  35.835  27.614  1.00  0.00    -0.452 OA
ENDROOT
BRANCH   1  12
ATOM     12  C   UNL     1       4.721  37.757  26.847  1.00  0.00     0.025 A 
ATOM     13  C   UNL     1       4.545  39.147  26.805  1.00  0.00     0.016 A 
ATOM     14  C   UNL     1       5.116  39.901  25.779  1.00  0.00     0.051 A 
ATOM     15  C   UNL     1       5.859  39.284  24.766  1.00  0.00     0.157 A 
ATOM     16  C   UNL     1       5.446  37.129  25.820  1.00  0.00     0.062 A 
ATOM     17  C   UNL     1       6.021  37.878  24.783  1.00  0.00     0.158 A 
BRANCH  15  18
ATOM     18  O   UNL     1       6.409  40.096  23.773  1.00  0.00    -0.504 OA
ATOM     19  H   UNL     1       6.241  41.089  23.698  1.00  0.00     0.293 HD
ENDBRANCH  15  18
BRANCH  17  20
ATOM     20  O   UNL     1       6.730  37.189  23.798  1.00  0.00    -0.504 OA
ATOM     21  H   UNL     1       6.341  36.922  22.905  1.00  0.00     0.293 HD
ENDBRANCH  17  20
ENDBRANCH   1  12
BRANCH   2  22
ATOM     22  O   UNL     1       4.689  38.627  29.610  1.00  0.00    -0.502 OA
ATOM     23  H   UNL     1       4.710  38.975  30.561  1.00  0.00     0.293 HD
ENDBRANCH   2  22
BRANCH   6  24
ATOM     24  O   UNL     1       1.917  34.837  32.125  1.00  0.00    -0.507 OA
ATOM     25  H   UNL     1       1.873  35.765  32.518  1.00  0.00     0.293 HD
ENDBRANCH   6  24
BRANCH   8  26
ATOM     26  O   UNL     1       1.139  31.791  28.521  1.00  0.00    -0.508 OA
ATOM     27  H   UNL     1       1.049  30.993  29.139  1.00  0.00     0.293 HD
ENDBRANCH   8  26
TORSDOF 6
ENDMDL
MODEL 2
REMARK VINA RESULT:    -7.198      2.863      8.262
REMARK INTER + INTRA:          -8.525
REMARK INTER:                  -8.202
REMARK INTRA:                  -0.323
REMARK UNBOUND:                 0.145
REMARK SMILES O=c1c(O)c(-c2ccc(O)c(O)c2)oc2cc(O)cc(O)c12
REMARK SMILES IDX 5 1 3 2 2 3 1 4 22 5 20 6 19 7 17 8 16 9 15 10 14 11 6 12
REMARK SMILES IDX 7 13 8 14 9 15 13 16 11 17 10 18 12 20 4 22 21 24 18 26
REMARK H PARENT 10 19 12 21 4 23 21 25 18 27
REMARK Flexibility Score: inf
ROOT
ATOM      1  C   UNL     1       6.555  38.450  25.763  1.00  0.00     0.180 A 
ATOM      2  C   UNL     1       7.707  37.659  25.615  1.00  0.00     0.208 A 
ATOM      3  C   UNL     1       8.605  37.951  24.575  1.00  0.00     0.238 A 
ATOM      4  O   UNL     1       9.670  37.286  24.495  1.00  0.00    -0.285 OA
ATOM      5  C   UNL     1       8.312  38.993  23.663  1.00  0.00     0.111 A 
ATOM      6  C   UNL     1       9.128  39.346  22.545  1.00  0.00     0.134 A 
ATOM      7  C   UNL     1       8.791  40.465  21.771  1.00  0.00     0.093 A 
ATOM      8  C   UNL     1       7.638  41.202  22.034  1.00  0.00     0.123 A 
ATOM      9  C   UNL     1       6.805  40.832  23.090  1.00  0.00     0.094 A 
ATOM     10  C   UNL     1       7.132  39.745  23.904  1.00  0.00     0.146 A 
ATOM     11  O   UNL     1       6.323  39.440  24.910  1.00  0.00    -0.452 OA
ENDROOT
BRANCH   1  12
ATOM     12  C   UNL     1       5.569  38.212  26.842  1.00  0.00     0.025 A 
ATOM     13  C   UNL     1       4.398  37.496  26.560  1.00  0.00     0.016 A 
ATOM     14  C   UNL     1       3.446  37.279  27.557  1.00  0.00     0.051 A 
ATOM     15  C   UNL     1       3.635  37.784  28.848  1.00  0.00     0.157 A 
ATOM     16  C   UNL     1       5.753  38.742  28.131  1.00  0.00     0.062 A 
ATOM     17  C   UNL     1       4.801  38.532  29.137  1.00  0.00     0.158 A 
BRANCH  15  18
ATOM     18  O   UNL     1       2.648  37.525  29.802  1.00  0.00    -0.504 OA
ATOM     19  H   UNL     1       2.806  37.001  30.650  1.00  0.00     0.293 HD
ENDBRANCH  15  18
BRANCH  17  20
ATOM     20  O   UNL     1       5.050  39.085  30.395  1.00  0.00    -0.504 OA
ATOM     21  H   UNL     1       5.212  38.540  31.229  1.00  0.00     0.293 HD
ENDBRANCH  17  20
ENDBRANCH   1  12
BRANCH   2  22
ATOM     22  O   UNL     1       7.940  36.586  26.480  1.00  0.00    -0.502 OA
ATOM     23  H   UNL     1       7.191  36.019  26.858  1.00  0.00     0.293 HD
ENDBRANCH   2  22
BRANCH   6  24
ATOM     24  O   UNL     1      10.254  38.626  22.137  1.00  0.00    -0.507 OA
ATOM     25  H   UNL     1      10.321  37.620  22.119  1.00  0.00     0.293 HD
ENDBRANCH   6  24
BRANCH   8  26
ATOM     26  O   UNL     1       7.326  42.299  21.234  1.00  0.00    -0.508 OA
ATOM     27  H   UNL     1       6.737  43.051  21.570  1.00  0.00     0.293 HD
ENDBRANCH   8  26
TORSDOF 6
ENDMDL
MODEL 3
REMARK VINA RESULT:    -7.141      2.300      3.480
REMARK INTER + INTRA:          -8.457
REMARK INTER:                  -8.135
REMARK INTRA:                  -0.322
REMARK UNBOUND:                 0.145
REMARK SMILES O=c1c(O)c(-c2ccc(O)c(O)c2)oc2cc(O)cc(O)c12
REMARK SMILES IDX 5 1 3 2 2 3 1 4 22 5 20 6 19 7 17 8 16 9 15 10 14 11 6 12
REMARK SMILES IDX 7 13 8 14 9 15 13 16 11 17 10 18 12 20 4 22 21 24 18 26
REMARK H PARENT 10 19 12 21 4 23 21 25 18 27
REMARK Flexibility Score: inf
ROOT
ATOM      1  C   UNL     1       6.437  38.142  26.044  1.00  0.00     0.180 A 
ATOM      2  C   UNL     1       6.714  38.802  27.254  1.00  0.00     0.208 A 
ATOM      3  C   UNL     1       5.949  38.492  28.390  1.00  0.00     0.238 A 
ATOM      4  O   UNL     1       6.250  39.032  29.485  1.00  0.00    -0.285 OA
ATOM      5  C   UNL     1       4.881  37.568  28.289  1.00  0.00     0.111 A 
ATOM      6  C   UNL     1       4.011  37.212  29.365  1.00  0.00     0.134 A 
ATOM      7  C   UNL     1       3.055  36.206  29.176  1.00  0.00     0.093 A 
ATOM      8  C   UNL     1       2.893  35.589  27.937  1.00  0.00     0.123 A 
ATOM      9  C   UNL     1       3.701  35.968  26.864  1.00  0.00     0.094 A 
ATOM     10  C   UNL     1       4.689  36.941  27.030  1.00  0.00     0.146 A 
ATOM     11  O   UNL     1       5.450  37.256  25.989  1.00  0.00    -0.452 OA
ENDROOT
BRANCH   1  12
ATOM     12  C   UNL     1       7.208  38.405  24.808  1.00  0.00     0.025 A 
ATOM     13  C   UNL     1       6.681  39.266  23.836  1.00  0.00     0.016 A 
ATOM     14  C   UNL     1       7.381  39.512  22.655  1.00  0.00     0.051 A 
ATOM     15  C   UNL     1       8.612  38.893  22.412  1.00  0.00     0.157 A 
ATOM     16  C   UNL     1       8.433  37.763  24.559  1.00  0.00     0.062 A 
ATOM     17  C   UNL     1       9.143  38.001  23.374  1.00  0.00     0.158 A 
BRANCH  15  18
ATOM     18  O   UNL     1       9.266  39.187  21.213  1.00  0.00    -0.504 OA
ATOM     19  H   UNL     1       9.993  39.882  21.123  1.00  0.00     0.293 HD
ENDBRANCH  15  18
BRANCH  17  20
ATOM     20  O   UNL     1      10.354  37.330  23.194  1.00  0.00    -0.504 OA
ATOM     21  H   UNL     1      10.517  36.643  22.473  1.00  0.00     0.293 HD
ENDBRANCH  17  20
ENDBRANCH   1  12
BRANCH   2  22
ATOM     22  O   UNL     1       7.722  39.768  27.313  1.00  0.00    -0.502 OA
ATOM     23  H   UNL     1       8.621  39.590  27.746  1.00  0.00     0.293 HD
ENDBRANCH   2  22
BRANCH   6  24
ATOM     24  O   UNL     1       4.025  37.826  30.621  1.00  0.00    -0.507 OA
ATOM     25  H   UNL     1       4.315  38.777  30.795  1.00  0.00     0.293 HD
ENDBRANCH   6  24
BRANCH   8  26
ATOM     26  O   UNL     1       1.921  34.605  27.780  1.00  0.00    -0.508 OA
ATOM     27  H   UNL     1       1.235  34.650  27.036  1.00  0.00     0.293 HD
ENDBRANCH   8  26
TORSDOF 6
ENDMDL
MODEL 4
REMARK VINA RESULT:    -7.021      2.698      7.003
REMARK INTER + INTRA:          -8.312
REMARK INTER:                  -7.996
REMARK INTRA:                  -0.316
REMARK UNBOUND:                 0.145
REMARK SMILES O=c1c(O)c(-c2ccc(O)c(O)c2)oc2cc(O)cc(O)c12
REMARK SMILES IDX 5 1 3 2 2 3 1 4 22 5 20 6 19 7 17 8 16 9 15 10 14 11 6 12
REMARK SMILES IDX 7 13 8 14 9 15 13 16 11 17 10 18 12 20 4 22 21 24 18 26
REMARK H PARENT 10 19 12 21 4 23 21 25 18 27
REMARK Flexibility Score: inf
ROOT
ATOM      1  C   UNL     1       4.167  35.740  29.595  1.00  0.00     0.180 A 
ATOM      2  C   UNL     1       3.852  36.804  28.732  1.00  0.00     0.208 A 
ATOM      3  C   UNL     1       4.891  37.610  28.237  1.00  0.00     0.238 A 
ATOM      4  O   UNL     1       4.610  38.513  27.408  1.00  0.00    -0.285 OA
ATOM      5  C   UNL     1       6.223  37.378  28.655  1.00  0.00     0.111 A 
ATOM      6  C   UNL     1       7.348  38.160  28.254  1.00  0.00     0.134 A 
ATOM      7  C   UNL     1       8.636  37.772  28.648  1.00  0.00     0.093 A 
ATOM      8  C   UNL     1       8.833  36.670  29.478  1.00  0.00     0.123 A 
ATOM      9  C   UNL     1       7.736  35.931  29.922  1.00  0.00     0.094 A 
ATOM     10  C   UNL     1       6.443  36.270  29.516  1.00  0.00     0.146 A 
ATOM     11  O   UNL     1       5.430  35.528  29.944  1.00  0.00    -0.452 OA
ENDROOT
BRANCH   1  12
ATOM     12  C   UNL     1       3.129  34.840  30.146  1.00  0.00     0.025 A 
ATOM     13  C   UNL     1       2.681  35.027  31.461  1.00  0.00     0.016 A 
ATOM     14  C   UNL     1       1.719  34.176  32.007  1.00  0.00     0.051 A 
ATOM     15  C   UNL     1       1.196  33.114  31.260  1.00  0.00     0.157 A 
ATOM     16  C   UNL     1       2.625  33.761  29.399  1.00  0.00     0.062 A 
ATOM     17  C   UNL     1       1.660  32.899  29.940  1.00  0.00     0.158 A 
BRANCH  15  18
ATOM     18  O   UNL     1       0.231  32.305  31.863  1.00  0.00    -0.504 OA
ATOM     19  H   UNL     1       0.423  31.668  32.623  1.00  0.00     0.293 HD
ENDBRANCH  15  18
BRANCH  17  20
ATOM     20  O   UNL     1       1.202  31.850  29.141  1.00  0.00    -0.504 OA
ATOM     21  H   UNL     1       0.992  31.940  28.158  1.00  0.00     0.293 HD
ENDBRANCH  17  20
ENDBRANCH   1  12
BRANCH   2  22
ATOM     22  O   UNL     1       2.522  37.065  28.392  1.00  0.00    -0.502 OA
ATOM     23  H   UNL     1       2.001  36.482  27.748  1.00  0.00     0.293 HD
ENDBRANCH   2  22
BRANCH   6  24
ATOM     24  O   UNL     1       7.258  39.332  27.497  1.00  0.00    -0.507 OA
ATOM     25  H   UNL     1       7.939  39.633  26.815  1.00  0.00     0.293 HD
ENDBRANCH   6  24
BRANCH   8  26
ATOM     26  O   UNL     1      10.126  36.323  29.864  1.00  0.00    -0.508 OA
ATOM     27  H   UNL     1      10.766  35.867  29.224  1.00  0.00     0.293 HD
ENDBRANCH   8  26
TORSDOF 6
ENDMDL
MODEL 5
REMARK VINA RESULT:    -6.982      2.218      6.917
REMARK INTER + INTRA:          -8.265
REMARK INTER:                  -7.973
REMARK INTRA:                  -0.292
REMARK UNBOUND:                 0.145
REMARK SMILES O=c1c(O)c(-c2ccc(O)c(O)c2)oc2cc(O)cc(O)c12
REMARK SMILES IDX 5 1 3 2 2 3 1 4 22 5 20 6 19 7 17 8 16 9 15 10 14 11 6 12
REMARK SMILES IDX 7 13 8 14 9 15 13 16 11 17 10 18 12 20 4 22 21 24 18 26
REMARK H PARENT 10 19 12 21 4 23 21 25 18 27
REMARK Flexibility Score: inf
ROOT
ATOM      1  C   UNL     1       4.425  35.585  29.516  1.00  0.00     0.180 A 
ATOM      2  C   UNL     1       5.751  35.458  29.962  1.00  0.00     0.208 A 
ATOM      3  C   UNL     1       6.734  36.308  29.429  1.00  0.00     0.238 A 
ATOM      4  O   UNL     1       7.904  36.238  29.887  1.00  0.00    -0.285 OA
ATOM      5  C   UNL     1       6.389  37.236  28.417  1.00  0.00     0.111 A 
ATOM      6  C   UNL     1       7.313  38.115  27.773  1.00  0.00     0.134 A 
ATOM      7  C   UNL     1       6.838  39.065  26.859  1.00  0.00     0.093 A 
ATOM      8  C   UNL     1       5.488  39.126  26.519  1.00  0.00     0.123 A 
ATOM      9  C   UNL     1       4.586  38.235  27.100  1.00  0.00     0.094 A 
ATOM     10  C   UNL     1       5.021  37.301  28.043  1.00  0.00     0.146 A 
ATOM     11  O   UNL     1       4.126  36.486  28.588  1.00  0.00    -0.452 OA
ENDROOT
BRANCH   1  12
ATOM     12  C   UNL     1       3.332  34.735  30.040  1.00  0.00     0.025 A 
ATOM     13  C   UNL     1       2.761  35.035  31.285  1.00  0.00     0.016 A 
ATOM     14  C   UNL     1       1.745  34.234  31.807  1.00  0.00     0.051 A 
ATOM     15  C   UNL     1       1.289  33.111  31.109  1.00  0.00     0.157 A 
ATOM     16  C   UNL     1       2.894  33.594  29.345  1.00  0.00     0.062 A 
ATOM     17  C   UNL     1       1.876  32.782  29.864  1.00  0.00     0.158 A 
BRANCH  15  18
ATOM     18  O   UNL     1       0.264  32.356  31.684  1.00  0.00    -0.504 OA
ATOM     19  H   UNL     1      -0.688  32.679  31.780  1.00  0.00     0.293 HD
ENDBRANCH  15  18
BRANCH  17  20
ATOM     20  O   UNL     1       1.489  31.667  29.118  1.00  0.00    -0.504 OA
ATOM     21  H   UNL     1       1.237  30.777  29.524  1.00  0.00     0.293 HD
ENDBRANCH  17  20
ENDBRANCH   1  12
BRANCH   2  22
ATOM     22  O   UNL     1       6.085  34.483  30.906  1.00  0.00    -0.502 OA
ATOM     23  H   UNL     1       5.392  33.891  31.346  1.00  0.00     0.293 HD
ENDBRANCH   2  22
BRANCH   6  24
ATOM     24  O   UNL     1       8.695  38.082  27.972  1.00  0.00    -0.507 OA
ATOM     25  H   UNL     1       9.161  37.576  28.710  1.00  0.00     0.293 HD
ENDBRANCH   6  24
BRANCH   8  26
ATOM     26  O   UNL     1       5.055  40.073  25.593  1.00  0.00    -0.508 OA
ATOM     27  H   UNL     1       5.634  40.356  24.812  1.00  0.00     0.293 HD
ENDBRANCH   8  26
TORSDOF 6
ENDMDL
MODEL 6
REMARK VINA RESULT:    -6.975      6.291      8.925
REMARK INTER + INTRA:          -8.257
REMARK INTER:                  -7.929
REMARK INTRA:                  -0.328
REMARK UNBOUND:                 0.145
REMARK SMILES O=c1c(O)c(-c2ccc(O)c(O)c2)oc2cc(O)cc(O)c12
REMARK SMILES IDX 5 1 3 2 2 3 1 4 22 5 20 6 19 7 17 8 16 9 15 10 14 11 6 12
REMARK SMILES IDX 7 13 8 14 9 15 13 16 11 17 10 18 12 20 4 22 21 24 18 26
REMARK H PARENT 10 19 12 21 4 23 21 25 18 27
REMARK Flexibility Score: inf
ROOT
ATOM      1  C   UNL     1       9.412  40.529  22.919  1.00  0.00     0.180 A 
ATOM      2  C   UNL     1       8.494  39.477  22.752  1.00  0.00     0.208 A 
ATOM      3  C   UNL     1       8.263  38.598  23.822  1.00  0.00     0.238 A 
ATOM      4  O   UNL     1       7.387  37.705  23.691  1.00  0.00    -0.285 OA
ATOM      5  C   UNL     1       8.994  38.746  25.026  1.00  0.00     0.111 A 
ATOM      6  C   UNL     1       8.875  37.885  26.159  1.00  0.00     0.134 A 
ATOM      7  C   UNL     1       9.572  38.191  27.335  1.00  0.00     0.093 A 
ATOM      8  C   UNL     1      10.430  39.287  27.400  1.00  0.00     0.123 A 
ATOM      9  C   UNL     1      10.597  40.104  26.280  1.00  0.00     0.094 A 
ATOM     10  C   UNL     1       9.887  39.847  25.105  1.00  0.00     0.146 A 
ATOM     11  O   UNL     1      10.058  40.661  24.071  1.00  0.00    -0.452 OA
ENDROOT
BRANCH   1  12
ATOM     12  C   UNL     1       9.697  41.504  21.842  1.00  0.00     0.025 A 
ATOM     13  C   UNL     1      10.826  41.323  21.030  1.00  0.00     0.016 A 
ATOM     14  C   UNL     1      11.125  42.242  20.023  1.00  0.00     0.051 A 
ATOM     15  C   UNL     1      10.316  43.365  19.816  1.00  0.00     0.157 A 
ATOM     16  C   UNL     1       8.895  42.642  21.653  1.00  0.00     0.062 A 
ATOM     17  C   UNL     1       9.189  43.571  20.646  1.00  0.00     0.158 A 
BRANCH  15  18
ATOM     18  O   UNL     1      10.667  44.241  18.786  1.00  0.00    -0.504 OA
ATOM     19  H   UNL     1      11.394  44.937  18.862  1.00  0.00     0.293 HD
ENDBRANCH  15  18
BRANCH  17  20
ATOM     20  O   UNL     1       8.348  44.677  20.514  1.00  0.00    -0.504 OA
ATOM     21  H   UNL     1       8.478  45.407  19.828  1.00  0.00     0.293 HD
ENDBRANCH  17  20
ENDBRANCH   1  12
BRANCH   2  22
ATOM     22  O   UNL     1       7.839  39.302  21.530  1.00  0.00    -0.502 OA
ATOM     23  H   UNL     1       8.135  38.614  20.848  1.00  0.00     0.293 HD
ENDBRANCH   2  22
BRANCH   6  24
ATOM     24  O   UNL     1       8.114  36.713  26.177  1.00  0.00    -0.507 OA
ATOM     25  H   UNL     1       7.402  36.476  25.503  1.00  0.00     0.293 HD
ENDBRANCH   6  24
BRANCH   8  26
ATOM     26  O   UNL     1      11.120  39.552  28.580  1.00  0.00    -0.508 OA
ATOM     27  H   UNL     1      11.929  39.009  28.856  1.00  0.00     0.293 HD
ENDBRANCH   8  26
TORSDOF 6
ENDMDL
MODEL 7
REMARK VINA RESULT:    -6.901      2.533      4.376
REMARK INTER + INTRA:          -8.168
REMARK INTER:                  -7.868
REMARK INTRA:                  -0.300
REMARK UNBOUND:                 0.145
REMARK SMILES O=c1c(O)c(-c2ccc(O)c(O)c2)oc2cc(O)cc(O)c12
REMARK SMILES IDX 5 1 3 2 2 3 1 4 22 5 20 6 19 7 17 8 16 9 15 10 14 11 6 12
REMARK SMILES IDX 7 13 8 14 9 15 13 16 11 17 10 18 12 20 4 22 21 24 18 26
REMARK H PARENT 10 19 12 21 4 23 21 25 18 27
REMARK Flexibility Score: inf
ROOT
ATOM      1  C   UNL     1       6.003  38.153  26.038  1.00  0.00     0.180 A 
ATOM      2  C   UNL     1       5.057  37.123  25.895  1.00  0.00     0.208 A 
ATOM      3  C   UNL     1       4.369  36.668  27.032  1.00  0.00     0.238 A 
ATOM      4  O   UNL     1       3.472  35.798  26.885  1.00  0.00    -0.285 OA
ATOM      5  C   UNL     1       4.674  37.209  28.304  1.00  0.00     0.111 A 
ATOM      6  C   UNL     1       4.071  36.792  29.530  1.00  0.00     0.134 A 
ATOM      7  C   UNL     1       4.375  37.473  30.716  1.00  0.00     0.093 A 
ATOM      8  C   UNL     1       5.305  38.511  30.732  1.00  0.00     0.123 A 
ATOM      9  C   UNL     1       5.941  38.891  29.550  1.00  0.00     0.094 A 
ATOM     10  C   UNL     1       5.632  38.257  28.344  1.00  0.00     0.146 A 
ATOM     11  O   UNL     1       6.244  38.663  27.239  1.00  0.00    -0.452 OA
ENDROOT
BRANCH   1  12
ATOM     12  C   UNL     1       6.758  38.694  24.885  1.00  0.00     0.025 A 
ATOM     13  C   UNL     1       6.311  39.864  24.255  1.00  0.00     0.016 A 
ATOM     14  C   UNL     1       6.995  40.379  23.154  1.00  0.00     0.051 A 
ATOM     15  C   UNL     1       8.128  39.731  22.649  1.00  0.00     0.157 A 
ATOM     16  C   UNL     1       7.881  38.027  24.367  1.00  0.00     0.062 A 
ATOM     17  C   UNL     1       8.573  38.535  23.259  1.00  0.00     0.158 A 
BRANCH  15  18
ATOM     18  O   UNL     1       8.771  40.303  21.549  1.00  0.00    -0.504 OA
ATOM     19  H   UNL     1       8.915  41.296  21.433  1.00  0.00     0.293 HD
ENDBRANCH  15  18
BRANCH  17  20
ATOM     20  O   UNL     1       9.682  37.821  22.800  1.00  0.00    -0.504 OA
ATOM     21  H   UNL     1      10.387  37.424  23.404  1.00  0.00     0.293 HD
ENDBRANCH  17  20
ENDBRANCH   1  12
BRANCH   2  22
ATOM     22  O   UNL     1       4.826  36.548  24.643  1.00  0.00    -0.502 OA
ATOM     23  H   UNL     1       4.184  36.950  23.970  1.00  0.00     0.293 HD
ENDBRANCH   2  22
BRANCH   6  24
ATOM     24  O   UNL     1       3.195  35.709  29.644  1.00  0.00    -0.507 OA
ATOM     25  H   UNL     1       2.246  35.767  29.980  1.00  0.00     0.293 HD
ENDBRANCH   6  24
BRANCH   8  26
ATOM     26  O   UNL     1       5.595  39.155  31.933  1.00  0.00    -0.508 OA
ATOM     27  H   UNL     1       6.456  39.674  32.062  1.00  0.00     0.293 HD
ENDBRANCH   8  26
TORSDOF 6
ENDMDL
MODEL 8
REMARK VINA RESULT:    -6.515      3.426      5.434
REMARK INTER + INTRA:          -7.703
REMARK INTER:                  -7.495
REMARK INTRA:                  -0.208
REMARK UNBOUND:                 0.145
REMARK SMILES O=c1c(O)c(-c2ccc(O)c(O)c2)oc2cc(O)cc(O)c12
REMARK SMILES IDX 5 1 3 2 2 3 1 4 22 5 20 6 19 7 17 8 16 9 15 10 14 11 6 12
REMARK SMILES IDX 7 13 8 14 9 15 13 16 11 17 10 18 12 20 4 22 21 24 18 26
REMARK H PARENT 10 19 12 21 4 23 21 25 18 27
REMARK Flexibility Score: inf
ROOT
ATOM      1  C   UNL     1       7.440  38.798  25.273  1.00  0.00     0.180 A 
ATOM      2  C   UNL     1       6.143  39.258  25.558  1.00  0.00     0.208 A 
ATOM      3  C   UNL     1       5.522  38.849  26.749  1.00  0.00     0.238 A 
ATOM      4  O   UNL     1       4.392  39.323  27.034  1.00  0.00    -0.285 OA
ATOM      5  C   UNL     1       6.181  37.939  27.611  1.00  0.00     0.111 A 
ATOM      6  C   UNL     1       5.627  37.421  28.821  1.00  0.00     0.134 A 
ATOM      7  C   UNL     1       6.414  36.609  29.649  1.00  0.00     0.093 A 
ATOM      8  C   UNL     1       7.708  36.245  29.281  1.00  0.00     0.123 A 
ATOM      9  C   UNL     1       8.239  36.701  28.074  1.00  0.00     0.094 A 
ATOM     10  C   UNL     1       7.494  37.543  27.245  1.00  0.00     0.146 A 
ATOM     11  O   UNL     1       8.045  37.971  26.116  1.00  0.00    -0.452 OA
ENDROOT
BRANCH   1  12
ATOM     12  C   UNL     1       8.165  39.197  24.045  1.00  0.00     0.025 A 
ATOM     13  C   UNL     1       7.743  38.702  22.803  1.00  0.00     0.016 A 
ATOM     14  C   UNL     1       8.425  39.048  21.636  1.00  0.00     0.051 A 
ATOM     15  C   UNL     1       9.549  39.880  21.685  1.00  0.00     0.157 A 
ATOM     16  C   UNL     1       9.307  40.014  24.102  1.00  0.00     0.062 A 
ATOM     17  C   UNL     1      10.000  40.365  22.935  1.00  0.00     0.158 A 
BRANCH  15  18
ATOM     18  O   UNL     1      10.181  40.195  20.480  1.00  0.00    -0.504 OA
ATOM     19  H   UNL     1      11.136  39.948  20.263  1.00  0.00     0.293 HD
ENDBRANCH  15  18
BRANCH  17  20
ATOM     20  O   UNL     1      11.125  41.182  23.066  1.00  0.00    -0.504 OA
ATOM     21  H   UNL     1      11.289  41.794  23.852  1.00  0.00     0.293 HD
ENDBRANCH  17  20
ENDBRANCH   1  12
BRANCH   2  22
ATOM     22  O   UNL     1       5.479  40.095  24.657  1.00  0.00    -0.502 OA
ATOM     23  H   UNL     1       4.584  39.854  24.249  1.00  0.00     0.293 HD
ENDBRANCH   2  22
BRANCH   6  24
ATOM     24  O   UNL     1       4.314  37.648  29.243  1.00  0.00    -0.507 OA
ATOM     25  H   UNL     1       4.053  38.047  30.132  1.00  0.00     0.293 HD
ENDBRANCH   6  24
BRANCH   8  26
ATOM     26  O   UNL     1       8.456  35.423  30.120  1.00  0.00    -0.508 OA
ATOM     27  H   UNL     1       9.180  34.813  29.758  1.00  0.00     0.293 HD
ENDBRANCH   8  26
TORSDOF 6
ENDMDL
MODEL 9
REMARK VINA RESULT:    -6.490      5.007      7.933
REMARK INTER + INTRA:          -7.673
REMARK INTER:                  -7.427
REMARK INTRA:                  -0.246
REMARK UNBOUND:                 0.145
REMARK SMILES O=c1c(O)c(-c2ccc(O)c(O)c2)oc2cc(O)cc(O)c12
REMARK SMILES IDX 5 1 3 2 2 3 1 4 22 5 20 6 19 7 17 8 16 9 15 10 14 11 6 12
REMARK SMILES IDX 7 13 8 14 9 15 13 16 11 17 10 18 12 20 4 22 21 24 18 26
REMARK H PARENT 10 19 12 21 4 23 21 25 18 27
REMARK Flexibility Score: inf
ROOT
ATOM      1  C   UNL     1       9.297  40.582  23.369  1.00  0.00     0.180 A 
ATOM      2  C   UNL     1      10.044  40.568  24.560  1.00  0.00     0.208 A 
ATOM      3  C   UNL     1       9.673  39.683  25.586  1.00  0.00     0.238 A 
ATOM      4  O   UNL     1      10.390  39.623  26.618  1.00  0.00    -0.285 OA
ATOM      5  C   UNL     1       8.528  38.865  25.431  1.00  0.00     0.111 A 
ATOM      6  C   UNL     1       8.034  37.965  26.424  1.00  0.00     0.134 A 
ATOM      7  C   UNL     1       6.952  37.128  26.119  1.00  0.00     0.093 A 
ATOM      8  C   UNL     1       6.309  37.202  24.885  1.00  0.00     0.123 A 
ATOM      9  C   UNL     1       6.749  38.117  23.928  1.00  0.00     0.094 A 
ATOM     10  C   UNL     1       7.848  38.939  24.187  1.00  0.00     0.146 A 
ATOM     11  O   UNL     1       8.247  39.780  23.241  1.00  0.00    -0.452 OA
ENDROOT
BRANCH   1  12
ATOM     12  C   UNL     1       9.635  41.476  22.238  1.00  0.00     0.025 A 
ATOM     13  C   UNL     1      10.764  41.201  21.455  1.00  0.00     0.016 A 
ATOM     14  C   UNL     1      11.113  42.042  20.398  1.00  0.00     0.051 A 
ATOM     15  C   UNL     1      10.353  43.182  20.110  1.00  0.00     0.157 A 
ATOM     16  C   UNL     1       8.882  42.632  21.969  1.00  0.00     0.062 A 
ATOM     17  C   UNL     1       9.226  43.485  20.911  1.00  0.00     0.158 A 
BRANCH  15  18
ATOM     18  O   UNL     1      10.751  43.978  19.034  1.00  0.00    -0.504 OA
ATOM     19  H   UNL     1      10.910  43.626  18.101  1.00  0.00     0.293 HD
ENDBRANCH  15  18
BRANCH  17  20
ATOM     20  O   UNL     1       8.432  44.613  20.699  1.00  0.00    -0.504 OA
ATOM     21  H   UNL     1       7.783  44.982  21.379  1.00  0.00     0.293 HD
ENDBRANCH  17  20
ENDBRANCH   1  12
BRANCH   2  22
ATOM     22  O   UNL     1      11.125  41.438  24.723  1.00  0.00    -0.502 OA
ATOM     23  H   UNL     1      11.068  42.276  25.288  1.00  0.00     0.293 HD
ENDBRANCH   2  22
BRANCH   6  24
ATOM     24  O   UNL     1       8.545  37.871  27.721  1.00  0.00    -0.507 OA
ATOM     25  H   UNL     1       7.988  37.877  28.563  1.00  0.00     0.293 HD
ENDBRANCH   6  24
BRANCH   8  26
ATOM     26  O   UNL     1       5.226  36.366  24.623  1.00  0.00    -0.508 OA
ATOM     27  H   UNL     1       4.280  36.724  24.572  1.00  0.00     0.293 HD
ENDBRANCH   8  26
TORSDOF 6
ENDMDL
