MODEL 1
REMARK VINA RESULT:    -3.456      0.000      0.000
REMARK INTER + INTRA:         -11.927
REMARK INTER:                  -9.112
REMARK INTRA:                  -2.814
REMARK UNBOUND:                -2.814
REMARK SMILES CCCCCCCCCCCCCCCCCCCCCCCCCCCCCC(=O)[O-]
REMARK SMILES IDX 16 1 17 2 18 3 19 4 20 5 21 6 22 7 23 8 24 9 25 10 26 11
REMARK SMILES IDX 27 12 28 13 29 14 30 15 31 16 32 17 15 18 14 19 13 20 12 21
REMARK SMILES IDX 11 22 10 23 9 24 8 25 7 26 6 27 5 28 4 29 3 30 2 31 1 32
REMARK H PARENT
REMARK Flexibility Score: inf
ROOT
ATOM      1  C   UNL     1     -18.637  43.378   1.330  1.00  0.00     0.000 C 
ENDROOT
BRANCH   1   2
ATOM      2  C   UNL     1     -18.608  44.122  -0.019  1.00  0.00     0.000 C 
BRANCH   2   3
ATOM      3  C   UNL     1     -17.820  43.369  -1.107  1.00  0.00     0.000 C 
BRANCH   3   4
ATOM      4  C   UNL     1     -18.615  43.029  -2.380  1.00  0.00     0.000 C 
BRANCH   4   5
ATOM      5  C   UNL     1     -17.737  42.935  -3.637  1.00  0.00     0.000 C 
BRANCH   5   6
ATOM      6  C   UNL     1     -16.336  42.370  -3.341  1.00  0.00     0.000 C 
BRANCH   6   7
ATOM      7  C   UNL     1     -16.123  40.929  -3.858  1.00  0.00     0.000 C 
BRANCH   7   8
ATOM      8  C   UNL     1     -17.382  40.355  -4.534  1.00  0.00     0.000 C 
BRANCH   8   9
ATOM      9  C   UNL     1     -17.078  39.564  -5.821  1.00  0.00     0.000 C 
BRANCH   9  10
ATOM     10  C   UNL     1     -17.811  40.054  -7.084  1.00  0.00     0.000 C 
BRANCH  10  11
ATOM     11  C   UNL     1     -18.211  41.537  -7.015  1.00  0.00     0.000 C 
BRANCH  11  12
ATOM     12  C   UNL     1     -19.714  41.712  -7.281  1.00  0.00     0.000 C 
BRANCH  12  13
ATOM     13  C   UNL     1     -20.519  41.927  -5.988  1.00  0.00     0.006 C 
BRANCH  13  14
ATOM     14  C   UNL     1     -21.519  43.086  -6.105  1.00  0.00     0.053 C 
BRANCH  14  15
ATOM     15  C   UNL     1     -22.930  42.577  -6.093  1.00  0.00     0.041 C 
ATOM     16  O   UNL     1     -23.182  41.400  -6.467  1.00  0.00    -0.550 OA
ATOM     17  O   UNL     1     -23.971  43.410  -5.699  1.00  0.00    -0.550 OA
ENDBRANCH  14  15
ENDBRANCH  13  14
ENDBRANCH  12  13
ENDBRANCH  11  12
ENDBRANCH  10  11
ENDBRANCH   9  10
ENDBRANCH   8   9
ENDBRANCH   7   8
ENDBRANCH   6   7
ENDBRANCH   5   6
ENDBRANCH   4   5
ENDBRANCH   3   4
ENDBRANCH   2   3
ENDBRANCH   1   2
BRANCH   1  18
ATOM     18  C   UNL     1     -19.398  44.159   2.424  1.00  0.00     0.000 C 
BRANCH  18  19
ATOM     19  C   UNL     1     -19.129  43.664   3.859  1.00  0.00     0.000 C 
BRANCH  19  20
ATOM     20  C   UNL     1     -18.875  42.153   4.000  1.00  0.00     0.000 C 
BRANCH  20  21
ATOM     21  C   UNL     1     -19.858  41.468   4.967  1.00  0.00     0.000 C 
BRANCH  21  22
ATOM     22  C   UNL     1     -20.964  40.691   4.237  1.00  0.00     0.000 C 
BRANCH  22  23
ATOM     23  C   UNL     1     -22.066  40.188   5.186  1.00  0.00     0.000 C 
BRANCH  23  24
ATOM     24  C   UNL     1     -21.549  39.133   6.179  1.00  0.00    -0.000 C 
BRANCH  24  25
ATOM     25  C   UNL     1     -20.923  37.914   5.476  1.00  0.00    -0.000 C 
BRANCH  25  26
ATOM     26  C   UNL     1     -19.749  37.312   6.266  1.00  0.00    -0.000 C 
BRANCH  26  27
ATOM     27  C   UNL     1     -20.143  36.035   7.026  1.00  0.00    -0.000 C 
BRANCH  27  28
ATOM     28  C   UNL     1     -20.173  36.228   8.553  1.00  0.00    -0.000 C 
BRANCH  28  29
ATOM     29  C   UNL     1     -21.557  36.061   9.205  1.00  0.00    -0.000 C 
BRANCH  29  30
ATOM     30  C   UNL     1     -22.371  37.366   9.227  1.00  0.00    -0.000 C 
BRANCH  30  31
ATOM     31  C   UNL     1     -23.758  37.208   8.586  1.00  0.00    -0.003 C 
ATOM     32  C   UNL     1     -23.724  36.369   7.308  1.00  0.00     0.004 C 
ENDBRANCH  30  31
ENDBRANCH  29  30
ENDBRANCH  28  29
ENDBRANCH  27  28
ENDBRANCH  26  27
ENDBRANCH  25  26
ENDBRANCH  24  25
ENDBRANCH  23  24
ENDBRANCH  22  23
ENDBRANCH  21  22
ENDBRANCH  20  21
ENDBRANCH  19  20
ENDBRANCH  18  19
ENDBRANCH   1  18
TORSDOF 28
ENDMDL
MODEL 2
REMARK VINA RESULT:    -3.371      3.739     12.544
REMARK INTER + INTRA:         -11.704
REMARK INTER:                  -9.299
REMARK INTRA:                  -2.405
REMARK UNBOUND:                -2.814
REMARK SMILES CCCCCCCCCCCCCCCCCCCCCCCCCCCCCC(=O)[O-]
REMARK SMILES IDX 16 1 17 2 18 3 19 4 20 5 21 6 22 7 23 8 24 9 25 10 26 11
REMARK SMILES IDX 27 12 28 13 29 14 30 15 31 16 32 17 15 18 14 19 13 20 12 21
REMARK SMILES IDX 11 22 10 23 9 24 8 25 7 26 6 27 5 28 4 29 3 30 2 31 1 32
REMARK H PARENT
REMARK Flexibility Score: inf
ROOT
ATOM      1  C   UNL     1     -18.664  44.116   0.022  1.00  0.00     0.000 C 
ENDROOT
BRANCH   1   2
ATOM      2  C   UNL     1     -18.523  43.366   1.361  1.00  0.00     0.000 C 
BRANCH   2   3
ATOM      3  C   UNL     1     -19.493  43.874   2.444  1.00  0.00     0.000 C 
BRANCH   3   4
ATOM      4  C   UNL     1     -19.000  43.721   3.894  1.00  0.00     0.000 C 
BRANCH   4   5
ATOM      5  C   UNL     1     -19.871  42.775   4.734  1.00  0.00     0.000 C 
BRANCH   5   6
ATOM      6  C   UNL     1     -19.862  41.330   4.202  1.00  0.00     0.000 C 
BRANCH   6   7
ATOM      7  C   UNL     1     -21.218  40.605   4.341  1.00  0.00     0.000 C 
BRANCH   7   8
ATOM      8  C   UNL     1     -21.097  39.274   5.107  1.00  0.00     0.000 C 
BRANCH   8   9
ATOM      9  C   UNL     1     -22.338  38.944   5.959  1.00  0.00     0.000 C 
BRANCH   9  10
ATOM     10  C   UNL     1     -22.189  39.202   7.470  1.00  0.00     0.000 C 
BRANCH  10  11
ATOM     11  C   UNL     1     -22.720  38.049   8.337  1.00  0.00     0.000 C 
BRANCH  11  12
ATOM     12  C   UNL     1     -21.600  37.455   9.205  1.00  0.00     0.000 C 
BRANCH  12  13
ATOM     13  C   UNL     1     -21.480  35.930   9.047  1.00  0.00     0.006 C 
BRANCH  13  14
ATOM     14  C   UNL     1     -21.953  35.443   7.670  1.00  0.00     0.053 C 
BRANCH  14  15
ATOM     15  C   UNL     1     -20.822  35.443   6.687  1.00  0.00     0.041 C 
ATOM     16  O   UNL     1     -20.826  34.641   5.715  1.00  0.00    -0.550 OA
ATOM     17  O   UNL     1     -19.746  36.308   6.857  1.00  0.00    -0.550 OA
ENDBRANCH  14  15
ENDBRANCH  13  14
ENDBRANCH  12  13
ENDBRANCH  11  12
ENDBRANCH  10  11
ENDBRANCH   9  10
ENDBRANCH   8   9
ENDBRANCH   7   8
ENDBRANCH   6   7
ENDBRANCH   5   6
ENDBRANCH   4   5
ENDBRANCH   3   4
ENDBRANCH   2   3
ENDBRANCH   1   2
BRANCH   1  18
ATOM     18  C   UNL     1     -17.724  43.564  -1.071  1.00  0.00     0.000 C 
BRANCH  18  19
ATOM     19  C   UNL     1     -18.452  43.019  -2.316  1.00  0.00     0.000 C 
BRANCH  19  20
ATOM     20  C   UNL     1     -17.612  42.968  -3.604  1.00  0.00     0.000 C 
BRANCH  20  21
ATOM     21  C   UNL     1     -16.347  42.102  -3.460  1.00  0.00     0.000 C 
BRANCH  21  22
ATOM     22  C   UNL     1     -16.580  40.639  -3.870  1.00  0.00     0.000 C 
BRANCH  22  23
ATOM     23  C   UNL     1     -16.605  40.443  -5.396  1.00  0.00     0.000 C 
BRANCH  23  24
ATOM     24  C   UNL     1     -18.031  40.259  -5.941  1.00  0.00    -0.000 C 
BRANCH  24  25
ATOM     25  C   UNL     1     -18.112  40.442  -7.468  1.00  0.00    -0.000 C 
BRANCH  25  26
ATOM     26  C   UNL     1     -18.977  41.646  -7.877  1.00  0.00    -0.000 C 
BRANCH  26  27
ATOM     27  C   UNL     1     -18.623  42.920  -7.091  1.00  0.00    -0.000 C 
BRANCH  27  28
ATOM     28  C   UNL     1     -19.855  43.609  -6.477  1.00  0.00    -0.000 C 
BRANCH  28  29
ATOM     29  C   UNL     1     -20.877  42.660  -5.824  1.00  0.00    -0.000 C 
BRANCH  29  30
ATOM     30  C   UNL     1     -22.176  42.528  -6.637  1.00  0.00    -0.000 C 
BRANCH  30  31
ATOM     31  C   UNL     1     -22.951  41.243  -6.306  1.00  0.00    -0.003 C 
ATOM     32  C   UNL     1     -22.155  39.976  -6.622  1.00  0.00     0.004 C 
ENDBRANCH  30  31
ENDBRANCH  29  30
ENDBRANCH  28  29
ENDBRANCH  27  28
ENDBRANCH  26  27
ENDBRANCH  25  26
ENDBRANCH  24  25
ENDBRANCH  23  24
ENDBRANCH  22  23
ENDBRANCH  21  22
ENDBRANCH  20  21
ENDBRANCH  19  20
ENDBRANCH  18  19
ENDBRANCH   1  18
TORSDOF 28
ENDMDL
MODEL 3
REMARK VINA RESULT:    -3.353      1.592      2.348
REMARK INTER + INTRA:         -11.655
REMARK INTER:                  -8.865
REMARK INTRA:                  -2.790
REMARK UNBOUND:                -2.814
REMARK SMILES CCCCCCCCCCCCCCCCCCCCCCCCCCCCCC(=O)[O-]
REMARK SMILES IDX 16 1 17 2 18 3 19 4 20 5 21 6 22 7 23 8 24 9 25 10 26 11
REMARK SMILES IDX 27 12 28 13 29 14 30 15 31 16 32 17 15 18 14 19 13 20 12 21
REMARK SMILES IDX 11 22 10 23 9 24 8 25 7 26 6 27 5 28 4 29 3 30 2 31 1 32
REMARK H PARENT
REMARK Flexibility Score: inf
ROOT
ATOM      1  C   UNL     1     -18.605  43.297   1.439  1.00  0.00     0.000 C 
ENDROOT
BRANCH   1   2
ATOM      2  C   UNL     1     -18.695  44.122   0.142  1.00  0.00     0.000 C 
BRANCH   2   3
ATOM      3  C   UNL     1     -17.827  43.554  -0.997  1.00  0.00     0.000 C 
BRANCH   3   4
ATOM      4  C   UNL     1     -18.606  42.978  -2.193  1.00  0.00     0.000 C 
BRANCH   4   5
ATOM      5  C   UNL     1     -17.782  42.933  -3.489  1.00  0.00     0.000 C 
BRANCH   5   6
ATOM      6  C   UNL     1     -16.353  42.405  -3.265  1.00  0.00     0.000 C 
BRANCH   6   7
ATOM      7  C   UNL     1     -16.045  41.097  -4.028  1.00  0.00     0.000 C 
BRANCH   7   8
ATOM      8  C   UNL     1     -17.321  40.322  -4.404  1.00  0.00     0.000 C 
BRANCH   8   9
ATOM      9  C   UNL     1     -17.354  39.880  -5.880  1.00  0.00     0.000 C 
BRANCH   9  10
ATOM     10  C   UNL     1     -18.410  40.581  -6.754  1.00  0.00     0.000 C 
BRANCH  10  11
ATOM     11  C   UNL     1     -19.669  40.990  -5.972  1.00  0.00     0.000 C 
BRANCH  11  12
ATOM     12  C   UNL     1     -20.042  42.453  -6.260  1.00  0.00     0.000 C 
BRANCH  12  13
ATOM     13  C   UNL     1     -18.926  43.210  -6.998  1.00  0.00     0.006 C 
BRANCH  13  14
ATOM     14  C   UNL     1     -19.458  44.412  -7.792  1.00  0.00     0.053 C 
BRANCH  14  15
ATOM     15  C   UNL     1     -19.898  45.508  -6.870  1.00  0.00     0.041 C 
ATOM     16  O   UNL     1     -19.044  46.211  -6.266  1.00  0.00    -0.550 OA
ATOM     17  O   UNL     1     -21.252  45.738  -6.651  1.00  0.00    -0.550 OA
ENDBRANCH  14  15
ENDBRANCH  13  14
ENDBRANCH  12  13
ENDBRANCH  11  12
ENDBRANCH  10  11
ENDBRANCH   9  10
ENDBRANCH   8   9
ENDBRANCH   7   8
ENDBRANCH   6   7
ENDBRANCH   5   6
ENDBRANCH   4   5
ENDBRANCH   3   4
ENDBRANCH   2   3
ENDBRANCH   1   2
BRANCH   1  18
ATOM     18  C   UNL     1     -19.626  43.750   2.505  1.00  0.00     0.000 C 
BRANCH  18  19
ATOM     19  C   UNL     1     -19.041  43.887   3.925  1.00  0.00     0.000 C 
BRANCH  19  20
ATOM     20  C   UNL     1     -18.855  42.568   4.694  1.00  0.00     0.000 C 
BRANCH  20  21
ATOM     21  C   UNL     1     -20.120  41.690   4.692  1.00  0.00     0.000 C 
BRANCH  21  22
ATOM     22  C   UNL     1     -19.799  40.188   4.648  1.00  0.00     0.000 C 
BRANCH  22  23
ATOM     23  C   UNL     1     -21.057  39.306   4.751  1.00  0.00     0.000 C 
BRANCH  23  24
ATOM     24  C   UNL     1     -22.127  39.917   5.671  1.00  0.00    -0.000 C 
BRANCH  24  25
ATOM     25  C   UNL     1     -22.476  39.006   6.862  1.00  0.00    -0.000 C 
BRANCH  25  26
ATOM     26  C   UNL     1     -23.039  37.644   6.423  1.00  0.00    -0.000 C 
BRANCH  26  27
ATOM     27  C   UNL     1     -23.434  36.756   7.615  1.00  0.00    -0.000 C 
BRANCH  27  28
ATOM     28  C   UNL     1     -23.137  37.411   8.976  1.00  0.00    -0.000 C 
BRANCH  28  29
ATOM     29  C   UNL     1     -21.916  36.841   9.722  1.00  0.00    -0.000 C 
BRANCH  29  30
ATOM     30  C   UNL     1     -21.181  35.751   8.924  1.00  0.00    -0.000 C 
BRANCH  30  31
ATOM     31  C   UNL     1     -19.767  36.180   8.503  1.00  0.00    -0.003 C 
ATOM     32  C   UNL     1     -19.635  36.369   6.991  1.00  0.00     0.004 C 
ENDBRANCH  30  31
ENDBRANCH  29  30
ENDBRANCH  28  29
ENDBRANCH  27  28
ENDBRANCH  26  27
ENDBRANCH  25  26
ENDBRANCH  24  25
ENDBRANCH  23  24
ENDBRANCH  22  23
ENDBRANCH  21  22
ENDBRANCH  20  21
ENDBRANCH  19  20
ENDBRANCH  18  19
ENDBRANCH   1  18
TORSDOF 28
ENDMDL
MODEL 4
REMARK VINA RESULT:    -3.321      3.883     12.255
REMARK INTER + INTRA:         -11.572
REMARK INTER:                  -8.728
REMARK INTRA:                  -2.844
REMARK UNBOUND:                -2.814
REMARK SMILES CCCCCCCCCCCCCCCCCCCCCCCCCCCCCC(=O)[O-]
REMARK SMILES IDX 16 1 17 2 18 3 19 4 20 5 21 6 22 7 23 8 24 9 25 10 26 11
REMARK SMILES IDX 27 12 28 13 29 14 30 15 31 16 32 17 15 18 14 19 13 20 12 21
REMARK SMILES IDX 11 22 10 23 9 24 8 25 7 26 6 27 5 28 4 29 3 30 2 31 1 32
REMARK H PARENT
REMARK Flexibility Score: inf
ROOT
ATOM      1  C   UNL     1     -16.432  42.201  -3.162  1.00  0.00     0.000 C 
ENDROOT
BRANCH   1   2
ATOM      2  C   UNL     1     -17.785  42.904  -3.384  1.00  0.00     0.000 C 
BRANCH   2   3
ATOM      3  C   UNL     1     -18.605  43.059  -2.089  1.00  0.00     0.000 C 
BRANCH   3   4
ATOM      4  C   UNL     1     -17.826  43.598  -0.877  1.00  0.00     0.000 C 
BRANCH   4   5
ATOM      5  C   UNL     1     -18.734  44.186   0.215  1.00  0.00     0.000 C 
BRANCH   5   6
ATOM      6  C   UNL     1     -18.721  43.352   1.509  1.00  0.00     0.000 C 
BRANCH   6   7
ATOM      7  C   UNL     1     -19.535  43.979   2.663  1.00  0.00     0.000 C 
BRANCH   7   8
ATOM      8  C   UNL     1     -18.982  43.595   4.048  1.00  0.00     0.000 C 
BRANCH   8   9
ATOM      9  C   UNL     1     -19.076  42.086   4.347  1.00  0.00     0.000 C 
BRANCH   9  10
ATOM     10  C   UNL     1     -20.485  41.477   4.222  1.00  0.00     0.000 C 
BRANCH  10  11
ATOM     11  C   UNL     1     -20.587  40.061   4.813  1.00  0.00     0.000 C 
BRANCH  11  12
ATOM     12  C   UNL     1     -21.897  39.888   5.598  1.00  0.00     0.000 C 
BRANCH  12  13
ATOM     13  C   UNL     1     -21.865  38.666   6.532  1.00  0.00     0.006 C 
BRANCH  13  14
ATOM     14  C   UNL     1     -21.398  37.391   5.816  1.00  0.00     0.053 C 
BRANCH  14  15
ATOM     15  C   UNL     1     -20.333  36.694   6.608  1.00  0.00     0.041 C 
ATOM     16  O   UNL     1     -20.644  35.806   7.446  1.00  0.00    -0.550 OA
ATOM     17  O   UNL     1     -18.997  37.044   6.444  1.00  0.00    -0.550 OA
ENDBRANCH  14  15
ENDBRANCH  13  14
ENDBRANCH  12  13
ENDBRANCH  11  12
ENDBRANCH  10  11
ENDBRANCH   9  10
ENDBRANCH   8   9
ENDBRANCH   7   8
ENDBRANCH   6   7
ENDBRANCH   5   6
ENDBRANCH   4   5
ENDBRANCH   3   4
ENDBRANCH   2   3
ENDBRANCH   1   2
BRANCH   1  18
ATOM     18  C   UNL     1     -16.200  41.032  -4.143  1.00  0.00     0.000 C 
BRANCH  18  19
ATOM     19  C   UNL     1     -17.490  40.327  -4.606  1.00  0.00     0.000 C 
BRANCH  19  20
ATOM     20  C   UNL     1     -17.682  40.233  -6.129  1.00  0.00     0.000 C 
BRANCH  20  21
ATOM     21  C   UNL     1     -17.891  41.606  -6.793  1.00  0.00     0.000 C 
BRANCH  21  22
ATOM     22  C   UNL     1     -18.652  41.512  -8.124  1.00  0.00     0.000 C 
BRANCH  22  23
ATOM     23  C   UNL     1     -19.391  42.814  -8.482  1.00  0.00     0.000 C 
BRANCH  23  24
ATOM     24  C   UNL     1     -19.135  43.933  -7.459  1.00  0.00    -0.000 C 
BRANCH  24  25
ATOM     25  C   UNL     1     -19.991  45.186  -7.724  1.00  0.00    -0.000 C 
BRANCH  25  26
ATOM     26  C   UNL     1     -21.487  44.863  -7.871  1.00  0.00    -0.000 C 
BRANCH  26  27
ATOM     27  C   UNL     1     -22.281  45.144  -6.583  1.00  0.00    -0.000 C 
BRANCH  27  28
ATOM     28  C   UNL     1     -23.331  44.062  -6.275  1.00  0.00    -0.000 C 
BRANCH  28  29
ATOM     29  C   UNL     1     -22.859  42.613  -6.493  1.00  0.00    -0.000 C 
BRANCH  29  30
ATOM     30  C   UNL     1     -21.635  42.246  -5.636  1.00  0.00    -0.000 C 
BRANCH  30  31
ATOM     31  C   UNL     1     -21.266  40.759  -5.740  1.00  0.00    -0.003 C 
ATOM     32  C   UNL     1     -22.086  40.021  -6.800  1.00  0.00     0.004 C 
ENDBRANCH  30  31
ENDBRANCH  29  30
ENDBRANCH  28  29
ENDBRANCH  27  28
ENDBRANCH  26  27
ENDBRANCH  25  26
ENDBRANCH  24  25
ENDBRANCH  23  24
ENDBRANCH  22  23
ENDBRANCH  21  22
ENDBRANCH  20  21
ENDBRANCH  19  20
ENDBRANCH  18  19
ENDBRANCH   1  18
TORSDOF 28
ENDMDL
MODEL 5
REMARK VINA RESULT:    -3.279      0.914      1.937
REMARK INTER + INTRA:         -11.462
REMARK INTER:                  -9.298
REMARK INTRA:                  -2.164
REMARK UNBOUND:                -2.814
REMARK SMILES CCCCCCCCCCCCCCCCCCCCCCCCCCCCCC(=O)[O-]
REMARK SMILES IDX 16 1 17 2 18 3 19 4 20 5 21 6 22 7 23 8 24 9 25 10 26 11
REMARK SMILES IDX 27 12 28 13 29 14 30 15 31 16 32 17 15 18 14 19 13 20 12 21
REMARK SMILES IDX 11 22 10 23 9 24 8 25 7 26 6 27 5 28 4 29 3 30 2 31 1 32
REMARK H PARENT
REMARK Flexibility Score: inf
ROOT
ATOM      1  C   UNL     1     -18.646  43.368   1.405  1.00  0.00     0.000 C 
ENDROOT
BRANCH   1   2
ATOM      2  C   UNL     1     -18.665  44.130   0.066  1.00  0.00     0.000 C 
BRANCH   2   3
ATOM      3  C   UNL     1     -17.801  43.464  -1.021  1.00  0.00     0.000 C 
BRANCH   3   4
ATOM      4  C   UNL     1     -18.563  43.002  -2.276  1.00  0.00     0.000 C 
BRANCH   4   5
ATOM      5  C   UNL     1     -17.695  42.990  -3.543  1.00  0.00     0.000 C 
BRANCH   5   6
ATOM      6  C   UNL     1     -16.317  42.342  -3.312  1.00  0.00     0.000 C 
BRANCH   6   7
ATOM      7  C   UNL     1     -16.261  40.846  -3.690  1.00  0.00     0.000 C 
BRANCH   7   8
ATOM      8  C   UNL     1     -17.509  40.389  -4.468  1.00  0.00     0.000 C 
BRANCH   8   9
ATOM      9  C   UNL     1     -17.288  40.323  -5.992  1.00  0.00     0.000 C 
BRANCH   9  10
ATOM     10  C   UNL     1     -18.545  40.562  -6.850  1.00  0.00     0.000 C 
BRANCH  10  11
ATOM     11  C   UNL     1     -19.510  41.590  -6.237  1.00  0.00     0.000 C 
BRANCH  11  12
ATOM     12  C   UNL     1     -20.798  40.910  -5.749  1.00  0.00     0.000 C 
BRANCH  12  13
ATOM     13  C   UNL     1     -22.052  41.446  -6.459  1.00  0.00     0.006 C 
BRANCH  13  14
ATOM     14  C   UNL     1     -21.895  42.907  -6.905  1.00  0.00     0.053 C 
BRANCH  14  15
ATOM     15  C   UNL     1     -23.058  43.733  -6.445  1.00  0.00     0.041 C 
ATOM     16  O   UNL     1     -22.890  44.651  -5.598  1.00  0.00    -0.550 OA
ATOM     17  O   UNL     1     -24.336  43.473  -6.928  1.00  0.00    -0.550 OA
ENDBRANCH  14  15
ENDBRANCH  13  14
ENDBRANCH  12  13
ENDBRANCH  11  12
ENDBRANCH  10  11
ENDBRANCH   9  10
ENDBRANCH   8   9
ENDBRANCH   7   8
ENDBRANCH   6   7
ENDBRANCH   5   6
ENDBRANCH   4   5
ENDBRANCH   3   4
ENDBRANCH   2   3
ENDBRANCH   1   2
BRANCH   1  18
ATOM     18  C   UNL     1     -19.426  44.101   2.518  1.00  0.00     0.000 C 
BRANCH  18  19
ATOM     19  C   UNL     1     -19.047  43.666   3.948  1.00  0.00     0.000 C 
BRANCH  19  20
ATOM     20  C   UNL     1     -18.992  42.148   4.184  1.00  0.00     0.000 C 
BRANCH  20  21
ATOM     21  C   UNL     1     -20.373  41.475   4.084  1.00  0.00     0.000 C 
BRANCH  21  22
ATOM     22  C   UNL     1     -20.579  40.381   5.143  1.00  0.00     0.000 C 
BRANCH  22  23
ATOM     23  C   UNL     1     -22.040  40.275   5.615  1.00  0.00     0.000 C 
BRANCH  23  24
ATOM     24  C   UNL     1     -22.186  39.417   6.883  1.00  0.00    -0.000 C 
BRANCH  24  25
ATOM     25  C   UNL     1     -23.078  38.181   6.664  1.00  0.00    -0.000 C 
BRANCH  25  26
ATOM     26  C   UNL     1     -23.563  37.557   7.983  1.00  0.00    -0.000 C 
BRANCH  26  27
ATOM     27  C   UNL     1     -22.560  37.755   9.133  1.00  0.00    -0.000 C 
BRANCH  27  28
ATOM     28  C   UNL     1     -21.855  36.451   9.547  1.00  0.00    -0.000 C 
BRANCH  28  29
ATOM     29  C   UNL     1     -20.677  36.032   8.649  1.00  0.00    -0.000 C 
BRANCH  29  30
ATOM     30  C   UNL     1     -21.131  35.368   7.338  1.00  0.00    -0.000 C 
BRANCH  30  31
ATOM     31  C   UNL     1     -20.353  35.882   6.116  1.00  0.00    -0.003 C 
ATOM     32  C   UNL     1     -19.382  37.009   6.468  1.00  0.00     0.004 C 
ENDBRANCH  30  31
ENDBRANCH  29  30
ENDBRANCH  28  29
ENDBRANCH  27  28
ENDBRANCH  26  27
ENDBRANCH  25  26
ENDBRANCH  24  25
ENDBRANCH  23  24
ENDBRANCH  22  23
ENDBRANCH  21  22
ENDBRANCH  20  21
ENDBRANCH  19  20
ENDBRANCH  18  19
ENDBRANCH   1  18
TORSDOF 28
ENDMDL
MODEL 6
REMARK VINA RESULT:    -3.268      3.738     12.277
REMARK INTER + INTRA:         -11.431
REMARK INTER:                  -9.453
REMARK INTRA:                  -1.978
REMARK UNBOUND:                -2.814
REMARK SMILES CCCCCCCCCCCCCCCCCCCCCCCCCCCCCC(=O)[O-]
REMARK SMILES IDX 16 1 17 2 18 3 19 4 20 5 21 6 22 7 23 8 24 9 25 10 26 11
REMARK SMILES IDX 27 12 28 13 29 14 30 15 31 16 32 17 15 18 14 19 13 20 12 21
REMARK SMILES IDX 11 22 10 23 9 24 8 25 7 26 6 27 5 28 4 29 3 30 2 31 1 32
REMARK H PARENT
REMARK Flexibility Score: inf
ROOT
ATOM      1  C   UNL     1     -18.626  43.256   1.491  1.00  0.00     0.000 C 
ENDROOT
BRANCH   1   2
ATOM      2  C   UNL     1     -19.397  43.792   2.712  1.00  0.00     0.000 C 
BRANCH   2   3
ATOM      3  C   UNL     1     -18.813  43.315   4.055  1.00  0.00     0.000 C 
BRANCH   3   4
ATOM      4  C   UNL     1     -19.535  42.119   4.699  1.00  0.00     0.000 C 
BRANCH   4   5
ATOM      5  C   UNL     1     -20.663  41.548   3.825  1.00  0.00     0.000 C 
BRANCH   5   6
ATOM      6  C   UNL     1     -21.530  40.519   4.573  1.00  0.00     0.000 C 
BRANCH   6   7
ATOM      7  C   UNL     1     -20.979  39.077   4.512  1.00  0.00     0.000 C 
BRANCH   7   8
ATOM      8  C   UNL     1     -20.067  38.747   5.708  1.00  0.00     0.000 C 
BRANCH   8   9
ATOM      9  C   UNL     1     -19.468  37.328   5.646  1.00  0.00     0.000 C 
BRANCH   9  10
ATOM     10  C   UNL     1     -19.081  36.716   7.005  1.00  0.00     0.000 C 
BRANCH  10  11
ATOM     11  C   UNL     1     -20.228  35.932   7.664  1.00  0.00     0.000 C 
BRANCH  11  12
ATOM     12  C   UNL     1     -20.301  36.230   9.170  1.00  0.00     0.000 C 
BRANCH  12  13
ATOM     13  C   UNL     1     -21.709  36.659   9.616  1.00  0.00     0.006 C 
BRANCH  13  14
ATOM     14  C   UNL     1     -22.194  37.924   8.894  1.00  0.00     0.053 C 
BRANCH  14  15
ATOM     15  C   UNL     1     -23.397  37.628   8.050  1.00  0.00     0.041 C 
ATOM     16  O   UNL     1     -24.533  37.514   8.583  1.00  0.00    -0.550 OA
ATOM     17  O   UNL     1     -23.263  37.449   6.678  1.00  0.00    -0.550 OA
ENDBRANCH  14  15
ENDBRANCH  13  14
ENDBRANCH  12  13
ENDBRANCH  11  12
ENDBRANCH  10  11
ENDBRANCH   9  10
ENDBRANCH   8   9
ENDBRANCH   7   8
ENDBRANCH   6   7
ENDBRANCH   5   6
ENDBRANCH   4   5
ENDBRANCH   3   4
ENDBRANCH   2   3
ENDBRANCH   1   2
BRANCH   1  18
ATOM     18  C   UNL     1     -18.785  44.153   0.245  1.00  0.00     0.000 C 
BRANCH  18  19
ATOM     19  C   UNL     1     -17.903  43.740  -0.950  1.00  0.00     0.000 C 
BRANCH  19  20
ATOM     20  C   UNL     1     -18.632  42.999  -2.084  1.00  0.00     0.000 C 
BRANCH  20  21
ATOM     21  C   UNL     1     -17.789  42.894  -3.369  1.00  0.00     0.000 C 
BRANCH  21  22
ATOM     22  C   UNL     1     -16.371  42.365  -3.107  1.00  0.00     0.000 C 
BRANCH  22  23
ATOM     23  C   UNL     1     -16.166  40.928  -3.619  1.00  0.00     0.000 C 
BRANCH  23  24
ATOM     24  C   UNL     1     -16.348  40.817  -5.142  1.00  0.00    -0.000 C 
BRANCH  24  25
ATOM     25  C   UNL     1     -17.533  39.915  -5.534  1.00  0.00    -0.000 C 
BRANCH  25  26
ATOM     26  C   UNL     1     -17.871  39.997  -7.032  1.00  0.00    -0.000 C 
BRANCH  26  27
ATOM     27  C   UNL     1     -19.146  40.814  -7.306  1.00  0.00    -0.000 C 
BRANCH  27  28
ATOM     28  C   UNL     1     -20.003  41.031  -6.046  1.00  0.00    -0.000 C 
BRANCH  28  29
ATOM     29  C   UNL     1     -21.073  42.131  -6.166  1.00  0.00    -0.000 C 
BRANCH  29  30
ATOM     30  C   UNL     1     -22.508  41.578  -6.121  1.00  0.00    -0.000 C 
BRANCH  30  31
ATOM     31  C   UNL     1     -23.555  42.673  -5.867  1.00  0.00    -0.003 C 
ATOM     32  C   UNL     1     -22.933  44.063  -5.732  1.00  0.00     0.004 C 
ENDBRANCH  30  31
ENDBRANCH  29  30
ENDBRANCH  28  29
ENDBRANCH  27  28
ENDBRANCH  26  27
ENDBRANCH  25  26
ENDBRANCH  24  25
ENDBRANCH  23  24
ENDBRANCH  22  23
ENDBRANCH  21  22
ENDBRANCH  20  21
ENDBRANCH  19  20
ENDBRANCH  18  19
ENDBRANCH   1  18
TORSDOF 28
ENDMDL
MODEL 7
REMARK VINA RESULT:    -3.239      4.308     12.407
REMARK INTER + INTRA:         -11.355
REMARK INTER:                  -9.136
REMARK INTRA:                  -2.219
REMARK UNBOUND:                -2.814
REMARK SMILES CCCCCCCCCCCCCCCCCCCCCCCCCCCCCC(=O)[O-]
REMARK SMILES IDX 16 1 17 2 18 3 19 4 20 5 21 6 22 7 23 8 24 9 25 10 26 11
REMARK SMILES IDX 27 12 28 13 29 14 30 15 31 16 32 17 15 18 14 19 13 20 12 21
REMARK SMILES IDX 11 22 10 23 9 24 8 25 7 26 6 27 5 28 4 29 3 30 2 31 1 32
REMARK H PARENT
REMARK Flexibility Score: inf
ROOT
ATOM      1  C   UNL     1     -17.746  43.596  -1.019  1.00  0.00     0.000 C 
ENDROOT
BRANCH   1   2
ATOM      2  C   UNL     1     -18.638  44.151   0.108  1.00  0.00     0.000 C 
BRANCH   2   3
ATOM      3  C   UNL     1     -18.614  43.284   1.381  1.00  0.00     0.000 C 
BRANCH   3   4
ATOM      4  C   UNL     1     -19.528  43.765   2.522  1.00  0.00     0.000 C 
BRANCH   4   5
ATOM      5  C   UNL     1     -18.993  43.411   3.918  1.00  0.00     0.000 C 
BRANCH   5   6
ATOM      6  C   UNL     1     -19.523  42.060   4.431  1.00  0.00     0.000 C 
BRANCH   6   7
ATOM      7  C   UNL     1     -20.722  41.513   3.624  1.00  0.00     0.000 C 
BRANCH   7   8
ATOM      8  C   UNL     1     -21.521  40.453   4.405  1.00  0.00     0.000 C 
BRANCH   8   9
ATOM      9  C   UNL     1     -20.953  40.172   5.810  1.00  0.00     0.000 C 
BRANCH   9  10
ATOM     10  C   UNL     1     -21.643  39.034   6.585  1.00  0.00     0.000 C 
BRANCH  10  11
ATOM     11  C   UNL     1     -22.752  38.339   5.778  1.00  0.00     0.000 C 
BRANCH  11  12
ATOM     12  C   UNL     1     -22.650  36.811   5.909  1.00  0.00     0.000 C 
BRANCH  12  13
ATOM     13  C   UNL     1     -21.263  36.354   6.392  1.00  0.00     0.006 C 
BRANCH  13  14
ATOM     14  C   UNL     1     -21.339  35.479   7.651  1.00  0.00     0.053 C 
BRANCH  14  15
ATOM     15  C   UNL     1     -20.877  36.239   8.858  1.00  0.00     0.041 C 
ATOM     16  O   UNL     1     -21.688  36.949   9.510  1.00  0.00    -0.550 OA
ATOM     17  O   UNL     1     -19.543  36.189   9.248  1.00  0.00    -0.550 OA
ENDBRANCH  14  15
ENDBRANCH  13  14
ENDBRANCH  12  13
ENDBRANCH  11  12
ENDBRANCH  10  11
ENDBRANCH   9  10
ENDBRANCH   8   9
ENDBRANCH   7   8
ENDBRANCH   6   7
ENDBRANCH   5   6
ENDBRANCH   4   5
ENDBRANCH   3   4
ENDBRANCH   2   3
ENDBRANCH   1   2
BRANCH   1  18
ATOM     18  C   UNL     1     -18.561  42.983  -2.177  1.00  0.00     0.000 C 
BRANCH  18  19
ATOM     19  C   UNL     1     -17.825  42.967  -3.532  1.00  0.00     0.000 C 
BRANCH  19  20
ATOM     20  C   UNL     1     -16.389  42.419  -3.497  1.00  0.00     0.000 C 
BRANCH  20  21
ATOM     21  C   UNL     1     -16.296  40.951  -3.954  1.00  0.00     0.000 C 
BRANCH  21  22
ATOM     22  C   UNL     1     -17.658  40.371  -4.367  1.00  0.00     0.000 C 
BRANCH  22  23
ATOM     23  C   UNL     1     -17.617  39.670  -5.736  1.00  0.00     0.000 C 
BRANCH  23  24
ATOM     24  C   UNL     1     -17.422  40.660  -6.896  1.00  0.00    -0.000 C 
BRANCH  24  25
ATOM     25  C   UNL     1     -18.729  41.373  -7.293  1.00  0.00    -0.000 C 
BRANCH  25  26
ATOM     26  C   UNL     1     -18.694  42.882  -7.000  1.00  0.00    -0.000 C 
BRANCH  26  27
ATOM     27  C   UNL     1     -20.081  43.446  -6.644  1.00  0.00    -0.000 C 
BRANCH  27  28
ATOM     28  C   UNL     1     -20.840  42.576  -5.627  1.00  0.00    -0.000 C 
BRANCH  28  29
ATOM     29  C   UNL     1     -21.736  41.484  -6.241  1.00  0.00    -0.000 C 
BRANCH  29  30
ATOM     30  C   UNL     1     -23.218  41.891  -6.304  1.00  0.00    -0.000 C 
BRANCH  30  31
ATOM     31  C   UNL     1     -23.447  43.351  -5.885  1.00  0.00    -0.003 C 
ATOM     32  C   UNL     1     -24.473  44.064  -6.768  1.00  0.00     0.004 C 
ENDBRANCH  30  31
ENDBRANCH  29  30
ENDBRANCH  28  29
ENDBRANCH  27  28
ENDBRANCH  26  27
ENDBRANCH  25  26
ENDBRANCH  24  25
ENDBRANCH  23  24
ENDBRANCH  22  23
ENDBRANCH  21  22
ENDBRANCH  20  21
ENDBRANCH  19  20
ENDBRANCH  18  19
ENDBRANCH   1  18
TORSDOF 28
ENDMDL
MODEL 8
REMARK VINA RESULT:    -3.141      3.733     12.369
REMARK INTER + INTRA:         -11.097
REMARK INTER:                  -8.493
REMARK INTRA:                  -2.604
REMARK UNBOUND:                -2.814
REMARK SMILES CCCCCCCCCCCCCCCCCCCCCCCCCCCCCC(=O)[O-]
REMARK SMILES IDX 16 1 17 2 18 3 19 4 20 5 21 6 22 7 23 8 24 9 25 10 26 11
REMARK SMILES IDX 27 12 28 13 29 14 30 15 31 16 32 17 15 18 14 19 13 20 12 21
REMARK SMILES IDX 11 22 10 23 9 24 8 25 7 26 6 27 5 28 4 29 3 30 2 31 1 32
REMARK H PARENT
REMARK Flexibility Score: inf
ROOT
ATOM      1  C   UNL     1     -17.782  43.600  -1.100  1.00  0.00     0.000 C 
ENDROOT
BRANCH   1   2
ATOM      2  C   UNL     1     -18.647  44.140   0.054  1.00  0.00     0.000 C 
BRANCH   2   3
ATOM      3  C   UNL     1     -18.628  43.234   1.300  1.00  0.00     0.000 C 
BRANCH   3   4
ATOM      4  C   UNL     1     -19.383  43.782   2.524  1.00  0.00     0.000 C 
BRANCH   4   5
ATOM      5  C   UNL     1     -18.795  43.306   3.862  1.00  0.00     0.000 C 
BRANCH   5   6
ATOM      6  C   UNL     1     -19.838  42.604   4.751  1.00  0.00     0.000 C 
BRANCH   6   7
ATOM      7  C   UNL     1     -20.028  41.106   4.426  1.00  0.00     0.000 C 
BRANCH   7   8
ATOM      8  C   UNL     1     -21.380  40.819   3.748  1.00  0.00     0.000 C 
BRANCH   8   9
ATOM      9  C   UNL     1     -22.479  40.382   4.737  1.00  0.00     0.000 C 
BRANCH   9  10
ATOM     10  C   UNL     1     -22.185  39.088   5.518  1.00  0.00     0.000 C 
BRANCH  10  11
ATOM     11  C   UNL     1     -22.132  39.298   7.040  1.00  0.00     0.000 C 
BRANCH  11  12
ATOM     12  C   UNL     1     -22.974  38.239   7.769  1.00  0.00     0.000 C 
BRANCH  12  13
ATOM     13  C   UNL     1     -22.978  36.886   7.039  1.00  0.00     0.006 C 
BRANCH  13  14
ATOM     14  C   UNL     1     -21.951  35.903   7.618  1.00  0.00     0.053 C 
BRANCH  14  15
ATOM     15  C   UNL     1     -20.780  35.749   6.696  1.00  0.00     0.041 C 
ATOM     16  O   UNL     1     -19.793  36.527   6.789  1.00  0.00    -0.550 OA
ATOM     17  O   UNL     1     -20.787  34.766   5.712  1.00  0.00    -0.550 OA
ENDBRANCH  14  15
ENDBRANCH  13  14
ENDBRANCH  12  13
ENDBRANCH  11  12
ENDBRANCH  10  11
ENDBRANCH   9  10
ENDBRANCH   8   9
ENDBRANCH   7   8
ENDBRANCH   6   7
ENDBRANCH   5   6
ENDBRANCH   4   5
ENDBRANCH   3   4
ENDBRANCH   2   3
ENDBRANCH   1   2
BRANCH   1  18
ATOM     18  C   UNL     1     -18.624  42.993  -2.243  1.00  0.00     0.000 C 
BRANCH  18  19
ATOM     19  C   UNL     1     -17.880  42.879  -3.588  1.00  0.00     0.000 C 
BRANCH  19  20
ATOM     20  C   UNL     1     -16.376  42.571  -3.488  1.00  0.00     0.000 C 
BRANCH  20  21
ATOM     21  C   UNL     1     -16.036  41.118  -3.864  1.00  0.00     0.000 C 
BRANCH  21  22
ATOM     22  C   UNL     1     -17.267  40.318  -4.316  1.00  0.00     0.000 C 
BRANCH  22  23
ATOM     23  C   UNL     1     -17.270  40.031  -5.828  1.00  0.00     0.000 C 
BRANCH  23  24
ATOM     24  C   UNL     1     -18.209  40.973  -6.602  1.00  0.00    -0.000 C 
BRANCH  24  25
ATOM     25  C   UNL     1     -18.802  40.315  -7.862  1.00  0.00    -0.000 C 
BRANCH  25  26
ATOM     26  C   UNL     1     -20.308  40.032  -7.730  1.00  0.00    -0.000 C 
BRANCH  26  27
ATOM     27  C   UNL     1     -20.936  40.732  -6.513  1.00  0.00    -0.000 C 
BRANCH  27  28
ATOM     28  C   UNL     1     -21.951  41.822  -6.904  1.00  0.00    -0.000 C 
BRANCH  28  29
ATOM     29  C   UNL     1     -22.108  42.964  -5.883  1.00  0.00    -0.000 C 
BRANCH  29  30
ATOM     30  C   UNL     1     -21.496  44.289  -6.369  1.00  0.00    -0.000 C 
BRANCH  30  31
ATOM     31  C   UNL     1     -19.962  44.242  -6.433  1.00  0.00    -0.003 C 
ATOM     32  C   UNL     1     -19.433  44.189  -7.866  1.00  0.00     0.004 C 
ENDBRANCH  30  31
ENDBRANCH  29  30
ENDBRANCH  28  29
ENDBRANCH  27  28
ENDBRANCH  26  27
ENDBRANCH  25  26
ENDBRANCH  24  25
ENDBRANCH  23  24
ENDBRANCH  22  23
ENDBRANCH  21  22
ENDBRANCH  20  21
ENDBRANCH  19  20
ENDBRANCH  18  19
ENDBRANCH   1  18
TORSDOF 28
ENDMDL
MODEL 9
REMARK VINA RESULT:    -3.085      1.086      2.771
REMARK INTER + INTRA:         -10.948
REMARK INTER:                  -8.337
REMARK INTRA:                  -2.611
REMARK UNBOUND:                -2.814
REMARK SMILES CCCCCCCCCCCCCCCCCCCCCCCCCCCCCC(=O)[O-]
REMARK SMILES IDX 16 1 17 2 18 3 19 4 20 5 21 6 22 7 23 8 24 9 25 10 26 11
REMARK SMILES IDX 27 12 28 13 29 14 30 15 31 16 32 17 15 18 14 19 13 20 12 21
REMARK SMILES IDX 11 22 10 23 9 24 8 25 7 26 6 27 5 28 4 29 3 30 2 31 1 32
REMARK H PARENT
REMARK Flexibility Score: inf
ROOT
ATOM      1  C   UNL     1     -17.879  43.635  -1.554  1.00  0.00     0.000 C 
ENDROOT
BRANCH   1   2
ATOM      2  C   UNL     1     -17.962  42.654  -2.740  1.00  0.00     0.000 C 
BRANCH   2   3
ATOM      3  C   UNL     1     -16.858  42.879  -3.790  1.00  0.00     0.000 C 
BRANCH   3   4
ATOM      4  C   UNL     1     -15.996  41.645  -4.113  1.00  0.00     0.000 C 
BRANCH   4   5
ATOM      5  C   UNL     1     -16.739  40.316  -3.910  1.00  0.00     0.000 C 
BRANCH   5   6
ATOM      6  C   UNL     1     -17.808  40.063  -4.989  1.00  0.00     0.000 C 
BRANCH   6   7
ATOM      7  C   UNL     1     -17.272  40.166  -6.434  1.00  0.00     0.000 C 
BRANCH   7   8
ATOM      8  C   UNL     1     -18.244  40.909  -7.369  1.00  0.00     0.000 C 
BRANCH   8   9
ATOM      9  C   UNL     1     -18.445  42.390  -6.990  1.00  0.00     0.000 C 
BRANCH   9  10
ATOM     10  C   UNL     1     -19.902  42.808  -6.718  1.00  0.00     0.000 C 
BRANCH  10  11
ATOM     11  C   UNL     1     -20.473  42.206  -5.424  1.00  0.00     0.000 C 
BRANCH  11  12
ATOM     12  C   UNL     1     -21.453  41.065  -5.737  1.00  0.00     0.000 C 
BRANCH  12  13
ATOM     13  C   UNL     1     -22.276  41.328  -7.010  1.00  0.00     0.006 C 
BRANCH  13  14
ATOM     14  C   UNL     1     -23.690  41.837  -6.700  1.00  0.00     0.053 C 
BRANCH  14  15
ATOM     15  C   UNL     1     -23.817  43.294  -7.031  1.00  0.00     0.041 C 
ATOM     16  O   UNL     1     -23.655  43.692  -8.215  1.00  0.00    -0.550 OA
ATOM     17  O   UNL     1     -24.086  44.219  -6.028  1.00  0.00    -0.550 OA
ENDBRANCH  14  15
ENDBRANCH  13  14
ENDBRANCH  12  13
ENDBRANCH  11  12
ENDBRANCH  10  11
ENDBRANCH   9  10
ENDBRANCH   8   9
ENDBRANCH   7   8
ENDBRANCH   6   7
ENDBRANCH   5   6
ENDBRANCH   4   5
ENDBRANCH   3   4
ENDBRANCH   2   3
ENDBRANCH   1   2
BRANCH   1  18
ATOM     18  C   UNL     1     -18.623  43.121  -0.303  1.00  0.00     0.000 C 
BRANCH  18  19
ATOM     19  C   UNL     1     -18.617  44.103   0.886  1.00  0.00     0.000 C 
BRANCH  19  20
ATOM     20  C   UNL     1     -19.501  43.703   2.079  1.00  0.00     0.000 C 
BRANCH  20  21
ATOM     21  C   UNL     1     -18.687  43.358   3.339  1.00  0.00     0.000 C 
BRANCH  21  22
ATOM     22  C   UNL     1     -19.276  42.174   4.121  1.00  0.00     0.000 C 
BRANCH  22  23
ATOM     23  C   UNL     1     -20.670  41.759   3.616  1.00  0.00     0.000 C 
BRANCH  23  24
ATOM     24  C   UNL     1     -21.236  40.553   4.384  1.00  0.00    -0.000 C 
BRANCH  24  25
ATOM     25  C   UNL     1     -20.142  39.733   5.092  1.00  0.00    -0.000 C 
BRANCH  25  26
ATOM     26  C   UNL     1     -20.644  38.360   5.569  1.00  0.00    -0.000 C 
BRANCH  26  27
ATOM     27  C   UNL     1     -22.175  38.309   5.711  1.00  0.00    -0.000 C 
BRANCH  27  28
ATOM     28  C   UNL     1     -22.662  38.697   7.118  1.00  0.00    -0.000 C 
BRANCH  28  29
ATOM     29  C   UNL     1     -23.477  37.615   7.850  1.00  0.00    -0.000 C 
BRANCH  29  30
ATOM     30  C   UNL     1     -22.656  36.861   8.910  1.00  0.00    -0.000 C 
BRANCH  30  31
ATOM     31  C   UNL     1     -21.624  35.908   8.289  1.00  0.00    -0.003 C 
ATOM     32  C   UNL     1     -20.210  36.140   8.823  1.00  0.00     0.004 C 
ENDBRANCH  30  31
ENDBRANCH  29  30
ENDBRANCH  28  29
ENDBRANCH  27  28
ENDBRANCH  26  27
ENDBRANCH  25  26
ENDBRANCH  24  25
ENDBRANCH  23  24
ENDBRANCH  22  23
ENDBRANCH  21  22
ENDBRANCH  20  21
ENDBRANCH  19  20
ENDBRANCH  18  19
ENDBRANCH   1  18
TORSDOF 28
ENDMDL
