MODEL 1
REMARK VINA RESULT:    -2.318      0.000      0.000
REMARK INTER + INTRA:          -3.605
REMARK INTER:                  -3.131
REMARK INTRA:                  -0.473
REMARK UNBOUND:                -0.473
REMARK SMILES CCCCCCCC(C)=O
REMARK SMILES IDX 5 1 4 2 3 3 2 4 1 5 6 6 7 7 8 8 10 9 9 10
REMARK H PARENT
REMARK Flexibility Score: inf
ROOT
ATOM      1  C   UNL     1     110.380 114.274 109.657  1.00  0.00     0.000 C 
ENDROOT
BRANCH   1   2
ATOM      2  C   UNL     1     110.535 115.125 108.387  1.00  0.00     0.000 C 
BRANCH   2   3
ATOM      3  C   UNL     1     109.196 115.702 107.897  1.00  0.00    -0.000 C 
BRANCH   3   4
ATOM      4  C   UNL     1     108.871 117.061 108.538  1.00  0.00    -0.003 C 
ATOM      5  C   UNL     1     107.440 117.520 108.261  1.00  0.00     0.004 C 
ENDBRANCH   3   4
ENDBRANCH   2   3
ENDBRANCH   1   2
BRANCH   1   6
ATOM      6  C   UNL     1     110.310 112.766 109.358  1.00  0.00     0.008 C 
BRANCH   6   7
ATOM      7  C   UNL     1     108.964 112.160 109.779  1.00  0.00     0.075 C 
BRANCH   7   8
ATOM      8  C   UNL     1     107.925 112.296 108.696  1.00  0.00     0.129 C 
ATOM      9  O   UNL     1     106.784 112.619 108.992  1.00  0.00    -0.300 OA
ATOM     10  C   UNL     1     108.263 112.049 107.256  1.00  0.00     0.087 C 
ENDBRANCH   7   8
ENDBRANCH   6   7
ENDBRANCH   1   6
TORSDOF 6
ENDMDL
MODEL 2
REMARK VINA RESULT:    -2.317      1.731      4.033
REMARK INTER + INTRA:          -3.603
REMARK INTER:                  -3.043
REMARK INTRA:                  -0.560
REMARK UNBOUND:                -0.473
REMARK SMILES CCCCCCCC(C)=O
REMARK SMILES IDX 5 1 4 2 3 3 2 4 1 5 6 6 7 7 8 8 10 9 9 10
REMARK H PARENT
REMARK Flexibility Score: inf
ROOT
ATOM      1  C   UNL     1     110.500 116.478 107.826  1.00  0.00     0.000 C 
ENDROOT
BRANCH   1   2
ATOM      2  C   UNL     1     110.854 115.001 108.065  1.00  0.00     0.000 C 
BRANCH   2   3
ATOM      3  C   UNL     1     110.299 114.470 109.398  1.00  0.00    -0.000 C 
BRANCH   3   4
ATOM      4  C   UNL     1     110.411 112.942 109.515  1.00  0.00    -0.003 C 
ATOM      5  C   UNL     1     109.048 112.251 109.572  1.00  0.00     0.004 C 
ENDBRANCH   3   4
ENDBRANCH   2   3
ENDBRANCH   1   2
BRANCH   1   6
ATOM      6  C   UNL     1     109.279 116.936 108.643  1.00  0.00     0.008 C 
BRANCH   6   7
ATOM      7  C   UNL     1     108.102 117.335 107.742  1.00  0.00     0.075 C 
BRANCH   7   8
ATOM      8  C   UNL     1     106.955 116.363 107.857  1.00  0.00     0.129 C 
ATOM      9  O   UNL     1     105.876 116.753 108.278  1.00  0.00    -0.300 OA
ATOM     10  C   UNL     1     107.107 114.926 107.457  1.00  0.00     0.087 C 
ENDBRANCH   7   8
ENDBRANCH   6   7
ENDBRANCH   1   6
TORSDOF 6
ENDMDL
MODEL 3
REMARK VINA RESULT:    -2.309     13.771     15.574
REMARK INTER + INTRA:          -3.591
REMARK INTER:                  -3.258
REMARK INTRA:                  -0.334
REMARK UNBOUND:                -0.473
REMARK SMILES CCCCCCCC(C)=O
REMARK SMILES IDX 5 1 4 2 3 3 2 4 1 5 6 6 7 7 8 8 10 9 9 10
REMARK H PARENT
REMARK Flexibility Score: inf
ROOT
ATOM      1  C   UNL     1     121.690 117.877 109.720  1.00  0.00     0.000 C 
ENDROOT
BRANCH   1   2
ATOM      2  C   UNL     1     121.050 117.373 108.417  1.00  0.00     0.000 C 
BRANCH   2   3
ATOM      3  C   UNL     1     121.922 116.330 107.697  1.00  0.00    -0.000 C 
BRANCH   3   4
ATOM      4  C   UNL     1     122.441 115.239 108.647  1.00  0.00    -0.003 C 
ATOM      5  C   UNL     1     123.852 114.769 108.293  1.00  0.00     0.004 C 
ENDBRANCH   3   4
ENDBRANCH   2   3
ENDBRANCH   1   2
BRANCH   1   6
ATOM      6  C   UNL     1     122.113 119.354 109.642  1.00  0.00     0.008 C 
BRANCH   6   7
ATOM      7  C   UNL     1     123.405 119.540 108.834  1.00  0.00     0.075 C 
BRANCH   7   8
ATOM      8  C   UNL     1     124.399 120.410 109.560  1.00  0.00     0.129 C 
ATOM      9  O   UNL     1     125.539 120.007 109.733  1.00  0.00    -0.300 OA
ATOM     10  C   UNL     1     124.020 121.769 110.070  1.00  0.00     0.087 C 
ENDBRANCH   7   8
ENDBRANCH   6   7
ENDBRANCH   1   6
TORSDOF 6
ENDMDL
MODEL 4
REMARK VINA RESULT:    -2.303      1.818      2.962
REMARK INTER + INTRA:          -3.584
REMARK INTER:                  -3.164
REMARK INTRA:                  -0.420
REMARK UNBOUND:                -0.473
REMARK SMILES CCCCCCCC(C)=O
REMARK SMILES IDX 5 1 4 2 3 3 2 4 1 5 6 6 7 7 8 8 10 9 9 10
REMARK H PARENT
REMARK Flexibility Score: inf
ROOT
ATOM      1  C   UNL     1     110.121 116.798 107.812  1.00  0.00     0.000 C 
ENDROOT
BRANCH   1   2
ATOM      2  C   UNL     1     108.963 117.043 108.792  1.00  0.00     0.000 C 
BRANCH   2   3
ATOM      3  C   UNL     1     107.665 117.462 108.079  1.00  0.00    -0.000 C 
BRANCH   3   4
ATOM      4  C   UNL     1     107.781 117.378 106.549  1.00  0.00    -0.003 C 
ATOM      5  C   UNL     1     106.846 118.351 105.829  1.00  0.00     0.004 C 
ENDBRANCH   3   4
ENDBRANCH   2   3
ENDBRANCH   1   2
BRANCH   1   6
ATOM      6  C   UNL     1     110.685 115.370 107.904  1.00  0.00     0.008 C 
BRANCH   6   7
ATOM      7  C   UNL     1     109.673 114.390 108.512  1.00  0.00     0.075 C 
BRANCH   7   8
ATOM      8  C   UNL     1     110.336 113.399 109.435  1.00  0.00     0.129 C 
ATOM      9  O   UNL     1     109.681 112.482 109.906  1.00  0.00    -0.300 OA
ATOM     10  C   UNL     1     111.791 113.512 109.783  1.00  0.00     0.087 C 
ENDBRANCH   7   8
ENDBRANCH   6   7
ENDBRANCH   1   6
TORSDOF 6
ENDMDL
MODEL 5
REMARK VINA RESULT:    -2.292      9.132     10.902
REMARK INTER + INTRA:          -3.569
REMARK INTER:                  -3.018
REMARK INTRA:                  -0.551
REMARK UNBOUND:                -0.473
REMARK SMILES CCCCCCCC(C)=O
REMARK SMILES IDX 5 1 4 2 3 3 2 4 1 5 6 6 7 7 8 8 10 9 9 10
REMARK H PARENT
REMARK Flexibility Score: inf
ROOT
ATOM      1  C   UNL     1     114.190 120.853 108.722  1.00  0.00     0.000 C 
ENDROOT
BRANCH   1   2
ATOM      2  C   UNL     1     115.398 121.279 107.872  1.00  0.00     0.000 C 
BRANCH   2   3
ATOM      3  C   UNL     1     116.326 122.256 108.615  1.00  0.00    -0.000 C 
BRANCH   3   4
ATOM      4  C   UNL     1     117.066 123.206 107.661  1.00  0.00    -0.003 C 
ATOM      5  C   UNL     1     117.491 124.511 108.335  1.00  0.00     0.004 C 
ENDBRANCH   3   4
ENDBRANCH   2   3
ENDBRANCH   1   2
BRANCH   1   6
ATOM      6  C   UNL     1     113.833 121.884 109.807  1.00  0.00     0.008 C 
BRANCH   6   7
ATOM      7  C   UNL     1     112.410 122.432 109.632  1.00  0.00     0.075 C 
BRANCH   7   8
ATOM      8  C   UNL     1     112.412 123.903 109.302  1.00  0.00     0.129 C 
ATOM      9  O   UNL     1     111.784 124.680 110.006  1.00  0.00    -0.300 OA
ATOM     10  C   UNL     1     113.178 124.437 108.128  1.00  0.00     0.087 C 
ENDBRANCH   7   8
ENDBRANCH   6   7
ENDBRANCH   1   6
TORSDOF 6
ENDMDL
MODEL 6
REMARK VINA RESULT:    -2.262      1.979      3.035
REMARK INTER + INTRA:          -3.529
REMARK INTER:                  -3.099
REMARK INTRA:                  -0.430
REMARK UNBOUND:                -0.473
REMARK SMILES CCCCCCCC(C)=O
REMARK SMILES IDX 5 1 4 2 3 3 2 4 1 5 6 6 7 7 8 8 10 9 9 10
REMARK H PARENT
REMARK Flexibility Score: inf
ROOT
ATOM      1  C   UNL     1     109.182 112.413 108.357  1.00  0.00     0.000 C 
ENDROOT
BRANCH   1   2
ATOM      2  C   UNL     1     109.938 112.636 109.677  1.00  0.00     0.000 C 
BRANCH   2   3
ATOM      3  C   UNL     1     110.407 114.092 109.848  1.00  0.00    -0.000 C 
BRANCH   3   4
ATOM      4  C   UNL     1     110.426 114.864 108.520  1.00  0.00    -0.003 C 
ATOM      5  C   UNL     1     109.742 116.228 108.618  1.00  0.00     0.004 C 
ENDBRANCH   3   4
ENDBRANCH   2   3
ENDBRANCH   1   2
BRANCH   1   6
ATOM      6  C   UNL     1     107.703 112.045 108.575  1.00  0.00     0.008 C 
BRANCH   6   7
ATOM      7  C   UNL     1     107.379 111.825 110.059  1.00  0.00     0.075 C 
BRANCH   7   8
ATOM      8  C   UNL     1     107.051 110.383 110.353  1.00  0.00     0.129 C 
ATOM      9  O   UNL     1     107.548 109.501 109.668  1.00  0.00    -0.300 OA
ATOM     10  C   UNL     1     106.131 110.005 111.475  1.00  0.00     0.087 C 
ENDBRANCH   7   8
ENDBRANCH   6   7
ENDBRANCH   1   6
TORSDOF 6
ENDMDL
MODEL 7
REMARK VINA RESULT:    -2.253      8.438     10.206
REMARK INTER + INTRA:          -3.516
REMARK INTER:                  -2.930
REMARK INTRA:                  -0.586
REMARK UNBOUND:                -0.473
REMARK SMILES CCCCCCCC(C)=O
REMARK SMILES IDX 5 1 4 2 3 3 2 4 1 5 6 6 7 7 8 8 10 9 9 10
REMARK H PARENT
REMARK Flexibility Score: inf
ROOT
ATOM      1  C   UNL     1     116.713 110.394 106.597  1.00  0.00     0.000 C 
ENDROOT
BRANCH   1   2
ATOM      2  C   UNL     1     115.581 110.816 107.547  1.00  0.00     0.000 C 
BRANCH   2   3
ATOM      3  C   UNL     1     115.142 109.676 108.483  1.00  0.00    -0.000 C 
BRANCH   3   4
ATOM      4  C   UNL     1     115.484 108.288 107.920  1.00  0.00    -0.003 C 
ATOM      5  C   UNL     1     114.406 107.245 108.219  1.00  0.00     0.004 C 
ENDBRANCH   3   4
ENDBRANCH   2   3
ENDBRANCH   1   2
BRANCH   1   6
ATOM      6  C   UNL     1     118.054 111.070 106.933  1.00  0.00     0.008 C 
BRANCH   6   7
ATOM      7  C   UNL     1     118.997 110.128 107.695  1.00  0.00     0.075 C 
BRANCH   7   8
ATOM      8  C   UNL     1     118.999 110.414 109.175  1.00  0.00     0.129 C 
ATOM      9  O   UNL     1     119.386 109.556 109.954  1.00  0.00    -0.300 OA
ATOM     10  C   UNL     1     118.543 111.737 109.714  1.00  0.00     0.087 C 
ENDBRANCH   7   8
ENDBRANCH   6   7
ENDBRANCH   1   6
TORSDOF 6
ENDMDL
MODEL 8
REMARK VINA RESULT:    -2.226     12.867     14.637
REMARK INTER + INTRA:          -3.480
REMARK INTER:                  -2.928
REMARK INTRA:                  -0.552
REMARK UNBOUND:                -0.473
REMARK SMILES CCCCCCCC(C)=O
REMARK SMILES IDX 5 1 4 2 3 3 2 4 1 5 6 6 7 7 8 8 10 9 9 10
REMARK H PARENT
REMARK Flexibility Score: inf
ROOT
ATOM      1  C   UNL     1     121.736 116.504 106.892  1.00  0.00     0.000 C 
ENDROOT
BRANCH   1   2
ATOM      2  C   UNL     1     121.744 115.328 107.882  1.00  0.00     0.000 C 
BRANCH   2   3
ATOM      3  C   UNL     1     123.013 115.297 108.750  1.00  0.00    -0.000 C 
BRANCH   3   4
ATOM      4  C   UNL     1     124.127 114.437 108.133  1.00  0.00    -0.003 C 
ATOM      5  C   UNL     1     125.460 115.179 108.027  1.00  0.00     0.004 C 
ENDBRANCH   3   4
ENDBRANCH   2   3
ENDBRANCH   1   2
BRANCH   1   6
ATOM      6  C   UNL     1     122.679 117.644 107.315  1.00  0.00     0.008 C 
BRANCH   6   7
ATOM      7  C   UNL     1     121.907 118.903 107.732  1.00  0.00     0.075 C 
BRANCH   7   8
ATOM      8  C   UNL     1     121.610 118.915 109.210  1.00  0.00     0.129 C 
ATOM      9  O   UNL     1     122.497 119.200 110.000  1.00  0.00    -0.300 OA
ATOM     10  C   UNL     1     120.243 118.591 109.733  1.00  0.00     0.087 C 
ENDBRANCH   7   8
ENDBRANCH   6   7
ENDBRANCH   1   6
TORSDOF 6
ENDMDL
MODEL 9
REMARK VINA RESULT:    -2.195      8.688     10.492
REMARK INTER + INTRA:          -3.438
REMARK INTER:                  -2.865
REMARK INTRA:                  -0.573
REMARK UNBOUND:                -0.473
REMARK SMILES CCCCCCCC(C)=O
REMARK SMILES IDX 5 1 4 2 3 3 2 4 1 5 6 6 7 7 8 8 10 9 9 10
REMARK H PARENT
REMARK Flexibility Score: inf
ROOT
ATOM      1  C   UNL     1     117.492 110.371 109.461  1.00  0.00     0.000 C 
ENDROOT
BRANCH   1   2
ATOM      2  C   UNL     1     119.005 110.269 109.208  1.00  0.00     0.000 C 
BRANCH   2   3
ATOM      3  C   UNL     1     119.336 109.522 107.904  1.00  0.00    -0.000 C 
BRANCH   3   4
ATOM      4  C   UNL     1     120.095 108.210 108.154  1.00  0.00    -0.003 C 
ATOM      5  C   UNL     1     120.112 107.807 109.629  1.00  0.00     0.004 C 
ENDBRANCH   3   4
ENDBRANCH   2   3
ENDBRANCH   1   2
BRANCH   1   6
ATOM      6  C   UNL     1     116.660 110.135 108.188  1.00  0.00     0.008 C 
BRANCH   6   7
ATOM      7  C   UNL     1     115.281 109.542 108.506  1.00  0.00     0.075 C 
BRANCH   7   8
ATOM      8  C   UNL     1     115.202 108.081 108.143  1.00  0.00     0.129 C 
ATOM      9  O   UNL     1     114.220 107.431 108.469  1.00  0.00    -0.300 OA
ATOM     10  C   UNL     1     116.303 107.406 107.381  1.00  0.00     0.087 C 
ENDBRANCH   7   8
ENDBRANCH   6   7
ENDBRANCH   1   6
TORSDOF 6
ENDMDL
