MODEL 1
REMARK VINA RESULT:    -6.018      0.000      0.000
REMARK INTER + INTRA:          -6.881
REMARK INTER:                  -6.545
REMARK INTRA:                  -0.336
REMARK UNBOUND:                -0.336
REMARK SMILES C[C@@H]1[C@@H](C)CC[C@@]2(C(=O)[O-])CC[C@]3(C)C(=CC[C@H]4[C@@]5(C)CC[C@H](O)C(C)(C)[C@H]5CC[C@]43C)[C@@H]12
REMARK SMILES IDX 7 1 6 2 11 3 33 4 5 5 12 6 15 7 2 8 3 9 13 10 16 11 1 12
REMARK SMILES IDX 4 13 14 14 31 15 17 16 18 17 30 18 32 19 19 20 29 21 28 22
REMARK SMILES IDX 21 23 20 24 25 25 22 26 23 27 26 28 27 29 8 30 9 31 10 32
REMARK SMILES IDX 24 33
REMARK H PARENT 24 34
REMARK Flexibility Score: inf
ROOT
ATOM      1  C   UNL     1      72.880  54.864  17.964  1.00  0.00     0.017 C 
ATOM      2  C   UNL     1      74.060  53.924  17.578  1.00  0.00     0.014 C 
ATOM      3  C   UNL     1      71.766  53.935  18.566  1.00  0.00     0.014 C 
ATOM      4  C   UNL     1      73.268  56.007  19.007  1.00  0.00     0.030 C 
ATOM      5  C   UNL     1      75.403  54.630  17.441  1.00  0.00     0.004 C 
ATOM      6  C   UNL     1      70.560  54.677  19.184  1.00  0.00     0.013 C 
ATOM      7  C   UNL     1      72.448  55.863  20.307  1.00  0.00    -0.063 C 
ATOM      8  C   UNL     1      74.798  56.393  19.184  1.00  0.00    -0.003 C 
ATOM      9  C   UNL     1      75.818  55.302  18.752  1.00  0.00    -0.011 C 
ATOM     10  C   UNL     1      70.915  55.885  20.144  1.00  0.00    -0.006 C 
ATOM     11  C   UNL     1      73.003  55.295  21.392  1.00  0.00    -0.027 C 
ATOM     12  C   UNL     1      75.135  57.722  18.464  1.00  0.00     0.008 C 
ATOM     13  C   UNL     1      76.121  54.282  19.865  1.00  0.00     0.008 C 
ATOM     14  C   UNL     1      70.512  57.217  19.417  1.00  0.00     0.017 C 
ATOM     15  C   UNL     1      70.116  55.798  21.548  1.00  0.00    -0.020 C 
ATOM     16  C   UNL     1      72.269  54.993  22.651  1.00  0.00     0.032 C 
ATOM     17  C   UNL     1      70.749  54.705  22.486  1.00  0.00     0.006 C 
ATOM     18  C   UNL     1      70.189  57.161  22.319  1.00  0.00     0.008 C 
ATOM     19  C   UNL     1      68.610  55.467  21.225  1.00  0.00     0.012 C 
ATOM     20  C   UNL     1      69.978  54.506  23.902  1.00  0.00    -0.025 C 
ATOM     21  C   UNL     1      70.008  57.094  23.860  1.00  0.00     0.005 C 
ATOM     22  C   UNL     1      69.239  55.844  24.370  1.00  0.00     0.003 C 
ATOM     23  C   UNL     1      70.984  54.027  25.014  1.00  0.00     0.010 C 
ATOM     24  C   UNL     1      68.927  53.358  23.712  1.00  0.00     0.012 C 
ATOM     25  C   UNL     1      68.818  55.920  25.912  1.00  0.00    -0.006 C 
ATOM     26  C   UNL     1      70.427  54.007  26.436  1.00  0.00     0.033 C 
ATOM     27  C   UNL     1      69.955  55.406  26.838  1.00  0.00     0.120 C 
ATOM     28  C   UNL     1      67.507  55.113  26.155  1.00  0.00     0.014 C 
ATOM     29  C   UNL     1      68.480  57.374  26.348  1.00  0.00     0.014 C 
ENDROOT
BRANCH   1  30
ATOM     30  C   UNL     1      72.372  55.500  16.669  1.00  0.00     0.048 C 
ATOM     31  O   UNL     1      72.362  56.751  16.512  1.00  0.00    -0.550 OA
ATOM     32  O   UNL     1      71.835  54.703  15.663  1.00  0.00    -0.550 OA
ENDBRANCH   1  30
BRANCH  27  33
ATOM     33  O   UNL     1      69.529  55.385  28.178  1.00  0.00    -0.393 OA
ATOM     34  H   UNL     1      69.271  54.448  28.387  1.00  0.00     0.210 HD
ENDBRANCH  27  33
TORSDOF 2
ENDMDL
MODEL 2
REMARK VINA RESULT:    -5.674      3.158      6.487
REMARK INTER + INTRA:          -6.507
REMARK INTER:                  -6.176
REMARK INTRA:                  -0.331
REMARK UNBOUND:                -0.336
REMARK SMILES C[C@@H]1[C@@H](C)CC[C@@]2(C(=O)[O-])CC[C@]3(C)C(=CC[C@H]4[C@@]5(C)CC[C@H](O)C(C)(C)[C@H]5CC[C@]43C)[C@@H]12
REMARK SMILES IDX 7 1 6 2 11 3 33 4 5 5 12 6 15 7 2 8 3 9 13 10 16 11 1 12
REMARK SMILES IDX 4 13 14 14 31 15 17 16 18 17 30 18 32 19 19 20 29 21 28 22
REMARK SMILES IDX 21 23 20 24 25 25 22 26 23 27 26 28 27 29 8 30 9 31 10 32
REMARK SMILES IDX 24 33
REMARK H PARENT 24 34
REMARK Flexibility Score: inf
ROOT
ATOM      1  C   UNL     1      73.603  55.861  23.768  1.00  0.00     0.017 C 
ATOM      2  C   UNL     1      74.764  56.730  23.202  1.00  0.00     0.014 C 
ATOM      3  C   UNL     1      72.278  56.495  23.211  1.00  0.00     0.014 C 
ATOM      4  C   UNL     1      73.685  54.318  23.370  1.00  0.00     0.030 C 
ATOM      5  C   UNL     1      76.119  56.035  23.198  1.00  0.00     0.004 C 
ATOM      6  C   UNL     1      70.993  55.687  23.504  1.00  0.00     0.013 C 
ATOM      7  C   UNL     1      72.449  53.899  22.546  1.00  0.00    -0.063 C 
ATOM      8  C   UNL     1      75.078  53.726  22.894  1.00  0.00    -0.003 C 
ATOM      9  C   UNL     1      76.096  54.765  22.344  1.00  0.00    -0.011 C 
ATOM     10  C   UNL     1      71.079  54.132  23.216  1.00  0.00    -0.006 C 
ATOM     11  C   UNL     1      72.537  53.796  21.208  1.00  0.00    -0.027 C 
ATOM     12  C   UNL     1      75.752  52.892  24.010  1.00  0.00     0.008 C 
ATOM     13  C   UNL     1      75.903  55.068  20.847  1.00  0.00     0.008 C 
ATOM     14  C   UNL     1      71.067  53.382  24.595  1.00  0.00     0.017 C 
ATOM     15  C   UNL     1      69.831  53.610  22.330  1.00  0.00    -0.020 C 
ATOM     16  C   UNL     1      71.383  53.523  20.309  1.00  0.00     0.032 C 
ATOM     17  C   UNL     1      70.003  54.024  20.821  1.00  0.00     0.006 C 
ATOM     18  C   UNL     1      69.734  52.046  22.366  1.00  0.00     0.008 C 
ATOM     19  C   UNL     1      68.516  54.224  22.942  1.00  0.00     0.012 C 
ATOM     20  C   UNL     1      68.767  53.590  19.859  1.00  0.00    -0.025 C 
ATOM     21  C   UNL     1      69.015  51.369  21.167  1.00  0.00     0.005 C 
ATOM     22  C   UNL     1      68.018  52.287  20.406  1.00  0.00     0.003 C 
ATOM     23  C   UNL     1      69.273  53.346  18.390  1.00  0.00     0.010 C 
ATOM     24  C   UNL     1      67.764  54.794  19.804  1.00  0.00     0.012 C 
ATOM     25  C   UNL     1      67.086  51.513  19.360  1.00  0.00    -0.006 C 
ATOM     26  C   UNL     1      68.248  52.729  17.438  1.00  0.00     0.033 C 
ATOM     27  C   UNL     1      67.777  51.376  17.975  1.00  0.00     0.120 C 
ATOM     28  C   UNL     1      65.715  52.240  19.218  1.00  0.00     0.014 C 
ATOM     29  C   UNL     1      66.732  50.080  19.851  1.00  0.00     0.014 C 
ENDROOT
BRANCH   1  30
ATOM     30  C   UNL     1      73.637  56.003  25.291  1.00  0.00     0.048 C 
ATOM     31  O   UNL     1      73.904  55.020  26.035  1.00  0.00    -0.550 OA
ATOM     32  O   UNL     1      73.297  57.212  25.888  1.00  0.00    -0.550 OA
ENDBRANCH   1  30
BRANCH  27  33
ATOM     33  O   UNL     1      66.904  50.786  17.044  1.00  0.00    -0.393 OA
ATOM     34  H   UNL     1      66.954  51.329  16.213  1.00  0.00     0.210 HD
ENDBRANCH  27  33
TORSDOF 2
ENDMDL
MODEL 3
REMARK VINA RESULT:    -5.581      1.363      8.301
REMARK INTER + INTRA:          -6.406
REMARK INTER:                  -6.131
REMARK INTRA:                  -0.274
REMARK UNBOUND:                -0.336
REMARK SMILES C[C@@H]1[C@@H](C)CC[C@@]2(C(=O)[O-])CC[C@]3(C)C(=CC[C@H]4[C@@]5(C)CC[C@H](O)C(C)(C)[C@H]5CC[C@]43C)[C@@H]12
REMARK SMILES IDX 7 1 6 2 11 3 33 4 5 5 12 6 15 7 2 8 3 9 13 10 16 11 1 12
REMARK SMILES IDX 4 13 14 14 31 15 17 16 18 17 30 18 32 19 19 20 29 21 28 22
REMARK SMILES IDX 21 23 20 24 25 25 22 26 23 27 26 28 27 29 8 30 9 31 10 32
REMARK SMILES IDX 24 33
REMARK H PARENT 24 34
REMARK Flexibility Score: inf
ROOT
ATOM      1  C   UNL     1      68.536  55.506  25.763  1.00  0.00     0.017 C 
ATOM      2  C   UNL     1      67.017  55.691  26.054  1.00  0.00     0.014 C 
ATOM      3  C   UNL     1      68.642  54.283  24.782  1.00  0.00     0.014 C 
ATOM      4  C   UNL     1      69.241  56.787  25.125  1.00  0.00     0.030 C 
ATOM      5  C   UNL     1      66.644  57.077  26.564  1.00  0.00     0.004 C 
ATOM      6  C   UNL     1      70.055  54.022  24.214  1.00  0.00     0.013 C 
ATOM      7  C   UNL     1      69.812  56.459  23.728  1.00  0.00    -0.063 C 
ATOM      8  C   UNL     1      68.539  58.202  25.279  1.00  0.00    -0.003 C 
ATOM      9  C   UNL     1      67.009  58.165  25.551  1.00  0.00    -0.011 C 
ATOM     10  C   UNL     1      70.822  55.295  23.668  1.00  0.00    -0.006 C 
ATOM     11  C   UNL     1      69.138  56.826  22.624  1.00  0.00    -0.027 C 
ATOM     12  C   UNL     1      69.230  59.063  26.365  1.00  0.00     0.008 C 
ATOM     13  C   UNL     1      66.168  58.075  24.265  1.00  0.00     0.008 C 
ATOM     14  C   UNL     1      72.002  55.610  24.654  1.00  0.00     0.017 C 
ATOM     15  C   UNL     1      71.432  55.048  22.191  1.00  0.00    -0.020 C 
ATOM     16  C   UNL     1      69.530  56.453  21.238  1.00  0.00     0.032 C 
ATOM     17  C   UNL     1      70.300  55.109  21.100  1.00  0.00     0.006 C 
ATOM     18  C   UNL     1      72.480  56.154  21.824  1.00  0.00     0.008 C 
ATOM     19  C   UNL     1      72.144  53.642  22.193  1.00  0.00     0.012 C 
ATOM     20  C   UNL     1      70.809  54.816  19.584  1.00  0.00    -0.025 C 
ATOM     21  C   UNL     1      72.712  56.413  20.311  1.00  0.00     0.005 C 
ATOM     22  C   UNL     1      72.343  55.223  19.384  1.00  0.00     0.003 C 
ATOM     23  C   UNL     1      69.908  55.577  18.544  1.00  0.00     0.010 C 
ATOM     24  C   UNL     1      70.627  53.282  19.311  1.00  0.00     0.012 C 
ATOM     25  C   UNL     1      72.840  55.393  17.872  1.00  0.00    -0.006 C 
ATOM     26  C   UNL     1      70.410  55.554  17.101  1.00  0.00     0.033 C 
ATOM     27  C   UNL     1      71.805  56.177  17.018  1.00  0.00     0.120 C 
ATOM     28  C   UNL     1      73.128  53.999  17.238  1.00  0.00     0.014 C 
ATOM     29  C   UNL     1      74.191  56.158  17.790  1.00  0.00     0.014 C 
ENDROOT
BRANCH   1  30
ATOM     30  C   UNL     1      69.208  55.156  27.092  1.00  0.00     0.048 C 
ATOM     31  O   UNL     1      68.711  54.298  27.871  1.00  0.00    -0.550 OA
ATOM     32  O   UNL     1      70.348  55.840  27.500  1.00  0.00    -0.550 OA
ENDBRANCH   1  30
BRANCH  27  33
ATOM     33  O   UNL     1      72.212  56.227  15.673  1.00  0.00    -0.393 OA
ATOM     34  H   UNL     1      72.194  57.182  15.399  1.00  0.00     0.210 HD
ENDBRANCH  27  33
TORSDOF 2
ENDMDL
MODEL 4
REMARK VINA RESULT:    -5.373      2.654      7.722
REMARK INTER + INTRA:          -6.179
REMARK INTER:                  -5.842
REMARK INTRA:                  -0.337
REMARK UNBOUND:                -0.336
REMARK SMILES C[C@@H]1[C@@H](C)CC[C@@]2(C(=O)[O-])CC[C@]3(C)C(=CC[C@H]4[C@@]5(C)CC[C@H](O)C(C)(C)[C@H]5CC[C@]43C)[C@@H]12
REMARK SMILES IDX 7 1 6 2 11 3 33 4 5 5 12 6 15 7 2 8 3 9 13 10 16 11 1 12
REMARK SMILES IDX 4 13 14 14 31 15 17 16 18 17 30 18 32 19 19 20 29 21 28 22
REMARK SMILES IDX 21 23 20 24 25 25 22 26 23 27 26 28 27 29 8 30 9 31 10 32
REMARK SMILES IDX 24 33
REMARK H PARENT 24 34
REMARK Flexibility Score: inf
ROOT
ATOM      1  C   UNL     1      72.261  54.341  23.113  1.00  0.00     0.017 C 
ATOM      2  C   UNL     1      73.060  55.010  24.271  1.00  0.00     0.014 C 
ATOM      3  C   UNL     1      71.283  55.444  22.570  1.00  0.00     0.014 C 
ATOM      4  C   UNL     1      73.170  53.780  21.929  1.00  0.00     0.030 C 
ATOM      5  C   UNL     1      74.372  54.313  24.608  1.00  0.00     0.004 C 
ATOM      6  C   UNL     1      70.506  55.056  21.292  1.00  0.00     0.013 C 
ATOM      7  C   UNL     1      72.837  54.488  20.599  1.00  0.00    -0.063 C 
ATOM      8  C   UNL     1      74.709  53.509  22.211  1.00  0.00    -0.003 C 
ATOM      9  C   UNL     1      75.320  54.292  23.406  1.00  0.00    -0.011 C 
ATOM     10  C   UNL     1      71.368  54.399  20.137  1.00  0.00    -0.006 C 
ATOM     11  C   UNL     1      73.627  55.477  20.147  1.00  0.00    -0.027 C 
ATOM     12  C   UNL     1      74.996  51.998  22.389  1.00  0.00     0.008 C 
ATOM     13  C   UNL     1      75.811  55.699  23.021  1.00  0.00     0.008 C 
ATOM     14  C   UNL     1      70.969  52.884  20.037  1.00  0.00     0.017 C 
ATOM     15  C   UNL     1      71.098  55.102  18.706  1.00  0.00    -0.020 C 
ATOM     16  C   UNL     1      73.331  56.308  18.949  1.00  0.00     0.032 C 
ATOM     17  C   UNL     1      71.823  56.496  18.621  1.00  0.00     0.006 C 
ATOM     18  C   UNL     1      71.660  54.223  17.535  1.00  0.00     0.008 C 
ATOM     19  C   UNL     1      69.540  55.259  18.532  1.00  0.00     0.012 C 
ATOM     20  C   UNL     1      71.564  57.306  17.236  1.00  0.00    -0.025 C 
ATOM     21  C   UNL     1      72.012  54.968  16.219  1.00  0.00     0.005 C 
ATOM     22  C   UNL     1      71.267  56.316  16.016  1.00  0.00     0.003 C 
ATOM     23  C   UNL     1      72.795  58.226  16.898  1.00  0.00     0.010 C 
ATOM     24  C   UNL     1      70.335  58.253  17.463  1.00  0.00     0.012 C 
ATOM     25  C   UNL     1      71.422  56.934  14.548  1.00  0.00    -0.006 C 
ATOM     26  C   UNL     1      72.767  58.877  15.516  1.00  0.00     0.033 C 
ATOM     27  C   UNL     1      72.705  57.803  14.429  1.00  0.00     0.120 C 
ATOM     28  C   UNL     1      70.159  57.768  14.176  1.00  0.00     0.014 C 
ATOM     29  C   UNL     1      71.505  55.825  13.460  1.00  0.00     0.014 C 
ENDROOT
BRANCH   1  30
ATOM     30  C   UNL     1      71.452  53.198  23.729  1.00  0.00     0.048 C 
ATOM     31  O   UNL     1      71.623  52.003  23.363  1.00  0.00    -0.550 OA
ATOM     32  O   UNL     1      70.452  53.470  24.656  1.00  0.00    -0.550 OA
ENDBRANCH   1  30
BRANCH  27  33
ATOM     33  O   UNL     1      72.769  58.417  13.166  1.00  0.00    -0.393 OA
ATOM     34  H   UNL     1      72.050  58.015  12.609  1.00  0.00     0.210 HD
ENDBRANCH  27  33
TORSDOF 2
ENDMDL
MODEL 5
REMARK VINA RESULT:    -5.353      1.638      3.735
REMARK INTER + INTRA:          -6.158
REMARK INTER:                  -5.840
REMARK INTRA:                  -0.318
REMARK UNBOUND:                -0.336
REMARK SMILES C[C@@H]1[C@@H](C)CC[C@@]2(C(=O)[O-])CC[C@]3(C)C(=CC[C@H]4[C@@]5(C)CC[C@H](O)C(C)(C)[C@H]5CC[C@]43C)[C@@H]12
REMARK SMILES IDX 7 1 6 2 11 3 33 4 5 5 12 6 15 7 2 8 3 9 13 10 16 11 1 12
REMARK SMILES IDX 4 13 14 14 31 15 17 16 18 17 30 18 32 19 19 20 29 21 28 22
REMARK SMILES IDX 21 23 20 24 25 25 22 26 23 27 26 28 27 29 8 30 9 31 10 32
REMARK SMILES IDX 24 33
REMARK H PARENT 24 34
REMARK Flexibility Score: inf
ROOT
ATOM      1  C   UNL     1      73.841  56.400  18.204  1.00  0.00     0.017 C 
ATOM      2  C   UNL     1      73.440  57.419  17.097  1.00  0.00     0.014 C 
ATOM      3  C   UNL     1      74.209  57.258  19.467  1.00  0.00     0.014 C 
ATOM      4  C   UNL     1      72.702  55.344  18.567  1.00  0.00     0.030 C 
ATOM      5  C   UNL     1      72.594  56.825  15.978  1.00  0.00     0.004 C 
ATOM      6  C   UNL     1      74.473  56.444  20.755  1.00  0.00     0.013 C 
ATOM      7  C   UNL     1      72.282  55.478  20.046  1.00  0.00    -0.063 C 
ATOM      8  C   UNL     1      71.528  55.099  17.526  1.00  0.00    -0.003 C 
ATOM      9  C   UNL     1      71.279  56.252  16.513  1.00  0.00    -0.011 C 
ATOM     10  C   UNL     1      73.411  55.317  21.085  1.00  0.00    -0.006 C 
ATOM     11  C   UNL     1      71.158  56.141  20.369  1.00  0.00    -0.027 C 
ATOM     12  C   UNL     1      71.723  53.772  16.753  1.00  0.00     0.008 C 
ATOM     13  C   UNL     1      70.342  57.344  17.058  1.00  0.00     0.008 C 
ATOM     14  C   UNL     1      74.098  53.924  20.861  1.00  0.00     0.017 C 
ATOM     15  C   UNL     1      72.895  55.401  22.616  1.00  0.00    -0.020 C 
ATOM     16  C   UNL     1      70.728  56.438  21.762  1.00  0.00     0.032 C 
ATOM     17  C   UNL     1      71.877  56.586  22.800  1.00  0.00     0.006 C 
ATOM     18  C   UNL     1      72.146  54.087  23.027  1.00  0.00     0.008 C 
ATOM     19  C   UNL     1      74.157  55.587  23.540  1.00  0.00     0.012 C 
ATOM     20  C   UNL     1      71.343  56.785  24.322  1.00  0.00    -0.025 C 
ATOM     21  C   UNL     1      71.119  54.210  24.185  1.00  0.00     0.005 C 
ATOM     22  C   UNL     1      71.358  55.411  25.140  1.00  0.00     0.003 C 
ATOM     23  C   UNL     1      69.894  57.399  24.321  1.00  0.00     0.010 C 
ATOM     24  C   UNL     1      72.282  57.829  25.020  1.00  0.00     0.012 C 
ATOM     25  C   UNL     1      70.474  55.372  26.475  1.00  0.00    -0.006 C 
ATOM     26  C   UNL     1      69.199  57.438  25.681  1.00  0.00     0.033 C 
ATOM     27  C   UNL     1      69.081  56.024  26.254  1.00  0.00     0.120 C 
ATOM     28  C   UNL     1      71.229  56.074  27.643  1.00  0.00     0.014 C 
ATOM     29  C   UNL     1      70.237  53.916  26.968  1.00  0.00     0.014 C 
ENDROOT
BRANCH   1  30
ATOM     30  C   UNL     1      75.086  55.663  17.705  1.00  0.00     0.048 C 
ATOM     31  O   UNL     1      76.121  56.291  17.352  1.00  0.00    -0.550 OA
ATOM     32  O   UNL     1      75.069  54.280  17.561  1.00  0.00    -0.550 OA
ENDBRANCH   1  30
BRANCH  27  33
ATOM     33  O   UNL     1      68.362  56.071  27.461  1.00  0.00    -0.393 OA
ATOM     34  H   UNL     1      67.898  55.197  27.558  1.00  0.00     0.210 HD
ENDBRANCH  27  33
TORSDOF 2
ENDMDL
MODEL 6
REMARK VINA RESULT:    -5.297      1.285      1.530
REMARK INTER + INTRA:          -6.097
REMARK INTER:                  -5.795
REMARK INTRA:                  -0.302
REMARK UNBOUND:                -0.336
REMARK SMILES C[C@@H]1[C@@H](C)CC[C@@]2(C(=O)[O-])CC[C@]3(C)C(=CC[C@H]4[C@@]5(C)CC[C@H](O)C(C)(C)[C@H]5CC[C@]43C)[C@@H]12
REMARK SMILES IDX 7 1 6 2 11 3 33 4 5 5 12 6 15 7 2 8 3 9 13 10 16 11 1 12
REMARK SMILES IDX 4 13 14 14 31 15 17 16 18 17 30 18 32 19 19 20 29 21 28 22
REMARK SMILES IDX 21 23 20 24 25 25 22 26 23 27 26 28 27 29 8 30 9 31 10 32
REMARK SMILES IDX 24 33
REMARK H PARENT 24 34
REMARK Flexibility Score: inf
ROOT
ATOM      1  C   UNL     1      72.907  55.521  17.752  1.00  0.00     0.017 C 
ATOM      2  C   UNL     1      73.815  54.284  17.485  1.00  0.00     0.014 C 
ATOM      3  C   UNL     1      71.467  54.951  18.013  1.00  0.00     0.014 C 
ATOM      4  C   UNL     1      73.373  56.423  18.982  1.00  0.00     0.030 C 
ATOM      5  C   UNL     1      75.301  54.544  17.694  1.00  0.00     0.004 C 
ATOM      6  C   UNL     1      70.425  55.994  18.476  1.00  0.00     0.013 C 
ATOM      7  C   UNL     1      72.284  56.465  20.075  1.00  0.00    -0.063 C 
ATOM      8  C   UNL     1      74.872  56.302  19.492  1.00  0.00    -0.003 C 
ATOM      9  C   UNL     1      75.598  54.976  19.132  1.00  0.00    -0.011 C 
ATOM     10  C   UNL     1      70.898  56.973  19.628  1.00  0.00    -0.006 C 
ATOM     11  C   UNL     1      72.398  55.690  21.168  1.00  0.00    -0.027 C 
ATOM     12  C   UNL     1      75.731  57.500  19.018  1.00  0.00     0.008 C 
ATOM     13  C   UNL     1      75.339  53.849  20.149  1.00  0.00     0.008 C 
ATOM     14  C   UNL     1      71.071  58.404  19.006  1.00  0.00     0.017 C 
ATOM     15  C   UNL     1      69.823  57.056  20.832  1.00  0.00    -0.020 C 
ATOM     16  C   UNL     1      71.351  55.558  22.217  1.00  0.00     0.032 C 
ATOM     17  C   UNL     1      69.888  55.768  21.732  1.00  0.00     0.006 C 
ATOM     18  C   UNL     1      70.120  58.281  21.765  1.00  0.00     0.008 C 
ATOM     19  C   UNL     1      68.394  57.230  20.191  1.00  0.00     0.012 C 
ATOM     20  C   UNL     1      68.803  55.735  22.941  1.00  0.00    -0.025 C 
ATOM     21  C   UNL     1      69.595  58.183  23.223  1.00  0.00     0.005 C 
ATOM     22  C   UNL     1      68.403  57.208  23.420  1.00  0.00     0.003 C 
ATOM     23  C   UNL     1      69.357  54.903  24.156  1.00  0.00     0.010 C 
ATOM     24  C   UNL     1      67.530  54.985  22.415  1.00  0.00     0.012 C 
ATOM     25  C   UNL     1      67.696  57.320  24.852  1.00  0.00    -0.006 C 
ATOM     26  C   UNL     1      68.521  54.974  25.434  1.00  0.00     0.033 C 
ATOM     27  C   UNL     1      68.403  56.424  25.907  1.00  0.00     0.120 C 
ATOM     28  C   UNL     1      66.187  56.948  24.740  1.00  0.00     0.014 C 
ATOM     29  C   UNL     1      67.711  58.779  25.391  1.00  0.00     0.014 C 
ENDROOT
BRANCH   1  30
ATOM     30  C   UNL     1      72.902  56.358  16.472  1.00  0.00     0.048 C 
ATOM     31  O   UNL     1      73.517  57.457  16.405  1.00  0.00    -0.550 OA
ATOM     32  O   UNL     1      72.148  55.953  15.375  1.00  0.00    -0.550 OA
ENDBRANCH   1  30
BRANCH  27  33
ATOM     33  O   UNL     1      67.707  56.458  27.128  1.00  0.00    -0.393 OA
ATOM     34  H   UNL     1      68.266  55.977  27.795  1.00  0.00     0.210 HD
ENDBRANCH  27  33
TORSDOF 2
ENDMDL
MODEL 7
REMARK VINA RESULT:    -5.294      1.797      2.469
REMARK INTER + INTRA:          -6.094
REMARK INTER:                  -6.238
REMARK INTRA:                   0.144
REMARK UNBOUND:                -0.336
REMARK SMILES C[C@@H]1[C@@H](C)CC[C@@]2(C(=O)[O-])CC[C@]3(C)C(=CC[C@H]4[C@@]5(C)CC[C@H](O)C(C)(C)[C@H]5CC[C@]43C)[C@@H]12
REMARK SMILES IDX 7 1 6 2 11 3 33 4 5 5 12 6 15 7 2 8 3 9 13 10 16 11 1 12
REMARK SMILES IDX 4 13 14 14 31 15 17 16 18 17 30 18 32 19 19 20 29 21 28 22
REMARK SMILES IDX 21 23 20 24 25 25 22 26 23 27 26 28 27 29 8 30 9 31 10 32
REMARK SMILES IDX 24 33
REMARK H PARENT 24 34
REMARK Flexibility Score: inf
ROOT
ATOM      1  C   UNL     1      72.010  54.355  18.684  1.00  0.00     0.017 C 
ATOM      2  C   UNL     1      73.548  54.112  18.708  1.00  0.00     0.014 C 
ATOM      3  C   UNL     1      71.426  53.547  19.898  1.00  0.00     0.014 C 
ATOM      4  C   UNL     1      71.588  55.890  18.790  1.00  0.00     0.030 C 
ATOM      5  C   UNL     1      74.358  55.158  17.953  1.00  0.00     0.004 C 
ATOM      6  C   UNL     1      69.925  53.782  20.178  1.00  0.00     0.013 C 
ATOM      7  C   UNL     1      70.741  56.139  20.056  1.00  0.00    -0.063 C 
ATOM      8  C   UNL     1      72.663  57.003  18.436  1.00  0.00    -0.003 C 
ATOM      9  C   UNL     1      74.149  56.558  18.538  1.00  0.00    -0.011 C 
ATOM     10  C   UNL     1      69.456  55.295  20.186  1.00  0.00    -0.006 C 
ATOM     11  C   UNL     1      71.310  56.675  21.150  1.00  0.00    -0.027 C 
ATOM     12  C   UNL     1      72.407  57.615  17.037  1.00  0.00     0.008 C 
ATOM     13  C   UNL     1      74.724  56.692  19.960  1.00  0.00     0.008 C 
ATOM     14  C   UNL     1      68.573  55.535  18.910  1.00  0.00     0.017 C 
ATOM     15  C   UNL     1      68.581  55.652  21.498  1.00  0.00    -0.020 C 
ATOM     16  C   UNL     1      70.621  56.841  22.459  1.00  0.00     0.032 C 
ATOM     17  C   UNL     1      69.504  55.802  22.763  1.00  0.00     0.006 C 
ATOM     18  C   UNL     1      67.828  57.014  21.316  1.00  0.00     0.008 C 
ATOM     19  C   UNL     1      67.525  54.500  21.699  1.00  0.00     0.012 C 
ATOM     20  C   UNL     1      68.706  56.107  24.146  1.00  0.00    -0.025 C 
ATOM     21  C   UNL     1      67.444  57.771  22.616  1.00  0.00     0.005 C 
ATOM     22  C   UNL     1      67.329  56.874  23.879  1.00  0.00     0.003 C 
ATOM     23  C   UNL     1      69.608  56.941  25.129  1.00  0.00     0.010 C 
ATOM     24  C   UNL     1      68.422  54.731  24.842  1.00  0.00     0.012 C 
ATOM     25  C   UNL     1      66.669  57.605  25.142  1.00  0.00    -0.006 C 
ATOM     26  C   UNL     1      68.901  57.472  26.375  1.00  0.00     0.033 C 
ATOM     27  C   UNL     1      67.732  58.373  25.974  1.00  0.00     0.120 C 
ATOM     28  C   UNL     1      65.919  56.570  26.033  1.00  0.00     0.014 C 
ATOM     29  C   UNL     1      65.579  58.629  24.713  1.00  0.00     0.014 C 
ENDROOT
BRANCH   1  30
ATOM     30  C   UNL     1      71.483  53.764  17.375  1.00  0.00     0.048 C 
ATOM     31  O   UNL     1      71.834  54.231  16.257  1.00  0.00    -0.550 OA
ATOM     32  O   UNL     1      70.540  52.743  17.399  1.00  0.00    -0.550 OA
ENDBRANCH   1  30
BRANCH  27  33
ATOM     33  O   UNL     1      67.150  58.922  27.131  1.00  0.00    -0.393 OA
ATOM     34  H   UNL     1      67.827  59.525  27.539  1.00  0.00     0.210 HD
ENDBRANCH  27  33
TORSDOF 2
ENDMDL
MODEL 8
REMARK VINA RESULT:    -5.149      1.709      2.885
REMARK INTER + INTRA:          -5.936
REMARK INTER:                  -5.600
REMARK INTRA:                  -0.336
REMARK UNBOUND:                -0.336
REMARK SMILES C[C@@H]1[C@@H](C)CC[C@@]2(C(=O)[O-])CC[C@]3(C)C(=CC[C@H]4[C@@]5(C)CC[C@H](O)C(C)(C)[C@H]5CC[C@]43C)[C@@H]12
REMARK SMILES IDX 7 1 6 2 11 3 33 4 5 5 12 6 15 7 2 8 3 9 13 10 16 11 1 12
REMARK SMILES IDX 4 13 14 14 31 15 17 16 18 17 30 18 32 19 19 20 29 21 28 22
REMARK SMILES IDX 21 23 20 24 25 25 22 26 23 27 26 28 27 29 8 30 9 31 10 32
REMARK SMILES IDX 24 33
REMARK H PARENT 24 34
REMARK Flexibility Score: inf
ROOT
ATOM      1  C   UNL     1      71.033  57.023  17.281  1.00  0.00     0.017 C 
ATOM      2  C   UNL     1      70.546  56.116  16.112  1.00  0.00     0.014 C 
ATOM      3  C   UNL     1      69.739  57.455  18.059  1.00  0.00     0.014 C 
ATOM      4  C   UNL     1      72.062  56.316  18.273  1.00  0.00     0.030 C 
ATOM      5  C   UNL     1      71.623  55.205  15.539  1.00  0.00     0.004 C 
ATOM      6  C   UNL     1      69.994  58.225  19.375  1.00  0.00     0.013 C 
ATOM      7  C   UNL     1      71.487  56.250  19.704  1.00  0.00    -0.063 C 
ATOM      8  C   UNL     1      72.843  55.027  17.773  1.00  0.00    -0.003 C 
ATOM      9  C   UNL     1      72.176  54.252  16.603  1.00  0.00    -0.011 C 
ATOM     10  C   UNL     1      71.089  57.601  20.335  1.00  0.00    -0.006 C 
ATOM     11  C   UNL     1      70.943  55.107  20.158  1.00  0.00    -0.027 C 
ATOM     12  C   UNL     1      74.307  55.361  17.397  1.00  0.00     0.008 C 
ATOM     13  C   UNL     1      71.127  53.228  17.074  1.00  0.00     0.008 C 
ATOM     14  C   UNL     1      72.343  58.545  20.318  1.00  0.00     0.017 C 
ATOM     15  C   UNL     1      70.557  57.470  21.856  1.00  0.00    -0.020 C 
ATOM     16  C   UNL     1      70.249  54.969  21.468  1.00  0.00     0.032 C 
ATOM     17  C   UNL     1      69.563  56.259  22.000  1.00  0.00     0.006 C 
ATOM     18  C   UNL     1      71.746  57.206  22.844  1.00  0.00     0.008 C 
ATOM     19  C   UNL     1      69.858  58.829  22.240  1.00  0.00     0.012 C 
ATOM     20  C   UNL     1      68.931  56.081  23.487  1.00  0.00    -0.025 C 
ATOM     21  C   UNL     1      71.391  56.497  24.179  1.00  0.00     0.005 C 
ATOM     22  C   UNL     1      69.909  56.646  24.619  1.00  0.00     0.003 C 
ATOM     23  C   UNL     1      68.598  54.568  23.766  1.00  0.00     0.010 C 
ATOM     24  C   UNL     1      67.572  56.862  23.521  1.00  0.00     0.012 C 
ATOM     25  C   UNL     1      69.619  56.155  26.115  1.00  0.00    -0.006 C 
ATOM     26  C   UNL     1      68.197  54.240  25.203  1.00  0.00     0.033 C 
ATOM     27  C   UNL     1      69.319  54.632  26.166  1.00  0.00     0.120 C 
ATOM     28  C   UNL     1      68.439  56.966  26.731  1.00  0.00     0.014 C 
ATOM     29  C   UNL     1      70.826  56.427  27.057  1.00  0.00     0.014 C 
ENDROOT
BRANCH   1  30
ATOM     30  C   UNL     1      71.687  58.254  16.651  1.00  0.00     0.048 C 
ATOM     31  O   UNL     1      72.892  58.545  16.879  1.00  0.00    -0.550 OA
ATOM     32  O   UNL     1      70.933  59.123  15.870  1.00  0.00    -0.550 OA
ENDBRANCH   1  30
BRANCH  27  33
ATOM     33  O   UNL     1      68.968  54.241  27.470  1.00  0.00    -0.393 OA
ATOM     34  H   UNL     1      68.745  55.070  27.972  1.00  0.00     0.210 HD
ENDBRANCH  27  33
TORSDOF 2
ENDMDL
MODEL 9
REMARK VINA RESULT:    -5.055      2.276      8.001
REMARK INTER + INTRA:          -5.834
REMARK INTER:                  -5.512
REMARK INTRA:                  -0.322
REMARK UNBOUND:                -0.336
REMARK SMILES C[C@@H]1[C@@H](C)CC[C@@]2(C(=O)[O-])CC[C@]3(C)C(=CC[C@H]4[C@@]5(C)CC[C@H](O)C(C)(C)[C@H]5CC[C@]43C)[C@@H]12
REMARK SMILES IDX 7 1 6 2 11 3 33 4 5 5 12 6 15 7 2 8 3 9 13 10 16 11 1 12
REMARK SMILES IDX 4 13 14 14 31 15 17 16 18 17 30 18 32 19 19 20 29 21 28 22
REMARK SMILES IDX 21 23 20 24 25 25 22 26 23 27 26 28 27 29 8 30 9 31 10 32
REMARK SMILES IDX 24 33
REMARK H PARENT 24 34
REMARK Flexibility Score: inf
ROOT
ATOM      1  C   UNL     1      71.914  53.863  23.119  1.00  0.00     0.017 C 
ATOM      2  C   UNL     1      71.956  52.345  23.463  1.00  0.00     0.014 C 
ATOM      3  C   UNL     1      73.121  54.119  22.148  1.00  0.00     0.014 C 
ATOM      4  C   UNL     1      70.551  54.344  22.443  1.00  0.00     0.030 C 
ATOM      5  C   UNL     1      70.635  51.783  23.973  1.00  0.00     0.004 C 
ATOM      6  C   UNL     1      73.175  55.536  21.532  1.00  0.00     0.013 C 
ATOM      7  C   UNL     1      70.810  54.910  21.031  1.00  0.00    -0.063 C 
ATOM      8  C   UNL     1      69.256  53.441  22.609  1.00  0.00    -0.003 C 
ATOM      9  C   UNL     1      69.520  51.945  22.936  1.00  0.00    -0.011 C 
ATOM     10  C   UNL     1      71.809  56.082  20.945  1.00  0.00    -0.006 C 
ATOM     11  C   UNL     1      70.567  54.150  19.948  1.00  0.00    -0.027 C 
ATOM     12  C   UNL     1      68.284  54.031  23.660  1.00  0.00     0.008 C 
ATOM     13  C   UNL     1      69.755  51.083  21.682  1.00  0.00     0.008 C 
ATOM     14  C   UNL     1      71.305  57.234  21.885  1.00  0.00     0.017 C 
ATOM     15  C   UNL     1      71.985  56.671  19.450  1.00  0.00    -0.020 C 
ATOM     16  C   UNL     1      70.898  54.547  18.552  1.00  0.00     0.032 C 
ATOM     17  C   UNL     1      72.112  55.507  18.400  1.00  0.00     0.006 C 
ATOM     18  C   UNL     1      70.738  57.527  19.035  1.00  0.00     0.008 C 
ATOM     19  C   UNL     1      73.266  57.588  19.441  1.00  0.00     0.012 C 
ATOM     20  C   UNL     1      72.348  56.002  16.870  1.00  0.00    -0.025 C 
ATOM     21  C   UNL     1      70.470  57.665  17.512  1.00  0.00     0.005 C 
ATOM     22  C   UNL     1      71.717  57.449  16.611  1.00  0.00     0.003 C 
ATOM     23  C   UNL     1      71.748  54.961  15.855  1.00  0.00     0.010 C 
ATOM     24  C   UNL     1      73.895  56.045  16.619  1.00  0.00     0.012 C 
ATOM     25  C   UNL     1      71.498  57.862  15.080  1.00  0.00    -0.006 C 
ATOM     26  C   UNL     1      71.717  55.411  14.396  1.00  0.00     0.033 C 
ATOM     27  C   UNL     1      70.892  56.692  14.256  1.00  0.00     0.120 C 
ATOM     28  C   UNL     1      72.842  58.337  14.450  1.00  0.00     0.014 C 
ATOM     29  C   UNL     1      70.538  59.078  14.942  1.00  0.00     0.014 C 
ENDROOT
BRANCH   1  30
ATOM     30  C   UNL     1      72.138  54.625  24.427  1.00  0.00     0.048 C 
ATOM     31  O   UNL     1      71.219  55.311  24.951  1.00  0.00    -0.550 OA
ATOM     32  O   UNL     1      73.394  54.635  25.024  1.00  0.00    -0.550 OA
ENDBRANCH   1  30
BRANCH  27  33
ATOM     33  O   UNL     1      70.802  57.040  12.897  1.00  0.00    -0.393 OA
ATOM     34  H   UNL     1      71.665  56.787  12.474  1.00  0.00     0.210 HD
ENDBRANCH  27  33
TORSDOF 2
ENDMDL
