MODEL 1
REMARK VINA RESULT:    -3.385      0.000      0.000
REMARK INTER + INTRA:          -5.392
REMARK INTER:                  -4.672
REMARK INTRA:                  -0.721
REMARK UNBOUND:                -0.721
REMARK SMILES OC[C@H](O)C(O)[C@@H](O)CO
REMARK SMILES IDX 5 1 7 2 9 3 10 4 8 6 3 8 2 9 1 10 4 12 6 14
REMARK H PARENT 10 5 8 7 1 11 4 13 6 15
REMARK Flexibility Score: inf
ROOT
ATOM      1  C   UNL     1     145.133 144.500 124.450  1.00  0.00     0.176 C 
ENDROOT
BRANCH   1   2
ATOM      2  C   UNL     1     144.023 145.526 124.094  1.00  0.00     0.171 C 
BRANCH   2   3
ATOM      3  C   UNL     1     143.535 145.320 122.649  1.00  0.00     0.190 C 
BRANCH   3   4
ATOM      4  O   UNL     1     144.497 145.772 121.735  1.00  0.00    -0.394 OA
ATOM      5  H   UNL     1     145.350 145.854 122.236  1.00  0.00     0.210 HD
ENDBRANCH   3   4
ENDBRANCH   2   3
BRANCH   2   6
ATOM      6  O   UNL     1     144.498 146.840 124.242  1.00  0.00    -0.388 OA
ATOM      7  H   UNL     1     144.134 147.187 125.098  1.00  0.00     0.211 HD
ENDBRANCH   2   6
ENDBRANCH   1   2
BRANCH   1   8
ATOM      8  C   UNL     1     145.670 144.626 125.905  1.00  0.00     0.171 C 
BRANCH   8   9
ATOM      9  C   UNL     1     147.079 145.241 126.028  1.00  0.00     0.190 C 
BRANCH   9  10
ATOM     10  O   UNL     1     147.125 146.483 125.380  1.00  0.00    -0.394 OA
ATOM     11  H   UNL     1     147.885 146.445 124.742  1.00  0.00     0.210 HD
ENDBRANCH   9  10
ENDBRANCH   8   9
BRANCH   8  12
ATOM     12  O   UNL     1     145.631 143.372 126.541  1.00  0.00    -0.388 OA
ATOM     13  H   UNL     1     146.453 143.289 127.091  1.00  0.00     0.211 HD
ENDBRANCH   8  12
ENDBRANCH   1   8
BRANCH   1  14
ATOM     14  O   UNL     1     146.177 144.499 123.504  1.00  0.00    -0.388 OA
ATOM     15  H   UNL     1     145.982 143.803 122.827  1.00  0.00     0.211 HD
ENDBRANCH   1  14
TORSDOF 9
ENDMDL
MODEL 2
REMARK VINA RESULT:    -3.239      1.357      3.962
REMARK INTER + INTRA:          -5.190
REMARK INTER:                  -4.714
REMARK INTRA:                  -0.477
REMARK UNBOUND:                -0.721
REMARK SMILES OC[C@H](O)C(O)[C@@H](O)CO
REMARK SMILES IDX 5 1 7 2 9 3 10 4 8 6 3 8 2 9 1 10 4 12 6 14
REMARK H PARENT 10 5 8 7 1 11 4 13 6 15
REMARK Flexibility Score: inf
ROOT
ATOM      1  C   UNL     1     145.617 145.287 125.236  1.00  0.00     0.176 C 
ENDROOT
BRANCH   1   2
ATOM      2  C   UNL     1     145.270 144.676 126.621  1.00  0.00     0.171 C 
BRANCH   2   3
ATOM      3  C   UNL     1     145.681 145.633 127.755  1.00  0.00     0.190 C 
BRANCH   3   4
ATOM      4  O   UNL     1     146.910 146.241 127.466  1.00  0.00    -0.394 OA
ATOM      5  H   UNL     1     147.434 146.240 128.310  1.00  0.00     0.210 HD
ENDBRANCH   3   4
ENDBRANCH   2   3
BRANCH   2   6
ATOM      6  O   UNL     1     145.920 143.443 126.794  1.00  0.00    -0.388 OA
ATOM      7  H   UNL     1     145.215 142.762 126.954  1.00  0.00     0.211 HD
ENDBRANCH   2   6
ENDBRANCH   1   2
BRANCH   1   8
ATOM      8  C   UNL     1     144.561 144.994 124.132  1.00  0.00     0.171 C 
BRANCH   8   9
ATOM      9  C   UNL     1     144.881 143.783 123.231  1.00  0.00     0.190 C 
BRANCH   9  10
ATOM     10  O   UNL     1     146.009 144.049 122.442  1.00  0.00    -0.394 OA
ATOM     11  H   UNL     1     146.048 145.034 122.322  1.00  0.00     0.210 HD
ENDBRANCH   9  10
ENDBRANCH   8   9
BRANCH   8  12
ATOM     12  O   UNL     1     144.357 146.142 123.345  1.00  0.00    -0.388 OA
ATOM     13  H   UNL     1     144.842 146.892 123.779  1.00  0.00     0.211 HD
ENDBRANCH   8  12
ENDBRANCH   1   8
BRANCH   1  14
ATOM     14  O   UNL     1     146.920 144.951 124.820  1.00  0.00    -0.388 OA
ATOM     15  H   UNL     1     147.229 145.641 124.179  1.00  0.00     0.211 HD
ENDBRANCH   1  14
TORSDOF 9
ENDMDL
MODEL 3
REMARK VINA RESULT:    -3.172     16.358     18.223
REMARK INTER + INTRA:          -5.098
REMARK INTER:                  -4.668
REMARK INTRA:                  -0.430
REMARK UNBOUND:                -0.721
REMARK SMILES OC[C@H](O)C(O)[C@@H](O)CO
REMARK SMILES IDX 5 1 7 2 9 3 10 4 8 6 3 8 2 9 1 10 4 12 6 14
REMARK H PARENT 10 5 8 7 1 11 4 13 6 15
REMARK Flexibility Score: inf
ROOT
ATOM      1  C   UNL     1     145.592 129.517 133.549  1.00  0.00     0.176 C 
ENDROOT
BRANCH   1   2
ATOM      2  C   UNL     1     145.817 130.807 132.714  1.00  0.00     0.171 C 
BRANCH   2   3
ATOM      3  C   UNL     1     144.528 131.205 131.972  1.00  0.00     0.190 C 
BRANCH   3   4
ATOM      4  O   UNL     1     144.078 130.151 131.165  1.00  0.00    -0.394 OA
ATOM      5  H   UNL     1     143.206 130.436 130.784  1.00  0.00     0.210 HD
ENDBRANCH   3   4
ENDBRANCH   2   3
BRANCH   2   6
ATOM      6  O   UNL     1     146.851 130.619 131.782  1.00  0.00    -0.388 OA
ATOM      7  H   UNL     1     147.435 131.421 131.831  1.00  0.00     0.211 HD
ENDBRANCH   2   6
ENDBRANCH   1   2
BRANCH   1   8
ATOM      8  C   UNL     1     146.073 129.625 135.024  1.00  0.00     0.171 C 
BRANCH   8   9
ATOM      9  C   UNL     1     147.124 128.576 135.444  1.00  0.00     0.190 C 
BRANCH   9  10
ATOM     10  O   UNL     1     146.521 127.320 135.603  1.00  0.00    -0.394 OA
ATOM     11  H   UNL     1     146.831 126.757 134.846  1.00  0.00     0.210 HD
ENDBRANCH   9  10
ENDBRANCH   8   9
BRANCH   8  12
ATOM     12  O   UNL     1     144.969 129.579 135.894  1.00  0.00    -0.388 OA
ATOM     13  H   UNL     1     144.293 128.973 135.490  1.00  0.00     0.211 HD
ENDBRANCH   8  12
ENDBRANCH   1   8
BRANCH   1  14
ATOM     14  O   UNL     1     146.112 128.374 132.909  1.00  0.00    -0.388 OA
ATOM     15  H   UNL     1     146.303 128.606 131.965  1.00  0.00     0.211 HD
ENDBRANCH   1  14
TORSDOF 9
ENDMDL
MODEL 4
REMARK VINA RESULT:    -3.153     15.606     16.734
REMARK INTER + INTRA:          -5.071
REMARK INTER:                  -4.079
REMARK INTRA:                  -0.992
REMARK UNBOUND:                -0.721
REMARK SMILES OC[C@H](O)C(O)[C@@H](O)CO
REMARK SMILES IDX 5 1 7 2 9 3 10 4 8 6 3 8 2 9 1 10 4 12 6 14
REMARK H PARENT 10 5 8 7 1 11 4 13 6 15
REMARK Flexibility Score: inf
ROOT
ATOM      1  C   UNL     1     142.446 129.413 120.090  1.00  0.00     0.176 C 
ENDROOT
BRANCH   1   2
ATOM      2  C   UNL     1     142.301 128.043 120.809  1.00  0.00     0.171 C 
BRANCH   2   3
ATOM      3  C   UNL     1     141.537 128.205 122.136  1.00  0.00     0.190 C 
BRANCH   3   4
ATOM      4  O   UNL     1     142.334 128.856 123.088  1.00  0.00    -0.394 OA
ATOM      5  H   UNL     1     143.037 128.210 123.361  1.00  0.00     0.210 HD
ENDBRANCH   3   4
ENDBRANCH   2   3
BRANCH   2   6
ATOM      6  O   UNL     1     143.564 127.484 121.064  1.00  0.00    -0.388 OA
ATOM      7  H   UNL     1     143.416 126.536 121.321  1.00  0.00     0.211 HD
ENDBRANCH   2   6
ENDBRANCH   1   2
BRANCH   1   8
ATOM      8  C   UNL     1     143.912 129.788 119.729  1.00  0.00     0.171 C 
BRANCH   8   9
ATOM      9  C   UNL     1     144.582 130.790 120.691  1.00  0.00     0.190 C 
BRANCH   9  10
ATOM     10  O   UNL     1     144.714 130.224 121.967  1.00  0.00    -0.394 OA
ATOM     11  H   UNL     1     144.348 130.885 122.612  1.00  0.00     0.210 HD
ENDBRANCH   9  10
ENDBRANCH   8   9
BRANCH   8  12
ATOM     12  O   UNL     1     143.974 130.268 118.408  1.00  0.00    -0.388 OA
ATOM     13  H   UNL     1     143.208 129.876 117.911  1.00  0.00     0.211 HD
ENDBRANCH   8  12
ENDBRANCH   1   8
BRANCH   1  14
ATOM     14  O   UNL     1     141.795 130.449 120.787  1.00  0.00    -0.388 OA
ATOM     15  H   UNL     1     141.540 130.110 121.682  1.00  0.00     0.211 HD
ENDBRANCH   1  14
TORSDOF 9
ENDMDL
MODEL 5
REMARK VINA RESULT:    -3.139     14.759     15.783
REMARK INTER + INTRA:          -5.052
REMARK INTER:                  -4.349
REMARK INTRA:                  -0.703
REMARK UNBOUND:                -0.721
REMARK SMILES OC[C@H](O)C(O)[C@@H](O)CO
REMARK SMILES IDX 5 1 7 2 9 3 10 4 8 6 3 8 2 9 1 10 4 12 6 14
REMARK H PARENT 10 5 8 7 1 11 4 13 6 15
REMARK Flexibility Score: inf
ROOT
ATOM      1  C   UNL     1     143.816 130.633 121.107  1.00  0.00     0.176 C 
ENDROOT
BRANCH   1   2
ATOM      2  C   UNL     1     143.156 129.780 119.989  1.00  0.00     0.171 C 
BRANCH   2   3
ATOM      3  C   UNL     1     142.604 128.463 120.566  1.00  0.00     0.190 C 
BRANCH   3   4
ATOM      4  O   UNL     1     143.652 127.618 120.957  1.00  0.00    -0.394 OA
ATOM      5  H   UNL     1     144.442 127.874 120.412  1.00  0.00     0.210 HD
ENDBRANCH   3   4
ENDBRANCH   2   3
BRANCH   2   6
ATOM      6  O   UNL     1     144.084 129.491 118.975  1.00  0.00    -0.388 OA
ATOM      7  H   UNL     1     144.866 130.085 119.119  1.00  0.00     0.211 HD
ENDBRANCH   2   6
ENDBRANCH   1   2
BRANCH   1   8
ATOM      8  C   UNL     1     145.261 131.104 120.775  1.00  0.00     0.171 C 
BRANCH   8   9
ATOM      9  C   UNL     1     146.113 131.501 121.998  1.00  0.00     0.190 C 
BRANCH   9  10
ATOM     10  O   UNL     1     146.593 130.355 122.647  1.00  0.00    -0.394 OA
ATOM     11  H   UNL     1     147.472 130.597 123.041  1.00  0.00     0.210 HD
ENDBRANCH   9  10
ENDBRANCH   8   9
BRANCH   8  12
ATOM     12  O   UNL     1     145.219 132.163 119.849  1.00  0.00    -0.388 OA
ATOM     13  H   UNL     1     144.889 131.795 118.988  1.00  0.00     0.211 HD
ENDBRANCH   8  12
ENDBRANCH   1   8
BRANCH   1  14
ATOM     14  O   UNL     1     143.745 130.004 122.366  1.00  0.00    -0.388 OA
ATOM     15  H   UNL     1     144.128 130.618 123.042  1.00  0.00     0.211 HD
ENDBRANCH   1  14
TORSDOF 9
ENDMDL
MODEL 6
REMARK VINA RESULT:    -3.118      1.926      2.966
REMARK INTER + INTRA:          -5.024
REMARK INTER:                  -4.316
REMARK INTRA:                  -0.708
REMARK UNBOUND:                -0.721
REMARK SMILES OC[C@H](O)C(O)[C@@H](O)CO
REMARK SMILES IDX 5 1 7 2 9 3 10 4 8 6 3 8 2 9 1 10 4 12 6 14
REMARK H PARENT 10 5 8 7 1 11 4 13 6 15
REMARK Flexibility Score: inf
ROOT
ATOM      1  C   UNL     1     144.423 143.716 123.787  1.00  0.00     0.176 C 
ENDROOT
BRANCH   1   2
ATOM      2  C   UNL     1     144.766 143.836 122.277  1.00  0.00     0.171 C 
BRANCH   2   3
ATOM      3  C   UNL     1     144.838 142.443 121.624  1.00  0.00     0.190 C 
BRANCH   3   4
ATOM      4  O   UNL     1     146.070 141.833 121.896  1.00  0.00    -0.394 OA
ATOM      5  H   UNL     1     146.036 140.929 121.487  1.00  0.00     0.210 HD
ENDBRANCH   3   4
ENDBRANCH   2   3
BRANCH   2   6
ATOM      6  O   UNL     1     145.994 144.496 122.100  1.00  0.00    -0.388 OA
ATOM      7  H   UNL     1     146.395 144.610 123.001  1.00  0.00     0.211 HD
ENDBRANCH   2   6
ENDBRANCH   1   2
BRANCH   1   8
ATOM      8  C   UNL     1     145.204 144.708 124.695  1.00  0.00     0.171 C 
BRANCH   8   9
ATOM      9  C   UNL     1     145.096 144.428 126.208  1.00  0.00     0.190 C 
BRANCH   9  10
ATOM     10  O   UNL     1     146.003 143.426 126.583  1.00  0.00    -0.394 OA
ATOM     11  H   UNL     1     146.822 143.564 126.038  1.00  0.00     0.210 HD
ENDBRANCH   9  10
ENDBRANCH   8   9
BRANCH   8  12
ATOM     12  O   UNL     1     144.806 146.028 124.417  1.00  0.00    -0.388 OA
ATOM     13  H   UNL     1     144.630 146.089 123.442  1.00  0.00     0.211 HD
ENDBRANCH   8  12
ENDBRANCH   1   8
BRANCH   1  14
ATOM     14  O   UNL     1     144.524 142.389 124.250  1.00  0.00    -0.388 OA
ATOM     15  H   UNL     1     145.164 142.371 125.005  1.00  0.00     0.211 HD
ENDBRANCH   1  14
TORSDOF 9
ENDMDL
MODEL 7
REMARK VINA RESULT:    -3.098     15.831     16.855
REMARK INTER + INTRA:          -4.995
REMARK INTER:                  -4.641
REMARK INTRA:                  -0.355
REMARK UNBOUND:                -0.721
REMARK SMILES OC[C@H](O)C(O)[C@@H](O)CO
REMARK SMILES IDX 5 1 7 2 9 3 10 4 8 6 3 8 2 9 1 10 4 12 6 14
REMARK H PARENT 10 5 8 7 1 11 4 13 6 15
REMARK Flexibility Score: inf
ROOT
ATOM      1  C   UNL     1     142.766 128.572 120.992  1.00  0.00     0.176 C 
ENDROOT
BRANCH   1   2
ATOM      2  C   UNL     1     143.454 129.954 121.164  1.00  0.00     0.171 C 
BRANCH   2   3
ATOM      3  C   UNL     1     143.762 130.583 119.793  1.00  0.00     0.190 C 
BRANCH   3   4
ATOM      4  O   UNL     1     144.085 129.590 118.857  1.00  0.00    -0.394 OA
ATOM      5  H   UNL     1     144.988 129.255 119.098  1.00  0.00     0.210 HD
ENDBRANCH   3   4
ENDBRANCH   2   3
BRANCH   2   6
ATOM      6  O   UNL     1     144.647 129.825 121.895  1.00  0.00    -0.388 OA
ATOM      7  H   UNL     1     144.421 129.979 122.850  1.00  0.00     0.211 HD
ENDBRANCH   2   6
ENDBRANCH   1   2
BRANCH   1   8
ATOM      8  C   UNL     1     141.596 128.319 121.985  1.00  0.00     0.171 C 
BRANCH   8   9
ATOM      9  C   UNL     1     141.463 129.363 123.113  1.00  0.00     0.190 C 
BRANCH   9  10
ATOM     10  O   UNL     1     142.002 128.861 124.306  1.00  0.00    -0.394 OA
ATOM     11  H   UNL     1     142.570 128.085 124.058  1.00  0.00     0.210 HD
ENDBRANCH   9  10
ENDBRANCH   8   9
BRANCH   8  12
ATOM     12  O   UNL     1     141.701 127.027 122.531  1.00  0.00    -0.388 OA
ATOM     13  H   UNL     1     142.415 127.049 123.220  1.00  0.00     0.211 HD
ENDBRANCH   8  12
ENDBRANCH   1   8
BRANCH   1  14
ATOM     14  O   UNL     1     143.695 127.513 120.994  1.00  0.00    -0.388 OA
ATOM     15  H   UNL     1     144.400 127.720 121.659  1.00  0.00     0.211 HD
ENDBRANCH   1  14
TORSDOF 9
ENDMDL
MODEL 8
REMARK VINA RESULT:    -3.090      1.857      3.041
REMARK INTER + INTRA:          -4.985
REMARK INTER:                  -4.490
REMARK INTRA:                  -0.495
REMARK UNBOUND:                -0.721
REMARK SMILES OC[C@H](O)C(O)[C@@H](O)CO
REMARK SMILES IDX 5 1 7 2 9 3 10 4 8 6 3 8 2 9 1 10 4 12 6 14
REMARK H PARENT 10 5 8 7 1 11 4 13 6 15
REMARK Flexibility Score: inf
ROOT
ATOM      1  C   UNL     1     144.718 143.871 125.951  1.00  0.00     0.176 C 
ENDROOT
BRANCH   1   2
ATOM      2  C   UNL     1     145.276 144.761 124.806  1.00  0.00     0.171 C 
BRANCH   2   3
ATOM      3  C   UNL     1     144.952 144.145 123.432  1.00  0.00     0.190 C 
BRANCH   3   4
ATOM      4  O   UNL     1     146.108 144.060 122.645  1.00  0.00    -0.394 OA
ATOM      5  H   UNL     1     146.510 144.968 122.631  1.00  0.00     0.210 HD
ENDBRANCH   3   4
ENDBRANCH   2   3
BRANCH   2   6
ATOM      6  O   UNL     1     146.667 144.913 124.931  1.00  0.00    -0.388 OA
ATOM      7  H   UNL     1     146.907 145.769 124.488  1.00  0.00     0.211 HD
ENDBRANCH   2   6
ENDBRANCH   1   2
BRANCH   1   8
ATOM      8  C   UNL     1     145.297 144.209 127.355  1.00  0.00     0.171 C 
BRANCH   8   9
ATOM      9  C   UNL     1     144.611 143.485 128.532  1.00  0.00     0.190 C 
BRANCH   9  10
ATOM     10  O   UNL     1     145.104 142.178 128.652  1.00  0.00    -0.394 OA
ATOM     11  H   UNL     1     145.936 142.135 128.111  1.00  0.00     0.210 HD
ENDBRANCH   9  10
ENDBRANCH   8   9
BRANCH   8  12
ATOM     12  O   UNL     1     145.274 145.600 127.561  1.00  0.00    -0.388 OA
ATOM     13  H   UNL     1     144.895 146.018 126.744  1.00  0.00     0.211 HD
ENDBRANCH   8  12
ENDBRANCH   1   8
BRANCH   1  14
ATOM     14  O   UNL     1     144.825 142.498 125.655  1.00  0.00    -0.388 OA
ATOM     15  H   UNL     1     145.513 142.384 124.952  1.00  0.00     0.211 HD
ENDBRANCH   1  14
TORSDOF 9
ENDMDL
MODEL 9
REMARK VINA RESULT:    -3.019     12.806     14.041
REMARK INTER + INTRA:          -4.886
REMARK INTER:                  -4.161
REMARK INTRA:                  -0.726
REMARK UNBOUND:                -0.721
REMARK SMILES OC[C@H](O)C(O)[C@@H](O)CO
REMARK SMILES IDX 5 1 7 2 9 3 10 4 8 6 3 8 2 9 1 10 4 12 6 14
REMARK H PARENT 10 5 8 7 1 11 4 13 6 15
REMARK Flexibility Score: inf
ROOT
ATOM      1  C   UNL     1     145.484 132.095 124.035  1.00  0.00     0.176 C 
ENDROOT
BRANCH   1   2
ATOM      2  C   UNL     1     146.115 131.413 122.790  1.00  0.00     0.171 C 
BRANCH   2   3
ATOM      3  C   UNL     1     145.035 131.096 121.739  1.00  0.00     0.190 C 
BRANCH   3   4
ATOM      4  O   UNL     1     144.462 129.840 121.985  1.00  0.00    -0.394 OA
ATOM      5  H   UNL     1     143.478 129.977 122.010  1.00  0.00     0.210 HD
ENDBRANCH   3   4
ENDBRANCH   2   3
BRANCH   2   6
ATOM      6  O   UNL     1     146.771 130.226 123.157  1.00  0.00    -0.388 OA
ATOM      7  H   UNL     1     146.068 129.543 123.317  1.00  0.00     0.211 HD
ENDBRANCH   2   6
ENDBRANCH   1   2
BRANCH   1   8
ATOM      8  C   UNL     1     146.506 132.434 125.158  1.00  0.00     0.171 C 
BRANCH   8   9
ATOM      9  C   UNL     1     146.330 131.629 126.462  1.00  0.00     0.190 C 
BRANCH   9  10
ATOM     10  O   UNL     1     146.278 130.256 126.181  1.00  0.00    -0.394 OA
ATOM     11  H   UNL     1     146.358 130.163 125.196  1.00  0.00     0.210 HD
ENDBRANCH   9  10
ENDBRANCH   8   9
BRANCH   8  12
ATOM     12  O   UNL     1     146.477 133.814 125.433  1.00  0.00    -0.388 OA
ATOM     13  H   UNL     1     145.525 134.083 125.516  1.00  0.00     0.211 HD
ENDBRANCH   8  12
ENDBRANCH   1   8
BRANCH   1  14
ATOM     14  O   UNL     1     144.378 131.376 124.531  1.00  0.00    -0.388 OA
ATOM     15  H   UNL     1     144.210 130.609 123.927  1.00  0.00     0.211 HD
ENDBRANCH   1  14
TORSDOF 9
ENDMDL
