MODEL 1
REMARK VINA RESULT:    -5.838      0.000      0.000
REMARK INTER + INTRA:          -6.453
REMARK INTER:                  -6.350
REMARK INTRA:                  -0.103
REMARK UNBOUND:                -0.103
REMARK SMILES Cc1ccc(C(C)C)cc1O
REMARK SMILES IDX 1 1 2 2 10 3 9 4 5 5 4 6 3 7 11 8 6 10 7 11 8 12
REMARK H PARENT 11 9
REMARK Flexibility Score: inf
ROOT
ATOM      1  C   UNL     1     -23.401 -13.396  27.028  1.00  0.00     0.048 C 
ATOM      2  C   UNL     1     -24.500 -12.422  27.350  1.00  0.00    -0.009 A 
ATOM      3  C   UNL     1     -24.786 -12.055  28.684  1.00  0.00     0.118 A 
ATOM      4  C   UNL     1     -25.816 -11.146  28.950  1.00  0.00     0.050 A 
ATOM      5  C   UNL     1     -26.575 -10.588  27.908  1.00  0.00    -0.042 A 
ATOM      6  C   UNL     1     -26.285 -10.958  26.583  1.00  0.00     0.004 A 
ATOM      7  C   UNL     1     -25.260 -11.864  26.309  1.00  0.00     0.007 A 
ENDROOT
BRANCH   3   8
ATOM      8  O   UNL     1     -24.067 -12.574  29.763  1.00  0.00    -0.508 OA
ATOM      9  H   UNL     1     -24.201 -12.261  30.717  1.00  0.00     0.293 HD
ENDBRANCH   3   8
BRANCH   5  10
ATOM     10  C   UNL     1     -27.687  -9.604  28.221  1.00  0.00     0.013 C 
ATOM     11  C   UNL     1     -27.286  -8.665  29.365  1.00  0.00     0.012 C 
ATOM     12  C   UNL     1     -28.998 -10.331  28.538  1.00  0.00     0.012 C 
ENDBRANCH   5  10
TORSDOF 2
ENDMDL
MODEL 2
REMARK VINA RESULT:    -5.784     11.625     13.070
REMARK INTER + INTRA:          -6.394
REMARK INTER:                  -6.271
REMARK INTRA:                  -0.122
REMARK UNBOUND:                -0.103
REMARK SMILES Cc1ccc(C(C)C)cc1O
REMARK SMILES IDX 1 1 2 2 10 3 9 4 5 5 4 6 3 7 11 8 6 10 7 11 8 12
REMARK H PARENT 11 9
REMARK Flexibility Score: inf
ROOT
ATOM      1  C   UNL     1     -36.519  -6.242  24.867  1.00  0.00     0.048 C 
ATOM      2  C   UNL     1     -37.014  -7.653  25.021  1.00  0.00    -0.009 A 
ATOM      3  C   UNL     1     -38.389  -7.934  25.188  1.00  0.00     0.118 A 
ATOM      4  C   UNL     1     -38.818  -9.258  25.329  1.00  0.00     0.050 A 
ATOM      5  C   UNL     1     -37.899 -10.321  25.308  1.00  0.00    -0.042 A 
ATOM      6  C   UNL     1     -36.534 -10.035  25.141  1.00  0.00     0.004 A 
ATOM      7  C   UNL     1     -36.097  -8.717  25.000  1.00  0.00     0.007 A 
ENDROOT
BRANCH   3   8
ATOM      8  O   UNL     1     -39.351  -6.921  25.218  1.00  0.00    -0.508 OA
ATOM      9  H   UNL     1     -39.556  -6.380  26.048  1.00  0.00     0.293 HD
ENDBRANCH   3   8
BRANCH   5  10
ATOM     10  C   UNL     1     -38.388 -11.749  25.461  1.00  0.00     0.013 C 
ATOM     11  C   UNL     1     -37.752 -12.666  24.410  1.00  0.00     0.012 C 
ATOM     12  C   UNL     1     -39.918 -11.821  25.402  1.00  0.00     0.012 C 
ENDBRANCH   5  10
TORSDOF 2
ENDMDL
MODEL 3
REMARK VINA RESULT:    -5.701      1.412      2.100
REMARK INTER + INTRA:          -6.304
REMARK INTER:                  -6.178
REMARK INTRA:                  -0.127
REMARK UNBOUND:                -0.103
REMARK SMILES Cc1ccc(C(C)C)cc1O
REMARK SMILES IDX 1 1 2 2 10 3 9 4 5 5 4 6 3 7 11 8 6 10 7 11 8 12
REMARK H PARENT 11 9
REMARK Flexibility Score: inf
ROOT
ATOM      1  C   UNL     1     -22.510 -12.758  29.979  1.00  0.00     0.048 C 
ATOM      2  C   UNL     1     -23.703 -12.110  29.332  1.00  0.00    -0.009 A 
ATOM      3  C   UNL     1     -24.567 -11.267  30.066  1.00  0.00     0.118 A 
ATOM      4  C   UNL     1     -25.668 -10.679  29.434  1.00  0.00     0.050 A 
ATOM      5  C   UNL     1     -25.932 -10.914  28.075  1.00  0.00    -0.042 A 
ATOM      6  C   UNL     1     -25.067 -11.752  27.350  1.00  0.00     0.004 A 
ATOM      7  C   UNL     1     -23.966 -12.343  27.972  1.00  0.00     0.007 A 
ENDROOT
BRANCH   3   8
ATOM      8  O   UNL     1     -24.359 -10.996  31.421  1.00  0.00    -0.508 OA
ATOM      9  H   UNL     1     -24.052 -11.697  32.083  1.00  0.00     0.293 HD
ENDBRANCH   3   8
BRANCH   5  10
ATOM     10  C   UNL     1     -27.132 -10.264  27.411  1.00  0.00     0.013 C 
ATOM     11  C   UNL     1     -28.422 -10.571  28.181  1.00  0.00     0.012 C 
ATOM     12  C   UNL     1     -27.251 -10.691  25.943  1.00  0.00     0.012 C 
ENDBRANCH   5  10
TORSDOF 2
ENDMDL
MODEL 4
REMARK VINA RESULT:    -5.684      1.890      4.730
REMARK INTER + INTRA:          -6.285
REMARK INTER:                  -6.159
REMARK INTRA:                  -0.127
REMARK UNBOUND:                -0.103
REMARK SMILES Cc1ccc(C(C)C)cc1O
REMARK SMILES IDX 1 1 2 2 10 3 9 4 5 5 4 6 3 7 11 8 6 10 7 11 8 12
REMARK H PARENT 11 9
REMARK Flexibility Score: inf
ROOT
ATOM      1  C   UNL     1     -27.983  -9.258  28.510  1.00  0.00     0.048 C 
ATOM      2  C   UNL     1     -26.864 -10.202  28.165  1.00  0.00    -0.009 A 
ATOM      3  C   UNL     1     -26.656 -10.638  26.837  1.00  0.00     0.118 A 
ATOM      4  C   UNL     1     -25.605 -11.516  26.550  1.00  0.00     0.050 A 
ATOM      5  C   UNL     1     -24.748 -11.974  27.564  1.00  0.00    -0.042 A 
ATOM      6  C   UNL     1     -24.961 -11.536  28.882  1.00  0.00     0.004 A 
ATOM      7  C   UNL     1     -26.006 -10.660  29.178  1.00  0.00     0.007 A 
ENDROOT
BRANCH   3   8
ATOM      8  O   UNL     1     -27.474 -10.219  25.785  1.00  0.00    -0.508 OA
ATOM      9  H   UNL     1     -28.394 -10.603  25.615  1.00  0.00     0.293 HD
ENDBRANCH   3   8
BRANCH   5  10
ATOM     10  C   UNL     1     -23.615 -12.926  27.228  1.00  0.00     0.013 C 
ATOM     11  C   UNL     1     -24.116 -14.108  26.391  1.00  0.00     0.012 C 
ATOM     12  C   UNL     1     -22.904 -13.411  28.496  1.00  0.00     0.012 C 
ENDBRANCH   5  10
TORSDOF 2
ENDMDL
MODEL 5
REMARK VINA RESULT:    -5.613      1.492      2.377
REMARK INTER + INTRA:          -6.208
REMARK INTER:                  -6.084
REMARK INTRA:                  -0.124
REMARK UNBOUND:                -0.103
REMARK SMILES Cc1ccc(C(C)C)cc1O
REMARK SMILES IDX 1 1 2 2 10 3 9 4 5 5 4 6 3 7 11 8 6 10 7 11 8 12
REMARK H PARENT 11 9
REMARK Flexibility Score: inf
ROOT
ATOM      1  C   UNL     1     -22.628 -13.143  29.593  1.00  0.00     0.048 C 
ATOM      2  C   UNL     1     -23.765 -12.372  28.983  1.00  0.00    -0.009 A 
ATOM      3  C   UNL     1     -24.133 -12.553  27.631  1.00  0.00     0.118 A 
ATOM      4  C   UNL     1     -25.196 -11.820  27.094  1.00  0.00     0.050 A 
ATOM      5  C   UNL     1     -25.910 -10.900  27.881  1.00  0.00    -0.042 A 
ATOM      6  C   UNL     1     -25.539 -10.725  29.225  1.00  0.00     0.004 A 
ATOM      7  C   UNL     1     -24.480 -11.452  29.769  1.00  0.00     0.007 A 
ENDROOT
BRANCH   3   8
ATOM      8  O   UNL     1     -23.462 -13.453  26.798  1.00  0.00    -0.508 OA
ATOM      9  H   UNL     1     -23.614 -13.497  25.798  1.00  0.00     0.293 HD
ENDBRANCH   3   8
BRANCH   5  10
ATOM     10  C   UNL     1     -27.060 -10.117  27.276  1.00  0.00     0.013 C 
ATOM     11  C   UNL     1     -28.245 -10.039  28.247  1.00  0.00     0.012 C 
ATOM     12  C   UNL     1     -27.489 -10.711  25.930  1.00  0.00     0.012 C 
ENDBRANCH   5  10
TORSDOF 2
ENDMDL
MODEL 6
REMARK VINA RESULT:    -5.578     11.237     12.697
REMARK INTER + INTRA:          -6.170
REMARK INTER:                  -6.044
REMARK INTRA:                  -0.126
REMARK UNBOUND:                -0.103
REMARK SMILES Cc1ccc(C(C)C)cc1O
REMARK SMILES IDX 1 1 2 2 10 3 9 4 5 5 4 6 3 7 11 8 6 10 7 11 8 12
REMARK H PARENT 11 9
REMARK Flexibility Score: inf
ROOT
ATOM      1  C   UNL     1     -36.490  -6.137  24.964  1.00  0.00     0.048 C 
ATOM      2  C   UNL     1     -37.021  -7.537  25.107  1.00  0.00    -0.009 A 
ATOM      3  C   UNL     1     -36.193  -8.661  24.888  1.00  0.00     0.118 A 
ATOM      4  C   UNL     1     -36.718  -9.950  25.029  1.00  0.00     0.050 A 
ATOM      5  C   UNL     1     -38.062 -10.148  25.387  1.00  0.00    -0.042 A 
ATOM      6  C   UNL     1     -38.879  -9.026  25.604  1.00  0.00     0.004 A 
ATOM      7  C   UNL     1     -38.364  -7.736  25.465  1.00  0.00     0.007 A 
ENDROOT
BRANCH   3   8
ATOM      8  O   UNL     1     -34.849  -8.529  24.530  1.00  0.00    -0.508 OA
ATOM      9  H   UNL     1     -34.382  -7.634  24.458  1.00  0.00     0.293 HD
ENDBRANCH   3   8
BRANCH   5  10
ATOM     10  C   UNL     1     -38.608 -11.556  25.535  1.00  0.00     0.013 C 
ATOM     11  C   UNL     1     -37.894 -12.528  24.589  1.00  0.00     0.012 C 
ATOM     12  C   UNL     1     -40.125 -11.587  25.315  1.00  0.00     0.012 C 
ENDBRANCH   5  10
TORSDOF 2
ENDMDL
MODEL 7
REMARK VINA RESULT:    -5.505      1.996      3.973
REMARK INTER + INTRA:          -6.091
REMARK INTER:                  -5.967
REMARK INTRA:                  -0.124
REMARK UNBOUND:                -0.103
REMARK SMILES Cc1ccc(C(C)C)cc1O
REMARK SMILES IDX 1 1 2 2 10 3 9 4 5 5 4 6 3 7 11 8 6 10 7 11 8 12
REMARK H PARENT 11 9
REMARK Flexibility Score: inf
ROOT
ATOM      1  C   UNL     1     -27.500 -10.379  25.798  1.00  0.00     0.048 C 
ATOM      2  C   UNL     1     -26.491 -10.751  26.848  1.00  0.00    -0.009 A 
ATOM      3  C   UNL     1     -26.574 -10.234  28.160  1.00  0.00     0.118 A 
ATOM      4  C   UNL     1     -25.618 -10.601  29.115  1.00  0.00     0.050 A 
ATOM      5  C   UNL     1     -24.572 -11.479  28.789  1.00  0.00    -0.042 A 
ATOM      6  C   UNL     1     -24.496 -11.990  27.482  1.00  0.00     0.004 A 
ATOM      7  C   UNL     1     -25.444 -11.630  26.523  1.00  0.00     0.007 A 
ENDROOT
BRANCH   3   8
ATOM      8  O   UNL     1     -27.591  -9.357  28.546  1.00  0.00    -0.508 OA
ATOM      9  H   UNL     1     -28.326  -9.056  27.919  1.00  0.00     0.293 HD
ENDBRANCH   3   8
BRANCH   5  10
ATOM     10  C   UNL     1     -23.548 -11.863  29.841  1.00  0.00     0.013 C 
ATOM     11  C   UNL     1     -23.208 -13.356  29.762  1.00  0.00     0.012 C 
ATOM     12  C   UNL     1     -24.027 -11.481  31.246  1.00  0.00     0.012 C 
ENDBRANCH   5  10
TORSDOF 2
ENDMDL
MODEL 8
REMARK VINA RESULT:    -5.287     12.006     12.395
REMARK INTER + INTRA:          -5.854
REMARK INTER:                  -5.727
REMARK INTRA:                  -0.126
REMARK UNBOUND:                -0.103
REMARK SMILES Cc1ccc(C(C)C)cc1O
REMARK SMILES IDX 1 1 2 2 10 3 9 4 5 5 4 6 3 7 11 8 6 10 7 11 8 12
REMARK H PARENT 11 9
REMARK Flexibility Score: inf
ROOT
ATOM      1  C   UNL     1     -37.069 -12.836  22.633  1.00  0.00     0.048 C 
ATOM      2  C   UNL     1     -37.214 -11.659  23.557  1.00  0.00    -0.009 A 
ATOM      3  C   UNL     1     -37.968 -11.750  24.748  1.00  0.00     0.118 A 
ATOM      4  C   UNL     1     -38.083 -10.636  25.587  1.00  0.00     0.050 A 
ATOM      5  C   UNL     1     -37.458  -9.420  25.263  1.00  0.00    -0.042 A 
ATOM      6  C   UNL     1     -36.709  -9.337  24.077  1.00  0.00     0.004 A 
ATOM      7  C   UNL     1     -36.589 -10.443  23.235  1.00  0.00     0.007 A 
ENDROOT
BRANCH   3   8
ATOM      8  O   UNL     1     -38.614 -12.931  25.125  1.00  0.00    -0.508 OA
ATOM      9  H   UNL     1     -39.286 -12.975  25.880  1.00  0.00     0.293 HD
ENDBRANCH   3   8
BRANCH   5  10
ATOM     10  C   UNL     1     -37.596  -8.226  26.189  1.00  0.00     0.013 C 
ATOM     11  C   UNL     1     -38.951  -8.237  26.907  1.00  0.00     0.012 C 
ATOM     12  C   UNL     1     -37.385  -6.910  25.431  1.00  0.00     0.012 C 
ENDBRANCH   5  10
TORSDOF 2
ENDMDL
MODEL 9
REMARK VINA RESULT:    -4.163     12.148     12.435
REMARK INTER + INTRA:          -4.631
REMARK INTER:                  -4.508
REMARK INTRA:                  -0.123
REMARK UNBOUND:                -0.103
REMARK SMILES Cc1ccc(C(C)C)cc1O
REMARK SMILES IDX 1 1 2 2 10 3 9 4 5 5 4 6 3 7 11 8 6 10 7 11 8 12
REMARK H PARENT 11 9
REMARK Flexibility Score: inf
ROOT
ATOM      1  C   UNL     1     -37.174 -13.025  22.755  1.00  0.00     0.048 C 
ATOM      2  C   UNL     1     -37.290 -11.790  23.604  1.00  0.00    -0.009 A 
ATOM      3  C   UNL     1     -36.836 -10.535  23.139  1.00  0.00     0.118 A 
ATOM      4  C   UNL     1     -36.959  -9.404  23.955  1.00  0.00     0.050 A 
ATOM      5  C   UNL     1     -37.527  -9.496  25.236  1.00  0.00    -0.042 A 
ATOM      6  C   UNL     1     -37.976 -10.747  25.692  1.00  0.00     0.004 A 
ATOM      7  C   UNL     1     -37.858 -11.880  24.886  1.00  0.00     0.007 A 
ENDROOT
BRANCH   3   8
ATOM      8  O   UNL     1     -36.262 -10.379  21.875  1.00  0.00    -0.508 OA
ATOM      9  H   UNL     1     -36.029  -9.476  21.483  1.00  0.00     0.293 HD
ENDBRANCH   3   8
BRANCH   5  10
ATOM     10  C   UNL     1     -37.650  -8.256  26.102  1.00  0.00     0.013 C 
ATOM     11  C   UNL     1     -39.029  -8.182  26.768  1.00  0.00     0.012 C 
ATOM     12  C   UNL     1     -37.359  -6.985  25.295  1.00  0.00     0.012 C 
ENDBRANCH   5  10
TORSDOF 2
ENDMDL
