MODEL 1
REMARK VINA RESULT:    -4.408      0.000      0.000
REMARK INTER + INTRA:          -4.794
REMARK INTER:                  -4.794
REMARK INTRA:                   0.000
REMARK UNBOUND:                 0.000
REMARK SMILES Oc1cccc(O)c1O
REMARK SMILES IDX 4 1 5 2 6 3 8 4 2 5 3 6 7 7 1 9 9 11
REMARK H PARENT 7 8 1 10 9 12
REMARK Flexibility Score: inf
ROOT
ATOM      1  C   UNL     1       8.131 -32.637 -20.510  1.00  0.00     0.008 A 
ATOM      2  C   UNL     1       8.669 -31.451 -21.008  1.00  0.00     0.050 A 
ATOM      3  C   UNL     1       8.488 -30.243 -20.325  1.00  0.00     0.161 A 
ATOM      4  C   UNL     1       7.750 -30.228 -19.114  1.00  0.00     0.200 A 
ATOM      5  C   UNL     1       7.211 -31.433 -18.620  1.00  0.00     0.161 A 
ATOM      6  C   UNL     1       7.405 -32.628 -19.319  1.00  0.00     0.050 A 
ENDROOT
BRANCH   3   7
ATOM      7  O   UNL     1       9.053 -29.092 -20.879  1.00  0.00    -0.504 OA
ATOM      8  H   UNL     1       8.539 -28.412 -21.419  1.00  0.00     0.293 HD
ENDBRANCH   3   7
BRANCH   5   9
ATOM      9  O   UNL     1       6.479 -31.461 -17.432  1.00  0.00    -0.504 OA
ATOM     10  H   UNL     1       6.206 -32.328 -16.985  1.00  0.00     0.293 HD
ENDBRANCH   5   9
BRANCH   4  11
ATOM     11  O   UNL     1       7.535 -29.056 -18.387  1.00  0.00    -0.502 OA
ATOM     12  H   UNL     1       6.622 -28.665 -18.196  1.00  0.00     0.293 HD
ENDBRANCH   4  11
TORSDOF 3
ENDMDL
MODEL 2
REMARK VINA RESULT:    -4.394      0.070      2.825
REMARK INTER + INTRA:          -4.780
REMARK INTER:                  -4.780
REMARK INTRA:                   0.000
REMARK UNBOUND:                 0.000
REMARK SMILES Oc1cccc(O)c1O
REMARK SMILES IDX 4 1 5 2 6 3 8 4 2 5 3 6 7 7 1 9 9 11
REMARK H PARENT 7 8 1 10 9 12
REMARK Flexibility Score: inf
ROOT
ATOM      1  C   UNL     1       8.110 -32.693 -20.479  1.00  0.00     0.008 A 
ATOM      2  C   UNL     1       7.394 -32.665 -19.283  1.00  0.00     0.050 A 
ATOM      3  C   UNL     1       7.193 -31.460 -18.600  1.00  0.00     0.161 A 
ATOM      4  C   UNL     1       7.724 -30.257 -19.132  1.00  0.00     0.200 A 
ATOM      5  C   UNL     1       8.447 -30.299 -20.342  1.00  0.00     0.161 A 
ATOM      6  C   UNL     1       8.635 -31.514 -21.006  1.00  0.00     0.050 A 
ENDROOT
BRANCH   3   7
ATOM      7  O   UNL     1       6.466 -31.502 -17.408  1.00  0.00    -0.504 OA
ATOM      8  H   UNL     1       5.461 -31.427 -17.354  1.00  0.00     0.293 HD
ENDBRANCH   3   7
BRANCH   5   9
ATOM      9  O   UNL     1       8.986 -29.138 -20.899  1.00  0.00    -0.504 OA
ATOM     10  H   UNL     1       8.910 -28.235 -20.446  1.00  0.00     0.293 HD
ENDBRANCH   5   9
BRANCH   4  11
ATOM     11  O   UNL     1       7.559 -29.024 -18.498  1.00  0.00    -0.502 OA
ATOM     12  H   UNL     1       7.923 -28.803 -17.582  1.00  0.00     0.293 HD
ENDBRANCH   4  11
TORSDOF 3
ENDMDL
MODEL 3
REMARK VINA RESULT:    -4.347     14.788     15.692
REMARK INTER + INTRA:          -4.728
REMARK INTER:                  -4.728
REMARK INTRA:                   0.000
REMARK UNBOUND:                 0.000
REMARK SMILES Oc1cccc(O)c1O
REMARK SMILES IDX 4 1 5 2 6 3 8 4 2 5 3 6 7 7 1 9 9 11
REMARK H PARENT 7 8 1 10 9 12
REMARK Flexibility Score: inf
ROOT
ATOM      1  C   UNL     1      14.541 -34.724  -6.551  1.00  0.00     0.008 A 
ATOM      2  C   UNL     1      14.057 -35.232  -7.756  1.00  0.00     0.050 A 
ATOM      3  C   UNL     1      14.158 -36.597  -8.046  1.00  0.00     0.161 A 
ATOM      4  C   UNL     1      14.757 -37.470  -7.103  1.00  0.00     0.200 A 
ATOM      5  C   UNL     1      15.242 -36.946  -5.888  1.00  0.00     0.161 A 
ATOM      6  C   UNL     1      15.131 -35.578  -5.620  1.00  0.00     0.050 A 
ENDROOT
BRANCH   3   7
ATOM      7  O   UNL     1      13.654 -37.040  -9.271  1.00  0.00    -0.504 OA
ATOM      8  H   UNL     1      13.718 -37.992  -9.600  1.00  0.00     0.293 HD
ENDBRANCH   3   7
BRANCH   5   9
ATOM      9  O   UNL     1      15.838 -37.771  -4.934  1.00  0.00    -0.504 OA
ATOM     10  H   UNL     1      16.359 -37.401  -4.148  1.00  0.00     0.293 HD
ENDBRANCH   5   9
BRANCH   4  11
ATOM     11  O   UNL     1      14.887 -38.842  -7.334  1.00  0.00    -0.502 OA
ATOM     12  H   UNL     1      15.734 -39.367  -7.170  1.00  0.00     0.293 HD
ENDBRANCH   4  11
TORSDOF 3
ENDMDL
MODEL 4
REMARK VINA RESULT:    -4.280      9.684     10.743
REMARK INTER + INTRA:          -4.656
REMARK INTER:                  -4.656
REMARK INTRA:                   0.000
REMARK UNBOUND:                 0.000
REMARK SMILES Oc1cccc(O)c1O
REMARK SMILES IDX 4 1 5 2 6 3 8 4 2 5 3 6 7 7 1 9 9 11
REMARK H PARENT 7 8 1 10 9 12
REMARK Flexibility Score: inf
ROOT
ATOM      1  C   UNL     1      10.716 -27.210 -10.603  1.00  0.00     0.008 A 
ATOM      2  C   UNL     1       9.936 -26.795 -11.682  1.00  0.00     0.050 A 
ATOM      3  C   UNL     1       9.832 -25.438 -12.006  1.00  0.00     0.161 A 
ATOM      4  C   UNL     1      10.528 -24.477 -11.229  1.00  0.00     0.200 A 
ATOM      5  C   UNL     1      11.313 -24.908 -10.141  1.00  0.00     0.161 A 
ATOM      6  C   UNL     1      11.402 -26.270  -9.835  1.00  0.00     0.050 A 
ENDROOT
BRANCH   3   7
ATOM      7  O   UNL     1       9.035 -25.090 -13.099  1.00  0.00    -0.504 OA
ATOM      8  H   UNL     1       8.599 -24.188 -13.219  1.00  0.00     0.293 HD
ENDBRANCH   3   7
BRANCH   5   9
ATOM      9  O   UNL     1      12.014 -23.996  -9.351  1.00  0.00    -0.504 OA
ATOM     10  H   UNL     1      12.102 -24.104  -8.348  1.00  0.00     0.293 HD
ENDBRANCH   5   9
BRANCH   4  11
ATOM     11  O   UNL     1      10.464 -23.109 -11.502  1.00  0.00    -0.502 OA
ATOM     12  H   UNL     1      10.088 -22.717 -12.354  1.00  0.00     0.293 HD
ENDBRANCH   4  11
TORSDOF 3
ENDMDL
MODEL 5
REMARK VINA RESULT:    -4.270      9.646     10.754
REMARK INTER + INTRA:          -4.645
REMARK INTER:                  -4.645
REMARK INTRA:                   0.000
REMARK UNBOUND:                 0.000
REMARK SMILES Oc1cccc(O)c1O
REMARK SMILES IDX 4 1 5 2 6 3 8 4 2 5 3 6 7 7 1 9 9 11
REMARK H PARENT 7 8 1 10 9 12
REMARK Flexibility Score: inf
ROOT
ATOM      1  C   UNL     1      10.625 -27.225 -10.530  1.00  0.00     0.008 A 
ATOM      2  C   UNL     1      11.302 -26.270  -9.771  1.00  0.00     0.050 A 
ATOM      3  C   UNL     1      11.280 -24.920 -10.140  1.00  0.00     0.161 A 
ATOM      4  C   UNL     1      10.562 -24.522 -11.296  1.00  0.00     0.200 A 
ATOM      5  C   UNL     1       9.882 -25.495 -12.055  1.00  0.00     0.161 A 
ATOM      6  C   UNL     1       9.917 -26.838 -11.667  1.00  0.00     0.050 A 
ENDROOT
BRANCH   3   7
ATOM      7  O   UNL     1      11.979 -24.016  -9.336  1.00  0.00    -0.504 OA
ATOM      8  H   UNL     1      12.490 -24.274  -8.506  1.00  0.00     0.293 HD
ENDBRANCH   3   7
BRANCH   5   9
ATOM      9  O   UNL     1       9.163 -25.145 -13.198  1.00  0.00    -0.504 OA
ATOM     10  H   UNL     1       9.278 -24.249 -13.656  1.00  0.00     0.293 HD
ENDBRANCH   5   9
BRANCH   4  11
ATOM     11  O   UNL     1      10.503 -23.191 -11.715  1.00  0.00    -0.502 OA
ATOM     12  H   UNL     1      10.005 -22.876 -12.536  1.00  0.00     0.293 HD
ENDBRANCH   4  11
TORSDOF 3
ENDMDL
MODEL 6
REMARK VINA RESULT:    -4.248      9.367     10.546
REMARK INTER + INTRA:          -4.620
REMARK INTER:                  -4.620
REMARK INTRA:                   0.000
REMARK UNBOUND:                 0.000
REMARK SMILES Oc1cccc(O)c1O
REMARK SMILES IDX 4 1 5 2 6 3 8 4 2 5 3 6 7 7 1 9 9 11
REMARK H PARENT 7 8 1 10 9 12
REMARK Flexibility Score: inf
ROOT
ATOM      1  C   UNL     1      16.191 -32.525 -20.438  1.00  0.00     0.008 A 
ATOM      2  C   UNL     1      16.550 -31.219 -20.108  1.00  0.00     0.050 A 
ATOM      3  C   UNL     1      17.730 -30.656 -20.609  1.00  0.00     0.161 A 
ATOM      4  C   UNL     1      18.566 -31.424 -21.459  1.00  0.00     0.200 A 
ATOM      5  C   UNL     1      18.192 -32.744 -21.785  1.00  0.00     0.161 A 
ATOM      6  C   UNL     1      17.008 -33.284 -21.274  1.00  0.00     0.050 A 
ENDROOT
BRANCH   3   7
ATOM      7  O   UNL     1      18.031 -29.343 -20.239  1.00  0.00    -0.504 OA
ATOM      8  H   UNL     1      17.754 -28.923 -19.365  1.00  0.00     0.293 HD
ENDBRANCH   3   7
BRANCH   5   9
ATOM      9  O   UNL     1      18.986 -33.532 -22.619  1.00  0.00    -0.504 OA
ATOM     10  H   UNL     1      19.438 -34.378 -22.294  1.00  0.00     0.293 HD
ENDBRANCH   5   9
BRANCH   4  11
ATOM     11  O   UNL     1      19.755 -30.920 -21.990  1.00  0.00    -0.502 OA
ATOM     12  H   UNL     1      20.652 -31.378 -21.909  1.00  0.00     0.293 HD
ENDBRANCH   4  11
TORSDOF 3
ENDMDL
MODEL 7
REMARK VINA RESULT:    -4.223     10.026     10.818
REMARK INTER + INTRA:          -4.593
REMARK INTER:                  -4.593
REMARK INTRA:                   0.000
REMARK UNBOUND:                 0.000
REMARK SMILES Oc1cccc(O)c1O
REMARK SMILES IDX 4 1 5 2 6 3 8 4 2 5 3 6 7 7 1 9 9 11
REMARK H PARENT 7 8 1 10 9 12
REMARK Flexibility Score: inf
ROOT
ATOM      1  C   UNL     1       9.784 -25.401 -10.442  1.00  0.00     0.008 A 
ATOM      2  C   UNL     1       9.423 -24.838 -11.666  1.00  0.00     0.050 A 
ATOM      3  C   UNL     1       8.113 -24.398 -11.889  1.00  0.00     0.161 A 
ATOM      4  C   UNL     1       7.147 -24.528 -10.860  1.00  0.00     0.200 A 
ATOM      5  C   UNL     1       7.523 -25.098  -9.628  1.00  0.00     0.161 A 
ATOM      6  C   UNL     1       8.838 -25.530  -9.427  1.00  0.00     0.050 A 
ENDROOT
BRANCH   3   7
ATOM      7  O   UNL     1       7.819 -23.844 -13.137  1.00  0.00    -0.504 OA
ATOM      8  H   UNL     1       7.468 -24.371 -13.923  1.00  0.00     0.293 HD
ENDBRANCH   3   7
BRANCH   5   9
ATOM      9  O   UNL     1       6.602 -25.243  -8.590  1.00  0.00    -0.504 OA
ATOM     10  H   UNL     1       5.956 -24.507  -8.333  1.00  0.00     0.293 HD
ENDBRANCH   5   9
BRANCH   4  11
ATOM     11  O   UNL     1       5.824 -24.108 -11.023  1.00  0.00    -0.502 OA
ATOM     12  H   UNL     1       5.413 -23.326 -10.534  1.00  0.00     0.293 HD
ENDBRANCH   4  11
TORSDOF 3
ENDMDL
MODEL 8
REMARK VINA RESULT:    -4.214      9.456     10.670
REMARK INTER + INTRA:          -4.583
REMARK INTER:                  -4.583
REMARK INTRA:                   0.000
REMARK UNBOUND:                 0.000
REMARK SMILES Oc1cccc(O)c1O
REMARK SMILES IDX 4 1 5 2 6 3 8 4 2 5 3 6 7 7 1 9 9 11
REMARK H PARENT 7 8 1 10 9 12
REMARK Flexibility Score: inf
ROOT
ATOM      1  C   UNL     1      16.149 -32.871 -20.716  1.00  0.00     0.008 A 
ATOM      2  C   UNL     1      17.186 -33.745 -21.042  1.00  0.00     0.050 A 
ATOM      3  C   UNL     1      18.424 -33.254 -21.471  1.00  0.00     0.161 A 
ATOM      4  C   UNL     1      18.624 -31.854 -21.575  1.00  0.00     0.200 A 
ATOM      5  C   UNL     1      17.569 -30.981 -21.243  1.00  0.00     0.161 A 
ATOM      6  C   UNL     1      16.340 -31.494 -20.815  1.00  0.00     0.050 A 
ENDROOT
BRANCH   3   7
ATOM      7  O   UNL     1      19.419 -34.184 -21.782  1.00  0.00    -0.504 OA
ATOM      8  H   UNL     1      19.268 -35.180 -21.833  1.00  0.00     0.293 HD
ENDBRANCH   3   7
BRANCH   5   9
ATOM      9  O   UNL     1      17.724 -29.597 -21.330  1.00  0.00    -0.504 OA
ATOM     10  H   UNL     1      17.916 -29.021 -20.519  1.00  0.00     0.293 HD
ENDBRANCH   5   9
BRANCH   4  11
ATOM     11  O   UNL     1      19.835 -31.303 -21.997  1.00  0.00    -0.502 OA
ATOM     12  H   UNL     1      20.516 -30.886 -21.378  1.00  0.00     0.293 HD
ENDBRANCH   4  11
TORSDOF 3
ENDMDL
MODEL 9
REMARK VINA RESULT:    -4.144     10.415     11.466
REMARK INTER + INTRA:          -4.507
REMARK INTER:                  -4.507
REMARK INTRA:                   0.000
REMARK UNBOUND:                 0.000
REMARK SMILES Oc1cccc(O)c1O
REMARK SMILES IDX 4 1 5 2 6 3 8 4 2 5 3 6 7 7 1 9 9 11
REMARK H PARENT 7 8 1 10 9 12
REMARK Flexibility Score: inf
ROOT
ATOM      1  C   UNL     1       4.639 -20.086 -14.911  1.00  0.00     0.008 A 
ATOM      2  C   UNL     1       4.734 -21.077 -13.934  1.00  0.00     0.050 A 
ATOM      3  C   UNL     1       5.879 -21.876 -13.838  1.00  0.00     0.161 A 
ATOM      4  C   UNL     1       6.951 -21.675 -14.744  1.00  0.00     0.200 A 
ATOM      5  C   UNL     1       6.844 -20.671 -15.727  1.00  0.00     0.161 A 
ATOM      6  C   UNL     1       5.691 -19.884 -15.804  1.00  0.00     0.050 A 
ENDROOT
BRANCH   3   7
ATOM      7  O   UNL     1       5.909 -22.850 -12.836  1.00  0.00    -0.504 OA
ATOM      8  H   UNL     1       5.124 -23.080 -12.246  1.00  0.00     0.293 HD
ENDBRANCH   3   7
BRANCH   5   9
ATOM      9  O   UNL     1       7.876 -20.441 -16.637  1.00  0.00    -0.504 OA
ATOM     10  H   UNL     1       8.396 -21.196 -17.068  1.00  0.00     0.293 HD
ENDBRANCH   5   9
BRANCH   4  11
ATOM     11  O   UNL     1       8.118 -22.441 -14.699  1.00  0.00    -0.502 OA
ATOM     12  H   UNL     1       8.368 -23.136 -15.388  1.00  0.00     0.293 HD
ENDBRANCH   4  11
TORSDOF 3
ENDMDL
