MODEL 1
REMARK VINA RESULT:    -4.720      0.000      0.000
REMARK INTER + INTRA:          -8.220
REMARK INTER:                  -6.237
REMARK INTRA:                  -1.983
REMARK UNBOUND:                -1.983
REMARK SMILES C=C(CC[C@@H](C)[C@H]1CC[C@]2(C)[C@@H]3CC[C@@H]4C(C)(C)[C@H](O)CC[C@]45C[C@@]35CC[C@]12C)C(C)C
REMARK SMILES IDX 4 1 3 2 2 3 1 4 30 5 31 6 32 7 5 8 6 9 7 10 8 11 28 12 9 13
REMARK SMILES IDX 10 14 27 15 29 16 11 17 12 18 26 19 25 20 13 21 23 22 24 23
REMARK SMILES IDX 14 24 15 25 22 26 16 27 21 28 19 29 17 30 18 31 20 32
REMARK H PARENT 20 33
REMARK Flexibility Score: inf
ROOT
ATOM      1  C   UNL     1       6.721   1.137  -1.276  1.00  0.00     0.008 C 
ENDROOT
BRANCH   1   2
ATOM      2  C   UNL     1       6.966   0.611  -2.693  1.00  0.00     0.031 C 
BRANCH   2   3
ATOM      3  C   UNL     1       5.682   0.221  -3.405  1.00  0.00    -0.075 C 
ATOM      4  C   UNL     1       5.585  -0.935  -4.114  1.00  0.00     0.008 C 
BRANCH   3   5
ATOM      5  C   UNL     1       4.439   1.069  -3.209  1.00  0.00     0.008 C 
ATOM      6  C   UNL     1       4.370   2.140  -4.292  1.00  0.00     0.012 C 
ATOM      7  C   UNL     1       3.118   0.266  -3.204  1.00  0.00     0.012 C 
ENDBRANCH   3   5
ENDBRANCH   2   3
ENDBRANCH   1   2
BRANCH   1   8
ATOM      8  C   UNL     1       7.411   0.345  -0.181  1.00  0.00    -0.010 C 
ATOM      9  C   UNL     1       8.463   1.238   0.555  1.00  0.00     0.008 C 
BRANCH   8  10
ATOM     10  C   UNL     1       6.403  -0.530   0.645  1.00  0.00    -0.002 C 
ATOM     11  C   UNL     1       4.981  -0.534   0.054  1.00  0.00     0.005 C 
ATOM     12  C   UNL     1       6.597  -2.092   1.031  1.00  0.00    -0.024 C 
ATOM     13  C   UNL     1       4.752  -1.915  -0.574  1.00  0.00     0.008 C 
ATOM     14  C   UNL     1       5.943  -2.836  -0.174  1.00  0.00    -0.024 C 
ATOM     15  C   UNL     1       5.801  -2.387   2.392  1.00  0.00     0.008 C 
ATOM     16  C   UNL     1       8.044  -2.582   1.342  1.00  0.00     0.012 C 
ATOM     17  C   UNL     1       6.927  -2.922  -1.354  1.00  0.00     0.012 C 
ATOM     18  C   UNL     1       5.488  -4.296   0.220  1.00  0.00     0.002 C 
ATOM     19  C   UNL     1       4.376  -3.045   2.307  1.00  0.00     0.008 C 
ATOM     20  C   UNL     1       4.413  -4.310   1.409  1.00  0.00    -0.020 C 
ATOM     21  C   UNL     1       5.011  -5.096  -1.023  1.00  0.00     0.005 C 
ATOM     22  C   UNL     1       3.242  -5.396   1.208  1.00  0.00    -0.020 C 
ATOM     23  C   UNL     1       4.339  -5.504   2.285  1.00  0.00     0.015 C 
ATOM     24  C   UNL     1       4.666  -6.530  -0.606  1.00  0.00     0.005 C 
ATOM     25  C   UNL     1       3.424  -6.698   0.286  1.00  0.00     0.004 C 
ATOM     26  C   UNL     1       2.090  -4.486   0.594  1.00  0.00     0.010 C 
ATOM     27  C   UNL     1       2.038  -7.502   0.040  1.00  0.00    -0.006 C 
ATOM     28  C   UNL     1       0.817  -5.205  -0.041  1.00  0.00     0.033 C 
ATOM     29  C   UNL     1       0.822  -6.650   0.430  1.00  0.00     0.120 C 
ATOM     30  C   UNL     1       2.081  -8.025  -1.437  1.00  0.00     0.014 C 
ATOM     31  C   UNL     1       1.924  -8.747   1.012  1.00  0.00     0.014 C 
BRANCH  29  32
ATOM     32  O   UNL     1      -0.421  -7.240   0.097  1.00  0.00    -0.393 OA
ATOM     33  H   UNL     1      -1.084  -6.733   0.625  1.00  0.00     0.210 HD
ENDBRANCH  29  32
ENDBRANCH   8  10
ENDBRANCH   1   8
TORSDOF 6
ENDMDL
MODEL 2
REMARK VINA RESULT:    -4.553      2.279      4.769
REMARK INTER + INTRA:          -8.001
REMARK INTER:                  -7.113
REMARK INTRA:                  -0.887
REMARK UNBOUND:                -1.983
REMARK SMILES C=C(CC[C@@H](C)[C@H]1CC[C@]2(C)[C@@H]3CC[C@@H]4C(C)(C)[C@H](O)CC[C@]45C[C@@]35CC[C@]12C)C(C)C
REMARK SMILES IDX 4 1 3 2 2 3 1 4 30 5 31 6 32 7 5 8 6 9 7 10 8 11 28 12 9 13
REMARK SMILES IDX 10 14 27 15 29 16 11 17 12 18 26 19 25 20 13 21 23 22 24 23
REMARK SMILES IDX 14 24 15 25 22 26 16 27 21 28 19 29 17 30 18 31 20 32
REMARK H PARENT 20 33
REMARK Flexibility Score: inf
ROOT
ATOM      1  C   UNL     1       3.396   3.577  -4.879  1.00  0.00     0.008 C 
ENDROOT
BRANCH   1   2
ATOM      2  C   UNL     1       2.593   3.416  -6.172  1.00  0.00     0.031 C 
BRANCH   2   3
ATOM      3  C   UNL     1       1.135   3.074  -5.920  1.00  0.00    -0.075 C 
ATOM      4  C   UNL     1       0.327   2.625  -6.918  1.00  0.00     0.008 C 
BRANCH   3   5
ATOM      5  C   UNL     1       0.602   3.101  -4.500  1.00  0.00     0.008 C 
ATOM      6  C   UNL     1      -0.396   4.245  -4.346  1.00  0.00     0.012 C 
ATOM      7  C   UNL     1      -0.063   1.782  -4.045  1.00  0.00     0.012 C 
ENDBRANCH   3   5
ENDBRANCH   2   3
ENDBRANCH   1   2
BRANCH   1   8
ATOM      8  C   UNL     1       4.506   2.560  -4.693  1.00  0.00    -0.010 C 
ATOM      9  C   UNL     1       5.831   3.076  -5.343  1.00  0.00     0.008 C 
BRANCH   8  10
ATOM     10  C   UNL     1       4.521   1.955  -3.245  1.00  0.00    -0.002 C 
ATOM     11  C   UNL     1       3.411   0.914  -3.013  1.00  0.00     0.005 C 
ATOM     12  C   UNL     1       5.787   1.243  -2.526  1.00  0.00    -0.024 C 
ATOM     13  C   UNL     1       4.082  -0.465  -2.959  1.00  0.00     0.008 C 
ATOM     14  C   UNL     1       5.625  -0.255  -2.932  1.00  0.00    -0.024 C 
ATOM     15  C   UNL     1       5.649   1.429  -0.939  1.00  0.00     0.008 C 
ATOM     16  C   UNL     1       7.205   1.812  -2.837  1.00  0.00     0.012 C 
ATOM     17  C   UNL     1       6.188  -0.496  -4.344  1.00  0.00     0.012 C 
ATOM     18  C   UNL     1       6.361  -1.216  -1.917  1.00  0.00     0.002 C 
ATOM     19  C   UNL     1       5.065   0.244  -0.087  1.00  0.00     0.008 C 
ATOM     20  C   UNL     1       5.802  -1.081  -0.421  1.00  0.00    -0.020 C 
ATOM     21  C   UNL     1       6.357  -2.684  -2.423  1.00  0.00     0.005 C 
ATOM     22  C   UNL     1       5.672  -2.488   0.350  1.00  0.00    -0.020 C 
ATOM     23  C   UNL     1       6.710  -1.404   0.707  1.00  0.00     0.015 C 
ATOM     24  C   UNL     1       7.156  -3.561  -1.454  1.00  0.00     0.005 C 
ATOM     25  C   UNL     1       6.535  -3.778  -0.063  1.00  0.00     0.004 C 
ATOM     26  C   UNL     1       4.129  -2.808   0.135  1.00  0.00     0.010 C 
ATOM     27  C   UNL     1       6.051  -5.132   0.687  1.00  0.00    -0.006 C 
ATOM     28  C   UNL     1       3.604  -4.271   0.488  1.00  0.00     0.033 C 
ATOM     29  C   UNL     1       4.670  -4.951   1.331  1.00  0.00     0.120 C 
ATOM     30  C   UNL     1       6.191  -6.295  -0.356  1.00  0.00     0.014 C 
ATOM     31  C   UNL     1       6.981  -5.455   1.928  1.00  0.00     0.014 C 
BRANCH  29  32
ATOM     32  O   UNL     1       4.130  -6.142   1.871  1.00  0.00    -0.393 OA
ATOM     33  H   UNL     1       3.678  -5.855   2.701  1.00  0.00     0.210 HD
ENDBRANCH  29  32
ENDBRANCH   8  10
ENDBRANCH   1   8
TORSDOF 6
ENDMDL
MODEL 3
REMARK VINA RESULT:    -4.535      2.490      7.583
REMARK INTER + INTRA:          -7.976
REMARK INTER:                  -5.953
REMARK INTRA:                  -2.024
REMARK UNBOUND:                -1.983
REMARK SMILES C=C(CC[C@@H](C)[C@H]1CC[C@]2(C)[C@@H]3CC[C@@H]4C(C)(C)[C@H](O)CC[C@]45C[C@@]35CC[C@]12C)C(C)C
REMARK SMILES IDX 4 1 3 2 2 3 1 4 30 5 31 6 32 7 5 8 6 9 7 10 8 11 28 12 9 13
REMARK SMILES IDX 10 14 27 15 29 16 11 17 12 18 26 19 25 20 13 21 23 22 24 23
REMARK SMILES IDX 14 24 15 25 22 26 16 27 21 28 19 29 17 30 18 31 20 32
REMARK H PARENT 20 33
REMARK Flexibility Score: inf
ROOT
ATOM      1  C   UNL     1       3.339  -8.807   0.063  1.00  0.00     0.008 C 
ENDROOT
BRANCH   1   2
ATOM      2  C   UNL     1       2.025  -8.272   0.638  1.00  0.00     0.031 C 
BRANCH   2   3
ATOM      3  C   UNL     1       1.347  -7.268  -0.280  1.00  0.00    -0.075 C 
ATOM      4  C   UNL     1       1.500  -7.323  -1.630  1.00  0.00     0.008 C 
BRANCH   3   5
ATOM      5  C   UNL     1       0.371  -6.267   0.309  1.00  0.00     0.008 C 
ATOM      6  C   UNL     1       0.464  -6.292   1.832  1.00  0.00     0.012 C 
ATOM      7  C   UNL     1       0.570  -4.818  -0.188  1.00  0.00     0.012 C 
ENDBRANCH   3   5
ENDBRANCH   2   3
ENDBRANCH   1   2
BRANCH   1   8
ATOM      8  C   UNL     1       4.560  -8.538   0.922  1.00  0.00    -0.010 C 
ATOM      9  C   UNL     1       5.074  -9.866   1.567  1.00  0.00     0.008 C 
BRANCH   8  10
ATOM     10  C   UNL     1       5.569  -7.555   0.229  1.00  0.00    -0.002 C 
ATOM     11  C   UNL     1       5.084  -7.061  -1.146  1.00  0.00     0.005 C 
ATOM     12  C   UNL     1       6.157  -6.189   0.874  1.00  0.00    -0.024 C 
ATOM     13  C   UNL     1       4.675  -5.591  -0.985  1.00  0.00     0.008 C 
ATOM     14  C   UNL     1       5.117  -5.115   0.430  1.00  0.00    -0.024 C 
ATOM     15  C   UNL     1       7.598  -5.898   0.232  1.00  0.00     0.008 C 
ATOM     16  C   UNL     1       6.434  -6.178   2.409  1.00  0.00     0.012 C 
ATOM     17  C   UNL     1       3.896  -5.125   1.367  1.00  0.00     0.012 C 
ATOM     18  C   UNL     1       5.745  -3.665   0.424  1.00  0.00     0.002 C 
ATOM     19  C   UNL     1       7.705  -4.863  -0.946  1.00  0.00     0.008 C 
ATOM     20  C   UNL     1       6.994  -3.534  -0.571  1.00  0.00    -0.020 C 
ATOM     21  C   UNL     1       4.663  -2.581   0.165  1.00  0.00     0.005 C 
ATOM     22  C   UNL     1       7.030  -2.147  -1.385  1.00  0.00    -0.020 C 
ATOM     23  C   UNL     1       8.034  -2.519  -0.275  1.00  0.00     0.015 C 
ATOM     24  C   UNL     1       5.301  -1.191   0.258  1.00  0.00     0.005 C 
ATOM     25  C   UNL     1       6.291  -0.822  -0.860  1.00  0.00     0.004 C 
ATOM     26  C   UNL     1       6.375  -2.592  -2.766  1.00  0.00     0.010 C 
ATOM     27  C   UNL     1       6.257   0.366  -1.964  1.00  0.00    -0.006 C 
ATOM     28  C   UNL     1       5.937  -1.455  -3.794  1.00  0.00     0.033 C 
ATOM     29  C   UNL     1       6.607  -0.161  -3.362  1.00  0.00     0.120 C 
ATOM     30  C   UNL     1       4.869   1.079  -1.810  1.00  0.00     0.014 C 
ATOM     31  C   UNL     1       7.401   1.427  -1.689  1.00  0.00     0.014 C 
BRANCH  29  32
ATOM     32  O   UNL     1       6.447   0.798  -4.391  1.00  0.00    -0.393 OA
ATOM     33  H   UNL     1       6.524   0.278  -5.227  1.00  0.00     0.210 HD
ENDBRANCH  29  32
ENDBRANCH   8  10
ENDBRANCH   1   8
TORSDOF 6
ENDMDL
MODEL 4
REMARK VINA RESULT:    -4.353      7.349     11.566
REMARK INTER + INTRA:          -7.736
REMARK INTER:                  -6.216
REMARK INTRA:                  -1.520
REMARK UNBOUND:                -1.983
REMARK SMILES C=C(CC[C@@H](C)[C@H]1CC[C@]2(C)[C@@H]3CC[C@@H]4C(C)(C)[C@H](O)CC[C@]45C[C@@]35CC[C@]12C)C(C)C
REMARK SMILES IDX 4 1 3 2 2 3 1 4 30 5 31 6 32 7 5 8 6 9 7 10 8 11 28 12 9 13
REMARK SMILES IDX 10 14 27 15 29 16 11 17 12 18 26 19 25 20 13 21 23 22 24 23
REMARK SMILES IDX 14 24 15 25 22 26 16 27 21 28 19 29 17 30 18 31 20 32
REMARK H PARENT 20 33
REMARK Flexibility Score: inf
ROOT
ATOM      1  C   UNL     1      -3.126   4.668  -4.336  1.00  0.00     0.008 C 
ENDROOT
BRANCH   1   2
ATOM      2  C   UNL     1      -4.317   5.616  -4.491  1.00  0.00     0.031 C 
BRANCH   2   3
ATOM      3  C   UNL     1      -4.240   6.814  -3.559  1.00  0.00    -0.075 C 
ATOM      4  C   UNL     1      -4.765   6.775  -2.306  1.00  0.00     0.008 C 
BRANCH   3   5
ATOM      5  C   UNL     1      -3.441   8.032  -3.983  1.00  0.00     0.008 C 
ATOM      6  C   UNL     1      -2.174   8.135  -3.140  1.00  0.00     0.012 C 
ATOM      7  C   UNL     1      -3.057   8.049  -5.480  1.00  0.00     0.012 C 
ENDBRANCH   3   5
ENDBRANCH   2   3
ENDBRANCH   1   2
BRANCH   1   8
ATOM      8  C   UNL     1      -2.588   4.112  -5.642  1.00  0.00    -0.010 C 
ATOM      9  C   UNL     1      -3.692   4.156  -6.748  1.00  0.00     0.008 C 
BRANCH   8  10
ATOM     10  C   UNL     1      -1.138   4.626  -5.953  1.00  0.00    -0.002 C 
ATOM     11  C   UNL     1      -0.508   5.404  -4.784  1.00  0.00     0.005 C 
ATOM     12  C   UNL     1       0.109   3.712  -6.442  1.00  0.00    -0.024 C 
ATOM     13  C   UNL     1       0.577   4.508  -4.171  1.00  0.00     0.008 C 
ATOM     14  C   UNL     1       0.770   3.273  -5.100  1.00  0.00    -0.024 C 
ATOM     15  C   UNL     1       1.106   4.624  -7.306  1.00  0.00     0.008 C 
ATOM     16  C   UNL     1      -0.205   2.516  -7.393  1.00  0.00     0.012 C 
ATOM     17  C   UNL     1       0.021   2.071  -4.497  1.00  0.00     0.012 C 
ATOM     18  C   UNL     1       2.288   2.882  -5.300  1.00  0.00     0.002 C 
ATOM     19  C   UNL     1       2.386   5.213  -6.610  1.00  0.00     0.008 C 
ATOM     20  C   UNL     1       3.169   4.093  -5.872  1.00  0.00    -0.020 C 
ATOM     21  C   UNL     1       2.889   2.269  -4.006  1.00  0.00     0.005 C 
ATOM     22  C   UNL     1       4.628   4.203  -5.204  1.00  0.00    -0.020 C 
ATOM     23  C   UNL     1       4.382   3.775  -6.664  1.00  0.00     0.015 C 
ATOM     24  C   UNL     1       4.331   1.826  -4.273  1.00  0.00     0.005 C 
ATOM     25  C   UNL     1       5.355   2.949  -4.513  1.00  0.00     0.004 C 
ATOM     26  C   UNL     1       4.371   5.322  -4.102  1.00  0.00     0.010 C 
ATOM     27  C   UNL     1       6.693   3.361  -3.695  1.00  0.00    -0.006 C 
ATOM     28  C   UNL     1       5.486   5.554  -2.987  1.00  0.00     0.033 C 
ATOM     29  C   UNL     1       6.760   4.877  -3.462  1.00  0.00     0.120 C 
ATOM     30  C   UNL     1       6.734   2.454  -2.418  1.00  0.00     0.014 C 
ATOM     31  C   UNL     1       7.993   3.079  -4.556  1.00  0.00     0.014 C 
BRANCH  29  32
ATOM     32  O   UNL     1       7.828   5.280  -2.625  1.00  0.00    -0.393 OA
ATOM     33  H   UNL     1       7.402   5.468  -1.754  1.00  0.00     0.210 HD
ENDBRANCH  29  32
ENDBRANCH   8  10
ENDBRANCH   1   8
TORSDOF 6
ENDMDL
MODEL 5
REMARK VINA RESULT:    -4.275      9.160     13.795
REMARK INTER + INTRA:          -7.633
REMARK INTER:                  -6.290
REMARK INTRA:                  -1.343
REMARK UNBOUND:                -1.983
REMARK SMILES C=C(CC[C@@H](C)[C@H]1CC[C@]2(C)[C@@H]3CC[C@@H]4C(C)(C)[C@H](O)CC[C@]45C[C@@]35CC[C@]12C)C(C)C
REMARK SMILES IDX 4 1 3 2 2 3 1 4 30 5 31 6 32 7 5 8 6 9 7 10 8 11 28 12 9 13
REMARK SMILES IDX 10 14 27 15 29 16 11 17 12 18 26 19 25 20 13 21 23 22 24 23
REMARK SMILES IDX 14 24 15 25 22 26 16 27 21 28 19 29 17 30 18 31 20 32
REMARK H PARENT 20 33
REMARK Flexibility Score: inf
ROOT
ATOM      1  C   UNL     1       0.049   2.230  -5.314  1.00  0.00     0.008 C 
ENDROOT
BRANCH   1   2
ATOM      2  C   UNL     1       0.872   2.748  -4.132  1.00  0.00     0.031 C 
BRANCH   2   3
ATOM      3  C   UNL     1       2.172   1.986  -3.941  1.00  0.00    -0.075 C 
ATOM      4  C   UNL     1       2.194   0.746  -3.384  1.00  0.00     0.008 C 
BRANCH   3   5
ATOM      5  C   UNL     1       3.457   2.560  -4.507  1.00  0.00     0.008 C 
ATOM      6  C   UNL     1       3.235   4.012  -4.920  1.00  0.00     0.012 C 
ATOM      7  C   UNL     1       4.664   2.485  -3.545  1.00  0.00     0.012 C 
ENDBRANCH   3   5
ENDBRANCH   2   3
ENDBRANCH   1   2
BRANCH   1   8
ATOM      8  C   UNL     1      -0.113   3.220  -6.453  1.00  0.00    -0.010 C 
ATOM      9  C   UNL     1       0.603   2.692  -7.739  1.00  0.00     0.008 C 
BRANCH   8  10
ATOM     10  C   UNL     1      -1.572   3.791  -6.541  1.00  0.00    -0.002 C 
ATOM     11  C   UNL     1      -2.488   3.285  -5.412  1.00  0.00     0.005 C 
ATOM     12  C   UNL     1      -1.976   5.360  -6.606  1.00  0.00    -0.024 C 
ATOM     13  C   UNL     1      -2.718   4.459  -4.450  1.00  0.00     0.008 C 
ATOM     14  C   UNL     1      -2.131   5.746  -5.103  1.00  0.00    -0.024 C 
ATOM     15  C   UNL     1      -3.370   5.499  -7.385  1.00  0.00     0.008 C 
ATOM     16  C   UNL     1      -1.025   6.315  -7.390  1.00  0.00     0.012 C 
ATOM     17  C   UNL     1      -0.756   6.042  -4.477  1.00  0.00     0.012 C 
ATOM     18  C   UNL     1      -3.060   7.010  -4.920  1.00  0.00     0.002 C 
ATOM     19  C   UNL     1      -4.692   5.652  -6.547  1.00  0.00     0.008 C 
ATOM     20  C   UNL     1      -4.540   6.779  -5.491  1.00  0.00    -0.020 C 
ATOM     21  C   UNL     1      -3.062   7.503  -3.447  1.00  0.00     0.005 C 
ATOM     22  C   UNL     1      -5.696   7.407  -4.564  1.00  0.00    -0.020 C 
ATOM     23  C   UNL     1      -5.314   7.956  -5.953  1.00  0.00     0.015 C 
ATOM     24  C   UNL     1      -3.902   8.779  -3.336  1.00  0.00     0.005 C 
ATOM     25  C   UNL     1      -5.418   8.614  -3.542  1.00  0.00     0.004 C 
ATOM     26  C   UNL     1      -6.150   6.125  -3.739  1.00  0.00     0.010 C 
ATOM     27  C   UNL     1      -6.665   8.903  -2.546  1.00  0.00    -0.006 C 
ATOM     28  C   UNL     1      -7.094   6.338  -2.472  1.00  0.00     0.033 C 
ATOM     29  C   UNL     1      -7.669   7.742  -2.557  1.00  0.00     0.120 C 
ATOM     30  C   UNL     1      -6.049   9.282  -1.156  1.00  0.00     0.014 C 
ATOM     31  C   UNL     1      -7.532  10.124  -3.064  1.00  0.00     0.014 C 
BRANCH  29  32
ATOM     32  O   UNL     1      -8.701   7.869  -1.597  1.00  0.00    -0.393 OA
ATOM     33  H   UNL     1      -8.229   7.914  -0.731  1.00  0.00     0.210 HD
ENDBRANCH  29  32
ENDBRANCH   8  10
ENDBRANCH   1   8
TORSDOF 6
ENDMDL
MODEL 6
REMARK VINA RESULT:    -3.921      7.373     12.110
REMARK INTER + INTRA:          -7.165
REMARK INTER:                  -6.463
REMARK INTRA:                  -0.701
REMARK UNBOUND:                -1.983
REMARK SMILES C=C(CC[C@@H](C)[C@H]1CC[C@]2(C)[C@@H]3CC[C@@H]4C(C)(C)[C@H](O)CC[C@]45C[C@@]35CC[C@]12C)C(C)C
REMARK SMILES IDX 4 1 3 2 2 3 1 4 30 5 31 6 32 7 5 8 6 9 7 10 8 11 28 12 9 13
REMARK SMILES IDX 10 14 27 15 29 16 11 17 12 18 26 19 25 20 13 21 23 22 24 23
REMARK SMILES IDX 14 24 15 25 22 26 16 27 21 28 19 29 17 30 18 31 20 32
REMARK H PARENT 20 33
REMARK Flexibility Score: inf
ROOT
ATOM      1  C   UNL     1       4.189   3.634  -4.526  1.00  0.00     0.008 C 
ENDROOT
BRANCH   1   2
ATOM      2  C   UNL     1       4.078   2.165  -4.110  1.00  0.00     0.031 C 
BRANCH   2   3
ATOM      3  C   UNL     1       5.417   1.448  -4.121  1.00  0.00    -0.075 C 
ATOM      4  C   UNL     1       6.497   1.968  -4.763  1.00  0.00     0.008 C 
BRANCH   3   5
ATOM      5  C   UNL     1       5.593   0.193  -3.286  1.00  0.00     0.008 C 
ATOM      6  C   UNL     1       4.489   0.116  -2.236  1.00  0.00     0.012 C 
ATOM      7  C   UNL     1       5.609  -1.117  -4.104  1.00  0.00     0.012 C 
ENDBRANCH   3   5
ENDBRANCH   2   3
ENDBRANCH   1   2
BRANCH   1   8
ATOM      8  C   UNL     1       3.280   4.036  -5.673  1.00  0.00    -0.010 C 
ATOM      9  C   UNL     1       3.969   3.733  -7.044  1.00  0.00     0.008 C 
BRANCH   8  10
ATOM     10  C   UNL     1       1.790   3.610  -5.427  1.00  0.00    -0.002 C 
ATOM     11  C   UNL     1       1.139   4.342  -4.240  1.00  0.00     0.005 C 
ATOM     12  C   UNL     1       0.598   3.650  -6.525  1.00  0.00    -0.024 C 
ATOM     13  C   UNL     1       0.137   5.350  -4.819  1.00  0.00     0.008 C 
ATOM     14  C   UNL     1       0.006   5.082  -6.348  1.00  0.00    -0.024 C 
ATOM     15  C   UNL     1      -0.484   2.528  -6.149  1.00  0.00     0.008 C 
ATOM     16  C   UNL     1       0.968   3.318  -8.003  1.00  0.00     0.012 C 
ATOM     17  C   UNL     1       0.853   6.115  -7.112  1.00  0.00     0.012 C 
ATOM     18  C   UNL     1      -1.486   5.163  -6.862  1.00  0.00     0.002 C 
ATOM     19  C   UNL     1      -1.783   2.959  -5.376  1.00  0.00     0.008 C 
ATOM     20  C   UNL     1      -2.465   4.161  -6.084  1.00  0.00    -0.020 C 
ATOM     21  C   UNL     1      -2.007   6.626  -6.858  1.00  0.00     0.005 C 
ATOM     22  C   UNL     1      -3.910   4.791  -5.759  1.00  0.00    -0.020 C 
ATOM     23  C   UNL     1      -3.674   3.663  -6.784  1.00  0.00     0.015 C 
ATOM     24  C   UNL     1      -3.421   6.666  -7.447  1.00  0.00     0.005 C 
ATOM     25  C   UNL     1      -4.527   6.008  -6.604  1.00  0.00     0.004 C 
ATOM     26  C   UNL     1      -3.701   5.261  -4.253  1.00  0.00     0.010 C 
ATOM     27  C   UNL     1      -5.868   6.629  -5.937  1.00  0.00    -0.006 C 
ATOM     28  C   UNL     1      -4.798   6.216  -3.601  1.00  0.00     0.033 C 
ATOM     29  C   UNL     1      -6.035   6.165  -4.483  1.00  0.00     0.120 C 
ATOM     30  C   UNL     1      -5.811   8.178  -6.175  1.00  0.00     0.014 C 
ATOM     31  C   UNL     1      -7.168   6.059  -6.641  1.00  0.00     0.014 C 
BRANCH  29  32
ATOM     32  O   UNL     1      -7.105   6.792  -3.801  1.00  0.00    -0.393 OA
ATOM     33  H   UNL     1      -7.797   6.921  -4.493  1.00  0.00     0.210 HD
ENDBRANCH  29  32
ENDBRANCH   8  10
ENDBRANCH   1   8
TORSDOF 6
ENDMDL
MODEL 7
REMARK VINA RESULT:    -3.919      7.840     12.613
REMARK INTER + INTRA:          -7.163
REMARK INTER:                  -5.726
REMARK INTRA:                  -1.437
REMARK UNBOUND:                -1.983
REMARK SMILES C=C(CC[C@@H](C)[C@H]1CC[C@]2(C)[C@@H]3CC[C@@H]4C(C)(C)[C@H](O)CC[C@]45C[C@@]35CC[C@]12C)C(C)C
REMARK SMILES IDX 4 1 3 2 2 3 1 4 30 5 31 6 32 7 5 8 6 9 7 10 8 11 28 12 9 13
REMARK SMILES IDX 10 14 27 15 29 16 11 17 12 18 26 19 25 20 13 21 23 22 24 23
REMARK SMILES IDX 14 24 15 25 22 26 16 27 21 28 19 29 17 30 18 31 20 32
REMARK H PARENT 20 33
REMARK Flexibility Score: inf
ROOT
ATOM      1  C   UNL     1      -4.771   6.629  -5.005  1.00  0.00     0.008 C 
ENDROOT
BRANCH   1   2
ATOM      2  C   UNL     1      -4.694   6.088  -3.575  1.00  0.00     0.031 C 
BRANCH   2   3
ATOM      3  C   UNL     1      -4.661   7.190  -2.530  1.00  0.00    -0.075 C 
ATOM      4  C   UNL     1      -5.249   7.035  -1.314  1.00  0.00     0.008 C 
BRANCH   3   5
ATOM      5  C   UNL     1      -3.840   8.438  -2.796  1.00  0.00     0.008 C 
ATOM      6  C   UNL     1      -4.387   9.599  -1.972  1.00  0.00     0.012 C 
ATOM      7  C   UNL     1      -2.330   8.278  -2.507  1.00  0.00     0.012 C 
ENDBRANCH   3   5
ENDBRANCH   2   3
ENDBRANCH   1   2
BRANCH   1   8
ATOM      8  C   UNL     1      -4.491   5.600  -6.086  1.00  0.00    -0.010 C 
ATOM      9  C   UNL     1      -5.688   5.527  -7.089  1.00  0.00     0.008 C 
BRANCH   8  10
ATOM     10  C   UNL     1      -3.018   5.687  -6.619  1.00  0.00    -0.002 C 
ATOM     11  C   UNL     1      -2.117   6.598  -5.766  1.00  0.00     0.005 C 
ATOM     12  C   UNL     1      -2.034   4.429  -6.897  1.00  0.00    -0.024 C 
ATOM     13  C   UNL     1      -1.156   5.690  -4.986  1.00  0.00     0.008 C 
ATOM     14  C   UNL     1      -1.313   4.237  -5.528  1.00  0.00    -0.024 C 
ATOM     15  C   UNL     1      -0.992   4.836  -8.047  1.00  0.00     0.008 C 
ATOM     16  C   UNL     1      -2.679   3.116  -7.440  1.00  0.00     0.012 C 
ATOM     17  C   UNL     1      -2.198   3.434  -4.559  1.00  0.00     0.012 C 
ATOM     18  C   UNL     1       0.069   3.490  -5.697  1.00  0.00     0.002 C 
ATOM     19  C   UNL     1       0.450   5.301  -7.629  1.00  0.00     0.008 C 
ATOM     20  C   UNL     1       1.088   4.282  -6.648  1.00  0.00    -0.020 C 
ATOM     21  C   UNL     1       0.694   3.136  -4.320  1.00  0.00     0.005 C 
ATOM     22  C   UNL     1       2.612   4.252  -6.129  1.00  0.00    -0.020 C 
ATOM     23  C   UNL     1       2.116   3.508  -7.386  1.00  0.00     0.015 C 
ATOM     24  C   UNL     1       1.983   2.337  -4.534  1.00  0.00     0.005 C 
ATOM     25  C   UNL     1       3.165   3.106  -5.150  1.00  0.00     0.004 C 
ATOM     26  C   UNL     1       2.703   5.656  -5.385  1.00  0.00     0.010 C 
ATOM     27  C   UNL     1       4.645   3.427  -4.569  1.00  0.00    -0.006 C 
ATOM     28  C   UNL     1       3.967   5.936  -4.454  1.00  0.00     0.033 C 
ATOM     29  C   UNL     1       5.024   4.897  -4.789  1.00  0.00     0.120 C 
ATOM     30  C   UNL     1       4.665   2.912  -3.089  1.00  0.00     0.014 C 
ATOM     31  C   UNL     1       5.755   2.649  -5.388  1.00  0.00     0.014 C 
BRANCH  29  32
ATOM     32  O   UNL     1       6.241   5.273  -4.171  1.00  0.00    -0.393 OA
ATOM     33  H   UNL     1       6.085   5.122  -3.208  1.00  0.00     0.210 HD
ENDBRANCH  29  32
ENDBRANCH   8  10
ENDBRANCH   1   8
TORSDOF 6
ENDMDL
MODEL 8
REMARK VINA RESULT:    -3.873      3.711      7.358
REMARK INTER + INTRA:          -7.101
REMARK INTER:                  -4.998
REMARK INTRA:                  -2.103
REMARK UNBOUND:                -1.983
REMARK SMILES C=C(CC[C@@H](C)[C@H]1CC[C@]2(C)[C@@H]3CC[C@@H]4C(C)(C)[C@H](O)CC[C@]45C[C@@]35CC[C@]12C)C(C)C
REMARK SMILES IDX 4 1 3 2 2 3 1 4 30 5 31 6 32 7 5 8 6 9 7 10 8 11 28 12 9 13
REMARK SMILES IDX 10 14 27 15 29 16 11 17 12 18 26 19 25 20 13 21 23 22 24 23
REMARK SMILES IDX 14 24 15 25 22 26 16 27 21 28 19 29 17 30 18 31 20 32
REMARK H PARENT 20 33
REMARK Flexibility Score: inf
ROOT
ATOM      1  C   UNL     1       4.137  -7.251  -1.052  1.00  0.00     0.008 C 
ENDROOT
BRANCH   1   2
ATOM      2  C   UNL     1       5.117  -6.160  -1.491  1.00  0.00     0.031 C 
BRANCH   2   3
ATOM      3  C   UNL     1       6.343  -6.077  -0.598  1.00  0.00    -0.075 C 
ATOM      4  C   UNL     1       6.850  -7.178   0.018  1.00  0.00     0.008 C 
BRANCH   3   5
ATOM      5  C   UNL     1       7.101  -4.766  -0.500  1.00  0.00     0.008 C 
ATOM      6  C   UNL     1       6.471  -3.736  -1.433  1.00  0.00     0.012 C 
ATOM      7  C   UNL     1       7.173  -4.180   0.928  1.00  0.00     0.012 C 
ENDBRANCH   3   5
ENDBRANCH   2   3
ENDBRANCH   1   2
BRANCH   1   8
ATOM      8  C   UNL     1       2.711  -6.774  -0.845  1.00  0.00    -0.010 C 
ATOM      9  C   UNL     1       1.752  -7.472  -1.863  1.00  0.00     0.008 C 
BRANCH   8  10
ATOM     10  C   UNL     1       2.327  -6.694   0.675  1.00  0.00    -0.002 C 
ATOM     11  C   UNL     1       3.494  -7.051   1.613  1.00  0.00     0.005 C 
ATOM     12  C   UNL     1       1.690  -5.406   1.426  1.00  0.00    -0.024 C 
ATOM     13  C   UNL     1       3.967  -5.747   2.270  1.00  0.00     0.008 C 
ATOM     14  C   UNL     1       2.949  -4.624   1.910  1.00  0.00    -0.024 C 
ATOM     15  C   UNL     1       0.815  -5.918   2.668  1.00  0.00     0.008 C 
ATOM     16  C   UNL     1       0.692  -4.522   0.617  1.00  0.00     0.012 C 
ATOM     17  C   UNL     1       3.528  -3.771   0.767  1.00  0.00     0.012 C 
ATOM     18  C   UNL     1       2.614  -3.681   3.132  1.00  0.00     0.002 C 
ATOM     19  C   UNL     1       1.451  -5.884   4.105  1.00  0.00     0.008 C 
ATOM     20  C   UNL     1       2.056  -4.485   4.401  1.00  0.00    -0.020 C 
ATOM     21  C   UNL     1       3.818  -2.768   3.490  1.00  0.00     0.005 C 
ATOM     22  C   UNL     1       2.621  -3.946   5.808  1.00  0.00    -0.020 C 
ATOM     23  C   UNL     1       1.158  -3.782   5.348  1.00  0.00     0.015 C 
ATOM     24  C   UNL     1       3.417  -1.812   4.618  1.00  0.00     0.005 C 
ATOM     25  C   UNL     1       3.175  -2.451   5.997  1.00  0.00     0.004 C 
ATOM     26  C   UNL     1       3.807  -4.974   6.069  1.00  0.00     0.010 C 
ATOM     27  C   UNL     1       3.916  -2.223   7.421  1.00  0.00    -0.006 C 
ATOM     28  C   UNL     1       4.850  -4.644   7.229  1.00  0.00     0.033 C 
ATOM     29  C   UNL     1       4.239  -3.560   8.102  1.00  0.00     0.120 C 
ATOM     30  C   UNL     1       5.126  -1.266   7.147  1.00  0.00     0.014 C 
ATOM     31  C   UNL     1       2.945  -1.523   8.459  1.00  0.00     0.014 C 
BRANCH  29  32
ATOM     32  O   UNL     1       5.019  -3.430   9.276  1.00  0.00    -0.393 OA
ATOM     33  H   UNL     1       5.118  -4.354   9.610  1.00  0.00     0.210 HD
ENDBRANCH  29  32
ENDBRANCH   8  10
ENDBRANCH   1   8
TORSDOF 6
ENDMDL
MODEL 9
REMARK VINA RESULT:    -3.821     11.117     15.131
REMARK INTER + INTRA:          -7.033
REMARK INTER:                  -5.226
REMARK INTRA:                  -1.807
REMARK UNBOUND:                -1.983
REMARK SMILES C=C(CC[C@@H](C)[C@H]1CC[C@]2(C)[C@@H]3CC[C@@H]4C(C)(C)[C@H](O)CC[C@]45C[C@@]35CC[C@]12C)C(C)C
REMARK SMILES IDX 4 1 3 2 2 3 1 4 30 5 31 6 32 7 5 8 6 9 7 10 8 11 28 12 9 13
REMARK SMILES IDX 10 14 27 15 29 16 11 17 12 18 26 19 25 20 13 21 23 22 24 23
REMARK SMILES IDX 14 24 15 25 22 26 16 27 21 28 19 29 17 30 18 31 20 32
REMARK H PARENT 20 33
REMARK Flexibility Score: inf
ROOT
ATOM      1  C   UNL     1      -4.316   5.411  -7.338  1.00  0.00     0.008 C 
ENDROOT
BRANCH   1   2
ATOM      2  C   UNL     1      -2.908   4.812  -7.393  1.00  0.00     0.031 C 
BRANCH   2   3
ATOM      3  C   UNL     1      -2.544   4.047  -6.132  1.00  0.00    -0.075 C 
ATOM      4  C   UNL     1      -2.843   2.728  -5.990  1.00  0.00     0.008 C 
BRANCH   3   5
ATOM      5  C   UNL     1      -1.709   4.731  -5.066  1.00  0.00     0.008 C 
ATOM      6  C   UNL     1      -1.131   3.686  -4.116  1.00  0.00     0.012 C 
ATOM      7  C   UNL     1      -0.561   5.603  -5.621  1.00  0.00     0.012 C 
ENDBRANCH   3   5
ENDBRANCH   2   3
ENDBRANCH   1   2
BRANCH   1   8
ATOM      8  C   UNL     1      -4.367   6.869  -6.919  1.00  0.00    -0.010 C 
ATOM      9  C   UNL     1      -4.445   7.793  -8.178  1.00  0.00     0.008 C 
BRANCH   8  10
ATOM     10  C   UNL     1      -5.333   7.104  -5.705  1.00  0.00    -0.002 C 
ATOM     11  C   UNL     1      -5.384   5.913  -4.732  1.00  0.00     0.005 C 
ATOM     12  C   UNL     1      -5.280   8.358  -4.679  1.00  0.00    -0.024 C 
ATOM     13  C   UNL     1      -4.636   6.331  -3.459  1.00  0.00     0.008 C 
ATOM     14  C   UNL     1      -4.321   7.854  -3.558  1.00  0.00    -0.024 C 
ATOM     15  C   UNL     1      -6.755   8.615  -4.105  1.00  0.00     0.008 C 
ATOM     16  C   UNL     1      -4.869   9.746  -5.259  1.00  0.00     0.012 C 
ATOM     17  C   UNL     1      -2.852   8.034  -3.982  1.00  0.00     0.012 C 
ATOM     18  C   UNL     1      -4.559   8.623  -2.198  1.00  0.00     0.002 C 
ATOM     19  C   UNL     1      -7.124   8.043  -2.688  1.00  0.00     0.008 C 
ATOM     20  C   UNL     1      -6.051   8.447  -1.641  1.00  0.00    -0.020 C 
ATOM     21  C   UNL     1      -3.482   8.252  -1.142  1.00  0.00     0.005 C 
ATOM     22  C   UNL     1      -6.127   8.254  -0.045  1.00  0.00    -0.020 C 
ATOM     23  C   UNL     1      -6.618   9.515  -0.783  1.00  0.00     0.015 C 
ATOM     24  C   UNL     1      -3.701   9.086   0.124  1.00  0.00     0.005 C 
ATOM     25  C   UNL     1      -4.966   8.766   0.939  1.00  0.00     0.004 C 
ATOM     26  C   UNL     1      -6.234   6.670   0.061  1.00  0.00     0.010 C 
ATOM     27  C   UNL     1      -5.146   8.238   2.462  1.00  0.00    -0.006 C 
ATOM     28  C   UNL     1      -6.038   5.995   1.492  1.00  0.00     0.033 C 
ATOM     29  C   UNL     1      -6.161   7.090   2.538  1.00  0.00     0.120 C 
ATOM     30  C   UNL     1      -3.706   7.937   3.004  1.00  0.00     0.014 C 
ATOM     31  C   UNL     1      -5.805   9.353   3.374  1.00  0.00     0.014 C 
BRANCH  29  32
ATOM     32  O   UNL     1      -6.250   6.488   3.817  1.00  0.00    -0.393 OA
ATOM     33  H   UNL     1      -5.329   6.188   4.012  1.00  0.00     0.210 HD
ENDBRANCH  29  32
ENDBRANCH   8  10
ENDBRANCH   1   8
TORSDOF 6
ENDMDL
