MODEL 1
REMARK VINA RESULT:    -3.269      0.000      0.000
REMARK INTER + INTRA:          -3.698
REMARK INTER:                  -3.651
REMARK INTRA:                  -0.047
REMARK UNBOUND:                -0.047
REMARK SMILES CCCC(=O)[O-]
REMARK SMILES IDX 3 1 4 2 5 3 6 4 2 5 1 6
REMARK H PARENT
REMARK Flexibility Score: inf
ROOT
ATOM      1  C   UNL     1      27.339  -8.880  -1.330  1.00  0.00     0.052 C 
ENDROOT
BRANCH   1   2
ATOM      2  C   UNL     1      26.564  -7.761  -0.705  1.00  0.00     0.041 C 
ATOM      3  O   UNL     1      25.358  -7.577  -1.013  1.00  0.00    -0.550 OA
ATOM      4  O   UNL     1      27.164  -6.944   0.245  1.00  0.00    -0.550 OA
ENDBRANCH   1   2
BRANCH   1   5
ATOM      5  C   UNL     1      28.477  -8.358  -2.218  1.00  0.00     0.003 C 
ATOM      6  C   UNL     1      28.002  -7.291  -3.204  1.00  0.00     0.004 C 
ENDBRANCH   1   5
TORSDOF 2
ENDMDL
MODEL 2
REMARK VINA RESULT:    -3.242      0.086      1.324
REMARK INTER + INTRA:          -3.668
REMARK INTER:                  -3.621
REMARK INTRA:                  -0.047
REMARK UNBOUND:                -0.047
REMARK SMILES CCCC(=O)[O-]
REMARK SMILES IDX 3 1 4 2 5 3 6 4 2 5 1 6
REMARK H PARENT
REMARK Flexibility Score: inf
ROOT
ATOM      1  C   UNL     1      27.445  -8.863  -1.299  1.00  0.00     0.052 C 
ENDROOT
BRANCH   1   2
ATOM      2  C   UNL     1      26.668  -7.753  -0.657  1.00  0.00     0.041 C 
ATOM      3  O   UNL     1      27.218  -7.005   0.192  1.00  0.00    -0.550 OA
ATOM      4  O   UNL     1      25.348  -7.525  -1.025  1.00  0.00    -0.550 OA
ENDBRANCH   1   2
BRANCH   1   5
ATOM      5  C   UNL     1      28.549  -8.327  -2.219  1.00  0.00     0.003 C 
ATOM      6  C   UNL     1      28.027  -7.291  -3.213  1.00  0.00     0.004 C 
ENDBRANCH   1   5
TORSDOF 2
ENDMDL
MODEL 3
REMARK VINA RESULT:    -2.875      1.985      3.047
REMARK INTER + INTRA:          -3.259
REMARK INTER:                  -3.187
REMARK INTRA:                  -0.071
REMARK UNBOUND:                -0.047
REMARK SMILES CCCC(=O)[O-]
REMARK SMILES IDX 3 1 4 2 5 3 6 4 2 5 1 6
REMARK H PARENT
REMARK Flexibility Score: inf
ROOT
ATOM      1  C   UNL     1      27.112  -8.870  -1.354  1.00  0.00     0.052 C 
ENDROOT
BRANCH   1   2
ATOM      2  C   UNL     1      28.168  -8.103  -2.090  1.00  0.00     0.041 C 
ATOM      3  O   UNL     1      29.366  -8.147  -1.705  1.00  0.00    -0.550 OA
ATOM      4  O   UNL     1      27.835  -7.369  -3.221  1.00  0.00    -0.550 OA
ENDBRANCH   1   2
BRANCH   1   5
ATOM      5  C   UNL     1      26.019  -7.947  -0.801  1.00  0.00     0.003 C 
ATOM      6  C   UNL     1      26.582  -6.875   0.132  1.00  0.00     0.004 C 
ENDBRANCH   1   5
TORSDOF 2
ENDMDL
MODEL 4
REMARK VINA RESULT:    -2.710     18.809     19.676
REMARK INTER + INTRA:          -3.074
REMARK INTER:                  -3.041
REMARK INTRA:                  -0.033
REMARK UNBOUND:                -0.047
REMARK SMILES CCCC(=O)[O-]
REMARK SMILES IDX 3 1 4 2 5 3 6 4 2 5 1 6
REMARK H PARENT
REMARK Flexibility Score: inf
ROOT
ATOM      1  C   UNL     1      17.474   6.564   5.935  1.00  0.00     0.052 C 
ENDROOT
BRANCH   1   2
ATOM      2  C   UNL     1      17.927   6.623   7.362  1.00  0.00     0.041 C 
ATOM      3  O   UNL     1      19.126   6.375   7.656  1.00  0.00    -0.550 OA
ATOM      4  O   UNL     1      17.034   6.986   8.361  1.00  0.00    -0.550 OA
ENDBRANCH   1   2
BRANCH   1   5
ATOM      5  C   UNL     1      16.094   7.208   5.749  1.00  0.00     0.003 C 
ATOM      6  C   UNL     1      16.166   8.529   4.984  1.00  0.00     0.004 C 
ENDBRANCH   1   5
TORSDOF 2
ENDMDL
MODEL 5
REMARK VINA RESULT:    -2.643     19.473     20.330
REMARK INTER + INTRA:          -3.000
REMARK INTER:                  -2.931
REMARK INTRA:                  -0.069
REMARK UNBOUND:                -0.047
REMARK SMILES CCCC(=O)[O-]
REMARK SMILES IDX 3 1 4 2 5 3 6 4 2 5 1 6
REMARK H PARENT
REMARK Flexibility Score: inf
ROOT
ATOM      1  C   UNL     1      16.294   7.161   6.158  1.00  0.00     0.052 C 
ENDROOT
BRANCH   1   2
ATOM      2  C   UNL     1      16.718   8.511   5.663  1.00  0.00     0.041 C 
ATOM      3  O   UNL     1      17.233   8.633   4.521  1.00  0.00    -0.550 OA
ATOM      4  O   UNL     1      16.510   9.637   6.450  1.00  0.00    -0.550 OA
ENDBRANCH   1   2
BRANCH   1   5
ATOM      5  C   UNL     1      16.935   6.824   7.510  1.00  0.00     0.003 C 
ATOM      6  C   UNL     1      18.447   6.627   7.405  1.00  0.00     0.004 C 
ENDBRANCH   1   5
TORSDOF 2
ENDMDL
MODEL 6
REMARK VINA RESULT:    -2.633     19.722     20.528
REMARK INTER + INTRA:          -2.988
REMARK INTER:                  -2.951
REMARK INTRA:                  -0.037
REMARK UNBOUND:                -0.047
REMARK SMILES CCCC(=O)[O-]
REMARK SMILES IDX 3 1 4 2 5 3 6 4 2 5 1 6
REMARK H PARENT
REMARK Flexibility Score: inf
ROOT
ATOM      1  C   UNL     1      19.772   8.580   7.240  1.00  0.00     0.052 C 
ENDROOT
BRANCH   1   2
ATOM      2  C   UNL     1      18.508   7.853   7.587  1.00  0.00     0.041 C 
ATOM      3  O   UNL     1      17.463   8.498   7.865  1.00  0.00    -0.550 OA
ATOM      4  O   UNL     1      18.476   6.465   7.568  1.00  0.00    -0.550 OA
ENDBRANCH   1   2
BRANCH   1   5
ATOM      5  C   UNL     1      19.486   9.946   6.604  1.00  0.00     0.003 C 
ATOM      6  C   UNL     1      20.089  11.099   7.405  1.00  0.00     0.004 C 
ENDBRANCH   1   5
TORSDOF 2
ENDMDL
MODEL 7
REMARK VINA RESULT:    -2.617     18.514     19.340
REMARK INTER + INTRA:          -2.970
REMARK INTER:                  -2.934
REMARK INTRA:                  -0.036
REMARK UNBOUND:                -0.047
REMARK SMILES CCCC(=O)[O-]
REMARK SMILES IDX 3 1 4 2 5 3 6 4 2 5 1 6
REMARK H PARENT
REMARK Flexibility Score: inf
ROOT
ATOM      1  C   UNL     1      16.242   7.153   5.980  1.00  0.00     0.052 C 
ENDROOT
BRANCH   1   2
ATOM      2  C   UNL     1      16.715   6.483   4.725  1.00  0.00     0.041 C 
ATOM      3  O   UNL     1      15.882   6.056   3.883  1.00  0.00    -0.550 OA
ATOM      4  O   UNL     1      18.075   6.363   4.470  1.00  0.00    -0.550 OA
ENDBRANCH   1   2
BRANCH   1   5
ATOM      5  C   UNL     1      17.063   6.717   7.200  1.00  0.00     0.003 C 
ATOM      6  C   UNL     1      17.774   7.891   7.873  1.00  0.00     0.004 C 
ENDBRANCH   1   5
TORSDOF 2
ENDMDL
MODEL 8
REMARK VINA RESULT:    -2.478     19.150     19.934
REMARK INTER + INTRA:          -2.814
REMARK INTER:                  -2.771
REMARK INTRA:                  -0.043
REMARK UNBOUND:                -0.047
REMARK SMILES CCCC(=O)[O-]
REMARK SMILES IDX 3 1 4 2 5 3 6 4 2 5 1 6
REMARK H PARENT
REMARK Flexibility Score: inf
ROOT
ATOM      1  C   UNL     1      16.097   7.268   5.703  1.00  0.00     0.052 C 
ENDROOT
BRANCH   1   2
ATOM      2  C   UNL     1      16.949   8.501   5.718  1.00  0.00     0.041 C 
ATOM      3  O   UNL     1      16.449   9.619   5.426  1.00  0.00    -0.550 OA
ATOM      4  O   UNL     1      18.285   8.419   6.088  1.00  0.00    -0.550 OA
ENDBRANCH   1   2
BRANCH   1   5
ATOM      5  C   UNL     1      16.545   6.280   4.619  1.00  0.00     0.003 C 
ATOM      6  C   UNL     1      15.879   6.553   3.271  1.00  0.00     0.004 C 
ENDBRANCH   1   5
TORSDOF 2
ENDMDL
