MODEL 1
REMARK VINA RESULT:    -3.450      0.000      0.000
REMARK INTER + INTRA:          -3.450
REMARK INTER:                  -3.450
REMARK INTRA:                   0.000
REMARK UNBOUND:                 0.000
REMARK SMILES CC1(C)C(=O)[C@@]2(C)CC[C@@H]1C2
REMARK SMILES IDX 1 1 2 2 10 3 9 4 8 5 6 6 11 7 4 8 5 9 7 10 3 11
REMARK H PARENT
REMARK Flexibility Score: inf
ROOT
ATOM      1  C   UNL     1     167.545 166.481 170.587  1.00  0.00     0.020 C 
ATOM      2  C   UNL     1     166.387 165.476 170.413  1.00  0.00     0.027 C 
ATOM      3  C   UNL     1     165.040 166.039 170.991  1.00  0.00     0.003 C 
ATOM      4  C   UNL     1     163.930 164.957 170.978  1.00  0.00     0.005 C 
ATOM      5  C   UNL     1     163.654 164.757 169.470  1.00  0.00     0.015 C 
ATOM      6  C   UNL     1     164.564 165.818 168.820  1.00  0.00     0.027 C 
ATOM      7  C   UNL     1     164.531 166.924 169.855  1.00  0.00     0.019 C 
ATOM      8  C   UNL     1     165.986 165.353 168.972  1.00  0.00     0.144 C 
ATOM      9  O   UNL     1     166.678 164.880 168.082  1.00  0.00    -0.298 OA
ATOM     10  C   UNL     1     164.162 166.249 167.408  1.00  0.00     0.020 C 
ATOM     11  C   UNL     1     166.810 164.112 171.001  1.00  0.00     0.020 C 
ENDROOT
TORSDOF 0
ENDMDL
MODEL 2
REMARK VINA RESULT:    -3.384      7.176      8.573
REMARK INTER + INTRA:          -3.384
REMARK INTER:                  -3.384
REMARK INTRA:                   0.000
REMARK UNBOUND:                 0.000
REMARK SMILES CC1(C)C(=O)[C@@]2(C)CC[C@@H]1C2
REMARK SMILES IDX 1 1 2 2 10 3 9 4 8 5 6 6 11 7 4 8 5 9 7 10 3 11
REMARK H PARENT
REMARK Flexibility Score: inf
ROOT
ATOM      1  C   UNL     1     168.831 159.009 171.902  1.00  0.00     0.020 C 
ATOM      2  C   UNL     1     168.082 158.702 170.589  1.00  0.00     0.027 C 
ATOM      3  C   UNL     1     168.750 159.418 169.360  1.00  0.00     0.003 C 
ATOM      4  C   UNL     1     167.889 159.252 168.082  1.00  0.00     0.005 C 
ATOM      5  C   UNL     1     168.014 157.744 167.768  1.00  0.00     0.015 C 
ATOM      6  C   UNL     1     169.006 157.259 168.843  1.00  0.00     0.027 C 
ATOM      7  C   UNL     1     169.897 158.475 169.005  1.00  0.00     0.019 C 
ATOM      8  C   UNL     1     168.291 157.276 170.165  1.00  0.00     0.144 C 
ATOM      9  O   UNL     1     167.877 156.293 170.762  1.00  0.00    -0.298 OA
ATOM     10  C   UNL     1     169.746 155.961 168.515  1.00  0.00     0.020 C 
ATOM     11  C   UNL     1     166.583 159.024 170.774  1.00  0.00     0.020 C 
ENDROOT
TORSDOF 0
ENDMDL
MODEL 3
REMARK VINA RESULT:    -3.379      7.185      8.389
REMARK INTER + INTRA:          -3.379
REMARK INTER:                  -3.379
REMARK INTRA:                   0.000
REMARK UNBOUND:                 0.000
REMARK SMILES CC1(C)C(=O)[C@@]2(C)CC[C@@H]1C2
REMARK SMILES IDX 1 1 2 2 10 3 9 4 8 5 6 6 11 7 4 8 5 9 7 10 3 11
REMARK H PARENT
REMARK Flexibility Score: inf
ROOT
ATOM      1  C   UNL     1     162.383 172.207 171.893  1.00  0.00     0.020 C 
ATOM      2  C   UNL     1     163.116 172.492 170.565  1.00  0.00     0.027 C 
ATOM      3  C   UNL     1     162.441 171.745 169.359  1.00  0.00     0.003 C 
ATOM      4  C   UNL     1     163.288 171.889 168.069  1.00  0.00     0.005 C 
ATOM      5  C   UNL     1     163.149 173.389 167.724  1.00  0.00     0.015 C 
ATOM      6  C   UNL     1     162.164 173.890 168.798  1.00  0.00     0.027 C 
ATOM      7  C   UNL     1     161.284 172.672 168.996  1.00  0.00     0.019 C 
ATOM      8  C   UNL     1     162.893 173.906 170.113  1.00  0.00     0.144 C 
ATOM      9  O   UNL     1     163.306 174.905 170.684  1.00  0.00    -0.298 OA
ATOM     10  C   UNL     1     161.411 175.175 168.450  1.00  0.00     0.020 C 
ATOM     11  C   UNL     1     164.620 172.184 170.742  1.00  0.00     0.020 C 
ENDROOT
TORSDOF 0
ENDMDL
MODEL 4
REMARK VINA RESULT:    -3.328      6.663      8.243
REMARK INTER + INTRA:          -3.328
REMARK INTER:                  -3.328
REMARK INTRA:                   0.000
REMARK UNBOUND:                 0.000
REMARK SMILES CC1(C)C(=O)[C@@]2(C)CC[C@@H]1C2
REMARK SMILES IDX 1 1 2 2 10 3 9 4 8 5 6 6 11 7 4 8 5 9 7 10 3 11
REMARK H PARENT
REMARK Flexibility Score: inf
ROOT
ATOM      1  C   UNL     1     168.222 157.389 167.578  1.00  0.00     0.020 C 
ATOM      2  C   UNL     1     168.884 157.730 168.930  1.00  0.00     0.027 C 
ATOM      3  C   UNL     1     169.372 159.222 168.975  1.00  0.00     0.003 C 
ATOM      4  C   UNL     1     170.194 159.502 170.260  1.00  0.00     0.005 C 
ATOM      5  C   UNL     1     169.135 159.405 171.381  1.00  0.00     0.015 C 
ATOM      6  C   UNL     1     167.830 159.183 170.591  1.00  0.00     0.027 C 
ATOM      7  C   UNL     1     168.097 159.983 169.331  1.00  0.00     0.019 C 
ATOM      8  C   UNL     1     167.867 157.788 170.033  1.00  0.00     0.144 C 
ATOM      9  O   UNL     1     167.229 156.835 170.458  1.00  0.00    -0.298 OA
ATOM     10  C   UNL     1     166.544 159.561 171.330  1.00  0.00     0.020 C 
ATOM     11  C   UNL     1     169.986 156.691 169.229  1.00  0.00     0.020 C 
ENDROOT
TORSDOF 0
ENDMDL
MODEL 5
REMARK VINA RESULT:    -3.326      6.721      8.300
REMARK INTER + INTRA:          -3.326
REMARK INTER:                  -3.326
REMARK INTRA:                   0.000
REMARK UNBOUND:                 0.000
REMARK SMILES CC1(C)C(=O)[C@@]2(C)CC[C@@H]1C2
REMARK SMILES IDX 1 1 2 2 10 3 9 4 8 5 6 6 11 7 4 8 5 9 7 10 3 11
REMARK H PARENT
REMARK Flexibility Score: inf
ROOT
ATOM      1  C   UNL     1     162.976 173.820 167.515  1.00  0.00     0.020 C 
ATOM      2  C   UNL     1     162.300 173.486 168.861  1.00  0.00     0.027 C 
ATOM      3  C   UNL     1     161.806 171.996 168.907  1.00  0.00     0.003 C 
ATOM      4  C   UNL     1     160.970 171.723 170.184  1.00  0.00     0.005 C 
ATOM      5  C   UNL     1     162.018 171.822 171.316  1.00  0.00     0.015 C 
ATOM      6  C   UNL     1     163.332 172.037 170.539  1.00  0.00     0.027 C 
ATOM      7  C   UNL     1     163.076 171.234 169.280  1.00  0.00     0.019 C 
ATOM      8  C   UNL     1     163.305 173.431 169.975  1.00  0.00     0.144 C 
ATOM      9  O   UNL     1     163.940 174.383 170.404  1.00  0.00    -0.298 OA
ATOM     10  C   UNL     1     164.609 171.659 171.293  1.00  0.00     0.020 C 
ATOM     11  C   UNL     1     161.196 174.530 169.145  1.00  0.00     0.020 C 
ENDROOT
TORSDOF 0
ENDMDL
MODEL 6
REMARK VINA RESULT:    -3.310      6.769      8.129
REMARK INTER + INTRA:          -3.310
REMARK INTER:                  -3.310
REMARK INTRA:                   0.000
REMARK UNBOUND:                 0.000
REMARK SMILES CC1(C)C(=O)[C@@]2(C)CC[C@@H]1C2
REMARK SMILES IDX 1 1 2 2 10 3 9 4 8 5 6 6 11 7 4 8 5 9 7 10 3 11
REMARK H PARENT
REMARK Flexibility Score: inf
ROOT
ATOM      1  C   UNL     1     160.845 174.695 170.554  1.00  0.00     0.020 C 
ATOM      2  C   UNL     1     161.720 173.463 170.869  1.00  0.00     0.027 C 
ATOM      3  C   UNL     1     160.970 172.123 170.540  1.00  0.00     0.003 C 
ATOM      4  C   UNL     1     161.781 170.895 171.028  1.00  0.00     0.005 C 
ATOM      5  C   UNL     1     163.011 170.893 170.092  1.00  0.00     0.015 C 
ATOM      6  C   UNL     1     162.699 172.054 169.127  1.00  0.00     0.027 C 
ATOM      7  C   UNL     1     161.188 171.977 169.036  1.00  0.00     0.019 C 
ATOM      8  C   UNL     1     162.854 173.338 169.893  1.00  0.00     0.144 C 
ATOM      9  O   UNL     1     163.791 174.117 169.794  1.00  0.00    -0.298 OA
ATOM     10  C   UNL     1     163.426 172.002 167.781  1.00  0.00     0.020 C 
ATOM     11  C   UNL     1     162.232 173.565 172.323  1.00  0.00     0.020 C 
ENDROOT
TORSDOF 0
ENDMDL
MODEL 7
REMARK VINA RESULT:    -3.304      6.541      8.183
REMARK INTER + INTRA:          -3.304
REMARK INTER:                  -3.304
REMARK INTRA:                   0.000
REMARK UNBOUND:                 0.000
REMARK SMILES CC1(C)C(=O)[C@@]2(C)CC[C@@H]1C2
REMARK SMILES IDX 1 1 2 2 10 3 9 4 8 5 6 6 11 7 4 8 5 9 7 10 3 11
REMARK H PARENT
REMARK Flexibility Score: inf
ROOT
ATOM      1  C   UNL     1     170.422 156.527 170.640  1.00  0.00     0.020 C 
ATOM      2  C   UNL     1     169.537 157.752 170.952  1.00  0.00     0.027 C 
ATOM      3  C   UNL     1     170.274 159.098 170.616  1.00  0.00     0.003 C 
ATOM      4  C   UNL     1     169.452 160.320 171.100  1.00  0.00     0.005 C 
ATOM      5  C   UNL     1     168.221 160.307 170.166  1.00  0.00     0.015 C 
ATOM      6  C   UNL     1     168.542 159.145 169.205  1.00  0.00     0.027 C 
ATOM      7  C   UNL     1     170.052 159.236 169.111  1.00  0.00     0.019 C 
ATOM      8  C   UNL     1     168.400 157.863 169.977  1.00  0.00     0.144 C 
ATOM      9  O   UNL     1     167.470 157.075 169.882  1.00  0.00    -0.298 OA
ATOM     10  C   UNL     1     167.812 159.185 167.860  1.00  0.00     0.020 C 
ATOM     11  C   UNL     1     169.028 157.652 172.406  1.00  0.00     0.020 C 
ENDROOT
TORSDOF 0
ENDMDL
MODEL 8
REMARK VINA RESULT:    -3.280      8.056      9.719
REMARK INTER + INTRA:          -3.280
REMARK INTER:                  -3.280
REMARK INTRA:                   0.000
REMARK UNBOUND:                 0.000
REMARK SMILES CC1(C)C(=O)[C@@]2(C)CC[C@@H]1C2
REMARK SMILES IDX 1 1 2 2 10 3 9 4 8 5 6 6 11 7 4 8 5 9 7 10 3 11
REMARK H PARENT
REMARK Flexibility Score: inf
ROOT
ATOM      1  C   UNL     1     157.907 174.300 169.950  1.00  0.00     0.020 C 
ATOM      2  C   UNL     1     159.060 173.638 169.167  1.00  0.00     0.027 C 
ATOM      3  C   UNL     1     160.463 174.135 169.673  1.00  0.00     0.003 C 
ATOM      4  C   UNL     1     161.602 173.608 168.764  1.00  0.00     0.005 C 
ATOM      5  C   UNL     1     161.602 172.088 169.047  1.00  0.00     0.015 C 
ATOM      6  C   UNL     1     160.535 171.954 170.152  1.00  0.00     0.027 C 
ATOM      7  C   UNL     1     160.705 173.260 170.901  1.00  0.00     0.019 C 
ATOM      8  C   UNL     1     159.191 172.184 169.518  1.00  0.00     0.144 C 
ATOM      9  O   UNL     1     158.370 171.317 169.258  1.00  0.00    -0.298 OA
ATOM     10  C   UNL     1     160.644 170.698 171.019  1.00  0.00     0.020 C 
ATOM     11  C   UNL     1     158.824 173.837 167.654  1.00  0.00     0.020 C 
ENDROOT
TORSDOF 0
ENDMDL
MODEL 9
REMARK VINA RESULT:    -3.276      7.730      9.607
REMARK INTER + INTRA:          -3.276
REMARK INTER:                  -3.276
REMARK INTRA:                   0.000
REMARK UNBOUND:                 0.000
REMARK SMILES CC1(C)C(=O)[C@@]2(C)CC[C@@H]1C2
REMARK SMILES IDX 1 1 2 2 10 3 9 4 8 5 6 6 11 7 4 8 5 9 7 10 3 11
REMARK H PARENT
REMARK Flexibility Score: inf
ROOT
ATOM      1  C   UNL     1     173.377 156.941 169.816  1.00  0.00     0.020 C 
ATOM      2  C   UNL     1     172.166 157.571 169.094  1.00  0.00     0.027 C 
ATOM      3  C   UNL     1     170.807 157.067 169.699  1.00  0.00     0.003 C 
ATOM      4  C   UNL     1     169.604 157.560 168.854  1.00  0.00     0.005 C 
ATOM      5  C   UNL     1     169.600 159.085 169.106  1.00  0.00     0.015 C 
ATOM      6  C   UNL     1     170.733 159.257 170.136  1.00  0.00     0.027 C 
ATOM      7  C   UNL     1     170.630 157.965 170.922  1.00  0.00     0.019 C 
ATOM      8  C   UNL     1     172.037 159.030 169.422  1.00  0.00     0.144 C 
ATOM      9  O   UNL     1     172.828 159.902 169.093  1.00  0.00    -0.298 OA
ATOM     10  C   UNL     1     170.662 160.529 170.983  1.00  0.00     0.020 C 
ATOM     11  C   UNL     1     172.309 157.342 167.574  1.00  0.00     0.020 C 
ENDROOT
TORSDOF 0
ENDMDL
