MODEL 1
REMARK VINA RESULT:    -4.333      0.000      0.000
REMARK INTER + INTRA:          -4.333
REMARK INTER:                  -4.333
REMARK INTRA:                   0.000
REMARK UNBOUND:                 0.000
REMARK SMILES CC1=CC(=O)[C@H]2C[C@@H]1C2(C)C
REMARK SMILES IDX 1 1 2 2 3 3 4 4 5 5 6 6 7 7 8 8 9 9 10 10 11 11
REMARK H PARENT
REMARK Flexibility Score: inf
ROOT
ATOM      1  C   UNL     1       0.998   1.974  56.725  1.00  0.00     0.040 C 
ATOM      2  C   UNL     1       0.804   1.569  58.153  1.00  0.00    -0.066 C 
ATOM      3  C   UNL     1       0.797   0.264  58.545  1.00  0.00     0.047 C 
ATOM      4  C   UNL     1       0.592   0.012  60.008  1.00  0.00     0.159 C 
ATOM      5  O   UNL     1       0.523  -1.150  60.487  1.00  0.00    -0.295 OA
ATOM      6  C   UNL     1       0.471   1.265  60.876  1.00  0.00     0.067 C 
ATOM      7  C   UNL     1       1.618   2.175  60.386  1.00  0.00     0.021 C 
ATOM      8  C   UNL     1       0.660   2.631  59.263  1.00  0.00     0.022 C 
ATOM      9  C   UNL     1      -0.525   2.246  60.196  1.00  0.00    -0.019 C 
ATOM     10  C   UNL     1      -0.940   3.409  61.131  1.00  0.00     0.012 C 
ATOM     11  C   UNL     1      -1.811   1.661  59.546  1.00  0.00     0.012 C 
ENDROOT
TORSDOF 0
ENDMDL
MODEL 2
REMARK VINA RESULT:    -4.290      4.711      6.359
REMARK INTER + INTRA:          -4.290
REMARK INTER:                  -4.290
REMARK INTRA:                   0.000
REMARK UNBOUND:                 0.000
REMARK SMILES CC1=CC(=O)[C@H]2C[C@@H]1C2(C)C
REMARK SMILES IDX 1 1 2 2 3 3 4 4 5 5 6 6 7 7 8 8 9 9 10 10 11 11
REMARK H PARENT
REMARK Flexibility Score: inf
ROOT
ATOM      1  C   UNL     1       0.344  -2.578  52.872  1.00  0.00     0.040 C 
ATOM      2  C   UNL     1       1.504  -1.953  53.583  1.00  0.00    -0.066 C 
ATOM      3  C   UNL     1       2.436  -2.693  54.245  1.00  0.00     0.047 C 
ATOM      4  C   UNL     1       3.540  -1.928  54.911  1.00  0.00     0.159 C 
ATOM      5  O   UNL     1       4.437  -2.494  55.588  1.00  0.00    -0.295 OA
ATOM      6  C   UNL     1       3.498  -0.413  54.709  1.00  0.00     0.067 C 
ATOM      7  C   UNL     1       3.217  -0.241  53.200  1.00  0.00     0.021 C 
ATOM      8  C   UNL     1       1.723  -0.426  53.546  1.00  0.00     0.022 C 
ATOM      9  C   UNL     1       2.050   0.084  54.980  1.00  0.00    -0.019 C 
ATOM     10  C   UNL     1       1.966   1.627  55.089  1.00  0.00     0.012 C 
ATOM     11  C   UNL     1       1.268  -0.533  56.175  1.00  0.00     0.012 C 
ENDROOT
TORSDOF 0
ENDMDL
MODEL 3
REMARK VINA RESULT:    -4.217     11.461     12.723
REMARK INTER + INTRA:          -4.217
REMARK INTER:                  -4.217
REMARK INTRA:                   0.000
REMARK UNBOUND:                 0.000
REMARK SMILES CC1=CC(=O)[C@H]2C[C@@H]1C2(C)C
REMARK SMILES IDX 1 1 2 2 3 3 4 4 5 5 6 6 7 7 8 8 9 9 10 10 11 11
REMARK H PARENT
REMARK Flexibility Score: inf
ROOT
ATOM      1  C   UNL     1      -9.221   5.407  54.681  1.00  0.00     0.040 C 
ATOM      2  C   UNL     1      -8.814   4.900  53.333  1.00  0.00    -0.066 C 
ATOM      3  C   UNL     1      -7.728   5.388  52.670  1.00  0.00     0.047 C 
ATOM      4  C   UNL     1      -7.445   4.785  51.328  1.00  0.00     0.159 C 
ATOM      5  O   UNL     1      -6.497   5.179  50.601  1.00  0.00    -0.295 OA
ATOM      6  C   UNL     1      -8.388   3.657  50.906  1.00  0.00     0.067 C 
ATOM      7  C   UNL     1      -8.498   2.768  52.164  1.00  0.00     0.021 C 
ATOM      8  C   UNL     1      -9.585   3.749  52.655  1.00  0.00     0.022 C 
ATOM      9  C   UNL     1      -9.851   4.112  51.166  1.00  0.00    -0.019 C 
ATOM     10  C   UNL     1     -10.889   3.169  50.506  1.00  0.00     0.012 C 
ATOM     11  C   UNL     1     -10.241   5.579  50.825  1.00  0.00     0.012 C 
ENDROOT
TORSDOF 0
ENDMDL
MODEL 4
REMARK VINA RESULT:    -4.148     10.687     11.921
REMARK INTER + INTRA:          -4.148
REMARK INTER:                  -4.148
REMARK INTRA:                   0.000
REMARK UNBOUND:                 0.000
REMARK SMILES CC1=CC(=O)[C@H]2C[C@@H]1C2(C)C
REMARK SMILES IDX 1 1 2 2 3 3 4 4 5 5 6 6 7 7 8 8 9 9 10 10 11 11
REMARK H PARENT
REMARK Flexibility Score: inf
ROOT
ATOM      1  C   UNL     1     -10.438   6.039  50.648  1.00  0.00     0.040 C 
ATOM      2  C   UNL     1      -9.421   5.173  51.325  1.00  0.00    -0.066 C 
ATOM      3  C   UNL     1      -9.363   3.827  51.124  1.00  0.00     0.047 C 
ATOM      4  C   UNL     1      -8.292   3.092  51.872  1.00  0.00     0.159 C 
ATOM      5  O   UNL     1      -8.162   1.842  51.804  1.00  0.00    -0.295 OA
ATOM      6  C   UNL     1      -7.370   3.966  52.723  1.00  0.00     0.067 C 
ATOM      7  C   UNL     1      -7.015   5.151  51.798  1.00  0.00     0.021 C 
ATOM      8  C   UNL     1      -8.349   5.788  52.247  1.00  0.00     0.022 C 
ATOM      9  C   UNL     1      -8.245   4.947  53.552  1.00  0.00    -0.019 C 
ATOM     10  C   UNL     1      -7.435   5.671  54.657  1.00  0.00     0.012 C 
ATOM     11  C   UNL     1      -9.560   4.410  54.186  1.00  0.00     0.012 C 
ENDROOT
TORSDOF 0
ENDMDL
MODEL 5
REMARK VINA RESULT:    -4.134     10.559     11.905
REMARK INTER + INTRA:          -4.134
REMARK INTER:                  -4.134
REMARK INTRA:                   0.000
REMARK UNBOUND:                 0.000
REMARK SMILES CC1=CC(=O)[C@H]2C[C@@H]1C2(C)C
REMARK SMILES IDX 1 1 2 2 3 3 4 4 5 5 6 6 7 7 8 8 9 9 10 10 11 11
REMARK H PARENT
REMARK Flexibility Score: inf
ROOT
ATOM      1  C   UNL     1      -7.814   1.688  52.414  1.00  0.00     0.040 C 
ATOM      2  C   UNL     1      -7.921   3.171  52.589  1.00  0.00    -0.066 C 
ATOM      3  C   UNL     1      -7.568   3.794  53.748  1.00  0.00     0.047 C 
ATOM      4  C   UNL     1      -7.731   5.283  53.776  1.00  0.00     0.159 C 
ATOM      5  O   UNL     1      -7.480   5.968  54.801  1.00  0.00    -0.295 OA
ATOM      6  C   UNL     1      -8.223   5.911  52.471  1.00  0.00     0.067 C 
ATOM      7  C   UNL     1      -7.368   5.231  51.380  1.00  0.00     0.021 C 
ATOM      8  C   UNL     1      -8.387   4.071  51.427  1.00  0.00     0.022 C 
ATOM      9  C   UNL     1      -9.438   5.092  51.954  1.00  0.00    -0.019 C 
ATOM     10  C   UNL     1     -10.189   5.810  50.804  1.00  0.00     0.012 C 
ATOM     11  C   UNL     1     -10.489   4.596  52.987  1.00  0.00     0.012 C 
ENDROOT
TORSDOF 0
ENDMDL
MODEL 6
REMARK VINA RESULT:    -4.117     10.904     12.235
REMARK INTER + INTRA:          -4.117
REMARK INTER:                  -4.117
REMARK INTRA:                   0.000
REMARK UNBOUND:                 0.000
REMARK SMILES CC1=CC(=O)[C@H]2C[C@@H]1C2(C)C
REMARK SMILES IDX 1 1 2 2 3 3 4 4 5 5 6 6 7 7 8 8 9 9 10 10 11 11
REMARK H PARENT
REMARK Flexibility Score: inf
ROOT
ATOM      1  C   UNL     1      -7.761   5.953  54.995  1.00  0.00     0.040 C 
ATOM      2  C   UNL     1      -8.109   5.460  53.625  1.00  0.00    -0.066 C 
ATOM      3  C   UNL     1      -8.989   6.116  52.818  1.00  0.00     0.047 C 
ATOM      4  C   UNL     1      -9.239   5.502  51.474  1.00  0.00     0.159 C 
ATOM      5  O   UNL     1     -10.062   5.988  50.655  1.00  0.00    -0.295 OA
ATOM      6  C   UNL     1      -8.426   4.243  51.168  1.00  0.00     0.067 C 
ATOM      7  C   UNL     1      -6.993   4.602  51.617  1.00  0.00     0.021 C 
ATOM      8  C   UNL     1      -7.432   4.202  53.043  1.00  0.00     0.022 C 
ATOM      9  C   UNL     1      -8.511   3.289  52.392  1.00  0.00    -0.019 C 
ATOM     10  C   UNL     1      -7.970   1.871  52.075  1.00  0.00     0.012 C 
ATOM     11  C   UNL     1      -9.879   3.137  53.117  1.00  0.00     0.012 C 
ENDROOT
TORSDOF 0
ENDMDL
MODEL 7
REMARK VINA RESULT:    -4.087     10.538     11.918
REMARK INTER + INTRA:          -4.087
REMARK INTER:                  -4.087
REMARK INTRA:                   0.000
REMARK UNBOUND:                 0.000
REMARK SMILES CC1=CC(=O)[C@H]2C[C@@H]1C2(C)C
REMARK SMILES IDX 1 1 2 2 3 3 4 4 5 5 6 6 7 7 8 8 9 9 10 10 11 11
REMARK H PARENT
REMARK Flexibility Score: inf
ROOT
ATOM      1  C   UNL     1     -10.342   2.385  52.231  1.00  0.00     0.040 C 
ATOM      2  C   UNL     1      -9.353   3.504  52.134  1.00  0.00    -0.066 C 
ATOM      3  C   UNL     1      -8.473   3.610  51.100  1.00  0.00     0.047 C 
ATOM      4  C   UNL     1      -7.542   4.783  51.139  1.00  0.00     0.159 C 
ATOM      5  O   UNL     1      -6.656   4.968  50.265  1.00  0.00    -0.295 OA
ATOM      6  C   UNL     1      -7.744   5.739  52.316  1.00  0.00     0.067 C 
ATOM      7  C   UNL     1      -9.273   5.943  52.377  1.00  0.00     0.021 C 
ATOM      8  C   UNL     1      -9.328   4.629  53.189  1.00  0.00     0.022 C 
ATOM      9  C   UNL     1      -7.858   4.901  53.621  1.00  0.00    -0.019 C 
ATOM     10  C   UNL     1      -7.771   5.778  54.895  1.00  0.00     0.012 C 
ATOM     11  C   UNL     1      -6.908   3.683  53.802  1.00  0.00     0.012 C 
ENDROOT
TORSDOF 0
ENDMDL
MODEL 8
REMARK VINA RESULT:    -4.043      9.322     10.550
REMARK INTER + INTRA:          -4.043
REMARK INTER:                  -4.043
REMARK INTRA:                   0.000
REMARK UNBOUND:                 0.000
REMARK SMILES CC1=CC(=O)[C@H]2C[C@@H]1C2(C)C
REMARK SMILES IDX 1 1 2 2 3 3 4 4 5 5 6 6 7 7 8 8 9 9 10 10 11 11
REMARK H PARENT
REMARK Flexibility Score: inf
ROOT
ATOM      1  C   UNL     1      -6.889   4.977  50.570  1.00  0.00     0.040 C 
ATOM      2  C   UNL     1      -7.324   4.218  51.785  1.00  0.00    -0.066 C 
ATOM      3  C   UNL     1      -8.599   3.763  51.940  1.00  0.00     0.047 C 
ATOM      4  C   UNL     1      -8.887   3.020  53.210  1.00  0.00     0.159 C 
ATOM      5  O   UNL     1     -10.035   2.588  53.490  1.00  0.00    -0.295 OA
ATOM      6  C   UNL     1      -7.688   2.826  54.140  1.00  0.00     0.067 C 
ATOM      7  C   UNL     1      -6.552   2.370  53.200  1.00  0.00     0.021 C 
ATOM      8  C   UNL     1      -6.317   3.868  52.899  1.00  0.00     0.022 C 
ATOM      9  C   UNL     1      -6.949   4.186  54.285  1.00  0.00    -0.019 C 
ATOM     10  C   UNL     1      -5.902   4.169  55.428  1.00  0.00     0.012 C 
ATOM     11  C   UNL     1      -7.801   5.480  54.425  1.00  0.00     0.012 C 
ENDROOT
TORSDOF 0
ENDMDL
MODEL 9
REMARK VINA RESULT:    -4.012      6.411      8.270
REMARK INTER + INTRA:          -4.012
REMARK INTER:                  -4.012
REMARK INTRA:                   0.000
REMARK UNBOUND:                 0.000
REMARK SMILES CC1=CC(=O)[C@H]2C[C@@H]1C2(C)C
REMARK SMILES IDX 1 1 2 2 3 3 4 4 5 5 6 6 7 7 8 8 9 9 10 10 11 11
REMARK H PARENT
REMARK Flexibility Score: inf
ROOT
ATOM      1  C   UNL     1      -7.402   6.880  61.422  1.00  0.00     0.040 C 
ATOM      2  C   UNL     1      -6.960   6.121  60.210  1.00  0.00    -0.066 C 
ATOM      3  C   UNL     1      -7.780   5.914  59.142  1.00  0.00     0.047 C 
ATOM      4  C   UNL     1      -7.199   5.135  58.001  1.00  0.00     0.159 C 
ATOM      5  O   UNL     1      -7.869   4.842  56.977  1.00  0.00    -0.295 OA
ATOM      6  C   UNL     1      -5.737   4.721  58.170  1.00  0.00     0.067 C 
ATOM      7  C   UNL     1      -5.041   5.999  58.688  1.00  0.00     0.021 C 
ATOM      8  C   UNL     1      -5.519   5.583  60.097  1.00  0.00     0.022 C 
ATOM      9  C   UNL     1      -5.555   4.112  59.589  1.00  0.00    -0.019 C 
ATOM     10  C   UNL     1      -4.189   3.398  59.754  1.00  0.00     0.012 C 
ATOM     11  C   UNL     1      -6.665   3.172  60.138  1.00  0.00     0.012 C 
ENDROOT
TORSDOF 0
ENDMDL
