MODEL 1
REMARK VINA RESULT:    -5.513      0.000      0.000
REMARK INTER + INTRA:          -6.612
REMARK INTER:                  -6.480
REMARK INTRA:                  -0.132
REMARK UNBOUND:                -0.132
REMARK SMILES O=C([O-])C=Cc1ccc(O)c(O)c1
REMARK SMILES IDX 6 1 13 2 7 3 11 4 8 5 9 6 5 7 4 8 2 9 1 10 3 11 12 12 10 14
REMARK H PARENT 12 13 10 15
REMARK Flexibility Score: inf
ROOT
ATOM      1  C   UNL     1       6.114  82.016  15.360  1.00  0.00    -0.022 A 
ATOM      2  C   UNL     1       5.787  83.337  15.011  1.00  0.00     0.058 A 
ATOM      3  C   UNL     1       6.143  81.035  14.350  1.00  0.00     0.012 A 
ATOM      4  C   UNL     1       5.518  83.682  13.679  1.00  0.00     0.157 A 
ATOM      5  C   UNL     1       5.874  81.378  13.022  1.00  0.00     0.051 A 
ATOM      6  C   UNL     1       5.564  82.697  12.680  1.00  0.00     0.157 A 
ENDROOT
BRANCH   1   7
ATOM      7  C   UNL     1       6.380  81.702  16.786  1.00  0.00     0.010 C 
ATOM      8  C   UNL     1       6.027  82.501  17.803  1.00  0.00     0.025 C 
BRANCH   8   9
ATOM      9  C   UNL     1       6.298  82.150  19.207  1.00  0.00     0.064 C 
ATOM     10  O   UNL     1       7.462  82.215  19.684  1.00  0.00    -0.545 OA
ATOM     11  O   UNL     1       5.250  81.741  20.022  1.00  0.00    -0.545 OA
ENDBRANCH   8   9
ENDBRANCH   1   7
BRANCH   4  12
ATOM     12  O   UNL     1       5.204  85.000  13.346  1.00  0.00    -0.504 OA
ATOM     13  H   UNL     1       4.913  85.670  14.048  1.00  0.00     0.293 HD
ENDBRANCH   4  12
BRANCH   6  14
ATOM     14  O   UNL     1       5.303  83.009  11.346  1.00  0.00    -0.504 OA
ATOM     15  H   UNL     1       4.361  83.123  10.994  1.00  0.00     0.293 HD
ENDBRANCH   6  14
TORSDOF 4
ENDMDL
MODEL 2
REMARK VINA RESULT:    -5.405      1.182      2.142
REMARK INTER + INTRA:          -6.485
REMARK INTER:                  -6.351
REMARK INTRA:                  -0.134
REMARK UNBOUND:                -0.132
REMARK SMILES O=C([O-])C=Cc1ccc(O)c(O)c1
REMARK SMILES IDX 6 1 13 2 7 3 11 4 8 5 9 6 5 7 4 8 2 9 1 10 3 11 12 12 10 14
REMARK H PARENT 12 13 10 15
REMARK Flexibility Score: inf
ROOT
ATOM      1  C   UNL     1       5.802  83.005  14.607  1.00  0.00    -0.022 A 
ATOM      2  C   UNL     1       5.565  82.293  13.419  1.00  0.00     0.058 A 
ATOM      3  C   UNL     1       5.837  84.413  14.558  1.00  0.00     0.012 A 
ATOM      4  C   UNL     1       5.342  82.966  12.210  1.00  0.00     0.157 A 
ATOM      5  C   UNL     1       5.615  85.085  13.353  1.00  0.00     0.051 A 
ATOM      6  C   UNL     1       5.365  84.370  12.179  1.00  0.00     0.157 A 
ENDROOT
BRANCH   1   7
ATOM      7  C   UNL     1       6.043  82.244  15.857  1.00  0.00     0.010 C 
ATOM      8  C   UNL     1       5.773  82.717  17.082  1.00  0.00     0.025 C 
BRANCH   8   9
ATOM      9  C   UNL     1       6.014  81.927  18.300  1.00  0.00     0.064 C 
ATOM     10  O   UNL     1       7.082  82.050  18.957  1.00  0.00    -0.545 OA
ATOM     11  O   UNL     1       5.046  81.031  18.735  1.00  0.00    -0.545 OA
ENDBRANCH   8   9
ENDBRANCH   1   7
BRANCH   4  12
ATOM     12  O   UNL     1       5.098  82.246  11.041  1.00  0.00    -0.504 OA
ATOM     13  H   UNL     1       5.086  81.233  11.035  1.00  0.00     0.293 HD
ENDBRANCH   4  12
BRANCH   6  14
ATOM     14  O   UNL     1       5.144  85.069  10.993  1.00  0.00    -0.504 OA
ATOM     15  H   UNL     1       4.768  84.622  10.166  1.00  0.00     0.293 HD
ENDBRANCH   6  14
TORSDOF 4
ENDMDL
MODEL 3
REMARK VINA RESULT:    -5.364      1.394      2.352
REMARK INTER + INTRA:          -6.436
REMARK INTER:                  -6.295
REMARK INTRA:                  -0.141
REMARK UNBOUND:                -0.132
REMARK SMILES O=C([O-])C=Cc1ccc(O)c(O)c1
REMARK SMILES IDX 6 1 13 2 7 3 11 4 8 5 9 6 5 7 4 8 2 9 1 10 3 11 12 12 10 14
REMARK H PARENT 12 13 10 15
REMARK Flexibility Score: inf
ROOT
ATOM      1  C   UNL     1       6.132  82.097  16.377  1.00  0.00    -0.022 A 
ATOM      2  C   UNL     1       6.508  81.061  15.505  1.00  0.00     0.058 A 
ATOM      3  C   UNL     1       5.779  83.348  15.833  1.00  0.00     0.012 A 
ATOM      4  C   UNL     1       6.510  81.257  14.117  1.00  0.00     0.157 A 
ATOM      5  C   UNL     1       5.781  83.544  14.449  1.00  0.00     0.051 A 
ATOM      6  C   UNL     1       6.142  82.504  13.587  1.00  0.00     0.157 A 
ENDROOT
BRANCH   1   7
ATOM      7  C   UNL     1       6.157  81.840  17.838  1.00  0.00     0.010 C 
ATOM      8  C   UNL     1       6.315  82.800  18.760  1.00  0.00     0.025 C 
BRANCH   8   9
ATOM      9  C   UNL     1       6.323  82.509  20.203  1.00  0.00     0.064 C 
ATOM     10  O   UNL     1       5.618  81.583  20.686  1.00  0.00    -0.545 OA
ATOM     11  O   UNL     1       7.123  83.268  21.048  1.00  0.00    -0.545 OA
ENDBRANCH   8   9
ENDBRANCH   1   7
BRANCH   4  12
ATOM     12  O   UNL     1       6.876  80.217  13.262  1.00  0.00    -0.504 OA
ATOM     13  H   UNL     1       7.744  79.708  13.388  1.00  0.00     0.293 HD
ENDBRANCH   4  12
BRANCH   6  14
ATOM     14  O   UNL     1       6.132  82.729  12.211  1.00  0.00    -0.504 OA
ATOM     15  H   UNL     1       6.975  82.686  11.652  1.00  0.00     0.293 HD
ENDBRANCH   6  14
TORSDOF 4
ENDMDL
MODEL 4
REMARK VINA RESULT:    -5.141      1.736      2.465
REMARK INTER + INTRA:          -6.175
REMARK INTER:                  -6.042
REMARK INTRA:                  -0.133
REMARK UNBOUND:                -0.132
REMARK SMILES O=C([O-])C=Cc1ccc(O)c(O)c1
REMARK SMILES IDX 6 1 13 2 7 3 11 4 8 5 9 6 5 7 4 8 2 9 1 10 3 11 12 12 10 14
REMARK H PARENT 12 13 10 15
REMARK Flexibility Score: inf
ROOT
ATOM      1  C   UNL     1       6.100  82.222  16.854  1.00  0.00    -0.022 A 
ATOM      2  C   UNL     1       6.010  82.899  15.626  1.00  0.00     0.058 A 
ATOM      3  C   UNL     1       6.444  80.856  16.852  1.00  0.00     0.012 A 
ATOM      4  C   UNL     1       6.282  82.238  14.420  1.00  0.00     0.157 A 
ATOM      5  C   UNL     1       6.715  80.196  15.650  1.00  0.00     0.051 A 
ATOM      6  C   UNL     1       6.638  80.880  14.434  1.00  0.00     0.157 A 
ENDROOT
BRANCH   1   7
ATOM      7  C   UNL     1       5.791  82.965  18.100  1.00  0.00     0.010 C 
ATOM      8  C   UNL     1       6.455  82.796  19.253  1.00  0.00     0.025 C 
BRANCH   8   9
ATOM      9  C   UNL     1       6.128  83.561  20.467  1.00  0.00     0.064 C 
ATOM     10  O   UNL     1       4.954  83.594  20.922  1.00  0.00    -0.545 OA
ATOM     11  O   UNL     1       7.133  84.259  21.125  1.00  0.00    -0.545 OA
ENDBRANCH   8   9
ENDBRANCH   1   7
BRANCH   4  12
ATOM     12  O   UNL     1       6.199  82.926  13.209  1.00  0.00    -0.504 OA
ATOM     13  H   UNL     1       5.370  83.450  12.953  1.00  0.00     0.293 HD
ENDBRANCH   4  12
BRANCH   6  14
ATOM     14  O   UNL     1       6.917  80.195  13.251  1.00  0.00    -0.504 OA
ATOM     15  H   UNL     1       6.714  79.209  13.139  1.00  0.00     0.293 HD
ENDBRANCH   6  14
TORSDOF 4
ENDMDL
MODEL 5
REMARK VINA RESULT:    -4.797      1.341      5.665
REMARK INTER + INTRA:          -5.770
REMARK INTER:                  -5.636
REMARK INTRA:                  -0.134
REMARK UNBOUND:                -0.132
REMARK SMILES O=C([O-])C=Cc1ccc(O)c(O)c1
REMARK SMILES IDX 6 1 13 2 7 3 11 4 8 5 9 6 5 7 4 8 2 9 1 10 3 11 12 12 10 14
REMARK H PARENT 12 13 10 15
REMARK Flexibility Score: inf
ROOT
ATOM      1  C   UNL     1       5.945  82.447  15.350  1.00  0.00    -0.022 A 
ATOM      2  C   UNL     1       5.844  83.559  16.202  1.00  0.00     0.058 A 
ATOM      3  C   UNL     1       6.246  81.189  15.908  1.00  0.00     0.012 A 
ATOM      4  C   UNL     1       6.015  83.421  17.587  1.00  0.00     0.157 A 
ATOM      5  C   UNL     1       6.417  81.050  17.289  1.00  0.00     0.051 A 
ATOM      6  C   UNL     1       6.300  82.158  18.132  1.00  0.00     0.157 A 
ENDROOT
BRANCH   1   7
ATOM      7  C   UNL     1       5.766  82.650  13.891  1.00  0.00     0.010 C 
ATOM      8  C   UNL     1       5.666  83.856  13.313  1.00  0.00     0.025 C 
BRANCH   8   9
ATOM      9  C   UNL     1       5.501  84.018  11.859  1.00  0.00     0.064 C 
ATOM     10  O   UNL     1       5.724  85.123  11.297  1.00  0.00    -0.545 OA
ATOM     11  O   UNL     1       5.095  82.933  11.093  1.00  0.00    -0.545 OA
ENDBRANCH   8   9
ENDBRANCH   1   7
BRANCH   4  12
ATOM     12  O   UNL     1       5.902  84.532  18.422  1.00  0.00    -0.504 OA
ATOM     13  H   UNL     1       5.013  84.996  18.569  1.00  0.00     0.293 HD
ENDBRANCH   4  12
BRANCH   6  14
ATOM     14  O   UNL     1       6.474  81.988  19.505  1.00  0.00    -0.504 OA
ATOM     15  H   UNL     1       6.785  82.741  20.106  1.00  0.00     0.293 HD
ENDBRANCH   6  14
TORSDOF 4
ENDMDL
MODEL 6
REMARK VINA RESULT:    -4.672      9.757     12.816
REMARK INTER + INTRA:          -5.623
REMARK INTER:                  -5.496
REMARK INTRA:                  -0.128
REMARK UNBOUND:                -0.132
REMARK SMILES O=C([O-])C=Cc1ccc(O)c(O)c1
REMARK SMILES IDX 6 1 13 2 7 3 11 4 8 5 9 6 5 7 4 8 2 9 1 10 3 11 12 12 10 14
REMARK H PARENT 12 13 10 15
REMARK Flexibility Score: inf
ROOT
ATOM      1  C   UNL     1       4.181  79.821   4.063  1.00  0.00    -0.022 A 
ATOM      2  C   UNL     1       3.631  79.502   5.315  1.00  0.00     0.058 A 
ATOM      3  C   UNL     1       4.660  81.128   3.845  1.00  0.00     0.012 A 
ATOM      4  C   UNL     1       3.579  80.455   6.341  1.00  0.00     0.157 A 
ATOM      5  C   UNL     1       4.608  82.080   4.868  1.00  0.00     0.051 A 
ATOM      6  C   UNL     1       4.073  81.750   6.116  1.00  0.00     0.157 A 
ENDROOT
BRANCH   1   7
ATOM      7  C   UNL     1       4.202  78.778   3.008  1.00  0.00     0.010 C 
ATOM      8  C   UNL     1       4.649  77.529   3.203  1.00  0.00     0.025 C 
BRANCH   8   9
ATOM      9  C   UNL     1       4.643  76.517   2.134  1.00  0.00     0.064 C 
ATOM     10  O   UNL     1       5.687  75.880   1.832  1.00  0.00    -0.545 OA
ATOM     11  O   UNL     1       3.464  76.257   1.447  1.00  0.00    -0.545 OA
ENDBRANCH   8   9
ENDBRANCH   1   7
BRANCH   4  12
ATOM     12  O   UNL     1       3.039  80.121   7.583  1.00  0.00    -0.504 OA
ATOM     13  H   UNL     1       2.125  79.689   7.665  1.00  0.00     0.293 HD
ENDBRANCH   4  12
BRANCH   6  14
ATOM     14  O   UNL     1       4.038  82.721   7.117  1.00  0.00    -0.504 OA
ATOM     15  H   UNL     1       3.322  83.436   7.149  1.00  0.00     0.293 HD
ENDBRANCH   6  14
TORSDOF 4
ENDMDL
MODEL 7
REMARK VINA RESULT:    -4.639      8.769     11.575
REMARK INTER + INTRA:          -5.585
REMARK INTER:                  -5.450
REMARK INTRA:                  -0.135
REMARK UNBOUND:                -0.132
REMARK SMILES O=C([O-])C=Cc1ccc(O)c(O)c1
REMARK SMILES IDX 6 1 13 2 7 3 11 4 8 5 9 6 5 7 4 8 2 9 1 10 3 11 12 12 10 14
REMARK H PARENT 12 13 10 15
REMARK Flexibility Score: inf
ROOT
ATOM      1  C   UNL     1       4.295  80.714   4.309  1.00  0.00    -0.022 A 
ATOM      2  C   UNL     1       5.019  81.131   3.179  1.00  0.00     0.058 A 
ATOM      3  C   UNL     1       3.611  79.483   4.261  1.00  0.00     0.012 A 
ATOM      4  C   UNL     1       5.081  80.329   2.031  1.00  0.00     0.157 A 
ATOM      5  C   UNL     1       3.672  78.684   3.116  1.00  0.00     0.051 A 
ATOM      6  C   UNL     1       4.405  79.098   2.002  1.00  0.00     0.157 A 
ENDROOT
BRANCH   1   7
ATOM      7  C   UNL     1       4.253  81.605   5.495  1.00  0.00     0.010 C 
ATOM      8  C   UNL     1       4.181  81.161   6.758  1.00  0.00     0.025 C 
BRANCH   8   9
ATOM      9  C   UNL     1       4.153  82.076   7.911  1.00  0.00     0.064 C 
ATOM     10  O   UNL     1       3.545  83.178   7.855  1.00  0.00    -0.545 OA
ATOM     11  O   UNL     1       4.807  81.718   9.083  1.00  0.00    -0.545 OA
ENDBRANCH   8   9
ENDBRANCH   1   7
BRANCH   4  12
ATOM     12  O   UNL     1       5.811  80.751   0.920  1.00  0.00    -0.504 OA
ATOM     13  H   UNL     1       6.071  80.108   0.181  1.00  0.00     0.293 HD
ENDBRANCH   4  12
BRANCH   6  14
ATOM     14  O   UNL     1       4.450  78.277   0.875  1.00  0.00    -0.504 OA
ATOM     15  H   UNL     1       4.054  78.560  -0.013  1.00  0.00     0.293 HD
ENDBRANCH   6  14
TORSDOF 4
ENDMDL
MODEL 8
REMARK VINA RESULT:    -4.592      1.814      5.965
REMARK INTER + INTRA:          -5.529
REMARK INTER:                  -5.403
REMARK INTRA:                  -0.126
REMARK UNBOUND:                -0.132
REMARK SMILES O=C([O-])C=Cc1ccc(O)c(O)c1
REMARK SMILES IDX 6 1 13 2 7 3 11 4 8 5 9 6 5 7 4 8 2 9 1 10 3 11 12 12 10 14
REMARK H PARENT 12 13 10 15
REMARK Flexibility Score: inf
ROOT
ATOM      1  C   UNL     1       5.937  82.375  14.772  1.00  0.00    -0.022 A 
ATOM      2  C   UNL     1       5.523  81.038  14.890  1.00  0.00     0.058 A 
ATOM      3  C   UNL     1       6.121  83.135  15.944  1.00  0.00     0.012 A 
ATOM      4  C   UNL     1       5.319  80.458  16.150  1.00  0.00     0.157 A 
ATOM      5  C   UNL     1       5.917  82.558  17.201  1.00  0.00     0.051 A 
ATOM      6  C   UNL     1       5.520  81.223  17.311  1.00  0.00     0.157 A 
ENDROOT
BRANCH   1   7
ATOM      7  C   UNL     1       6.128  82.943  13.414  1.00  0.00     0.010 C 
ATOM      8  C   UNL     1       5.128  83.418  12.657  1.00  0.00     0.025 C 
BRANCH   8   9
ATOM      9  C   UNL     1       5.358  83.985  11.319  1.00  0.00     0.064 C 
ATOM     10  O   UNL     1       5.876  85.125  11.173  1.00  0.00    -0.545 OA
ATOM     11  O   UNL     1       5.001  83.251  10.196  1.00  0.00    -0.545 OA
ENDBRANCH   8   9
ENDBRANCH   1   7
BRANCH   4  12
ATOM     12  O   UNL     1       4.918  79.126  16.253  1.00  0.00    -0.504 OA
ATOM     13  H   UNL     1       4.295  78.815  16.989  1.00  0.00     0.293 HD
ENDBRANCH   4  12
BRANCH   6  14
ATOM     14  O   UNL     1       5.328  80.675  18.578  1.00  0.00    -0.504 OA
ATOM     15  H   UNL     1       5.273  81.249  19.411  1.00  0.00     0.293 HD
ENDBRANCH   6  14
TORSDOF 4
ENDMDL
