MODEL 1
REMARK VINA RESULT:    -4.077      0.000      0.000
REMARK INTER + INTRA:          -4.569
REMARK INTER:                  -4.554
REMARK INTRA:                  -0.015
REMARK UNBOUND:                -0.015
REMARK SMILES CCCC(=O)[O-]
REMARK SMILES IDX 3 1 4 2 5 3 6 4 2 5 1 6
REMARK H PARENT
REMARK Flexibility Score: inf
ROOT
ATOM      1  C   UNL     1      10.111  -0.594  -9.652  1.00  0.00     0.052 C 
ENDROOT
BRANCH   1   2
ATOM      2  C   UNL     1      10.018  -0.064 -11.048  1.00  0.00     0.041 C 
ATOM      3  O   UNL     1      10.098  -0.849 -12.029  1.00  0.00    -0.550 OA
ATOM      4  O   UNL     1       9.894   1.302 -11.266  1.00  0.00    -0.550 OA
ENDBRANCH   1   2
BRANCH   1   5
ATOM      5  C   UNL     1       8.914  -0.123  -8.821  1.00  0.00     0.003 C 
ATOM      6  C   UNL     1       9.308   1.017  -7.885  1.00  0.00     0.004 C 
ENDBRANCH   1   5
TORSDOF 2
ENDMDL
MODEL 2
REMARK VINA RESULT:    -3.854      2.334      3.191
REMARK INTER + INTRA:          -4.320
REMARK INTER:                  -4.253
REMARK INTRA:                  -0.067
REMARK UNBOUND:                -0.015
REMARK SMILES CCCC(=O)[O-]
REMARK SMILES IDX 3 1 4 2 5 3 6 4 2 5 1 6
REMARK H PARENT
REMARK Flexibility Score: inf
ROOT
ATOM      1  C   UNL     1       8.823  -0.613  -8.955  1.00  0.00     0.052 C 
ENDROOT
BRANCH   1   2
ATOM      2  C   UNL     1       8.742   0.781  -8.417  1.00  0.00     0.041 C 
ATOM      3  O   UNL     1       7.832   1.558  -8.806  1.00  0.00    -0.550 OA
ATOM      4  O   UNL     1       9.702   1.237  -7.522  1.00  0.00    -0.550 OA
ENDBRANCH   1   2
BRANCH   1   5
ATOM      5  C   UNL     1      10.125  -0.811  -9.736  1.00  0.00     0.003 C 
ATOM      6  C   UNL     1      10.125   0.009 -11.023  1.00  0.00     0.004 C 
ENDBRANCH   1   5
TORSDOF 2
ENDMDL
MODEL 3
REMARK VINA RESULT:    -3.828      1.337      2.272
REMARK INTER + INTRA:          -4.290
REMARK INTER:                  -4.255
REMARK INTRA:                  -0.035
REMARK UNBOUND:                -0.015
REMARK SMILES CCCC(=O)[O-]
REMARK SMILES IDX 3 1 4 2 5 3 6 4 2 5 1 6
REMARK H PARENT
REMARK Flexibility Score: inf
ROOT
ATOM      1  C   UNL     1       9.042   1.248  -9.214  1.00  0.00     0.052 C 
ENDROOT
BRANCH   1   2
ATOM      2  C   UNL     1       9.368   1.681 -10.609  1.00  0.00     0.041 C 
ATOM      3  O   UNL     1       8.953   2.788 -11.042  1.00  0.00    -0.550 OA
ATOM      4  O   UNL     1      10.088   0.839 -11.447  1.00  0.00    -0.550 OA
ENDBRANCH   1   2
BRANCH   1   5
ATOM      5  C   UNL     1       9.474  -0.203  -8.988  1.00  0.00     0.003 C 
ATOM      6  C   UNL     1       8.266  -1.112  -8.786  1.00  0.00     0.004 C 
ENDBRANCH   1   5
TORSDOF 2
ENDMDL
MODEL 4
REMARK VINA RESULT:    -3.225     10.242     10.975
REMARK INTER + INTRA:          -3.616
REMARK INTER:                  -3.600
REMARK INTRA:                  -0.016
REMARK UNBOUND:                -0.015
REMARK SMILES CCCC(=O)[O-]
REMARK SMILES IDX 3 1 4 2 5 3 6 4 2 5 1 6
REMARK H PARENT
REMARK Flexibility Score: inf
ROOT
ATOM      1  C   UNL     1       2.585  -1.010  -1.704  1.00  0.00     0.052 C 
ENDROOT
BRANCH   1   2
ATOM      2  C   UNL     1       1.487  -1.646  -2.496  1.00  0.00     0.041 C 
ATOM      3  O   UNL     1       1.707  -2.063  -3.663  1.00  0.00    -0.550 OA
ATOM      4  O   UNL     1       0.207  -1.734  -1.963  1.00  0.00    -0.550 OA
ENDBRANCH   1   2
BRANCH   1   5
ATOM      5  C   UNL     1       3.774  -0.676  -2.609  1.00  0.00     0.003 C 
ATOM      6  C   UNL     1       5.069  -0.586  -1.807  1.00  0.00     0.004 C 
ENDBRANCH   1   5
TORSDOF 2
ENDMDL
MODEL 5
REMARK VINA RESULT:    -3.134     21.947     22.908
REMARK INTER + INTRA:          -3.515
REMARK INTER:                  -3.501
REMARK INTRA:                  -0.014
REMARK UNBOUND:                -0.015
REMARK SMILES CCCC(=O)[O-]
REMARK SMILES IDX 3 1 4 2 5 3 6 4 2 5 1 6
REMARK H PARENT
REMARK Flexibility Score: inf
ROOT
ATOM      1  C   UNL     1      -5.487  -0.679   7.298  1.00  0.00     0.052 C 
ENDROOT
BRANCH   1   2
ATOM      2  C   UNL     1      -5.736   0.796   7.273  1.00  0.00     0.041 C 
ATOM      3  O   UNL     1      -4.782   1.596   7.082  1.00  0.00    -0.550 OA
ATOM      4  O   UNL     1      -7.013   1.290   7.510  1.00  0.00    -0.550 OA
ENDBRANCH   1   2
BRANCH   1   5
ATOM      5  C   UNL     1      -5.286  -1.211   5.877  1.00  0.00     0.003 C 
ATOM      6  C   UNL     1      -4.251  -2.333   5.851  1.00  0.00     0.004 C 
ENDBRANCH   1   5
TORSDOF 2
ENDMDL
MODEL 6
REMARK VINA RESULT:    -3.110     22.024     22.986
REMARK INTER + INTRA:          -3.488
REMARK INTER:                  -3.466
REMARK INTRA:                  -0.022
REMARK UNBOUND:                -0.015
REMARK SMILES CCCC(=O)[O-]
REMARK SMILES IDX 3 1 4 2 5 3 6 4 2 5 1 6
REMARK H PARENT
REMARK Flexibility Score: inf
ROOT
ATOM      1  C   UNL     1      -5.809  -0.709   7.238  1.00  0.00     0.052 C 
ENDROOT
BRANCH   1   2
ATOM      2  C   UNL     1      -5.919   0.781   7.310  1.00  0.00     0.041 C 
ATOM      3  O   UNL     1      -7.029   1.322   7.558  1.00  0.00    -0.550 OA
ATOM      4  O   UNL     1      -4.808   1.574   7.055  1.00  0.00    -0.550 OA
ENDBRANCH   1   2
BRANCH   1   5
ATOM      5  C   UNL     1      -5.388  -1.148   5.833  1.00  0.00     0.003 C 
ATOM      6  C   UNL     1      -4.309  -2.224   5.892  1.00  0.00     0.004 C 
ENDBRANCH   1   5
TORSDOF 2
ENDMDL
MODEL 7
REMARK VINA RESULT:    -3.000     19.901     20.568
REMARK INTER + INTRA:          -3.365
REMARK INTER:                  -3.354
REMARK INTRA:                  -0.011
REMARK UNBOUND:                -0.015
REMARK SMILES CCCC(=O)[O-]
REMARK SMILES IDX 3 1 4 2 5 3 6 4 2 5 1 6
REMARK H PARENT
REMARK Flexibility Score: inf
ROOT
ATOM      1  C   UNL     1      -2.168  -9.345   2.262  1.00  0.00     0.052 C 
ENDROOT
BRANCH   1   2
ATOM      2  C   UNL     1      -2.393  -9.395   3.740  1.00  0.00     0.041 C 
ATOM      3  O   UNL     1      -2.033  -8.433   4.468  1.00  0.00    -0.550 OA
ATOM      4  O   UNL     1      -2.955 -10.525   4.320  1.00  0.00    -0.550 OA
ENDBRANCH   1   2
BRANCH   1   5
ATOM      5  C   UNL     1      -2.231 -10.752   1.663  1.00  0.00     0.003 C 
ATOM      6  C   UNL     1      -2.335 -10.698   0.141  1.00  0.00     0.004 C 
ENDBRANCH   1   5
TORSDOF 2
ENDMDL
MODEL 8
REMARK VINA RESULT:    -2.924     20.785     21.447
REMARK INTER + INTRA:          -3.281
REMARK INTER:                  -3.215
REMARK INTRA:                  -0.065
REMARK UNBOUND:                -0.015
REMARK SMILES CCCC(=O)[O-]
REMARK SMILES IDX 3 1 4 2 5 3 6 4 2 5 1 6
REMARK H PARENT
REMARK Flexibility Score: inf
ROOT
ATOM      1  C   UNL     1      -3.361  -3.401   5.739  1.00  0.00     0.052 C 
ENDROOT
BRANCH   1   2
ATOM      2  C   UNL     1      -2.900  -4.741   6.219  1.00  0.00     0.041 C 
ATOM      3  O   UNL     1      -2.925  -5.017   7.447  1.00  0.00    -0.550 OA
ATOM      4  O   UNL     1      -2.396  -5.668   5.315  1.00  0.00    -0.550 OA
ENDBRANCH   1   2
BRANCH   1   5
ATOM      5  C   UNL     1      -4.503  -3.557   4.732  1.00  0.00     0.003 C 
ATOM      6  C   UNL     1      -5.804  -3.942   5.430  1.00  0.00     0.004 C 
ENDBRANCH   1   5
TORSDOF 2
ENDMDL
MODEL 9
REMARK VINA RESULT:    -2.861      9.614     10.472
REMARK INTER + INTRA:          -3.210
REMARK INTER:                  -3.197
REMARK INTRA:                  -0.013
REMARK UNBOUND:                -0.015
REMARK SMILES CCCC(=O)[O-]
REMARK SMILES IDX 3 1 4 2 5 3 6 4 2 5 1 6
REMARK H PARENT
REMARK Flexibility Score: inf
ROOT
ATOM      1  C   UNL     1       3.724  -0.833  -2.699  1.00  0.00     0.052 C 
ENDROOT
BRANCH   1   2
ATOM      2  C   UNL     1       4.777  -0.529  -1.680  1.00  0.00     0.041 C 
ATOM      3  O   UNL     1       4.450  -0.220  -0.504  1.00  0.00    -0.550 OA
ATOM      4  O   UNL     1       6.118  -0.541  -2.042  1.00  0.00    -0.550 OA
ENDBRANCH   1   2
BRANCH   1   5
ATOM      5  C   UNL     1       2.372  -1.063  -2.019  1.00  0.00     0.003 C 
ATOM      6  C   UNL     1       1.486  -1.983  -2.853  1.00  0.00     0.004 C 
ENDBRANCH   1   5
TORSDOF 2
ENDMDL
