MODEL 1
REMARK VINA RESULT:    -4.892      0.000      0.000
REMARK INTER + INTRA:          -6.017
REMARK INTER:                  -5.892
REMARK INTRA:                  -0.125
REMARK UNBOUND:                -0.125
REMARK SMILES O=c1c(O)c(-c2ccc(O)c(O)c2)oc2cc(O)cc(O)c12
REMARK SMILES IDX 5 1 3 2 2 3 1 4 22 5 20 6 19 7 17 8 16 9 15 10 14 11 6 12
REMARK SMILES IDX 7 13 8 14 9 15 13 16 11 17 10 18 12 20 4 22 21 24 18 26
REMARK H PARENT 10 19 12 21 4 23 21 25 18 27
REMARK Flexibility Score: inf
ROOT
ATOM      1  C   UNL     1     133.894 127.413 116.665  1.00  0.00     0.180 A 
ATOM      2  C   UNL     1     132.696 126.698 116.496  1.00  0.00     0.208 A 
ATOM      3  C   UNL     1     131.973 126.855 115.303  1.00  0.00     0.238 A 
ATOM      4  O   UNL     1     130.873 126.254 115.181  1.00  0.00    -0.285 OA
ATOM      5  C   UNL     1     132.464 127.711 114.288  1.00  0.00     0.111 A 
ATOM      6  C   UNL     1     131.834 127.913 113.024  1.00  0.00     0.134 A 
ATOM      7  C   UNL     1     132.338 128.882 112.149  1.00  0.00     0.093 A 
ATOM      8  C   UNL     1     133.486 129.609 112.462  1.00  0.00     0.123 A 
ATOM      9  C   UNL     1     134.144 129.376 113.670  1.00  0.00     0.094 A 
ATOM     10  C   UNL     1     133.644 128.442 114.581  1.00  0.00     0.146 A 
ATOM     11  O   UNL     1     134.295 128.258 115.723  1.00  0.00    -0.452 OA
ENDROOT
BRANCH   1  12
ATOM     12  C   UNL     1     134.725 127.282 117.884  1.00  0.00     0.025 A 
ATOM     13  C   UNL     1     135.259 126.029 118.225  1.00  0.00     0.016 A 
ATOM     14  C   UNL     1     136.029 125.879 119.381  1.00  0.00     0.051 A 
ATOM     15  C   UNL     1     136.264 126.971 120.222  1.00  0.00     0.157 A 
ATOM     16  C   UNL     1     134.946 128.375 118.741  1.00  0.00     0.062 A 
ATOM     17  C   UNL     1     135.718 128.226 119.903  1.00  0.00     0.158 A 
BRANCH  15  18
ATOM     18  O   UNL     1     137.039 126.791 121.367  1.00  0.00    -0.504 OA
ATOM     19  H   UNL     1     137.797 127.419 121.608  1.00  0.00     0.293 HD
ENDBRANCH  15  18
BRANCH  17  20
ATOM     20  O   UNL     1     135.937 129.316 120.744  1.00  0.00    -0.504 OA
ATOM     21  H   UNL     1     136.815 129.823 120.738  1.00  0.00     0.293 HD
ENDBRANCH  17  20
ENDBRANCH   1  12
BRANCH   2  22
ATOM     22  O   UNL     1     132.218 125.876 117.521  1.00  0.00    -0.502 OA
ATOM     23  H   UNL     1     131.370 126.084 118.035  1.00  0.00     0.293 HD
ENDBRANCH   2  22
BRANCH   6  24
ATOM     24  O   UNL     1     130.734 127.176 112.572  1.00  0.00    -0.507 OA
ATOM     25  H   UNL     1     130.341 126.380 113.051  1.00  0.00     0.293 HD
ENDBRANCH   6  24
BRANCH   8  26
ATOM     26  O   UNL     1     133.970 130.553 111.559  1.00  0.00    -0.508 OA
ATOM     27  H   UNL     1     133.636 130.593 110.603  1.00  0.00     0.293 HD
ENDBRANCH   8  26
TORSDOF 6
ENDMDL
MODEL 2
REMARK VINA RESULT:    -4.873      4.182      7.317
REMARK INTER + INTRA:          -5.995
REMARK INTER:                  -5.711
REMARK INTRA:                  -0.284
REMARK UNBOUND:                -0.125
REMARK SMILES O=c1c(O)c(-c2ccc(O)c(O)c2)oc2cc(O)cc(O)c12
REMARK SMILES IDX 5 1 3 2 2 3 1 4 22 5 20 6 19 7 17 8 16 9 15 10 14 11 6 12
REMARK SMILES IDX 7 13 8 14 9 15 13 16 11 17 10 18 12 20 4 22 21 24 18 26
REMARK H PARENT 10 19 12 21 4 23 21 25 18 27
REMARK Flexibility Score: inf
ROOT
ATOM      1  C   UNL     1     138.056 128.141 121.960  1.00  0.00     0.180 A 
ATOM      2  C   UNL     1     138.368 129.344 121.305  1.00  0.00     0.208 A 
ATOM      3  C   UNL     1     137.496 129.826 120.315  1.00  0.00     0.238 A 
ATOM      4  O   UNL     1     137.809 130.875 119.694  1.00  0.00    -0.285 OA
ATOM      5  C   UNL     1     136.317 129.107 120.003  1.00  0.00     0.111 A 
ATOM      6  C   UNL     1     135.343 129.523 119.047  1.00  0.00     0.134 A 
ATOM      7  C   UNL     1     134.282 128.669 118.726  1.00  0.00     0.093 A 
ATOM      8  C   UNL     1     134.122 127.444 119.373  1.00  0.00     0.123 A 
ATOM      9  C   UNL     1     135.035 127.054 120.353  1.00  0.00     0.094 A 
ATOM     10  C   UNL     1     136.126 127.868 120.669  1.00  0.00     0.146 A 
ATOM     11  O   UNL     1     136.977 127.456 121.600  1.00  0.00    -0.452 OA
ENDROOT
BRANCH   1  12
ATOM     12  C   UNL     1     138.912 127.582 123.031  1.00  0.00     0.025 A 
ATOM     13  C   UNL     1     139.702 126.452 122.767  1.00  0.00     0.016 A 
ATOM     14  C   UNL     1     140.500 125.896 123.769  1.00  0.00     0.051 A 
ATOM     15  C   UNL     1     140.511 126.450 125.054  1.00  0.00     0.157 A 
ATOM     16  C   UNL     1     138.909 128.125 124.329  1.00  0.00     0.062 A 
ATOM     17  C   UNL     1     139.709 127.568 125.337  1.00  0.00     0.158 A 
BRANCH  15  18
ATOM     18  O   UNL     1     141.321 125.875 126.032  1.00  0.00    -0.504 OA
ATOM     19  H   UNL     1     141.106 124.977 126.449  1.00  0.00     0.293 HD
ENDBRANCH  15  18
BRANCH  17  20
ATOM     20  O   UNL     1     139.705 128.116 126.619  1.00  0.00    -0.504 OA
ATOM     21  H   UNL     1     139.753 129.117 126.768  1.00  0.00     0.293 HD
ENDBRANCH  17  20
ENDBRANCH   1  12
BRANCH   2  22
ATOM     22  O   UNL     1     139.549 130.026 121.612  1.00  0.00    -0.502 OA
ATOM     23  H   UNL     1     139.996 129.958 122.519  1.00  0.00     0.293 HD
ENDBRANCH   2  22
BRANCH   6  24
ATOM     24  O   UNL     1     135.358 130.768 118.409  1.00  0.00    -0.507 OA
ATOM     25  H   UNL     1     134.724 131.525 118.613  1.00  0.00     0.293 HD
ENDBRANCH   6  24
BRANCH   8  26
ATOM     26  O   UNL     1     133.044 126.626 119.040  1.00  0.00    -0.508 OA
ATOM     27  H   UNL     1     132.437 126.842 118.258  1.00  0.00     0.293 HD
ENDBRANCH   8  26
TORSDOF 6
ENDMDL
MODEL 3
REMARK VINA RESULT:    -4.825      1.399      2.988
REMARK INTER + INTRA:          -5.937
REMARK INTER:                  -5.757
REMARK INTRA:                  -0.181
REMARK UNBOUND:                -0.125
REMARK SMILES O=c1c(O)c(-c2ccc(O)c(O)c2)oc2cc(O)cc(O)c12
REMARK SMILES IDX 5 1 3 2 2 3 1 4 22 5 20 6 19 7 17 8 16 9 15 10 14 11 6 12
REMARK SMILES IDX 7 13 8 14 9 15 13 16 11 17 10 18 12 20 4 22 21 24 18 26
REMARK H PARENT 10 19 12 21 4 23 21 25 18 27
REMARK Flexibility Score: inf
ROOT
ATOM      1  C   UNL     1     133.601 127.925 115.915  1.00  0.00     0.180 A 
ATOM      2  C   UNL     1     134.186 128.715 114.910  1.00  0.00     0.208 A 
ATOM      3  C   UNL     1     133.475 128.939 113.720  1.00  0.00     0.238 A 
ATOM      4  O   UNL     1     134.026 129.601 112.803  1.00  0.00    -0.285 OA
ATOM      5  C   UNL     1     132.183 128.384 113.556  1.00  0.00     0.111 A 
ATOM      6  C   UNL     1     131.356 128.580 112.409  1.00  0.00     0.134 A 
ATOM      7  C   UNL     1     130.151 127.877 112.298  1.00  0.00     0.093 A 
ATOM      8  C   UNL     1     129.710 127.038 113.320  1.00  0.00     0.123 A 
ATOM      9  C   UNL     1     130.482 126.886 114.473  1.00  0.00     0.094 A 
ATOM     10  C   UNL     1     131.707 127.545 114.596  1.00  0.00     0.146 A 
ATOM     11  O   UNL     1     132.415 127.364 115.704  1.00  0.00    -0.452 OA
ENDROOT
BRANCH   1  12
ATOM     12  C   UNL     1     134.277 127.664 117.206  1.00  0.00     0.025 A 
ATOM     13  C   UNL     1     134.591 126.345 117.568  1.00  0.00     0.016 A 
ATOM     14  C   UNL     1     135.209 126.075 118.791  1.00  0.00     0.051 A 
ATOM     15  C   UNL     1     135.511 127.115 119.677  1.00  0.00     0.157 A 
ATOM     16  C   UNL     1     134.562 128.707 118.106  1.00  0.00     0.062 A 
ATOM     17  C   UNL     1     135.182 128.437 119.335  1.00  0.00     0.158 A 
BRANCH  15  18
ATOM     18  O   UNL     1     136.131 126.814 120.888  1.00  0.00    -0.504 OA
ATOM     19  H   UNL     1     136.660 127.505 121.408  1.00  0.00     0.293 HD
ENDBRANCH  15  18
BRANCH  17  20
ATOM     20  O   UNL     1     135.467 129.477 120.220  1.00  0.00    -0.504 OA
ATOM     21  H   UNL     1     135.532 130.438 119.906  1.00  0.00     0.293 HD
ENDBRANCH  17  20
ENDBRANCH   1  12
BRANCH   2  22
ATOM     22  O   UNL     1     135.472 129.234 115.084  1.00  0.00    -0.502 OA
ATOM     23  H   UNL     1     136.061 128.977 115.867  1.00  0.00     0.293 HD
ENDBRANCH   2  22
BRANCH   6  24
ATOM     24  O   UNL     1     131.659 129.468 111.371  1.00  0.00    -0.507 OA
ATOM     25  H   UNL     1     130.975 129.956 110.815  1.00  0.00     0.293 HD
ENDBRANCH   6  24
BRANCH   8  26
ATOM     26  O   UNL     1     128.497 126.367 113.183  1.00  0.00    -0.508 OA
ATOM     27  H   UNL     1     128.438 125.467 112.720  1.00  0.00     0.293 HD
ENDBRANCH   8  26
TORSDOF 6
ENDMDL
MODEL 4
REMARK VINA RESULT:    -4.720      2.168      4.077
REMARK INTER + INTRA:          -5.811
REMARK INTER:                  -5.520
REMARK INTRA:                  -0.291
REMARK UNBOUND:                -0.125
REMARK SMILES O=c1c(O)c(-c2ccc(O)c(O)c2)oc2cc(O)cc(O)c12
REMARK SMILES IDX 5 1 3 2 2 3 1 4 22 5 20 6 19 7 17 8 16 9 15 10 14 11 6 12
REMARK SMILES IDX 7 13 8 14 9 15 13 16 11 17 10 18 12 20 4 22 21 24 18 26
REMARK H PARENT 10 19 12 21 4 23 21 25 18 27
REMARK Flexibility Score: inf
ROOT
ATOM      1  C   UNL     1     135.619 128.320 119.182  1.00  0.00     0.180 A 
ATOM      2  C   UNL     1     135.528 129.709 118.992  1.00  0.00     0.208 A 
ATOM      3  C   UNL     1     134.963 130.198 117.803  1.00  0.00     0.238 A 
ATOM      4  O   UNL     1     134.934 131.442 117.615  1.00  0.00    -0.285 OA
ATOM      5  C   UNL     1     134.483 129.292 116.826  1.00  0.00     0.111 A 
ATOM      6  C   UNL     1     133.856 129.677 115.603  1.00  0.00     0.134 A 
ATOM      7  C   UNL     1     133.538 128.700 114.653  1.00  0.00     0.093 A 
ATOM      8  C   UNL     1     133.763 127.347 114.908  1.00  0.00     0.123 A 
ATOM      9  C   UNL     1     134.321 126.956 116.126  1.00  0.00     0.094 A 
ATOM     10  C   UNL     1     134.683 127.910 117.079  1.00  0.00     0.146 A 
ATOM     11  O   UNL     1     135.220 127.496 118.219  1.00  0.00    -0.452 OA
ENDROOT
BRANCH   1  12
ATOM     12  C   UNL     1     136.178 127.728 120.419  1.00  0.00     0.025 A 
ATOM     13  C   UNL     1     135.308 127.290 121.430  1.00  0.00     0.016 A 
ATOM     14  C   UNL     1     135.815 126.748 122.614  1.00  0.00     0.051 A 
ATOM     15  C   UNL     1     137.196 126.649 122.812  1.00  0.00     0.157 A 
ATOM     16  C   UNL     1     137.566 127.646 120.628  1.00  0.00     0.062 A 
ATOM     17  C   UNL     1     138.077 127.103 121.817  1.00  0.00     0.158 A 
BRANCH  15  18
ATOM     18  O   UNL     1     137.672 126.101 124.002  1.00  0.00    -0.504 OA
ATOM     19  H   UNL     1     138.502 125.520 124.034  1.00  0.00     0.293 HD
ENDBRANCH  15  18
BRANCH  17  20
ATOM     20  O   UNL     1     139.455 127.020 122.014  1.00  0.00    -0.504 OA
ATOM     21  H   UNL     1     139.935 126.127 122.032  1.00  0.00     0.293 HD
ENDBRANCH  17  20
ENDBRANCH   1  12
BRANCH   2  22
ATOM     22  O   UNL     1     136.029 130.585 119.959  1.00  0.00    -0.502 OA
ATOM     23  H   UNL     1     136.697 131.314 119.739  1.00  0.00     0.293 HD
ENDBRANCH   2  22
BRANCH   6  24
ATOM     24  O   UNL     1     133.503 130.993 115.287  1.00  0.00    -0.507 OA
ATOM     25  H   UNL     1     134.150 131.704 114.984  1.00  0.00     0.293 HD
ENDBRANCH   6  24
BRANCH   8  26
ATOM     26  O   UNL     1     133.419 126.400 113.946  1.00  0.00    -0.508 OA
ATOM     27  H   UNL     1     133.210 126.666 112.991  1.00  0.00     0.293 HD
ENDBRANCH   8  26
TORSDOF 6
ENDMDL
MODEL 5
REMARK VINA RESULT:    -4.696      4.537     10.143
REMARK INTER + INTRA:          -5.781
REMARK INTER:                  -5.488
REMARK INTRA:                  -0.293
REMARK UNBOUND:                -0.125
REMARK SMILES O=c1c(O)c(-c2ccc(O)c(O)c2)oc2cc(O)cc(O)c12
REMARK SMILES IDX 5 1 3 2 2 3 1 4 22 5 20 6 19 7 17 8 16 9 15 10 14 11 6 12
REMARK SMILES IDX 7 13 8 14 9 15 13 16 11 17 10 18 12 20 4 22 21 24 18 26
REMARK H PARENT 10 19 12 21 4 23 21 25 18 27
REMARK Flexibility Score: inf
ROOT
ATOM      1  C   UNL     1     137.753 128.674 121.871  1.00  0.00     0.180 A 
ATOM      2  C   UNL     1     138.636 127.589 121.734  1.00  0.00     0.208 A 
ATOM      3  C   UNL     1     139.409 127.198 122.839  1.00  0.00     0.238 A 
ATOM      4  O   UNL     1     140.237 126.260 122.694  1.00  0.00    -0.285 OA
ATOM      5  C   UNL     1     139.278 127.884 124.070  1.00  0.00     0.111 A 
ATOM      6  C   UNL     1     139.981 127.546 125.265  1.00  0.00     0.134 A 
ATOM      7  C   UNL     1     139.872 128.374 126.387  1.00  0.00     0.093 A 
ATOM      8  C   UNL     1     139.035 129.490 126.382  1.00  0.00     0.123 A 
ATOM      9  C   UNL     1     138.297 129.795 125.237  1.00  0.00     0.094 A 
ATOM     10  C   UNL     1     138.413 129.009 124.089  1.00  0.00     0.146 A 
ATOM     11  O   UNL     1     137.701 129.340 123.019  1.00  0.00    -0.452 OA
ENDROOT
BRANCH   1  12
ATOM     12  C   UNL     1     136.887 129.131 120.760  1.00  0.00     0.025 A 
ATOM     13  C   UNL     1     137.208 130.313 120.074  1.00  0.00     0.016 A 
ATOM     14  C   UNL     1     136.394 130.773 119.036  1.00  0.00     0.051 A 
ATOM     15  C   UNL     1     135.239 130.069 118.678  1.00  0.00     0.157 A 
ATOM     16  C   UNL     1     135.715 128.435 120.411  1.00  0.00     0.062 A 
ATOM     17  C   UNL     1     134.895 128.896 119.371  1.00  0.00     0.158 A 
BRANCH  15  18
ATOM     18  O   UNL     1     134.448 130.551 117.637  1.00  0.00    -0.504 OA
ATOM     19  H   UNL     1     133.532 130.954 117.798  1.00  0.00     0.293 HD
ENDBRANCH  15  18
BRANCH  17  20
ATOM     20  O   UNL     1     133.739 128.198 119.027  1.00  0.00    -0.504 OA
ATOM     21  H   UNL     1     133.531 127.955 118.065  1.00  0.00     0.293 HD
ENDBRANCH  17  20
ENDBRANCH   1  12
BRANCH   2  22
ATOM     22  O   UNL     1     138.766 126.940 120.502  1.00  0.00    -0.502 OA
ATOM     23  H   UNL     1     138.509 127.379 119.627  1.00  0.00     0.293 HD
ENDBRANCH   2  22
BRANCH   6  24
ATOM     24  O   UNL     1     140.773 126.402 125.408  1.00  0.00    -0.507 OA
ATOM     25  H   UNL     1     141.154 125.868 124.642  1.00  0.00     0.293 HD
ENDBRANCH   6  24
BRANCH   8  26
ATOM     26  O   UNL     1     138.938 130.283 127.523  1.00  0.00    -0.508 OA
ATOM     27  H   UNL     1     138.178 130.170 128.184  1.00  0.00     0.293 HD
ENDBRANCH   8  26
TORSDOF 6
ENDMDL
MODEL 6
REMARK VINA RESULT:    -4.641      2.255      3.720
REMARK INTER + INTRA:          -5.715
REMARK INTER:                  -5.462
REMARK INTRA:                  -0.253
REMARK UNBOUND:                -0.125
REMARK SMILES O=c1c(O)c(-c2ccc(O)c(O)c2)oc2cc(O)cc(O)c12
REMARK SMILES IDX 5 1 3 2 2 3 1 4 22 5 20 6 19 7 17 8 16 9 15 10 14 11 6 12
REMARK SMILES IDX 7 13 8 14 9 15 13 16 11 17 10 18 12 20 4 22 21 24 18 26
REMARK H PARENT 10 19 12 21 4 23 21 25 18 27
REMARK Flexibility Score: inf
ROOT
ATOM      1  C   UNL     1     135.334 128.872 119.073  1.00  0.00     0.180 A 
ATOM      2  C   UNL     1     134.538 127.772 119.438  1.00  0.00     0.208 A 
ATOM      3  C   UNL     1     133.736 127.160 118.463  1.00  0.00     0.238 A 
ATOM      4  O   UNL     1     132.985 126.210 118.808  1.00  0.00    -0.285 OA
ATOM      5  C   UNL     1     133.750 127.643 117.132  1.00  0.00     0.111 A 
ATOM      6  C   UNL     1     133.008 127.073 116.055  1.00  0.00     0.134 A 
ATOM      7  C   UNL     1     132.997 127.713 114.810  1.00  0.00     0.093 A 
ATOM      8  C   UNL     1     133.752 128.863 114.584  1.00  0.00     0.123 A 
ATOM      9  C   UNL     1     134.529 129.394 115.614  1.00  0.00     0.094 A 
ATOM     10  C   UNL     1     134.532 128.800 116.878  1.00  0.00     0.146 A 
ATOM     11  O   UNL     1     135.276 129.343 117.833  1.00  0.00    -0.452 OA
ENDROOT
BRANCH   1  12
ATOM     12  C   UNL     1     136.226 129.555 120.038  1.00  0.00     0.025 A 
ATOM     13  C   UNL     1     135.928 130.865 120.447  1.00  0.00     0.016 A 
ATOM     14  C   UNL     1     136.767 131.535 121.341  1.00  0.00     0.051 A 
ATOM     15  C   UNL     1     137.922 130.914 121.828  1.00  0.00     0.157 A 
ATOM     16  C   UNL     1     137.398 128.940 120.514  1.00  0.00     0.062 A 
ATOM     17  C   UNL     1     138.242 129.612 121.410  1.00  0.00     0.158 A 
BRANCH  15  18
ATOM     18  O   UNL     1     138.738 131.607 122.721  1.00  0.00    -0.504 OA
ATOM     19  H   UNL     1     138.603 132.592 122.921  1.00  0.00     0.293 HD
ENDBRANCH  15  18
BRANCH  17  20
ATOM     20  O   UNL     1     139.399 128.993 121.882  1.00  0.00    -0.504 OA
ATOM     21  H   UNL     1     139.471 128.659 122.836  1.00  0.00     0.293 HD
ENDBRANCH  17  20
ENDBRANCH   1  12
BRANCH   2  22
ATOM     22  O   UNL     1     134.522 127.325 120.763  1.00  0.00    -0.502 OA
ATOM     23  H   UNL     1     133.817 127.620 121.427  1.00  0.00     0.293 HD
ENDBRANCH   2  22
BRANCH   6  24
ATOM     24  O   UNL     1     132.292 125.875 116.148  1.00  0.00    -0.507 OA
ATOM     25  H   UNL     1     132.468 125.152 116.828  1.00  0.00     0.293 HD
ENDBRANCH   6  24
BRANCH   8  26
ATOM     26  O   UNL     1     133.731 129.464 113.327  1.00  0.00    -0.508 OA
ATOM     27  H   UNL     1     134.016 130.427 113.196  1.00  0.00     0.293 HD
ENDBRANCH   8  26
TORSDOF 6
ENDMDL
MODEL 7
REMARK VINA RESULT:    -4.607      2.853      4.627
REMARK INTER + INTRA:          -5.675
REMARK INTER:                  -5.343
REMARK INTRA:                  -0.332
REMARK UNBOUND:                -0.125
REMARK SMILES O=c1c(O)c(-c2ccc(O)c(O)c2)oc2cc(O)cc(O)c12
REMARK SMILES IDX 5 1 3 2 2 3 1 4 22 5 20 6 19 7 17 8 16 9 15 10 14 11 6 12
REMARK SMILES IDX 7 13 8 14 9 15 13 16 11 17 10 18 12 20 4 22 21 24 18 26
REMARK H PARENT 10 19 12 21 4 23 21 25 18 27
REMARK Flexibility Score: inf
ROOT
ATOM      1  C   UNL     1     135.161 129.587 115.004  1.00  0.00     0.180 A 
ATOM      2  C   UNL     1     134.225 130.123 114.102  1.00  0.00     0.208 A 
ATOM      3  C   UNL     1     134.665 130.549 112.839  1.00  0.00     0.238 A 
ATOM      4  O   UNL     1     133.832 131.078 112.057  1.00  0.00    -0.285 OA
ATOM      5  C   UNL     1     136.030 130.420 112.487  1.00  0.00     0.111 A 
ATOM      6  C   UNL     1     136.578 130.782 111.220  1.00  0.00     0.134 A 
ATOM      7  C   UNL     1     137.963 130.734 111.027  1.00  0.00     0.093 A 
ATOM      8  C   UNL     1     138.814 130.274 112.031  1.00  0.00     0.123 A 
ATOM      9  C   UNL     1     138.283 129.861 113.254  1.00  0.00     0.094 A 
ATOM     10  C   UNL     1     136.908 129.933 113.489  1.00  0.00     0.146 A 
ATOM     11  O   UNL     1     136.445 129.540 114.669  1.00  0.00    -0.452 OA
ENDROOT
BRANCH   1  12
ATOM     12  C   UNL     1     134.770 129.092 116.344  1.00  0.00     0.025 A 
ATOM     13  C   UNL     1     134.898 129.938 117.457  1.00  0.00     0.016 A 
ATOM     14  C   UNL     1     134.555 129.485 118.733  1.00  0.00     0.051 A 
ATOM     15  C   UNL     1     134.095 128.178 118.920  1.00  0.00     0.157 A 
ATOM     16  C   UNL     1     134.326 127.772 116.536  1.00  0.00     0.062 A 
ATOM     17  C   UNL     1     133.982 127.315 117.817  1.00  0.00     0.158 A 
BRANCH  15  18
ATOM     18  O   UNL     1     133.757 127.756 120.205  1.00  0.00    -0.504 OA
ATOM     19  H   UNL     1     132.846 127.368 120.423  1.00  0.00     0.293 HD
ENDBRANCH  15  18
BRANCH  17  20
ATOM     20  O   UNL     1     133.537 126.006 117.999  1.00  0.00    -0.504 OA
ATOM     21  H   UNL     1     133.767 125.271 117.340  1.00  0.00     0.293 HD
ENDBRANCH  17  20
ENDBRANCH   1  12
BRANCH   2  22
ATOM     22  O   UNL     1     132.886 130.261 114.479  1.00  0.00    -0.502 OA
ATOM     23  H   UNL     1     132.135 129.770 114.009  1.00  0.00     0.293 HD
ENDBRANCH   2  22
BRANCH   6  24
ATOM     24  O   UNL     1     135.807 131.167 110.117  1.00  0.00    -0.507 OA
ATOM     25  H   UNL     1     135.181 131.958 110.102  1.00  0.00     0.293 HD
ENDBRANCH   6  24
BRANCH   8  26
ATOM     26  O   UNL     1     140.187 130.223 111.799  1.00  0.00    -0.508 OA
ATOM     27  H   UNL     1     140.856 130.467 112.521  1.00  0.00     0.293 HD
ENDBRANCH   8  26
TORSDOF 6
ENDMDL
MODEL 8
REMARK VINA RESULT:    -4.588      4.924      9.405
REMARK INTER + INTRA:          -5.651
REMARK INTER:                  -5.322
REMARK INTRA:                  -0.329
REMARK UNBOUND:                -0.125
REMARK SMILES O=c1c(O)c(-c2ccc(O)c(O)c2)oc2cc(O)cc(O)c12
REMARK SMILES IDX 5 1 3 2 2 3 1 4 22 5 20 6 19 7 17 8 16 9 15 10 14 11 6 12
REMARK SMILES IDX 7 13 8 14 9 15 13 16 11 17 10 18 12 20 4 22 21 24 18 26
REMARK H PARENT 10 19 12 21 4 23 21 25 18 27
REMARK Flexibility Score: inf
ROOT
ATOM      1  C   UNL     1     138.205 129.256 121.575  1.00  0.00     0.180 A 
ATOM      2  C   UNL     1     138.236 129.349 122.977  1.00  0.00     0.208 A 
ATOM      3  C   UNL     1     139.165 130.210 123.582  1.00  0.00     0.238 A 
ATOM      4  O   UNL     1     139.224 130.247 124.839  1.00  0.00    -0.285 OA
ATOM      5  C   UNL     1     140.042 130.978 122.778  1.00  0.00     0.111 A 
ATOM      6  C   UNL     1     140.996 131.911 123.283  1.00  0.00     0.134 A 
ATOM      7  C   UNL     1     141.900 132.518 122.405  1.00  0.00     0.093 A 
ATOM      8  C   UNL     1     141.843 132.278 121.032  1.00  0.00     0.123 A 
ATOM      9  C   UNL     1     140.875 131.412 120.521  1.00  0.00     0.094 A 
ATOM     10  C   UNL     1     139.983 130.762 121.377  1.00  0.00     0.146 A 
ATOM     11  O   UNL     1     139.084 129.940 120.851  1.00  0.00    -0.452 OA
ENDROOT
BRANCH   1  12
ATOM     12  C   UNL     1     137.238 128.391 120.863  1.00  0.00     0.025 A 
ATOM     13  C   UNL     1     137.593 127.070 120.547  1.00  0.00     0.016 A 
ATOM     14  C   UNL     1     136.703 126.243 119.857  1.00  0.00     0.051 A 
ATOM     15  C   UNL     1     135.452 126.725 119.460  1.00  0.00     0.157 A 
ATOM     16  C   UNL     1     135.987 128.880 120.444  1.00  0.00     0.062 A 
ATOM     17  C   UNL     1     135.092 128.052 119.751  1.00  0.00     0.158 A 
BRANCH  15  18
ATOM     18  O   UNL     1     134.584 125.876 118.776  1.00  0.00    -0.504 OA
ATOM     19  H   UNL     1     133.682 125.609 119.154  1.00  0.00     0.293 HD
ENDBRANCH  15  18
BRANCH  17  20
ATOM     20  O   UNL     1     133.852 128.543 119.345  1.00  0.00    -0.504 OA
ATOM     21  H   UNL     1     133.775 129.330 118.711  1.00  0.00     0.293 HD
ENDBRANCH  17  20
ENDBRANCH   1  12
BRANCH   2  22
ATOM     22  O   UNL     1     137.376 128.564 123.752  1.00  0.00    -0.502 OA
ATOM     23  H   UNL     1     137.554 127.585 123.938  1.00  0.00     0.293 HD
ENDBRANCH   2  22
BRANCH   6  24
ATOM     24  O   UNL     1     141.078 132.294 124.627  1.00  0.00    -0.507 OA
ATOM     25  H   UNL     1     141.783 132.907 125.007  1.00  0.00     0.293 HD
ENDBRANCH   6  24
BRANCH   8  26
ATOM     26  O   UNL     1     142.748 132.912 120.184  1.00  0.00    -0.508 OA
ATOM     27  H   UNL     1     143.557 133.404 120.546  1.00  0.00     0.293 HD
ENDBRANCH   8  26
TORSDOF 6
ENDMDL
