MODEL 1
REMARK VINA RESULT:    -6.076      0.000      0.000
REMARK INTER + INTRA:         -12.807
REMARK INTER:                 -11.049
REMARK INTRA:                  -1.757
REMARK UNBOUND:                -1.757
REMARK SMILES CCCCCCCCCCCCCC[C@H](C)C(=O)[O-]
REMARK SMILES IDX 9 1 10 2 11 3 12 4 13 5 14 6 15 7 16 8 17 9 18 10 19 11 8 12
REMARK SMILES IDX 7 13 6 14 5 15 4 16 3 17 2 18 1 19
REMARK H PARENT
REMARK Flexibility Score: inf
ROOT
ATOM      1  C   UNL     1     -13.440 -10.479  10.524  1.00  0.00     0.000 C 
ENDROOT
BRANCH   1   2
ATOM      2  C   UNL     1     -13.129  -9.055  10.030  1.00  0.00     0.000 C 
BRANCH   2   3
ATOM      3  C   UNL     1     -12.026  -8.373  10.855  1.00  0.00     0.000 C 
BRANCH   3   4
ATOM      4  C   UNL     1     -10.900  -7.801   9.975  1.00  0.00     0.000 C 
BRANCH   4   5
ATOM      5  C   UNL     1     -10.651  -8.631   8.705  1.00  0.00     0.001 C 
BRANCH   5   6
ATOM      6  C   UNL     1      -9.531  -9.688   8.806  1.00  0.00     0.009 C 
BRANCH   6   7
ATOM      7  C   UNL     1      -8.973 -10.153   7.437  1.00  0.00     0.032 C 
ATOM      8  C   UNL     1      -8.865 -11.682   7.387  1.00  0.00     0.014 C 
BRANCH   7   9
ATOM      9  C   UNL     1      -7.624  -9.554   7.144  1.00  0.00     0.044 C 
ATOM     10  O   UNL     1      -6.613 -10.291   6.989  1.00  0.00    -0.550 OA
ATOM     11  O   UNL     1      -7.495  -8.179   6.996  1.00  0.00    -0.550 OA
ENDBRANCH   7   9
ENDBRANCH   6   7
ENDBRANCH   5   6
ENDBRANCH   4   5
ENDBRANCH   3   4
ENDBRANCH   2   3
ENDBRANCH   1   2
BRANCH   1  12
ATOM     12  C   UNL     1     -12.252 -11.120  11.258  1.00  0.00     0.000 C 
BRANCH  12  13
ATOM     13  C   UNL     1     -11.878 -12.502  10.691  1.00  0.00    -0.000 C 
BRANCH  13  14
ATOM     14  C   UNL     1     -12.421 -12.721   9.270  1.00  0.00    -0.000 C 
BRANCH  14  15
ATOM     15  C   UNL     1     -11.773 -13.927   8.569  1.00  0.00    -0.000 C 
BRANCH  15  16
ATOM     16  C   UNL     1     -10.425 -14.320   9.213  1.00  0.00    -0.000 C 
BRANCH  16  17
ATOM     17  C   UNL     1     -10.304 -15.824   9.526  1.00  0.00    -0.000 C 
BRANCH  17  18
ATOM     18  C   UNL     1     -11.352 -16.711   8.834  1.00  0.00    -0.003 C 
ATOM     19  C   UNL     1     -11.597 -18.026   9.574  1.00  0.00     0.004 C 
ENDBRANCH  17  18
ENDBRANCH  16  17
ENDBRANCH  15  16
ENDBRANCH  14  15
ENDBRANCH  13  14
ENDBRANCH  12  13
ENDBRANCH   1  12
TORSDOF 14
ENDMDL
MODEL 2
REMARK VINA RESULT:    -5.983      2.570      5.549
REMARK INTER + INTRA:         -12.637
REMARK INTER:                 -10.727
REMARK INTRA:                  -1.911
REMARK UNBOUND:                -1.757
REMARK SMILES CCCCCCCCCCCCCC[C@H](C)C(=O)[O-]
REMARK SMILES IDX 9 1 10 2 11 3 12 4 13 5 14 6 15 7 16 8 17 9 18 10 19 11 8 12
REMARK SMILES IDX 7 13 6 14 5 15 4 16 3 17 2 18 1 19
REMARK H PARENT
REMARK Flexibility Score: inf
ROOT
ATOM      1  C   UNL     1     -11.851  -8.879  10.751  1.00  0.00     0.000 C 
ENDROOT
BRANCH   1   2
ATOM      2  C   UNL     1     -13.359  -9.137  10.581  1.00  0.00     0.000 C 
BRANCH   2   3
ATOM      3  C   UNL     1     -13.746 -10.592  10.887  1.00  0.00     0.000 C 
BRANCH   3   4
ATOM      4  C   UNL     1     -12.521 -11.512  11.029  1.00  0.00     0.000 C 
BRANCH   4   5
ATOM      5  C   UNL     1     -12.574 -12.730  10.091  1.00  0.00     0.001 C 
BRANCH   5   6
ATOM      6  C   UNL     1     -11.226 -13.438   9.840  1.00  0.00     0.009 C 
BRANCH   6   7
ATOM      7  C   UNL     1     -11.190 -14.288   8.544  1.00  0.00     0.032 C 
ATOM      8  C   UNL     1     -12.600 -14.451   7.962  1.00  0.00     0.014 C 
BRANCH   7   9
ATOM      9  C   UNL     1     -10.593 -15.649   8.778  1.00  0.00     0.044 C 
ATOM     10  O   UNL     1      -9.342 -15.806   8.805  1.00  0.00    -0.550 OA
ATOM     11  O   UNL     1     -11.423 -16.738   9.013  1.00  0.00    -0.550 OA
ENDBRANCH   7   9
ENDBRANCH   6   7
ENDBRANCH   5   6
ENDBRANCH   4   5
ENDBRANCH   3   4
ENDBRANCH   2   3
ENDBRANCH   1   2
BRANCH   1  12
ATOM     12  C   UNL     1     -11.372  -7.648   9.965  1.00  0.00     0.000 C 
BRANCH  12  13
ATOM     13  C   UNL     1     -10.673  -8.020   8.645  1.00  0.00    -0.000 C 
BRANCH  13  14
ATOM     14  C   UNL     1     -11.566  -8.868   7.726  1.00  0.00    -0.000 C 
BRANCH  14  15
ATOM     15  C   UNL     1     -11.123 -10.340   7.663  1.00  0.00    -0.000 C 
BRANCH  15  16
ATOM     16  C   UNL     1      -9.737 -10.559   8.310  1.00  0.00    -0.000 C 
BRANCH  16  17
ATOM     17  C   UNL     1      -8.669 -11.070   7.326  1.00  0.00    -0.000 C 
BRANCH  17  18
ATOM     18  C   UNL     1      -7.372 -10.244   7.299  1.00  0.00    -0.003 C 
ATOM     19  C   UNL     1      -7.619  -8.761   7.023  1.00  0.00     0.004 C 
ENDBRANCH  17  18
ENDBRANCH  16  17
ENDBRANCH  15  16
ENDBRANCH  14  15
ENDBRANCH  13  14
ENDBRANCH  12  13
ENDBRANCH   1  12
TORSDOF 14
ENDMDL
MODEL 3
REMARK VINA RESULT:    -5.983      1.165      1.744
REMARK INTER + INTRA:         -12.636
REMARK INTER:                 -10.389
REMARK INTRA:                  -2.247
REMARK UNBOUND:                -1.757
REMARK SMILES CCCCCCCCCCCCCC[C@H](C)C(=O)[O-]
REMARK SMILES IDX 9 1 10 2 11 3 12 4 13 5 14 6 15 7 16 8 17 9 18 10 19 11 8 12
REMARK SMILES IDX 7 13 6 14 5 15 4 16 3 17 2 18 1 19
REMARK H PARENT
REMARK Flexibility Score: inf
ROOT
ATOM      1  C   UNL     1     -11.979  -9.234  11.574  1.00  0.00     0.000 C 
ENDROOT
BRANCH   1   2
ATOM      2  C   UNL     1     -12.927  -8.921  10.403  1.00  0.00     0.000 C 
BRANCH   2   3
ATOM      3  C   UNL     1     -12.495  -7.677   9.610  1.00  0.00     0.000 C 
BRANCH   3   4
ATOM      4  C   UNL     1     -12.440  -7.933   8.094  1.00  0.00     0.000 C 
BRANCH   4   5
ATOM      5  C   UNL     1     -11.116  -8.570   7.641  1.00  0.00     0.001 C 
BRANCH   5   6
ATOM      6  C   UNL     1     -11.034 -10.105   7.770  1.00  0.00     0.009 C 
BRANCH   6   7
ATOM      7  C   UNL     1      -9.760 -10.613   8.494  1.00  0.00     0.032 C 
ATOM      8  C   UNL     1      -9.217  -9.543   9.449  1.00  0.00     0.014 C 
BRANCH   7   9
ATOM      9  C   UNL     1      -8.678 -11.004   7.525  1.00  0.00     0.044 C 
ATOM     10  O   UNL     1      -8.628 -12.173   7.055  1.00  0.00    -0.550 OA
ATOM     11  O   UNL     1      -7.750 -10.060   7.105  1.00  0.00    -0.550 OA
ENDBRANCH   7   9
ENDBRANCH   6   7
ENDBRANCH   5   6
ENDBRANCH   4   5
ENDBRANCH   3   4
ENDBRANCH   2   3
ENDBRANCH   1   2
BRANCH   1  12
ATOM     12  C   UNL     1     -12.008 -10.718  11.975  1.00  0.00     0.000 C 
BRANCH  12  13
ATOM     13  C   UNL     1     -12.824 -11.582  10.997  1.00  0.00    -0.000 C 
BRANCH  13  14
ATOM     14  C   UNL     1     -11.996 -12.726  10.391  1.00  0.00    -0.000 C 
BRANCH  14  15
ATOM     15  C   UNL     1     -12.629 -13.299   9.112  1.00  0.00    -0.000 C 
BRANCH  15  16
ATOM     16  C   UNL     1     -11.590 -14.008   8.215  1.00  0.00    -0.000 C 
BRANCH  16  17
ATOM     17  C   UNL     1     -10.316 -14.440   8.967  1.00  0.00    -0.000 C 
BRANCH  17  18
ATOM     18  C   UNL     1     -10.119 -15.961   9.076  1.00  0.00    -0.003 C 
ATOM     19  C   UNL     1     -11.432 -16.738   8.972  1.00  0.00     0.004 C 
ENDBRANCH  17  18
ENDBRANCH  16  17
ENDBRANCH  15  16
ENDBRANCH  14  15
ENDBRANCH  13  14
ENDBRANCH  12  13
ENDBRANCH   1  12
TORSDOF 14
ENDMDL
MODEL 4
REMARK VINA RESULT:    -5.648      2.689      5.626
REMARK INTER + INTRA:         -12.029
REMARK INTER:                  -9.873
REMARK INTRA:                  -2.155
REMARK UNBOUND:                -1.757
REMARK SMILES CCCCCCCCCCCCCC[C@H](C)C(=O)[O-]
REMARK SMILES IDX 9 1 10 2 11 3 12 4 13 5 14 6 15 7 16 8 17 9 18 10 19 11 8 12
REMARK SMILES IDX 7 13 6 14 5 15 4 16 3 17 2 18 1 19
REMARK H PARENT
REMARK Flexibility Score: inf
ROOT
ATOM      1  C   UNL     1     -14.805  -9.198  10.399  1.00  0.00     0.000 C 
ENDROOT
BRANCH   1   2
ATOM      2  C   UNL     1     -13.736 -10.302  10.317  1.00  0.00     0.000 C 
BRANCH   2   3
ATOM      3  C   UNL     1     -12.762 -10.269  11.505  1.00  0.00     0.000 C 
BRANCH   3   4
ATOM      4  C   UNL     1     -11.701 -11.381  11.429  1.00  0.00     0.000 C 
BRANCH   4   5
ATOM      5  C   UNL     1     -12.047 -12.471  10.401  1.00  0.00     0.001 C 
BRANCH   5   6
ATOM      6  C   UNL     1     -10.876 -13.379   9.971  1.00  0.00     0.009 C 
BRANCH   6   7
ATOM      7  C   UNL     1     -11.143 -14.186   8.675  1.00  0.00     0.032 C 
ATOM      8  C   UNL     1     -12.636 -14.170   8.324  1.00  0.00     0.014 C 
BRANCH   7   9
ATOM      9  C   UNL     1     -10.681 -15.613   8.793  1.00  0.00     0.044 C 
ATOM     10  O   UNL     1      -9.452 -15.887   8.862  1.00  0.00    -0.550 OA
ATOM     11  O   UNL     1     -11.614 -16.639   8.874  1.00  0.00    -0.550 OA
ENDBRANCH   7   9
ENDBRANCH   6   7
ENDBRANCH   5   6
ENDBRANCH   4   5
ENDBRANCH   3   4
ENDBRANCH   2   3
ENDBRANCH   1   2
BRANCH   1  12
ATOM     12  C   UNL     1     -14.572  -8.074   9.377  1.00  0.00     0.000 C 
BRANCH  12  13
ATOM     13  C   UNL     1     -13.937  -6.821  10.006  1.00  0.00    -0.000 C 
BRANCH  13  14
ATOM     14  C   UNL     1     -12.402  -6.849   9.952  1.00  0.00    -0.000 C 
BRANCH  14  15
ATOM     15  C   UNL     1     -11.867  -7.547   8.690  1.00  0.00    -0.000 C 
BRANCH  15  16
ATOM     16  C   UNL     1     -10.514  -8.250   8.941  1.00  0.00    -0.000 C 
BRANCH  16  17
ATOM     17  C   UNL     1     -10.481  -9.715   8.467  1.00  0.00    -0.000 C 
BRANCH  17  18
ATOM     18  C   UNL     1      -9.131 -10.423   8.661  1.00  0.00    -0.003 C 
ATOM     19  C   UNL     1      -8.647 -11.133   7.397  1.00  0.00     0.004 C 
ENDBRANCH  17  18
ENDBRANCH  16  17
ENDBRANCH  15  16
ENDBRANCH  14  15
ENDBRANCH  13  14
ENDBRANCH  12  13
ENDBRANCH   1  12
TORSDOF 14
ENDMDL
MODEL 5
REMARK VINA RESULT:    -5.640      2.875      4.508
REMARK INTER + INTRA:         -12.013
REMARK INTER:                  -9.877
REMARK INTRA:                  -2.137
REMARK UNBOUND:                -1.757
REMARK SMILES CCCCCCCCCCCCCC[C@H](C)C(=O)[O-]
REMARK SMILES IDX 9 1 10 2 11 3 12 4 13 5 14 6 15 7 16 8 17 9 18 10 19 11 8 12
REMARK SMILES IDX 7 13 6 14 5 15 4 16 3 17 2 18 1 19
REMARK H PARENT
REMARK Flexibility Score: inf
ROOT
ATOM      1  C   UNL     1      -8.983 -11.269   7.058  1.00  0.00     0.000 C 
ENDROOT
BRANCH   1   2
ATOM      2  C   UNL     1      -8.494 -10.186   8.035  1.00  0.00     0.000 C 
BRANCH   2   3
ATOM      3  C   UNL     1      -8.367  -8.806   7.371  1.00  0.00     0.000 C 
BRANCH   3   4
ATOM      4  C   UNL     1      -9.537  -7.871   7.724  1.00  0.00     0.000 C 
BRANCH   4   5
ATOM      5  C   UNL     1     -10.268  -8.284   9.012  1.00  0.00     0.001 C 
BRANCH   5   6
ATOM      6  C   UNL     1     -11.795  -8.466   8.885  1.00  0.00     0.009 C 
BRANCH   6   7
ATOM      7  C   UNL     1     -12.540  -8.534  10.243  1.00  0.00     0.032 C 
ATOM      8  C   UNL     1     -11.770  -9.408  11.241  1.00  0.00     0.014 C 
BRANCH   7   9
ATOM      9  C   UNL     1     -13.937  -9.071  10.094  1.00  0.00     0.044 C 
ATOM     10  O   UNL     1     -14.300 -10.103  10.721  1.00  0.00    -0.550 OA
ATOM     11  O   UNL     1     -14.856  -8.400   9.296  1.00  0.00    -0.550 OA
ENDBRANCH   7   9
ENDBRANCH   6   7
ENDBRANCH   5   6
ENDBRANCH   4   5
ENDBRANCH   3   4
ENDBRANCH   2   3
ENDBRANCH   1   2
BRANCH   1  12
ATOM     12  C   UNL     1      -9.486 -12.530   7.779  1.00  0.00     0.000 C 
BRANCH  12  13
ATOM     13  C   UNL     1     -10.273 -12.206   9.062  1.00  0.00    -0.000 C 
BRANCH  13  14
ATOM     14  C   UNL     1     -11.782 -12.067   8.807  1.00  0.00    -0.000 C 
BRANCH  14  15
ATOM     15  C   UNL     1     -12.619 -13.023   9.676  1.00  0.00    -0.000 C 
BRANCH  15  16
ATOM     16  C   UNL     1     -13.360 -14.081   8.829  1.00  0.00    -0.000 C 
BRANCH  16  17
ATOM     17  C   UNL     1     -12.420 -14.990   8.014  1.00  0.00    -0.000 C 
BRANCH  17  18
ATOM     18  C   UNL     1     -11.754 -16.116   8.822  1.00  0.00    -0.003 C 
ATOM     19  C   UNL     1     -10.248 -15.915   8.990  1.00  0.00     0.004 C 
ENDBRANCH  17  18
ENDBRANCH  16  17
ENDBRANCH  15  16
ENDBRANCH  14  15
ENDBRANCH  13  14
ENDBRANCH  12  13
ENDBRANCH   1  12
TORSDOF 14
ENDMDL
MODEL 6
REMARK VINA RESULT:    -5.628      2.926      5.973
REMARK INTER + INTRA:         -11.992
REMARK INTER:                 -10.147
REMARK INTRA:                  -1.845
REMARK UNBOUND:                -1.757
REMARK SMILES CCCCCCCCCCCCCC[C@H](C)C(=O)[O-]
REMARK SMILES IDX 9 1 10 2 11 3 12 4 13 5 14 6 15 7 16 8 17 9 18 10 19 11 8 12
REMARK SMILES IDX 7 13 6 14 5 15 4 16 3 17 2 18 1 19
REMARK H PARENT
REMARK Flexibility Score: inf
ROOT
ATOM      1  C   UNL     1      -9.688  -8.650   8.946  1.00  0.00     0.000 C 
ENDROOT
BRANCH   1   2
ATOM      2  C   UNL     1      -9.190 -10.095   9.121  1.00  0.00     0.000 C 
BRANCH   2   3
ATOM      3  C   UNL     1      -8.787 -10.745   7.788  1.00  0.00     0.000 C 
BRANCH   3   4
ATOM      4  C   UNL     1      -9.547 -12.055   7.517  1.00  0.00     0.000 C 
BRANCH   4   5
ATOM      5  C   UNL     1     -10.754 -12.253   8.449  1.00  0.00     0.001 C 
BRANCH   5   6
ATOM      6  C   UNL     1     -10.766 -13.569   9.255  1.00  0.00     0.009 C 
BRANCH   6   7
ATOM      7  C   UNL     1     -11.344 -14.781   8.480  1.00  0.00     0.032 C 
ATOM      8  C   UNL     1     -12.863 -14.645   8.313  1.00  0.00     0.014 C 
BRANCH   7   9
ATOM      9  C   UNL     1     -11.038 -16.086   9.163  1.00  0.00     0.044 C 
ATOM     10  O   UNL     1     -11.620 -17.148   8.811  1.00  0.00    -0.550 OA
ATOM     11  O   UNL     1     -10.071 -16.136  10.160  1.00  0.00    -0.550 OA
ENDBRANCH   7   9
ENDBRANCH   6   7
ENDBRANCH   5   6
ENDBRANCH   4   5
ENDBRANCH   3   4
ENDBRANCH   2   3
ENDBRANCH   1   2
BRANCH   1  12
ATOM     12  C   UNL     1     -10.465  -8.449   7.635  1.00  0.00     0.000 C 
BRANCH  12  13
ATOM     13  C   UNL     1     -11.988  -8.389   7.850  1.00  0.00    -0.000 C 
BRANCH  13  14
ATOM     14  C   UNL     1     -12.365  -8.020   9.293  1.00  0.00    -0.000 C 
BRANCH  14  15
ATOM     15  C   UNL     1     -13.869  -8.184   9.572  1.00  0.00    -0.000 C 
BRANCH  15  16
ATOM     16  C   UNL     1     -14.176  -9.466  10.377  1.00  0.00    -0.000 C 
BRANCH  16  17
ATOM     17  C   UNL     1     -13.103 -10.561  10.229  1.00  0.00    -0.000 C 
BRANCH  17  18
ATOM     18  C   UNL     1     -12.676 -11.224  11.548  1.00  0.00    -0.003 C 
ATOM     19  C   UNL     1     -11.877 -10.286  12.452  1.00  0.00     0.004 C 
ENDBRANCH  17  18
ENDBRANCH  16  17
ENDBRANCH  15  16
ENDBRANCH  14  15
ENDBRANCH  13  14
ENDBRANCH  12  13
ENDBRANCH   1  12
TORSDOF 14
ENDMDL
MODEL 7
REMARK VINA RESULT:    -5.479      3.459      5.739
REMARK INTER + INTRA:         -11.721
REMARK INTER:                  -9.574
REMARK INTRA:                  -2.146
REMARK UNBOUND:                -1.757
REMARK SMILES CCCCCCCCCCCCCC[C@H](C)C(=O)[O-]
REMARK SMILES IDX 9 1 10 2 11 3 12 4 13 5 14 6 15 7 16 8 17 9 18 10 19 11 8 12
REMARK SMILES IDX 7 13 6 14 5 15 4 16 3 17 2 18 1 19
REMARK H PARENT
REMARK Flexibility Score: inf
ROOT
ATOM      1  C   UNL     1      -8.732  -9.885   8.454  1.00  0.00     0.000 C 
ENDROOT
BRANCH   1   2
ATOM      2  C   UNL     1      -9.195  -8.554   7.836  1.00  0.00     0.000 C 
BRANCH   2   3
ATOM      3  C   UNL     1     -10.589  -8.130   8.325  1.00  0.00     0.000 C 
BRANCH   3   4
ATOM      4  C   UNL     1     -10.626  -7.860   9.839  1.00  0.00     0.000 C 
BRANCH   4   5
ATOM      5  C   UNL     1     -12.056  -7.734  10.391  1.00  0.00     0.001 C 
BRANCH   5   6
ATOM      6  C   UNL     1     -13.016  -6.853   9.565  1.00  0.00     0.009 C 
BRANCH   6   7
ATOM      7  C   UNL     1     -14.517  -7.151   9.808  1.00  0.00     0.032 C 
ATOM      8  C   UNL     1     -14.751  -8.658   9.978  1.00  0.00     0.014 C 
BRANCH   7   9
ATOM      9  C   UNL     1     -15.383  -6.641   8.688  1.00  0.00     0.044 C 
ATOM     10  O   UNL     1     -15.990  -5.541   8.794  1.00  0.00    -0.550 OA
ATOM     11  O   UNL     1     -15.482  -7.363   7.505  1.00  0.00    -0.550 OA
ENDBRANCH   7   9
ENDBRANCH   6   7
ENDBRANCH   5   6
ENDBRANCH   4   5
ENDBRANCH   3   4
ENDBRANCH   2   3
ENDBRANCH   1   2
BRANCH   1  12
ATOM     12  C   UNL     1      -8.374 -10.935   7.390  1.00  0.00     0.000 C 
BRANCH  12  13
ATOM     13  C   UNL     1      -9.568 -11.830   7.012  1.00  0.00    -0.000 C 
BRANCH  13  14
ATOM     14  C   UNL     1      -9.976 -12.778   8.150  1.00  0.00    -0.000 C 
BRANCH  14  15
ATOM     15  C   UNL     1     -11.496 -12.795   8.389  1.00  0.00    -0.000 C 
BRANCH  15  16
ATOM     16  C   UNL     1     -11.979 -11.545   9.156  1.00  0.00    -0.000 C 
BRANCH  16  17
ATOM     17  C   UNL     1     -11.488 -11.486  10.615  1.00  0.00    -0.000 C 
BRANCH  17  18
ATOM     18  C   UNL     1     -12.586 -11.192  11.651  1.00  0.00    -0.003 C 
ATOM     19  C   UNL     1     -12.058 -10.450  12.879  1.00  0.00     0.004 C 
ENDBRANCH  17  18
ENDBRANCH  16  17
ENDBRANCH  15  16
ENDBRANCH  14  15
ENDBRANCH  13  14
ENDBRANCH  12  13
ENDBRANCH   1  12
TORSDOF 14
ENDMDL
MODEL 8
REMARK VINA RESULT:    -5.359      2.684      4.517
REMARK INTER + INTRA:         -11.503
REMARK INTER:                  -9.680
REMARK INTRA:                  -1.823
REMARK UNBOUND:                -1.757
REMARK SMILES CCCCCCCCCCCCCC[C@H](C)C(=O)[O-]
REMARK SMILES IDX 9 1 10 2 11 3 12 4 13 5 14 6 15 7 16 8 17 9 18 10 19 11 8 12
REMARK SMILES IDX 7 13 6 14 5 15 4 16 3 17 2 18 1 19
REMARK H PARENT
REMARK Flexibility Score: inf
ROOT
ATOM      1  C   UNL     1      -9.224 -10.301   8.047  1.00  0.00     0.000 C 
ENDROOT
BRANCH   1   2
ATOM      2  C   UNL     1      -9.114  -8.958   8.789  1.00  0.00     0.000 C 
BRANCH   2   3
ATOM      3  C   UNL     1     -10.332  -8.051   8.550  1.00  0.00     0.000 C 
BRANCH   3   4
ATOM      4  C   UNL     1     -10.921  -7.497   9.859  1.00  0.00     0.000 C 
BRANCH   4   5
ATOM      5  C   UNL     1     -11.869  -8.487  10.557  1.00  0.00     0.001 C 
BRANCH   5   6
ATOM      6  C   UNL     1     -13.097  -8.928   9.734  1.00  0.00     0.009 C 
BRANCH   6   7
ATOM      7  C   UNL     1     -14.242  -7.884   9.696  1.00  0.00     0.032 C 
ATOM      8  C   UNL     1     -15.587  -8.540  10.036  1.00  0.00     0.014 C 
BRANCH   7   9
ATOM      9  C   UNL     1     -14.348  -7.211   8.354  1.00  0.00     0.044 C 
ATOM     10  O   UNL     1     -13.579  -7.536   7.409  1.00  0.00    -0.550 OA
ATOM     11  O   UNL     1     -15.332  -6.255   8.135  1.00  0.00    -0.550 OA
ENDBRANCH   7   9
ENDBRANCH   6   7
ENDBRANCH   5   6
ENDBRANCH   4   5
ENDBRANCH   3   4
ENDBRANCH   2   3
ENDBRANCH   1   2
BRANCH   1  12
ATOM     12  C   UNL     1     -10.649 -10.584   7.547  1.00  0.00     0.000 C 
BRANCH  12  13
ATOM     13  C   UNL     1     -11.261 -11.848   8.177  1.00  0.00    -0.000 C 
BRANCH  13  14
ATOM     14  C   UNL     1     -10.955 -11.964   9.678  1.00  0.00    -0.000 C 
BRANCH  14  15
ATOM     15  C   UNL     1     -10.562 -13.393  10.093  1.00  0.00    -0.000 C 
BRANCH  15  16
ATOM     16  C   UNL     1     -10.344 -14.315   8.873  1.00  0.00    -0.000 C 
BRANCH  16  17
ATOM     17  C   UNL     1     -10.657 -15.797   9.154  1.00  0.00    -0.000 C 
BRANCH  17  18
ATOM     18  C   UNL     1     -11.992 -16.293   8.574  1.00  0.00    -0.003 C 
ATOM     19  C   UNL     1     -12.946 -15.152   8.222  1.00  0.00     0.004 C 
ENDBRANCH  17  18
ENDBRANCH  16  17
ENDBRANCH  15  16
ENDBRANCH  14  15
ENDBRANCH  13  14
ENDBRANCH  12  13
ENDBRANCH   1  12
TORSDOF 14
ENDMDL
MODEL 9
REMARK VINA RESULT:    -5.316      2.836      6.383
REMARK INTER + INTRA:         -11.424
REMARK INTER:                  -9.580
REMARK INTRA:                  -1.844
REMARK UNBOUND:                -1.757
REMARK SMILES CCCCCCCCCCCCCC[C@H](C)C(=O)[O-]
REMARK SMILES IDX 9 1 10 2 11 3 12 4 13 5 14 6 15 7 16 8 17 9 18 10 19 11 8 12
REMARK SMILES IDX 7 13 6 14 5 15 4 16 3 17 2 18 1 19
REMARK H PARENT
REMARK Flexibility Score: inf
ROOT
ATOM      1  C   UNL     1     -10.741  -8.012   8.403  1.00  0.00     0.000 C 
ENDROOT
BRANCH   1   2
ATOM      2  C   UNL     1      -9.294  -7.861   7.903  1.00  0.00     0.000 C 
BRANCH   2   3
ATOM      3  C   UNL     1      -8.720  -9.176   7.351  1.00  0.00     0.000 C 
BRANCH   3   4
ATOM      4  C   UNL     1      -8.914 -10.357   8.319  1.00  0.00     0.000 C 
BRANCH   4   5
ATOM      5  C   UNL     1      -9.185 -11.687   7.597  1.00  0.00     0.001 C 
BRANCH   5   6
ATOM      6  C   UNL     1     -10.563 -12.326   7.868  1.00  0.00     0.009 C 
BRANCH   6   7
ATOM      7  C   UNL     1     -10.632 -13.150   9.178  1.00  0.00     0.032 C 
ATOM      8  C   UNL     1     -10.539 -14.652   8.880  1.00  0.00     0.014 C 
BRANCH   7   9
ATOM      9  C   UNL     1     -11.894 -12.878   9.951  1.00  0.00     0.044 C 
ATOM     10  O   UNL     1     -11.852 -12.295  11.068  1.00  0.00    -0.550 OA
ATOM     11  O   UNL     1     -13.126 -13.230   9.411  1.00  0.00    -0.550 OA
ENDBRANCH   7   9
ENDBRANCH   6   7
ENDBRANCH   5   6
ENDBRANCH   4   5
ENDBRANCH   3   4
ENDBRANCH   2   3
ENDBRANCH   1   2
BRANCH   1  12
ATOM     12  C   UNL     1     -10.872  -7.755   9.913  1.00  0.00     0.000 C 
BRANCH  12  13
ATOM     13  C   UNL     1     -11.789  -8.774  10.612  1.00  0.00    -0.000 C 
BRANCH  13  14
ATOM     14  C   UNL     1     -12.818  -9.394   9.654  1.00  0.00    -0.000 C 
BRANCH  14  15
ATOM     15  C   UNL     1     -14.118  -9.805  10.367  1.00  0.00    -0.000 C 
BRANCH  15  16
ATOM     16  C   UNL     1     -15.224  -8.736  10.226  1.00  0.00    -0.000 C 
BRANCH  16  17
ATOM     17  C   UNL     1     -14.834  -7.560   9.310  1.00  0.00    -0.000 C 
BRANCH  17  18
ATOM     18  C   UNL     1     -14.831  -6.184   9.996  1.00  0.00    -0.003 C 
ATOM     19  C   UNL     1     -13.636  -5.322   9.590  1.00  0.00     0.004 C 
ENDBRANCH  17  18
ENDBRANCH  16  17
ENDBRANCH  15  16
ENDBRANCH  14  15
ENDBRANCH  13  14
ENDBRANCH  12  13
ENDBRANCH   1  12
TORSDOF 14
ENDMDL
