MODEL 1
REMARK VINA RESULT:    -4.127      0.000      0.000
REMARK INTER + INTRA:         -11.403
REMARK INTER:                  -8.952
REMARK INTRA:                  -2.451
REMARK UNBOUND:                -2.451
REMARK SMILES CCCCCCCCCCCCCCCCCCCCCC(=O)[O-]
REMARK SMILES IDX 12 1 11 2 10 3 9 4 8 5 7 6 6 7 5 8 4 9 3 10 2 11 1 12 13 13
REMARK SMILES IDX 14 14 15 15 16 16 17 17 18 18 19 19 20 20 21 21 22 22 23 23
REMARK SMILES IDX 24 24
REMARK H PARENT
REMARK Flexibility Score: inf
ROOT
ATOM      1  C   UNL     1     302.934 326.336 644.655  1.00  0.00     0.000 C 
ENDROOT
BRANCH   1   2
ATOM      2  C   UNL     1     302.171 327.197 645.678  1.00  0.00     0.000 C 
BRANCH   2   3
ATOM      3  C   UNL     1     301.561 328.496 645.118  1.00  0.00     0.000 C 
BRANCH   3   4
ATOM      4  C   UNL     1     300.025 328.466 645.064  1.00  0.00    -0.000 C 
BRANCH   4   5
ATOM      5  C   UNL     1     299.449 329.372 643.962  1.00  0.00    -0.000 C 
BRANCH   5   6
ATOM      6  C   UNL     1     299.422 330.867 644.346  1.00  0.00    -0.000 C 
BRANCH   6   7
ATOM      7  C   UNL     1     300.161 331.743 643.316  1.00  0.00    -0.000 C 
BRANCH   7   8
ATOM      8  C   UNL     1     299.965 333.244 643.577  1.00  0.00    -0.000 C 
BRANCH   8   9
ATOM      9  C   UNL     1     300.773 333.739 644.791  1.00  0.00    -0.000 C 
BRANCH   9  10
ATOM     10  C   UNL     1     300.508 335.221 645.118  1.00  0.00    -0.000 C 
BRANCH  10  11
ATOM     11  C   UNL     1     301.731 336.139 644.945  1.00  0.00    -0.003 C 
ATOM     12  C   UNL     1     302.972 335.628 645.678  1.00  0.00     0.004 C 
ENDBRANCH  10  11
ENDBRANCH   9  10
ENDBRANCH   8   9
ENDBRANCH   7   8
ENDBRANCH   6   7
ENDBRANCH   5   6
ENDBRANCH   4   5
ENDBRANCH   3   4
ENDBRANCH   2   3
ENDBRANCH   1   2
BRANCH   1  13
ATOM     13  C   UNL     1     302.018 325.724 643.579  1.00  0.00     0.000 C 
BRANCH  13  14
ATOM     14  C   UNL     1     301.178 324.555 644.120  1.00  0.00     0.000 C 
BRANCH  14  15
ATOM     15  C   UNL     1     299.686 324.916 644.249  1.00  0.00     0.000 C 
BRANCH  15  16
ATOM     16  C   UNL     1     299.050 324.354 645.529  1.00  0.00     0.000 C 
BRANCH  16  17
ATOM     17  C   UNL     1     299.154 325.331 646.714  1.00  0.00     0.000 C 
BRANCH  17  18
ATOM     18  C   UNL     1     299.722 324.665 647.977  1.00  0.00     0.000 C 
BRANCH  18  19
ATOM     19  C   UNL     1     300.853 323.669 647.659  1.00  0.00     0.000 C 
BRANCH  19  20
ATOM     20  C   UNL     1     302.242 324.227 648.012  1.00  0.00     0.006 C 
BRANCH  20  21
ATOM     21  C   UNL     1     303.370 323.528 647.242  1.00  0.00     0.053 C 
BRANCH  21  22
ATOM     22  C   UNL     1     304.252 322.765 648.181  1.00  0.00     0.041 C 
ATOM     23  O   UNL     1     304.425 323.171 649.360  1.00  0.00    -0.550 OA
ATOM     24  O   UNL     1     304.861 321.587 647.762  1.00  0.00    -0.550 OA
ENDBRANCH  21  22
ENDBRANCH  20  21
ENDBRANCH  19  20
ENDBRANCH  18  19
ENDBRANCH  17  18
ENDBRANCH  16  17
ENDBRANCH  15  16
ENDBRANCH  14  15
ENDBRANCH  13  14
ENDBRANCH   1  13
TORSDOF 20
ENDMDL
MODEL 2
REMARK VINA RESULT:    -4.100      5.176      7.816
REMARK INTER + INTRA:         -11.345
REMARK INTER:                  -8.213
REMARK INTRA:                  -3.132
REMARK UNBOUND:                -2.451
REMARK SMILES CCCCCCCCCCCCCCCCCCCCCC(=O)[O-]
REMARK SMILES IDX 12 1 11 2 10 3 9 4 8 5 7 6 6 7 5 8 4 9 3 10 2 11 1 12 13 13
REMARK SMILES IDX 14 14 15 15 16 16 17 17 18 18 19 19 20 20 21 21 22 22 23 23
REMARK SMILES IDX 24 24
REMARK H PARENT
REMARK Flexibility Score: inf
ROOT
ATOM      1  C   UNL     1     299.341 324.448 645.101  1.00  0.00     0.000 C 
ENDROOT
BRANCH   1   2
ATOM      2  C   UNL     1     300.404 324.892 644.080  1.00  0.00     0.000 C 
BRANCH   2   3
ATOM      3  C   UNL     1     301.678 324.027 644.041  1.00  0.00     0.000 C 
BRANCH   3   4
ATOM      4  C   UNL     1     302.794 324.638 643.177  1.00  0.00    -0.000 C 
BRANCH   4   5
ATOM      5  C   UNL     1     304.162 323.976 643.417  1.00  0.00    -0.000 C 
BRANCH   5   6
ATOM      6  C   UNL     1     304.064 322.514 643.901  1.00  0.00    -0.000 C 
BRANCH   6   7
ATOM      7  C   UNL     1     304.597 321.520 642.852  1.00  0.00    -0.000 C 
BRANCH   7   8
ATOM      8  C   UNL     1     304.324 321.984 641.413  1.00  0.00    -0.000 C 
BRANCH   8   9
ATOM      9  C   UNL     1     303.134 321.247 640.773  1.00  0.00    -0.000 C 
BRANCH   9  10
ATOM     10  C   UNL     1     302.019 320.926 641.786  1.00  0.00    -0.000 C 
BRANCH  10  11
ATOM     11  C   UNL     1     300.661 321.574 641.462  1.00  0.00    -0.003 C 
ATOM     12  C   UNL     1     300.783 322.799 640.556  1.00  0.00     0.004 C 
ENDBRANCH  10  11
ENDBRANCH   9  10
ENDBRANCH   8   9
ENDBRANCH   7   8
ENDBRANCH   6   7
ENDBRANCH   5   6
ENDBRANCH   4   5
ENDBRANCH   3   4
ENDBRANCH   2   3
ENDBRANCH   1   2
BRANCH   1  13
ATOM     13  C   UNL     1     299.002 325.539 646.132  1.00  0.00     0.000 C 
BRANCH  13  14
ATOM     14  C   UNL     1     299.647 325.274 647.502  1.00  0.00     0.000 C 
BRANCH  14  15
ATOM     15  C   UNL     1     300.214 323.847 647.616  1.00  0.00     0.000 C 
BRANCH  15  16
ATOM     16  C   UNL     1     301.689 323.828 648.048  1.00  0.00     0.000 C 
BRANCH  16  17
ATOM     17  C   UNL     1     302.491 324.999 647.451  1.00  0.00     0.000 C 
BRANCH  17  18
ATOM     18  C   UNL     1     303.924 324.596 647.071  1.00  0.00     0.000 C 
BRANCH  18  19
ATOM     19  C   UNL     1     304.320 323.222 647.642  1.00  0.00     0.000 C 
BRANCH  19  20
ATOM     20  C   UNL     1     305.348 323.333 648.780  1.00  0.00     0.006 C 
BRANCH  20  21
ATOM     21  C   UNL     1     304.916 322.570 650.040  1.00  0.00     0.053 C 
BRANCH  21  22
ATOM     22  C   UNL     1     306.097 321.917 650.688  1.00  0.00     0.041 C 
ATOM     23  O   UNL     1     307.245 322.420 650.568  1.00  0.00    -0.550 OA
ATOM     24  O   UNL     1     305.926 320.767 651.450  1.00  0.00    -0.550 OA
ENDBRANCH  21  22
ENDBRANCH  20  21
ENDBRANCH  19  20
ENDBRANCH  18  19
ENDBRANCH  17  18
ENDBRANCH  16  17
ENDBRANCH  15  16
ENDBRANCH  14  15
ENDBRANCH  13  14
ENDBRANCH   1  13
TORSDOF 20
ENDMDL
MODEL 3
REMARK VINA RESULT:    -4.095      4.604      6.312
REMARK INTER + INTRA:         -11.333
REMARK INTER:                  -7.711
REMARK INTRA:                  -3.622
REMARK UNBOUND:                -2.451
REMARK SMILES CCCCCCCCCCCCCCCCCCCCCC(=O)[O-]
REMARK SMILES IDX 12 1 11 2 10 3 9 4 8 5 7 6 6 7 5 8 4 9 3 10 2 11 1 12 13 13
REMARK SMILES IDX 14 14 15 15 16 16 17 17 18 18 19 19 20 20 21 21 22 22 23 23
REMARK SMILES IDX 24 24
REMARK H PARENT
REMARK Flexibility Score: inf
ROOT
ATOM      1  C   UNL     1     299.162 324.811 645.259  1.00  0.00     0.000 C 
ENDROOT
BRANCH   1   2
ATOM      2  C   UNL     1     299.716 325.889 644.311  1.00  0.00     0.000 C 
BRANCH   2   3
ATOM      3  C   UNL     1     300.629 325.368 643.185  1.00  0.00     0.000 C 
BRANCH   3   4
ATOM      4  C   UNL     1     300.927 323.865 643.300  1.00  0.00    -0.000 C 
BRANCH   4   5
ATOM      5  C   UNL     1     302.383 323.576 643.708  1.00  0.00    -0.000 C 
BRANCH   5   6
ATOM      6  C   UNL     1     303.305 324.810 643.618  1.00  0.00    -0.000 C 
BRANCH   6   7
ATOM      7  C   UNL     1     304.047 325.077 644.941  1.00  0.00    -0.000 C 
BRANCH   7   8
ATOM      8  C   UNL     1     303.582 326.372 645.623  1.00  0.00    -0.000 C 
BRANCH   8   9
ATOM      9  C   UNL     1     304.541 326.826 646.739  1.00  0.00    -0.000 C 
BRANCH   9  10
ATOM     10  C   UNL     1     305.883 326.072 646.713  1.00  0.00    -0.000 C 
BRANCH  10  11
ATOM     11  C   UNL     1     306.714 326.208 648.002  1.00  0.00    -0.003 C 
ATOM     12  C   UNL     1     307.227 324.868 648.528  1.00  0.00     0.004 C 
ENDBRANCH  10  11
ENDBRANCH   9  10
ENDBRANCH   8   9
ENDBRANCH   7   8
ENDBRANCH   6   7
ENDBRANCH   5   6
ENDBRANCH   4   5
ENDBRANCH   3   4
ENDBRANCH   2   3
ENDBRANCH   1   2
BRANCH   1  13
ATOM     13  C   UNL     1     299.345 325.165 646.747  1.00  0.00     0.000 C 
BRANCH  13  14
ATOM     14  C   UNL     1     299.830 323.967 647.580  1.00  0.00     0.000 C 
BRANCH  14  15
ATOM     15  C   UNL     1     301.312 323.638 647.326  1.00  0.00     0.000 C 
BRANCH  15  16
ATOM     16  C   UNL     1     302.251 324.327 648.328  1.00  0.00     0.000 C 
BRANCH  16  17
ATOM     17  C   UNL     1     303.588 323.580 648.490  1.00  0.00     0.000 C 
BRANCH  17  18
ATOM     18  C   UNL     1     303.787 322.496 647.421  1.00  0.00     0.000 C 
BRANCH  18  19
ATOM     19  C   UNL     1     305.263 322.084 647.268  1.00  0.00     0.000 C 
BRANCH  19  20
ATOM     20  C   UNL     1     305.629 320.873 648.143  1.00  0.00     0.006 C 
BRANCH  20  21
ATOM     21  C   UNL     1     306.904 321.104 648.964  1.00  0.00     0.053 C 
BRANCH  21  22
ATOM     22  C   UNL     1     306.571 321.272 650.414  1.00  0.00     0.041 C 
ATOM     23  O   UNL     1     306.970 322.287 651.043  1.00  0.00    -0.550 OA
ATOM     24  O   UNL     1     305.794 320.320 651.065  1.00  0.00    -0.550 OA
ENDBRANCH  21  22
ENDBRANCH  20  21
ENDBRANCH  19  20
ENDBRANCH  18  19
ENDBRANCH  17  18
ENDBRANCH  16  17
ENDBRANCH  15  16
ENDBRANCH  14  15
ENDBRANCH  13  14
ENDBRANCH   1  13
TORSDOF 20
ENDMDL
MODEL 4
REMARK VINA RESULT:    -4.080      4.630      8.139
REMARK INTER + INTRA:         -11.301
REMARK INTER:                  -7.924
REMARK INTRA:                  -3.377
REMARK UNBOUND:                -2.451
REMARK SMILES CCCCCCCCCCCCCCCCCCCCCC(=O)[O-]
REMARK SMILES IDX 12 1 11 2 10 3 9 4 8 5 7 6 6 7 5 8 4 9 3 10 2 11 1 12 13 13
REMARK SMILES IDX 14 14 15 15 16 16 17 17 18 18 19 19 20 20 21 21 22 22 23 23
REMARK SMILES IDX 24 24
REMARK H PARENT
REMARK Flexibility Score: inf
ROOT
ATOM      1  C   UNL     1     302.200 324.384 647.954  1.00  0.00     0.000 C 
ENDROOT
BRANCH   1   2
ATOM      2  C   UNL     1     303.373 323.665 648.644  1.00  0.00     0.000 C 
BRANCH   2   3
ATOM      3  C   UNL     1     303.944 322.456 647.879  1.00  0.00     0.000 C 
BRANCH   3   4
ATOM      4  C   UNL     1     304.740 321.496 648.778  1.00  0.00    -0.000 C 
BRANCH   4   5
ATOM      5  C   UNL     1     305.042 322.092 650.164  1.00  0.00    -0.000 C 
BRANCH   5   6
ATOM      6  C   UNL     1     306.542 322.072 650.530  1.00  0.00    -0.000 C 
BRANCH   6   7
ATOM      7  C   UNL     1     307.443 322.251 649.293  1.00  0.00    -0.000 C 
BRANCH   7   8
ATOM      8  C   UNL     1     307.778 323.725 649.022  1.00  0.00    -0.000 C 
BRANCH   8   9
ATOM      9  C   UNL     1     307.215 324.218 647.677  1.00  0.00    -0.000 C 
BRANCH   9  10
ATOM     10  C   UNL     1     306.441 325.543 647.804  1.00  0.00    -0.000 C 
BRANCH  10  11
ATOM     11  C   UNL     1     305.526 325.862 646.608  1.00  0.00    -0.003 C 
ATOM     12  C   UNL     1     304.591 327.043 646.869  1.00  0.00     0.004 C 
ENDBRANCH  10  11
ENDBRANCH   9  10
ENDBRANCH   8   9
ENDBRANCH   7   8
ENDBRANCH   6   7
ENDBRANCH   5   6
ENDBRANCH   4   5
ENDBRANCH   3   4
ENDBRANCH   2   3
ENDBRANCH   1   2
BRANCH   1  13
ATOM     13  C   UNL     1     301.120 323.417 647.437  1.00  0.00     0.000 C 
BRANCH  13  14
ATOM     14  C   UNL     1     299.699 323.978 647.609  1.00  0.00     0.000 C 
BRANCH  14  15
ATOM     15  C   UNL     1     299.655 325.512 647.485  1.00  0.00     0.000 C 
BRANCH  15  16
ATOM     16  C   UNL     1     299.274 325.981 646.072  1.00  0.00     0.000 C 
BRANCH  16  17
ATOM     17  C   UNL     1     300.343 326.897 645.450  1.00  0.00     0.000 C 
BRANCH  17  18
ATOM     18  C   UNL     1     300.952 326.304 644.170  1.00  0.00     0.000 C 
BRANCH  18  19
ATOM     19  C   UNL     1     302.260 325.538 644.440  1.00  0.00     0.000 C 
BRANCH  19  20
ATOM     20  C   UNL     1     302.157 324.050 644.062  1.00  0.00     0.006 C 
BRANCH  20  21
ATOM     21  C   UNL     1     301.025 323.773 643.065  1.00  0.00     0.053 C 
BRANCH  21  22
ATOM     22  C   UNL     1     301.420 322.689 642.111  1.00  0.00     0.041 C 
ATOM     23  O   UNL     1     300.604 321.776 641.815  1.00  0.00    -0.550 OA
ATOM     24  O   UNL     1     302.681 322.701 641.526  1.00  0.00    -0.550 OA
ENDBRANCH  21  22
ENDBRANCH  20  21
ENDBRANCH  19  20
ENDBRANCH  18  19
ENDBRANCH  17  18
ENDBRANCH  16  17
ENDBRANCH  15  16
ENDBRANCH  14  15
ENDBRANCH  13  14
ENDBRANCH   1  13
TORSDOF 20
ENDMDL
MODEL 5
REMARK VINA RESULT:    -4.043      1.311      2.295
REMARK INTER + INTRA:         -11.220
REMARK INTER:                  -9.232
REMARK INTRA:                  -1.988
REMARK UNBOUND:                -2.451
REMARK SMILES CCCCCCCCCCCCCCCCCCCCCC(=O)[O-]
REMARK SMILES IDX 12 1 11 2 10 3 9 4 8 5 7 6 6 7 5 8 4 9 3 10 2 11 1 12 13 13
REMARK SMILES IDX 14 14 15 15 16 16 17 17 18 18 19 19 20 20 21 21 22 22 23 23
REMARK SMILES IDX 24 24
REMARK H PARENT
REMARK Flexibility Score: inf
ROOT
ATOM      1  C   UNL     1     300.715 325.628 644.069  1.00  0.00     0.000 C 
ENDROOT
BRANCH   1   2
ATOM      2  C   UNL     1     300.029 326.915 644.562  1.00  0.00     0.000 C 
BRANCH   2   3
ATOM      3  C   UNL     1     300.974 327.977 645.156  1.00  0.00     0.000 C 
BRANCH   3   4
ATOM      4  C   UNL     1     300.551 329.415 644.818  1.00  0.00    -0.000 C 
BRANCH   4   5
ATOM      5  C   UNL     1     299.190 329.483 644.102  1.00  0.00    -0.000 C 
BRANCH   5   6
ATOM      6  C   UNL     1     299.228 330.280 642.781  1.00  0.00    -0.000 C 
BRANCH   6   7
ATOM      7  C   UNL     1     300.506 331.130 642.653  1.00  0.00    -0.000 C 
BRANCH   7   8
ATOM      8  C   UNL     1     300.203 332.634 642.570  1.00  0.00    -0.000 C 
BRANCH   8   9
ATOM      9  C   UNL     1     299.791 333.225 643.931  1.00  0.00    -0.000 C 
BRANCH   9  10
ATOM     10  C   UNL     1     300.935 333.199 644.961  1.00  0.00    -0.000 C 
BRANCH  10  11
ATOM     11  C   UNL     1     301.049 334.474 645.816  1.00  0.00    -0.003 C 
ATOM     12  C   UNL     1     300.639 335.739 645.063  1.00  0.00     0.004 C 
ENDBRANCH  10  11
ENDBRANCH   9  10
ENDBRANCH   8   9
ENDBRANCH   7   8
ENDBRANCH   6   7
ENDBRANCH   5   6
ENDBRANCH   4   5
ENDBRANCH   3   4
ENDBRANCH   2   3
ENDBRANCH   1   2
BRANCH   1  13
ATOM     13  C   UNL     1     299.990 324.347 644.521  1.00  0.00     0.000 C 
BRANCH  13  14
ATOM     14  C   UNL     1     298.875 324.633 645.541  1.00  0.00     0.000 C 
BRANCH  14  15
ATOM     15  C   UNL     1     299.161 323.997 646.915  1.00  0.00     0.000 C 
BRANCH  15  16
ATOM     16  C   UNL     1     299.935 324.937 647.852  1.00  0.00     0.000 C 
BRANCH  16  17
ATOM     17  C   UNL     1     301.460 324.810 647.682  1.00  0.00     0.000 C 
BRANCH  17  18
ATOM     18  C   UNL     1     301.919 323.348 647.569  1.00  0.00     0.000 C 
BRANCH  18  19
ATOM     19  C   UNL     1     303.430 323.224 647.299  1.00  0.00     0.000 C 
BRANCH  19  20
ATOM     20  C   UNL     1     304.088 322.120 648.144  1.00  0.00     0.006 C 
BRANCH  20  21
ATOM     21  C   UNL     1     305.020 322.684 649.225  1.00  0.00     0.053 C 
BRANCH  21  22
ATOM     22  C   UNL     1     306.384 322.940 648.660  1.00  0.00     0.041 C 
ATOM     23  O   UNL     1     306.863 322.170 647.787  1.00  0.00    -0.550 OA
ATOM     24  O   UNL     1     307.114 324.047 649.079  1.00  0.00    -0.550 OA
ENDBRANCH  21  22
ENDBRANCH  20  21
ENDBRANCH  19  20
ENDBRANCH  18  19
ENDBRANCH  17  18
ENDBRANCH  16  17
ENDBRANCH  15  16
ENDBRANCH  14  15
ENDBRANCH  13  14
ENDBRANCH   1  13
TORSDOF 20
ENDMDL
MODEL 6
REMARK VINA RESULT:    -3.997      4.788      8.361
REMARK INTER + INTRA:         -11.121
REMARK INTER:                  -7.818
REMARK INTRA:                  -3.303
REMARK UNBOUND:                -2.451
REMARK SMILES CCCCCCCCCCCCCCCCCCCCCC(=O)[O-]
REMARK SMILES IDX 12 1 11 2 10 3 9 4 8 5 7 6 6 7 5 8 4 9 3 10 2 11 1 12 13 13
REMARK SMILES IDX 14 14 15 15 16 16 17 17 18 18 19 19 20 20 21 21 22 22 23 23
REMARK SMILES IDX 24 24
REMARK H PARENT
REMARK Flexibility Score: inf
ROOT
ATOM      1  C   UNL     1     301.075 323.619 647.651  1.00  0.00     0.000 C 
ENDROOT
BRANCH   1   2
ATOM      2  C   UNL     1     302.261 324.374 648.279  1.00  0.00     0.000 C 
BRANCH   2   3
ATOM      3  C   UNL     1     303.643 323.735 648.046  1.00  0.00     0.000 C 
BRANCH   3   4
ATOM      4  C   UNL     1     303.584 322.205 647.915  1.00  0.00    -0.000 C 
BRANCH   4   5
ATOM      5  C   UNL     1     304.929 321.528 648.233  1.00  0.00    -0.000 C 
BRANCH   5   6
ATOM      6  C   UNL     1     304.884 320.622 649.482  1.00  0.00    -0.000 C 
BRANCH   6   7
ATOM      7  C   UNL     1     305.983 320.982 650.499  1.00  0.00    -0.000 C 
BRANCH   7   8
ATOM      8  C   UNL     1     306.325 322.479 650.487  1.00  0.00    -0.000 C 
BRANCH   8   9
ATOM      9  C   UNL     1     307.810 322.741 650.177  1.00  0.00    -0.000 C 
BRANCH   9  10
ATOM     10  C   UNL     1     308.017 323.487 648.846  1.00  0.00    -0.000 C 
BRANCH  10  11
ATOM     11  C   UNL     1     307.075 324.686 648.636  1.00  0.00    -0.003 C 
ATOM     12  C   UNL     1     307.761 326.033 648.861  1.00  0.00     0.004 C 
ENDBRANCH  10  11
ENDBRANCH   9  10
ENDBRANCH   8   9
ENDBRANCH   7   8
ENDBRANCH   6   7
ENDBRANCH   5   6
ENDBRANCH   4   5
ENDBRANCH   3   4
ENDBRANCH   2   3
ENDBRANCH   1   2
BRANCH   1  13
ATOM     13  C   UNL     1     299.721 324.305 647.907  1.00  0.00     0.000 C 
BRANCH  13  14
ATOM     14  C   UNL     1     299.322 325.260 646.769  1.00  0.00     0.000 C 
BRANCH  14  15
ATOM     15  C   UNL     1     298.982 324.512 645.468  1.00  0.00     0.000 C 
BRANCH  15  16
ATOM     16  C   UNL     1     300.043 324.713 644.374  1.00  0.00     0.000 C 
BRANCH  16  17
ATOM     17  C   UNL     1     301.008 325.867 644.698  1.00  0.00     0.000 C 
BRANCH  17  18
ATOM     18  C   UNL     1     302.475 325.413 644.736  1.00  0.00     0.000 C 
BRANCH  18  19
ATOM     19  C   UNL     1     302.637 323.917 644.407  1.00  0.00     0.000 C 
BRANCH  19  20
ATOM     20  C   UNL     1     303.971 323.611 643.704  1.00  0.00     0.006 C 
BRANCH  20  21
ATOM     21  C   UNL     1     304.832 322.610 644.486  1.00  0.00     0.053 C 
BRANCH  21  22
ATOM     22  C   UNL     1     305.986 323.308 645.138  1.00  0.00     0.041 C 
ATOM     23  O   UNL     1     306.976 322.647 645.549  1.00  0.00    -0.550 OA
ATOM     24  O   UNL     1     305.980 324.692 645.267  1.00  0.00    -0.550 OA
ENDBRANCH  21  22
ENDBRANCH  20  21
ENDBRANCH  19  20
ENDBRANCH  18  19
ENDBRANCH  17  18
ENDBRANCH  16  17
ENDBRANCH  15  16
ENDBRANCH  14  15
ENDBRANCH  13  14
ENDBRANCH   1  13
TORSDOF 20
ENDMDL
MODEL 7
REMARK VINA RESULT:    -3.953      3.811      8.566
REMARK INTER + INTRA:         -11.026
REMARK INTER:                  -7.543
REMARK INTRA:                  -3.482
REMARK UNBOUND:                -2.451
REMARK SMILES CCCCCCCCCCCCCCCCCCCCCC(=O)[O-]
REMARK SMILES IDX 12 1 11 2 10 3 9 4 8 5 7 6 6 7 5 8 4 9 3 10 2 11 1 12 13 13
REMARK SMILES IDX 14 14 15 15 16 16 17 17 18 18 19 19 20 20 21 21 22 22 23 23
REMARK SMILES IDX 24 24
REMARK H PARENT
REMARK Flexibility Score: inf
ROOT
ATOM      1  C   UNL     1     301.113 325.163 643.664  1.00  0.00     0.000 C 
ENDROOT
BRANCH   1   2
ATOM      2  C   UNL     1     302.517 325.553 644.161  1.00  0.00     0.000 C 
BRANCH   2   3
ATOM      3  C   UNL     1     303.059 324.708 645.329  1.00  0.00     0.000 C 
BRANCH   3   4
ATOM      4  C   UNL     1     303.198 325.506 646.636  1.00  0.00    -0.000 C 
BRANCH   4   5
ATOM      5  C   UNL     1     302.838 324.676 647.881  1.00  0.00    -0.000 C 
BRANCH   5   6
ATOM      6  C   UNL     1     302.670 323.169 647.590  1.00  0.00    -0.000 C 
BRANCH   6   7
ATOM      7  C   UNL     1     303.867 322.344 648.101  1.00  0.00    -0.000 C 
BRANCH   7   8
ATOM      8  C   UNL     1     304.633 323.058 649.224  1.00  0.00    -0.000 C 
BRANCH   8   9
ATOM      9  C   UNL     1     306.135 323.199 648.914  1.00  0.00    -0.000 C 
BRANCH   9  10
ATOM     10  C   UNL     1     306.485 324.552 648.269  1.00  0.00    -0.000 C 
BRANCH  10  11
ATOM     11  C   UNL     1     307.260 324.443 646.943  1.00  0.00    -0.003 C 
ATOM     12  C   UNL     1     306.530 323.609 645.891  1.00  0.00     0.004 C 
ENDBRANCH  10  11
ENDBRANCH   9  10
ENDBRANCH   8   9
ENDBRANCH   7   8
ENDBRANCH   6   7
ENDBRANCH   5   6
ENDBRANCH   4   5
ENDBRANCH   3   4
ENDBRANCH   2   3
ENDBRANCH   1   2
BRANCH   1  13
ATOM     13  C   UNL     1     300.490 324.006 644.467  1.00  0.00     0.000 C 
BRANCH  13  14
ATOM     14  C   UNL     1     299.197 324.421 645.187  1.00  0.00     0.000 C 
BRANCH  14  15
ATOM     15  C   UNL     1     299.413 324.647 646.695  1.00  0.00     0.000 C 
BRANCH  15  16
ATOM     16  C   UNL     1     299.565 326.133 647.055  1.00  0.00     0.000 C 
BRANCH  16  17
ATOM     17  C   UNL     1     299.010 327.063 645.961  1.00  0.00     0.000 C 
BRANCH  17  18
ATOM     18  C   UNL     1     300.039 328.106 645.499  1.00  0.00     0.000 C 
BRANCH  18  19
ATOM     19  C   UNL     1     299.789 328.580 644.055  1.00  0.00     0.000 C 
BRANCH  19  20
ATOM     20  C   UNL     1     298.892 329.829 643.995  1.00  0.00     0.006 C 
BRANCH  20  21
ATOM     21  C   UNL     1     299.272 330.770 642.844  1.00  0.00     0.053 C 
BRANCH  21  22
ATOM     22  C   UNL     1     299.964 331.990 643.371  1.00  0.00     0.041 C 
ATOM     23  O   UNL     1     300.166 332.979 642.618  1.00  0.00    -0.550 OA
ATOM     24  O   UNL     1     300.361 332.044 644.702  1.00  0.00    -0.550 OA
ENDBRANCH  21  22
ENDBRANCH  20  21
ENDBRANCH  19  20
ENDBRANCH  18  19
ENDBRANCH  17  18
ENDBRANCH  16  17
ENDBRANCH  15  16
ENDBRANCH  14  15
ENDBRANCH  13  14
ENDBRANCH   1  13
TORSDOF 20
ENDMDL
MODEL 8
REMARK VINA RESULT:    -3.951      3.922      7.101
REMARK INTER + INTRA:         -11.020
REMARK INTER:                  -7.316
REMARK INTRA:                  -3.704
REMARK UNBOUND:                -2.451
REMARK SMILES CCCCCCCCCCCCCCCCCCCCCC(=O)[O-]
REMARK SMILES IDX 12 1 11 2 10 3 9 4 8 5 7 6 6 7 5 8 4 9 3 10 2 11 1 12 13 13
REMARK SMILES IDX 14 14 15 15 16 16 17 17 18 18 19 19 20 20 21 21 22 22 23 23
REMARK SMILES IDX 24 24
REMARK H PARENT
REMARK Flexibility Score: inf
ROOT
ATOM      1  C   UNL     1     301.447 327.334 645.607  1.00  0.00     0.000 C 
ENDROOT
BRANCH   1   2
ATOM      2  C   UNL     1     302.331 326.431 644.729  1.00  0.00     0.000 C 
BRANCH   2   3
ATOM      3  C   UNL     1     301.569 325.514 643.753  1.00  0.00     0.000 C 
BRANCH   3   4
ATOM      4  C   UNL     1     302.067 324.060 643.781  1.00  0.00    -0.000 C 
BRANCH   4   5
ATOM      5  C   UNL     1     303.565 323.950 644.119  1.00  0.00    -0.000 C 
BRANCH   5   6
ATOM      6  C   UNL     1     304.061 322.495 644.257  1.00  0.00    -0.000 C 
BRANCH   6   7
ATOM      7  C   UNL     1     305.595 322.395 644.164  1.00  0.00    -0.000 C 
BRANCH   7   8
ATOM      8  C   UNL     1     306.302 323.210 645.257  1.00  0.00    -0.000 C 
BRANCH   8   9
ATOM      9  C   UNL     1     306.828 322.325 646.402  1.00  0.00    -0.000 C 
BRANCH   9  10
ATOM     10  C   UNL     1     307.751 323.089 647.369  1.00  0.00    -0.000 C 
BRANCH  10  11
ATOM     11  C   UNL     1     307.640 324.622 647.275  1.00  0.00    -0.003 C 
ATOM     12  C   UNL     1     307.235 325.275 648.596  1.00  0.00     0.004 C 
ENDBRANCH  10  11
ENDBRANCH   9  10
ENDBRANCH   8   9
ENDBRANCH   7   8
ENDBRANCH   6   7
ENDBRANCH   5   6
ENDBRANCH   4   5
ENDBRANCH   3   4
ENDBRANCH   2   3
ENDBRANCH   1   2
BRANCH   1  13
ATOM     13  C   UNL     1     299.941 327.098 645.390  1.00  0.00     0.000 C 
BRANCH  13  14
ATOM     14  C   UNL     1     299.274 326.415 646.595  1.00  0.00     0.000 C 
BRANCH  14  15
ATOM     15  C   UNL     1     299.184 324.887 646.426  1.00  0.00     0.000 C 
BRANCH  15  16
ATOM     16  C   UNL     1     299.784 324.123 647.617  1.00  0.00     0.000 C 
BRANCH  16  17
ATOM     17  C   UNL     1     301.225 323.654 647.348  1.00  0.00     0.000 C 
BRANCH  17  18
ATOM     18  C   UNL     1     302.273 324.604 647.946  1.00  0.00     0.000 C 
BRANCH  18  19
ATOM     19  C   UNL     1     303.713 324.102 647.733  1.00  0.00     0.000 C 
BRANCH  19  20
ATOM     20  C   UNL     1     303.982 322.770 648.454  1.00  0.00     0.006 C 
BRANCH  20  21
ATOM     21  C   UNL     1     304.716 322.960 649.788  1.00  0.00     0.053 C 
BRANCH  21  22
ATOM     22  C   UNL     1     305.414 321.697 650.188  1.00  0.00     0.041 C 
ATOM     23  O   UNL     1     306.049 321.640 651.274  1.00  0.00    -0.550 OA
ATOM     24  O   UNL     1     305.341 320.573 649.373  1.00  0.00    -0.550 OA
ENDBRANCH  21  22
ENDBRANCH  20  21
ENDBRANCH  19  20
ENDBRANCH  18  19
ENDBRANCH  17  18
ENDBRANCH  16  17
ENDBRANCH  15  16
ENDBRANCH  14  15
ENDBRANCH  13  14
ENDBRANCH   1  13
TORSDOF 20
ENDMDL
MODEL 9
REMARK VINA RESULT:    -3.937      4.122      6.240
REMARK INTER + INTRA:         -10.990
REMARK INTER:                  -7.174
REMARK INTRA:                  -3.817
REMARK UNBOUND:                -2.451
REMARK SMILES CCCCCCCCCCCCCCCCCCCCCC(=O)[O-]
REMARK SMILES IDX 12 1 11 2 10 3 9 4 8 5 7 6 6 7 5 8 4 9 3 10 2 11 1 12 13 13
REMARK SMILES IDX 14 14 15 15 16 16 17 17 18 18 19 19 20 20 21 21 22 22 23 23
REMARK SMILES IDX 24 24
REMARK H PARENT
REMARK Flexibility Score: inf
ROOT
ATOM      1  C   UNL     1     302.371 324.166 648.022  1.00  0.00     0.000 C 
ENDROOT
BRANCH   1   2
ATOM      2  C   UNL     1     301.027 323.594 647.536  1.00  0.00     0.000 C 
BRANCH   2   3
ATOM      3  C   UNL     1     299.796 324.475 647.823  1.00  0.00     0.000 C 
BRANCH   3   4
ATOM      4  C   UNL     1     299.264 325.191 646.572  1.00  0.00    -0.000 C 
BRANCH   4   5
ATOM      5  C   UNL     1     299.300 324.302 645.316  1.00  0.00    -0.000 C 
BRANCH   5   6
ATOM      6  C   UNL     1     300.125 324.903 644.158  1.00  0.00    -0.000 C 
BRANCH   6   7
ATOM      7  C   UNL     1     301.509 324.238 644.028  1.00  0.00    -0.000 C 
BRANCH   7   8
ATOM      8  C   UNL     1     302.652 325.181 644.434  1.00  0.00    -0.000 C 
BRANCH   8   9
ATOM      9  C   UNL     1     302.163 326.616 644.698  1.00  0.00    -0.000 C 
BRANCH   9  10
ATOM     10  C   UNL     1     302.729 327.207 646.003  1.00  0.00    -0.000 C 
BRANCH  10  11
ATOM     11  C   UNL     1     304.144 327.800 645.870  1.00  0.00    -0.003 C 
ATOM     12  C   UNL     1     304.873 327.912 647.209  1.00  0.00     0.004 C 
ENDBRANCH  10  11
ENDBRANCH   9  10
ENDBRANCH   8   9
ENDBRANCH   7   8
ENDBRANCH   6   7
ENDBRANCH   5   6
ENDBRANCH   4   5
ENDBRANCH   3   4
ENDBRANCH   2   3
ENDBRANCH   1   2
BRANCH   1  13
ATOM     13  C   UNL     1     303.587 323.406 647.461  1.00  0.00     0.000 C 
BRANCH  13  14
ATOM     14  C   UNL     1     304.904 324.173 647.667  1.00  0.00     0.000 C 
BRANCH  14  15
ATOM     15  C   UNL     1     305.690 324.350 646.356  1.00  0.00     0.000 C 
BRANCH  15  16
ATOM     16  C   UNL     1     305.717 323.072 645.504  1.00  0.00     0.000 C 
BRANCH  16  17
ATOM     17  C   UNL     1     307.127 322.462 645.404  1.00  0.00     0.000 C 
BRANCH  17  18
ATOM     18  C   UNL     1     307.325 321.281 646.367  1.00  0.00     0.000 C 
BRANCH  18  19
ATOM     19  C   UNL     1     305.994 320.623 646.774  1.00  0.00     0.000 C 
BRANCH  19  20
ATOM     20  C   UNL     1     305.849 320.488 648.300  1.00  0.00     0.006 C 
BRANCH  20  21
ATOM     21  C   UNL     1     307.119 320.907 649.051  1.00  0.00     0.053 C 
BRANCH  21  22
ATOM     22  C   UNL     1     306.810 321.984 650.045  1.00  0.00     0.041 C 
ATOM     23  O   UNL     1     307.707 322.789 650.407  1.00  0.00    -0.550 OA
ATOM     24  O   UNL     1     305.522 322.115 650.552  1.00  0.00    -0.550 OA
ENDBRANCH  21  22
ENDBRANCH  20  21
ENDBRANCH  19  20
ENDBRANCH  18  19
ENDBRANCH  17  18
ENDBRANCH  16  17
ENDBRANCH  15  16
ENDBRANCH  14  15
ENDBRANCH  13  14
ENDBRANCH   1  13
TORSDOF 20
ENDMDL
