MODEL 1
REMARK VINA RESULT:    -5.184      0.000      0.000
REMARK INTER + INTRA:          -5.840
REMARK INTER:                  -5.790
REMARK INTRA:                  -0.050
REMARK UNBOUND:                -0.050
REMARK SMILES COc1cc2ccc(=O)oc2c(O)c1O
REMARK SMILES IDX 3 1 14 2 12 3 11 4 5 5 4 6 6 7 7 8 8 9 9 10 10 11 2 12 1 13
REMARK SMILES IDX 15 14 13 16
REMARK H PARENT 15 15 13 17
REMARK Flexibility Score: inf
ROOT
ATOM      1  C   UNL     1     109.819 120.467 121.308  1.00  0.00     0.165 A 
ATOM      2  C   UNL     1     108.742 120.100 122.138  1.00  0.00     0.204 A 
ATOM      3  C   UNL     1     107.443 120.544 121.853  1.00  0.00     0.205 A 
ATOM      4  C   UNL     1     107.209 121.360 120.735  1.00  0.00     0.184 A 
ATOM      5  C   UNL     1     108.285 121.731 119.901  1.00  0.00     0.025 A 
ATOM      6  C   UNL     1     109.581 121.286 120.187  1.00  0.00     0.062 A 
ATOM      7  C   UNL     1     108.022 122.545 118.794  1.00  0.00     0.020 A 
ATOM      8  C   UNL     1     106.716 122.965 118.546  1.00  0.00     0.094 A 
ATOM      9  C   UNL     1     105.699 122.560 119.415  1.00  0.00     0.336 A 
ATOM     10  O   UNL     1     104.513 122.929 119.210  1.00  0.00    -0.246 OA
ATOM     11  O   UNL     1     105.976 121.785 120.461  1.00  0.00    -0.419 OA
ENDROOT
BRANCH   1  12
ATOM     12  O   UNL     1     111.106 120.002 121.625  1.00  0.00    -0.493 OA
ATOM     13  C   UNL     1     112.171 119.867 120.690  1.00  0.00     0.278 C 
ENDBRANCH   1  12
BRANCH   2  14
ATOM     14  O   UNL     1     108.947 119.289 123.255  1.00  0.00    -0.502 OA
ATOM     15  H   UNL     1     108.190 119.010 123.868  1.00  0.00     0.293 HD
ENDBRANCH   2  14
BRANCH   3  16
ATOM     16  O   UNL     1     106.396 120.164 122.694  1.00  0.00    -0.502 OA
ATOM     17  H   UNL     1     105.500 120.638 122.689  1.00  0.00     0.293 HD
ENDBRANCH   3  16
TORSDOF 3
ENDMDL
MODEL 2
REMARK VINA RESULT:    -5.129      1.213      4.626
REMARK INTER + INTRA:          -5.778
REMARK INTER:                  -5.723
REMARK INTRA:                  -0.055
REMARK UNBOUND:                -0.050
REMARK SMILES COc1cc2ccc(=O)oc2c(O)c1O
REMARK SMILES IDX 3 1 14 2 12 3 11 4 5 5 4 6 6 7 7 8 8 9 9 10 10 11 2 12 1 13
REMARK SMILES IDX 15 14 13 16
REMARK H PARENT 15 15 13 17
REMARK Flexibility Score: inf
ROOT
ATOM      1  C   UNL     1     107.201 122.359 119.120  1.00  0.00     0.165 A 
ATOM      2  C   UNL     1     106.245 121.869 120.031  1.00  0.00     0.204 A 
ATOM      3  C   UNL     1     106.641 121.084 121.124  1.00  0.00     0.205 A 
ATOM      4  C   UNL     1     107.999 120.783 121.316  1.00  0.00     0.184 A 
ATOM      5  C   UNL     1     108.960 121.271 120.406  1.00  0.00     0.025 A 
ATOM      6  C   UNL     1     108.562 122.055 119.316  1.00  0.00     0.062 A 
ATOM      7  C   UNL     1     110.306 120.954 120.621  1.00  0.00     0.020 A 
ATOM      8  C   UNL     1     110.659 120.172 121.720  1.00  0.00     0.094 A 
ATOM      9  C   UNL     1     109.653 119.722 122.580  1.00  0.00     0.336 A 
ATOM     10  O   UNL     1     109.950 119.013 123.577  1.00  0.00    -0.246 OA
ATOM     11  O   UNL     1     108.381 120.037 122.352  1.00  0.00    -0.419 OA
ENDROOT
BRANCH   1  12
ATOM     12  O   UNL     1     106.765 123.142 118.039  1.00  0.00    -0.493 OA
ATOM     13  C   UNL     1     107.400 124.339 117.599  1.00  0.00     0.278 C 
ENDBRANCH   1  12
BRANCH   2  14
ATOM     14  O   UNL     1     104.889 122.155 119.864  1.00  0.00    -0.502 OA
ATOM     15  H   UNL     1     104.216 121.447 119.593  1.00  0.00     0.293 HD
ENDBRANCH   2  14
BRANCH   3  16
ATOM     16  O   UNL     1     105.671 120.613 122.009  1.00  0.00    -0.502 OA
ATOM     17  H   UNL     1     105.813 120.605 123.012  1.00  0.00     0.293 HD
ENDBRANCH   3  16
TORSDOF 3
ENDMDL
MODEL 3
REMARK VINA RESULT:    -5.059      1.709      4.827
REMARK INTER + INTRA:          -5.700
REMARK INTER:                  -5.633
REMARK INTRA:                  -0.067
REMARK UNBOUND:                -0.050
REMARK SMILES COc1cc2ccc(=O)oc2c(O)c1O
REMARK SMILES IDX 3 1 14 2 12 3 11 4 5 5 4 6 6 7 7 8 8 9 9 10 10 11 2 12 1 13
REMARK SMILES IDX 15 14 13 16
REMARK H PARENT 15 15 13 17
REMARK Flexibility Score: inf
ROOT
ATOM      1  C   UNL     1     106.185 120.857 120.153  1.00  0.00     0.165 A 
ATOM      2  C   UNL     1     106.671 121.385 121.365  1.00  0.00     0.204 A 
ATOM      3  C   UNL     1     108.015 121.212 121.728  1.00  0.00     0.205 A 
ATOM      4  C   UNL     1     108.886 120.508 120.880  1.00  0.00     0.184 A 
ATOM      5  C   UNL     1     108.404 119.978 119.664  1.00  0.00     0.025 A 
ATOM      6  C   UNL     1     107.061 120.153 119.305  1.00  0.00     0.062 A 
ATOM      7  C   UNL     1     109.293 119.282 118.840  1.00  0.00     0.020 A 
ATOM      8  C   UNL     1     110.621 119.132 119.236  1.00  0.00     0.094 A 
ATOM      9  C   UNL     1     111.030 119.683 120.454  1.00  0.00     0.336 A 
ATOM     10  O   UNL     1     112.224 119.559 120.831  1.00  0.00    -0.246 OA
ATOM     11  O   UNL     1     110.163 120.341 121.220  1.00  0.00    -0.419 OA
ENDROOT
BRANCH   1  12
ATOM     12  O   UNL     1     104.834 121.052 119.825  1.00  0.00    -0.493 OA
ATOM     13  C   UNL     1     104.346 122.105 119.000  1.00  0.00     0.278 C 
ENDBRANCH   1  12
BRANCH   2  14
ATOM     14  O   UNL     1     105.827 122.088 122.226  1.00  0.00    -0.502 OA
ATOM     15  H   UNL     1     106.139 122.900 122.747  1.00  0.00     0.293 HD
ENDBRANCH   2  14
BRANCH   3  16
ATOM     16  O   UNL     1     108.467 121.745 122.935  1.00  0.00    -0.502 OA
ATOM     17  H   UNL     1     108.389 122.732 123.153  1.00  0.00     0.293 HD
ENDBRANCH   3  16
TORSDOF 3
ENDMDL
MODEL 4
REMARK VINA RESULT:    -5.026      2.192      5.772
REMARK INTER + INTRA:          -5.663
REMARK INTER:                  -5.613
REMARK INTRA:                  -0.050
REMARK UNBOUND:                -0.050
REMARK SMILES COc1cc2ccc(=O)oc2c(O)c1O
REMARK SMILES IDX 3 1 14 2 12 3 11 4 5 5 4 6 6 7 7 8 8 9 9 10 10 11 2 12 1 13
REMARK SMILES IDX 15 14 13 16
REMARK H PARENT 15 15 13 17
REMARK Flexibility Score: inf
ROOT
ATOM      1  C   UNL     1     106.139 123.468 118.549  1.00  0.00     0.165 A 
ATOM      2  C   UNL     1     107.333 123.945 117.974  1.00  0.00     0.204 A 
ATOM      3  C   UNL     1     108.549 123.289 118.217  1.00  0.00     0.205 A 
ATOM      4  C   UNL     1     108.581 122.150 119.037  1.00  0.00     0.184 A 
ATOM      5  C   UNL     1     107.388 121.668 119.614  1.00  0.00     0.025 A 
ATOM      6  C   UNL     1     106.175 122.325 119.371  1.00  0.00     0.062 A 
ATOM      7  C   UNL     1     107.449 120.532 120.428  1.00  0.00     0.020 A 
ATOM      8  C   UNL     1     108.678 119.909 120.643  1.00  0.00     0.094 A 
ATOM      9  C   UNL     1     109.820 120.441 120.040  1.00  0.00     0.336 A 
ATOM     10  O   UNL     1     110.940 119.895 120.222  1.00  0.00    -0.246 OA
ATOM     11  O   UNL     1     109.734 121.524 119.271  1.00  0.00    -0.419 OA
ENDROOT
BRANCH   1  12
ATOM     12  O   UNL     1     104.941 124.151 118.282  1.00  0.00    -0.493 OA
ATOM     13  C   UNL     1     103.809 124.166 119.145  1.00  0.00     0.278 C 
ENDBRANCH   1  12
BRANCH   2  14
ATOM     14  O   UNL     1     107.329 125.074 117.155  1.00  0.00    -0.502 OA
ATOM     15  H   UNL     1     106.827 125.919 117.400  1.00  0.00     0.293 HD
ENDBRANCH   2  14
BRANCH   3  16
ATOM     16  O   UNL     1     109.716 123.785 117.634  1.00  0.00    -0.502 OA
ATOM     17  H   UNL     1     109.714 124.593 117.024  1.00  0.00     0.293 HD
ENDBRANCH   3  16
TORSDOF 3
ENDMDL
MODEL 5
REMARK VINA RESULT:    -4.924      1.682      5.269
REMARK INTER + INTRA:          -5.550
REMARK INTER:                  -5.481
REMARK INTRA:                  -0.069
REMARK UNBOUND:                -0.050
REMARK SMILES COc1cc2ccc(=O)oc2c(O)c1O
REMARK SMILES IDX 3 1 14 2 12 3 11 4 5 5 4 6 6 7 7 8 8 9 9 10 10 11 2 12 1 13
REMARK SMILES IDX 15 14 13 16
REMARK H PARENT 15 15 13 17
REMARK Flexibility Score: inf
ROOT
ATOM      1  C   UNL     1     105.808 121.144 121.382  1.00  0.00     0.165 A 
ATOM      2  C   UNL     1     106.291 121.761 120.212  1.00  0.00     0.204 A 
ATOM      3  C   UNL     1     107.663 121.754 119.919  1.00  0.00     0.205 A 
ATOM      4  C   UNL     1     108.564 121.129 120.796  1.00  0.00     0.184 A 
ATOM      5  C   UNL     1     108.085 120.509 121.969  1.00  0.00     0.025 A 
ATOM      6  C   UNL     1     106.715 120.518 122.259  1.00  0.00     0.062 A 
ATOM      7  C   UNL     1     109.006 119.895 122.825  1.00  0.00     0.020 A 
ATOM      8  C   UNL     1     110.361 119.909 122.498  1.00  0.00     0.094 A 
ATOM      9  C   UNL     1     110.765 120.542 121.319  1.00  0.00     0.336 A 
ATOM     10  O   UNL     1     111.984 120.567 121.005  1.00  0.00    -0.246 OA
ATOM     11  O   UNL     1     109.868 121.120 120.523  1.00  0.00    -0.419 OA
ENDROOT
BRANCH   1  12
ATOM     12  O   UNL     1     104.428 121.172 121.639  1.00  0.00    -0.493 OA
ATOM     13  C   UNL     1     103.797 122.035 122.580  1.00  0.00     0.278 C 
ENDBRANCH   1  12
BRANCH   2  14
ATOM     14  O   UNL     1     105.417 122.389 119.323  1.00  0.00    -0.502 OA
ATOM     15  H   UNL     1     105.277 122.058 118.376  1.00  0.00     0.293 HD
ENDBRANCH   2  14
BRANCH   3  16
ATOM     16  O   UNL     1     108.112 122.374 118.753  1.00  0.00    -0.502 OA
ATOM     17  H   UNL     1     107.660 123.195 118.369  1.00  0.00     0.293 HD
ENDBRANCH   3  16
TORSDOF 3
ENDMDL
MODEL 6
REMARK VINA RESULT:    -4.833      2.115      2.920
REMARK INTER + INTRA:          -5.448
REMARK INTER:                  -5.382
REMARK INTRA:                  -0.066
REMARK UNBOUND:                -0.050
REMARK SMILES COc1cc2ccc(=O)oc2c(O)c1O
REMARK SMILES IDX 3 1 14 2 12 3 11 4 5 5 4 6 6 7 7 8 8 9 9 10 10 11 2 12 1 13
REMARK SMILES IDX 15 14 13 16
REMARK H PARENT 15 15 13 17
REMARK Flexibility Score: inf
ROOT
ATOM      1  C   UNL     1     110.901 119.948 120.947  1.00  0.00     0.165 A 
ATOM      2  C   UNL     1     110.179 119.550 119.806  1.00  0.00     0.204 A 
ATOM      3  C   UNL     1     108.806 119.820 119.704  1.00  0.00     0.205 A 
ATOM      4  C   UNL     1     108.144 120.491 120.745  1.00  0.00     0.184 A 
ATOM      5  C   UNL     1     108.864 120.891 121.890  1.00  0.00     0.025 A 
ATOM      6  C   UNL     1     110.234 120.620 121.989  1.00  0.00     0.062 A 
ATOM      7  C   UNL     1     108.178 121.558 122.911  1.00  0.00     0.020 A 
ATOM      8  C   UNL     1     106.814 121.808 122.771  1.00  0.00     0.094 A 
ATOM      9  C   UNL     1     106.164 121.382 121.610  1.00  0.00     0.336 A 
ATOM     10  O   UNL     1     104.932 121.597 121.463  1.00  0.00    -0.246 OA
ATOM     11  O   UNL     1     106.840 120.749 120.653  1.00  0.00    -0.419 OA
ENDROOT
BRANCH   1  12
ATOM     12  O   UNL     1     112.274 119.660 121.012  1.00  0.00    -0.493 OA
ATOM     13  C   UNL     1     113.309 120.638 120.976  1.00  0.00     0.278 C 
ENDBRANCH   1  12
BRANCH   2  14
ATOM     14  O   UNL     1     110.812 118.882 118.757  1.00  0.00    -0.502 OA
ATOM     15  H   UNL     1     110.697 117.887 118.600  1.00  0.00     0.293 HD
ENDBRANCH   2  14
BRANCH   3  16
ATOM     16  O   UNL     1     108.116 119.413 118.562  1.00  0.00    -0.502 OA
ATOM     17  H   UNL     1     107.106 119.338 118.539  1.00  0.00     0.293 HD
ENDBRANCH   3  16
TORSDOF 3
ENDMDL
MODEL 7
REMARK VINA RESULT:    -4.771      1.744      3.326
REMARK INTER + INTRA:          -5.378
REMARK INTER:                  -5.311
REMARK INTRA:                  -0.067
REMARK UNBOUND:                -0.050
REMARK SMILES COc1cc2ccc(=O)oc2c(O)c1O
REMARK SMILES IDX 3 1 14 2 12 3 11 4 5 5 4 6 6 7 7 8 8 9 9 10 10 11 2 12 1 13
REMARK SMILES IDX 15 14 13 16
REMARK H PARENT 15 15 13 17
REMARK Flexibility Score: inf
ROOT
ATOM      1  C   UNL     1     109.740 120.825 121.111  1.00  0.00     0.165 A 
ATOM      2  C   UNL     1     109.004 121.477 120.102  1.00  0.00     0.204 A 
ATOM      3  C   UNL     1     107.602 121.434 120.106  1.00  0.00     0.205 A 
ATOM      4  C   UNL     1     106.923 120.738 121.119  1.00  0.00     0.184 A 
ATOM      5  C   UNL     1     107.657 120.083 122.131  1.00  0.00     0.025 A 
ATOM      6  C   UNL     1     109.056 120.128 122.125  1.00  0.00     0.062 A 
ATOM      7  C   UNL     1     106.954 119.396 123.128  1.00  0.00     0.020 A 
ATOM      8  C   UNL     1     105.561 119.378 123.095  1.00  0.00     0.094 A 
ATOM      9  C   UNL     1     104.900 120.048 122.062  1.00  0.00     0.336 A 
ATOM     10  O   UNL     1     103.642 120.043 122.014  1.00  0.00    -0.246 OA
ATOM     11  O   UNL     1     105.592 120.693 121.126  1.00  0.00    -0.419 OA
ENDROOT
BRANCH   1  12
ATOM     12  O   UNL     1     111.142 120.892 121.074  1.00  0.00    -0.493 OA
ATOM     13  C   UNL     1     111.997 119.792 120.778  1.00  0.00     0.278 C 
ENDBRANCH   1  12
BRANCH   2  14
ATOM     14  O   UNL     1     109.653 122.176 119.084  1.00  0.00    -0.502 OA
ATOM     15  H   UNL     1     109.159 122.796 118.453  1.00  0.00     0.293 HD
ENDBRANCH   2  14
BRANCH   3  16
ATOM     16  O   UNL     1     106.900 122.089 119.094  1.00  0.00    -0.502 OA
ATOM     17  H   UNL     1     105.998 122.521 119.255  1.00  0.00     0.293 HD
ENDBRANCH   3  16
TORSDOF 3
ENDMDL
MODEL 8
REMARK VINA RESULT:    -4.689      1.604      4.593
REMARK INTER + INTRA:          -5.288
REMARK INTER:                  -5.220
REMARK INTRA:                  -0.068
REMARK UNBOUND:                -0.050
REMARK SMILES COc1cc2ccc(=O)oc2c(O)c1O
REMARK SMILES IDX 3 1 14 2 12 3 11 4 5 5 4 6 6 7 7 8 8 9 9 10 10 11 2 12 1 13
REMARK SMILES IDX 15 14 13 16
REMARK H PARENT 15 15 13 17
REMARK Flexibility Score: inf
ROOT
ATOM      1  C   UNL     1     105.854 120.887 121.716  1.00  0.00     0.165 A 
ATOM      2  C   UNL     1     106.362 119.979 122.667  1.00  0.00     0.204 A 
ATOM      3  C   UNL     1     107.723 119.642 122.669  1.00  0.00     0.205 A 
ATOM      4  C   UNL     1     108.589 120.209 121.720  1.00  0.00     0.184 A 
ATOM      5  C   UNL     1     108.085 121.118 120.767  1.00  0.00     0.025 A 
ATOM      6  C   UNL     1     106.725 121.453 120.766  1.00  0.00     0.062 A 
ATOM      7  C   UNL     1     108.970 121.667 119.832  1.00  0.00     0.020 A 
ATOM      8  C   UNL     1     110.316 121.305 119.869  1.00  0.00     0.094 A 
ATOM      9  C   UNL     1     110.746 120.398 120.841  1.00  0.00     0.336 A 
ATOM     10  O   UNL     1     111.957 120.058 120.891  1.00  0.00    -0.246 OA
ATOM     11  O   UNL     1     109.883 119.890 121.718  1.00  0.00    -0.419 OA
ENDROOT
BRANCH   1  12
ATOM     12  O   UNL     1     104.486 121.200 121.747  1.00  0.00    -0.493 OA
ATOM     13  C   UNL     1     103.952 122.456 122.156  1.00  0.00     0.278 C 
ENDBRANCH   1  12
BRANCH   2  14
ATOM     14  O   UNL     1     105.524 119.402 123.621  1.00  0.00    -0.502 OA
ATOM     15  H   UNL     1     105.876 118.808 124.363  1.00  0.00     0.293 HD
ENDBRANCH   2  14
BRANCH   3  16
ATOM     16  O   UNL     1     108.198 118.740 123.622  1.00  0.00    -0.502 OA
ATOM     17  H   UNL     1     107.649 118.468 124.429  1.00  0.00     0.293 HD
ENDBRANCH   3  16
TORSDOF 3
ENDMDL
MODEL 9
REMARK VINA RESULT:    -4.677      2.536      4.227
REMARK INTER + INTRA:          -5.273
REMARK INTER:                  -5.220
REMARK INTRA:                  -0.053
REMARK UNBOUND:                -0.050
REMARK SMILES COc1cc2ccc(=O)oc2c(O)c1O
REMARK SMILES IDX 3 1 14 2 12 3 11 4 5 5 4 6 6 7 7 8 8 9 9 10 10 11 2 12 1 13
REMARK SMILES IDX 15 14 13 16
REMARK H PARENT 15 15 13 17
REMARK Flexibility Score: inf
ROOT
ATOM      1  C   UNL     1     108.096 122.046 119.146  1.00  0.00     0.165 A 
ATOM      2  C   UNL     1     108.270 123.181 118.330  1.00  0.00     0.204 A 
ATOM      3  C   UNL     1     107.167 123.966 117.961  1.00  0.00     0.205 A 
ATOM      4  C   UNL     1     105.881 123.623 118.406  1.00  0.00     0.184 A 
ATOM      5  C   UNL     1     105.702 122.487 119.223  1.00  0.00     0.025 A 
ATOM      6  C   UNL     1     106.805 121.705 119.590  1.00  0.00     0.062 A 
ATOM      7  C   UNL     1     104.409 122.168 119.651  1.00  0.00     0.020 A 
ATOM      8  C   UNL     1     103.340 122.974 119.263  1.00  0.00     0.094 A 
ATOM      9  C   UNL     1     103.590 124.084 118.451  1.00  0.00     0.336 A 
ATOM     10  O   UNL     1     102.639 124.825 118.088  1.00  0.00    -0.246 OA
ATOM     11  O   UNL     1     104.830 124.365 118.058  1.00  0.00    -0.419 OA
ENDROOT
BRANCH   1  12
ATOM     12  O   UNL     1     109.224 121.286 119.494  1.00  0.00    -0.493 OA
ATOM     13  C   UNL     1     109.254 119.864 119.558  1.00  0.00     0.278 C 
ENDBRANCH   1  12
BRANCH   2  14
ATOM     14  O   UNL     1     109.538 123.546 117.874  1.00  0.00    -0.502 OA
ATOM     15  H   UNL     1     110.299 122.881 117.802  1.00  0.00     0.293 HD
ENDBRANCH   2  14
BRANCH   3  16
ATOM     16  O   UNL     1     107.370 125.084 117.151  1.00  0.00    -0.502 OA
ATOM     17  H   UNL     1     107.557 125.005 116.158  1.00  0.00     0.293 HD
ENDBRANCH   3  16
TORSDOF 3
ENDMDL
