MODEL 1
REMARK VINA RESULT:    -5.408      0.000      0.000
REMARK INTER + INTRA:          -7.350
REMARK INTER:                  -6.830
REMARK INTRA:                  -0.519
REMARK UNBOUND:                -0.519
REMARK SMILES Oc1cc(O)cc(CCc2ccccc2O)c1
REMARK SMILES IDX 9 1 10 2 12 3 13 4 11 5 14 6 15 7 16 8 8 10 7 11 6 12 17 13
REMARK SMILES IDX 4 14 2 15 3 16 5 17 1 19
REMARK H PARENT 16 9 5 18 1 20
REMARK Flexibility Score: inf
ROOT
ATOM      1  C   UNL     1     141.317 128.799 116.179  1.00  0.00     0.044 C 
ENDROOT
BRANCH   1   2
ATOM      2  C   UNL     1     140.351 128.685 115.026  1.00  0.00    -0.006 A 
ATOM      3  C   UNL     1     138.816 127.303 113.733  1.00  0.00     0.001 A 
ATOM      4  C   UNL     1     138.562 128.374 112.877  1.00  0.00     0.004 A 
ATOM      5  C   UNL     1     139.708 127.455 114.798  1.00  0.00     0.007 A 
ATOM      6  C   UNL     1     139.205 129.598 113.079  1.00  0.00     0.046 A 
ATOM      7  C   UNL     1     140.104 129.764 114.138  1.00  0.00     0.118 A 
BRANCH   7   8
ATOM      8  O   UNL     1     140.732 131.005 114.275  1.00  0.00    -0.508 OA
ATOM      9  H   UNL     1     141.736 131.127 114.266  1.00  0.00     0.293 HD
ENDBRANCH   7   8
ENDBRANCH   1   2
BRANCH   1  10
ATOM     10  C   UNL     1     141.871 127.423 116.563  1.00  0.00     0.040 C 
BRANCH  10  11
ATOM     11  C   UNL     1     143.364 127.383 116.380  1.00  0.00    -0.040 A 
ATOM     12  C   UNL     1     143.923 127.487 115.096  1.00  0.00     0.050 A 
ATOM     13  C   UNL     1     144.207 127.182 117.485  1.00  0.00     0.050 A 
ATOM     14  C   UNL     1     145.310 127.417 114.921  1.00  0.00     0.119 A 
ATOM     15  C   UNL     1     145.596 127.109 117.311  1.00  0.00     0.119 A 
ATOM     16  C   UNL     1     146.145 127.231 116.031  1.00  0.00     0.092 A 
BRANCH  14  17
ATOM     17  O   UNL     1     145.847 127.530 113.641  1.00  0.00    -0.508 OA
ATOM     18  H   UNL     1     145.926 126.727 113.027  1.00  0.00     0.293 HD
ENDBRANCH  14  17
BRANCH  15  19
ATOM     19  O   UNL     1     146.438 126.917 118.405  1.00  0.00    -0.508 OA
ATOM     20  H   UNL     1     147.161 127.586 118.642  1.00  0.00     0.293 HD
ENDBRANCH  15  19
ENDBRANCH  10  11
ENDBRANCH   1  10
TORSDOF 6
ENDMDL
MODEL 2
REMARK VINA RESULT:    -5.366      1.610      2.843
REMARK INTER + INTRA:          -7.297
REMARK INTER:                  -6.646
REMARK INTRA:                  -0.651
REMARK UNBOUND:                -0.519
REMARK SMILES Oc1cc(O)cc(CCc2ccccc2O)c1
REMARK SMILES IDX 9 1 10 2 12 3 13 4 11 5 14 6 15 7 16 8 8 10 7 11 6 12 17 13
REMARK SMILES IDX 4 14 2 15 3 16 5 17 1 19
REMARK H PARENT 16 9 5 18 1 20
REMARK Flexibility Score: inf
ROOT
ATOM      1  C   UNL     1     141.591 129.941 115.642  1.00  0.00     0.044 C 
ENDROOT
BRANCH   1   2
ATOM      2  C   UNL     1     140.651 129.057 114.860  1.00  0.00    -0.006 A 
ATOM      3  C   UNL     1     138.841 128.876 113.239  1.00  0.00     0.001 A 
ATOM      4  C   UNL     1     138.838 127.489 113.388  1.00  0.00     0.004 A 
ATOM      5  C   UNL     1     139.737 129.656 113.973  1.00  0.00     0.007 A 
ATOM      6  C   UNL     1     139.727 126.879 114.276  1.00  0.00     0.046 A 
ATOM      7  C   UNL     1     140.628 127.648 115.022  1.00  0.00     0.118 A 
BRANCH   7   8
ATOM      8  O   UNL     1     141.477 126.983 115.910  1.00  0.00    -0.508 OA
ATOM      9  H   UNL     1     142.372 126.596 115.644  1.00  0.00     0.293 HD
ENDBRANCH   7   8
ENDBRANCH   1   2
BRANCH   1  10
ATOM     10  C   UNL     1     142.862 130.231 114.838  1.00  0.00     0.040 C 
BRANCH  10  11
ATOM     11  C   UNL     1     143.954 129.264 115.207  1.00  0.00    -0.040 A 
ATOM     12  C   UNL     1     144.381 129.153 116.541  1.00  0.00     0.050 A 
ATOM     13  C   UNL     1     144.596 128.508 114.212  1.00  0.00     0.050 A 
ATOM     14  C   UNL     1     145.419 128.278 116.880  1.00  0.00     0.119 A 
ATOM     15  C   UNL     1     145.637 127.633 114.551  1.00  0.00     0.119 A 
ATOM     16  C   UNL     1     146.044 127.517 115.884  1.00  0.00     0.092 A 
BRANCH  14  17
ATOM     17  O   UNL     1     145.824 128.176 118.209  1.00  0.00    -0.508 OA
ATOM     18  H   UNL     1     146.149 128.984 118.727  1.00  0.00     0.293 HD
ENDBRANCH  14  17
BRANCH  15  19
ATOM     19  O   UNL     1     146.273 126.875 113.569  1.00  0.00    -0.508 OA
ATOM     20  H   UNL     1     147.276 126.728 113.579  1.00  0.00     0.293 HD
ENDBRANCH  15  19
ENDBRANCH  10  11
ENDBRANCH   1  10
TORSDOF 6
ENDMDL
MODEL 3
REMARK VINA RESULT:    -5.359      3.725      5.995
REMARK INTER + INTRA:          -7.288
REMARK INTER:                  -6.512
REMARK INTRA:                  -0.776
REMARK UNBOUND:                -0.519
REMARK SMILES Oc1cc(O)cc(CCc2ccccc2O)c1
REMARK SMILES IDX 9 1 10 2 12 3 13 4 11 5 14 6 15 7 16 8 8 10 7 11 6 12 17 13
REMARK SMILES IDX 4 14 2 15 3 16 5 17 1 19
REMARK H PARENT 16 9 5 18 1 20
REMARK Flexibility Score: inf
ROOT
ATOM      1  C   UNL     1     145.962 127.953 116.715  1.00  0.00     0.044 C 
ENDROOT
BRANCH   1   2
ATOM      2  C   UNL     1     144.943 127.910 117.827  1.00  0.00    -0.006 A 
ATOM      3  C   UNL     1     142.810 127.076 118.654  1.00  0.00     0.001 A 
ATOM      4  C   UNL     1     142.975 127.801 119.834  1.00  0.00     0.004 A 
ATOM      5  C   UNL     1     143.784 127.132 117.655  1.00  0.00     0.007 A 
ATOM      6  C   UNL     1     144.113 128.592 120.014  1.00  0.00     0.046 A 
ATOM      7  C   UNL     1     145.096 128.663 119.020  1.00  0.00     0.118 A 
BRANCH   7   8
ATOM      8  O   UNL     1     146.200 129.488 119.249  1.00  0.00    -0.508 OA
ATOM      9  H   UNL     1     147.080 129.390 118.762  1.00  0.00     0.293 HD
ENDBRANCH   7   8
ENDBRANCH   1   2
BRANCH   1  10
ATOM     10  C   UNL     1     145.370 128.599 115.458  1.00  0.00     0.040 C 
BRANCH  10  11
ATOM     11  C   UNL     1     145.099 130.060 115.692  1.00  0.00    -0.040 A 
ATOM     12  C   UNL     1     146.127 130.910 116.133  1.00  0.00     0.050 A 
ATOM     13  C   UNL     1     143.802 130.574 115.529  1.00  0.00     0.050 A 
ATOM     14  C   UNL     1     145.868 132.262 116.384  1.00  0.00     0.119 A 
ATOM     15  C   UNL     1     143.541 131.928 115.781  1.00  0.00     0.119 A 
ATOM     16  C   UNL     1     144.574 132.770 116.204  1.00  0.00     0.092 A 
BRANCH  14  17
ATOM     17  O   UNL     1     146.902 133.091 116.813  1.00  0.00    -0.508 OA
ATOM     18  H   UNL     1     146.716 133.988 117.246  1.00  0.00     0.293 HD
ENDBRANCH  14  17
BRANCH  15  19
ATOM     19  O   UNL     1     142.258 132.446 115.614  1.00  0.00    -0.508 OA
ATOM     20  H   UNL     1     141.762 132.360 114.734  1.00  0.00     0.293 HD
ENDBRANCH  15  19
ENDBRANCH  10  11
ENDBRANCH   1  10
TORSDOF 6
ENDMDL
MODEL 4
REMARK VINA RESULT:    -5.349      5.874      7.650
REMARK INTER + INTRA:          -7.275
REMARK INTER:                  -6.911
REMARK INTRA:                  -0.364
REMARK UNBOUND:                -0.519
REMARK SMILES Oc1cc(O)cc(CCc2ccccc2O)c1
REMARK SMILES IDX 9 1 10 2 12 3 13 4 11 5 14 6 15 7 16 8 8 10 7 11 6 12 17 13
REMARK SMILES IDX 4 14 2 15 3 16 5 17 1 19
REMARK H PARENT 16 9 5 18 1 20
REMARK Flexibility Score: inf
ROOT
ATOM      1  C   UNL     1     146.547 131.261 115.733  1.00  0.00     0.044 C 
ENDROOT
BRANCH   1   2
ATOM      2  C   UNL     1     145.991 129.862 115.843  1.00  0.00    -0.006 A 
ATOM      3  C   UNL     1     145.097 127.892 114.725  1.00  0.00     0.001 A 
ATOM      4  C   UNL     1     144.914 127.266 115.958  1.00  0.00     0.004 A 
ATOM      5  C   UNL     1     145.627 129.183 114.666  1.00  0.00     0.007 A 
ATOM      6  C   UNL     1     145.256 127.933 117.137  1.00  0.00     0.046 A 
ATOM      7  C   UNL     1     145.784 129.229 117.095  1.00  0.00     0.118 A 
BRANCH   7   8
ATOM      8  O   UNL     1     146.085 129.852 118.309  1.00  0.00    -0.508 OA
ATOM      9  H   UNL     1     146.994 130.233 118.531  1.00  0.00     0.293 HD
ENDBRANCH   7   8
ENDBRANCH   1   2
BRANCH   1  10
ATOM     10  C   UNL     1     145.433 132.302 115.881  1.00  0.00     0.040 C 
BRANCH  10  11
ATOM     11  C   UNL     1     146.015 133.680 116.049  1.00  0.00    -0.040 A 
ATOM     12  C   UNL     1     146.316 134.171 117.330  1.00  0.00     0.050 A 
ATOM     13  C   UNL     1     146.206 134.508 114.930  1.00  0.00     0.050 A 
ATOM     14  C   UNL     1     146.825 135.465 117.490  1.00  0.00     0.119 A 
ATOM     15  C   UNL     1     146.715 135.805 115.089  1.00  0.00     0.119 A 
ATOM     16  C   UNL     1     147.027 136.278 116.367  1.00  0.00     0.092 A 
BRANCH  14  17
ATOM     17  O   UNL     1     147.125 135.931 118.768  1.00  0.00    -0.508 OA
ATOM     18  H   UNL     1     146.395 136.209 119.414  1.00  0.00     0.293 HD
ENDBRANCH  14  17
BRANCH  15  19
ATOM     19  O   UNL     1     146.914 136.628 113.983  1.00  0.00    -0.508 OA
ATOM     20  H   UNL     1     146.844 136.272 113.037  1.00  0.00     0.293 HD
ENDBRANCH  15  19
ENDBRANCH  10  11
ENDBRANCH   1  10
TORSDOF 6
ENDMDL
MODEL 5
REMARK VINA RESULT:    -5.306      2.001      3.166
REMARK INTER + INTRA:          -7.222
REMARK INTER:                  -6.795
REMARK INTRA:                  -0.426
REMARK UNBOUND:                -0.519
REMARK SMILES Oc1cc(O)cc(CCc2ccccc2O)c1
REMARK SMILES IDX 9 1 10 2 12 3 13 4 11 5 14 6 15 7 16 8 8 10 7 11 6 12 17 13
REMARK SMILES IDX 4 14 2 15 3 16 5 17 1 19
REMARK H PARENT 16 9 5 18 1 20
REMARK Flexibility Score: inf
ROOT
ATOM      1  C   UNL     1     141.076 127.226 116.776  1.00  0.00     0.044 C 
ENDROOT
BRANCH   1   2
ATOM      2  C   UNL     1     139.641 127.220 116.310  1.00  0.00    -0.006 A 
ATOM      3  C   UNL     1     138.059 127.361 114.463  1.00  0.00     0.001 A 
ATOM      4  C   UNL     1     136.994 127.255 115.358  1.00  0.00     0.004 A 
ATOM      5  C   UNL     1     139.374 127.348 114.935  1.00  0.00     0.007 A 
ATOM      6  C   UNL     1     137.241 127.144 116.728  1.00  0.00     0.046 A 
ATOM      7  C   UNL     1     138.553 127.135 117.217  1.00  0.00     0.118 A 
BRANCH   7   8
ATOM      8  O   UNL     1     138.735 127.044 118.599  1.00  0.00    -0.508 OA
ATOM      9  H   UNL     1     137.974 127.036 119.264  1.00  0.00     0.293 HD
ENDBRANCH   7   8
ENDBRANCH   1   2
BRANCH   1  10
ATOM     10  C   UNL     1     141.908 128.223 115.964  1.00  0.00     0.040 C 
BRANCH  10  11
ATOM     11  C   UNL     1     143.358 127.821 115.957  1.00  0.00    -0.040 A 
ATOM     12  C   UNL     1     144.059 127.676 117.166  1.00  0.00     0.050 A 
ATOM     13  C   UNL     1     144.038 127.645 114.741  1.00  0.00     0.050 A 
ATOM     14  C   UNL     1     145.416 127.335 117.161  1.00  0.00     0.119 A 
ATOM     15  C   UNL     1     145.398 127.304 114.734  1.00  0.00     0.119 A 
ATOM     16  C   UNL     1     146.083 127.147 115.943  1.00  0.00     0.092 A 
BRANCH  14  17
ATOM     17  O   UNL     1     146.092 127.189 118.370  1.00  0.00    -0.508 OA
ATOM     18  H   UNL     1     145.598 127.185 119.255  1.00  0.00     0.293 HD
ENDBRANCH  14  17
BRANCH  15  19
ATOM     19  O   UNL     1     146.077 127.122 113.530  1.00  0.00    -0.508 OA
ATOM     20  H   UNL     1     146.010 127.796 112.777  1.00  0.00     0.293 HD
ENDBRANCH  15  19
ENDBRANCH  10  11
ENDBRANCH   1  10
TORSDOF 6
ENDMDL
MODEL 6
REMARK VINA RESULT:    -5.289      1.979      2.416
REMARK INTER + INTRA:          -7.199
REMARK INTER:                  -6.770
REMARK INTRA:                  -0.430
REMARK UNBOUND:                -0.519
REMARK SMILES Oc1cc(O)cc(CCc2ccccc2O)c1
REMARK SMILES IDX 9 1 10 2 12 3 13 4 11 5 14 6 15 7 16 8 8 10 7 11 6 12 17 13
REMARK SMILES IDX 4 14 2 15 3 16 5 17 1 19
REMARK H PARENT 16 9 5 18 1 20
REMARK Flexibility Score: inf
ROOT
ATOM      1  C   UNL     1     141.109 127.283 116.722  1.00  0.00     0.044 C 
ENDROOT
BRANCH   1   2
ATOM      2  C   UNL     1     139.670 127.260 116.267  1.00  0.00    -0.006 A 
ATOM      3  C   UNL     1     138.074 127.373 114.431  1.00  0.00     0.001 A 
ATOM      4  C   UNL     1     137.016 127.263 115.334  1.00  0.00     0.004 A 
ATOM      5  C   UNL     1     139.392 127.376 114.893  1.00  0.00     0.007 A 
ATOM      6  C   UNL     1     137.275 127.162 116.703  1.00  0.00     0.046 A 
ATOM      7  C   UNL     1     138.590 127.169 117.182  1.00  0.00     0.118 A 
BRANCH   7   8
ATOM      8  O   UNL     1     138.783 127.088 118.563  1.00  0.00    -0.508 OA
ATOM      9  H   UNL     1     138.292 127.666 119.231  1.00  0.00     0.293 HD
ENDBRANCH   7   8
ENDBRANCH   1   2
BRANCH   1  10
ATOM     10  C   UNL     1     141.915 128.313 115.926  1.00  0.00     0.040 C 
BRANCH  10  11
ATOM     11  C   UNL     1     143.376 127.953 115.921  1.00  0.00    -0.040 A 
ATOM     12  C   UNL     1     144.044 127.716 114.708  1.00  0.00     0.050 A 
ATOM     13  C   UNL     1     144.069 127.793 117.132  1.00  0.00     0.050 A 
ATOM     14  C   UNL     1     145.394 127.349 114.704  1.00  0.00     0.119 A 
ATOM     15  C   UNL     1     145.422 127.423 117.130  1.00  0.00     0.119 A 
ATOM     16  C   UNL     1     146.082 127.205 115.916  1.00  0.00     0.092 A 
BRANCH  14  17
ATOM     17  O   UNL     1     146.041 127.125 113.491  1.00  0.00    -0.508 OA
ATOM     18  H   UNL     1     146.017 126.220 113.037  1.00  0.00     0.293 HD
ENDBRANCH  14  17
BRANCH  15  19
ATOM     19  O   UNL     1     146.116 127.269 118.328  1.00  0.00    -0.508 OA
ATOM     20  H   UNL     1     147.092 127.531 118.413  1.00  0.00     0.293 HD
ENDBRANCH  15  19
ENDBRANCH  10  11
ENDBRANCH   1  10
TORSDOF 6
ENDMDL
MODEL 7
REMARK VINA RESULT:    -5.287      0.226      2.047
REMARK INTER + INTRA:          -7.197
REMARK INTER:                  -6.674
REMARK INTRA:                  -0.523
REMARK UNBOUND:                -0.519
REMARK SMILES Oc1cc(O)cc(CCc2ccccc2O)c1
REMARK SMILES IDX 9 1 10 2 12 3 13 4 11 5 14 6 15 7 16 8 8 10 7 11 6 12 17 13
REMARK SMILES IDX 4 14 2 15 3 16 5 17 1 19
REMARK H PARENT 16 9 5 18 1 20
REMARK Flexibility Score: inf
ROOT
ATOM      1  C   UNL     1     141.202 128.726 116.293  1.00  0.00     0.044 C 
ENDROOT
BRANCH   1   2
ATOM      2  C   UNL     1     140.279 128.753 115.099  1.00  0.00    -0.006 A 
ATOM      3  C   UNL     1     138.629 127.601 113.727  1.00  0.00     0.001 A 
ATOM      4  C   UNL     1     138.557 128.703 112.875  1.00  0.00     0.004 A 
ATOM      5  C   UNL     1     139.486 127.622 114.830  1.00  0.00     0.007 A 
ATOM      6  C   UNL     1     139.350 129.827 113.119  1.00  0.00     0.046 A 
ATOM      7  C   UNL     1     140.218 129.862 114.217  1.00  0.00     0.118 A 
BRANCH   7   8
ATOM      8  O   UNL     1     141.002 131.005 114.395  1.00  0.00    -0.508 OA
ATOM      9  H   UNL     1     140.765 131.749 115.037  1.00  0.00     0.293 HD
ENDBRANCH   7   8
ENDBRANCH   1   2
BRANCH   1  10
ATOM     10  C   UNL     1     141.785 127.324 116.499  1.00  0.00     0.040 C 
BRANCH  10  11
ATOM     11  C   UNL     1     143.278 127.340 116.320  1.00  0.00    -0.040 A 
ATOM     12  C   UNL     1     144.127 127.264 117.437  1.00  0.00     0.050 A 
ATOM     13  C   UNL     1     143.836 127.489 115.040  1.00  0.00     0.050 A 
ATOM     14  C   UNL     1     145.516 127.313 117.275  1.00  0.00     0.119 A 
ATOM     15  C   UNL     1     145.227 127.539 114.875  1.00  0.00     0.119 A 
ATOM     16  C   UNL     1     146.064 127.447 115.992  1.00  0.00     0.092 A 
BRANCH  14  17
ATOM     17  O   UNL     1     146.341 127.229 118.394  1.00  0.00    -0.508 OA
ATOM     18  H   UNL     1     146.923 128.007 118.682  1.00  0.00     0.293 HD
ENDBRANCH  14  17
BRANCH  15  19
ATOM     19  O   UNL     1     145.787 127.680 113.607  1.00  0.00    -0.508 OA
ATOM     20  H   UNL     1     145.337 127.298 112.783  1.00  0.00     0.293 HD
ENDBRANCH  15  19
ENDBRANCH  10  11
ENDBRANCH   1  10
TORSDOF 6
ENDMDL
MODEL 8
REMARK VINA RESULT:    -5.279      1.863      2.307
REMARK INTER + INTRA:          -7.187
REMARK INTER:                  -6.505
REMARK INTRA:                  -0.682
REMARK UNBOUND:                -0.519
REMARK SMILES Oc1cc(O)cc(CCc2ccccc2O)c1
REMARK SMILES IDX 9 1 10 2 12 3 13 4 11 5 14 6 15 7 16 8 8 10 7 11 6 12 17 13
REMARK SMILES IDX 4 14 2 15 3 16 5 17 1 19
REMARK H PARENT 16 9 5 18 1 20
REMARK Flexibility Score: inf
ROOT
ATOM      1  C   UNL     1     141.309 130.143 115.650  1.00  0.00     0.044 C 
ENDROOT
BRANCH   1   2
ATOM      2  C   UNL     1     140.487 129.150 114.866  1.00  0.00    -0.006 A 
ATOM      3  C   UNL     1     138.739 128.746 113.218  1.00  0.00     0.001 A 
ATOM      4  C   UNL     1     138.887 127.370 113.388  1.00  0.00     0.004 A 
ATOM      5  C   UNL     1     139.530 129.631 113.954  1.00  0.00     0.007 A 
ATOM      6  C   UNL     1     139.821 126.875 114.301  1.00  0.00     0.046 A 
ATOM      7  C   UNL     1     140.617 127.749 115.050  1.00  0.00     0.118 A 
BRANCH   7   8
ATOM      8  O   UNL     1     141.518 127.195 115.963  1.00  0.00    -0.508 OA
ATOM      9  H   UNL     1     141.328 126.358 116.497  1.00  0.00     0.293 HD
ENDBRANCH   7   8
ENDBRANCH   1   2
BRANCH   1  10
ATOM     10  C   UNL     1     142.516 130.616 114.834  1.00  0.00     0.040 C 
BRANCH  10  11
ATOM     11  C   UNL     1     143.750 129.846 115.221  1.00  0.00    -0.040 A 
ATOM     12  C   UNL     1     144.306 128.908 114.335  1.00  0.00     0.050 A 
ATOM     13  C   UNL     1     144.321 130.017 116.492  1.00  0.00     0.050 A 
ATOM     14  C   UNL     1     145.434 128.167 114.706  1.00  0.00     0.119 A 
ATOM     15  C   UNL     1     145.451 129.275 116.866  1.00  0.00     0.119 A 
ATOM     16  C   UNL     1     146.006 128.355 115.972  1.00  0.00     0.092 A 
BRANCH  14  17
ATOM     17  O   UNL     1     145.975 127.246 113.812  1.00  0.00    -0.508 OA
ATOM     18  H   UNL     1     146.304 127.529 112.896  1.00  0.00     0.293 HD
ENDBRANCH  14  17
BRANCH  15  19
ATOM     19  O   UNL     1     146.026 129.445 118.124  1.00  0.00    -0.508 OA
ATOM     20  H   UNL     1     145.512 129.865 118.889  1.00  0.00     0.293 HD
ENDBRANCH  15  19
ENDBRANCH  10  11
ENDBRANCH   1  10
TORSDOF 6
ENDMDL
MODEL 9
REMARK VINA RESULT:    -5.185      1.978      2.376
REMARK INTER + INTRA:          -7.069
REMARK INTER:                  -6.647
REMARK INTRA:                  -0.422
REMARK UNBOUND:                -0.519
REMARK SMILES Oc1cc(O)cc(CCc2ccccc2O)c1
REMARK SMILES IDX 9 1 10 2 12 3 13 4 11 5 14 6 15 7 16 8 8 10 7 11 6 12 17 13
REMARK SMILES IDX 4 14 2 15 3 16 5 17 1 19
REMARK H PARENT 16 9 5 18 1 20
REMARK Flexibility Score: inf
ROOT
ATOM      1  C   UNL     1     141.142 127.290 115.235  1.00  0.00     0.044 C 
ENDROOT
BRANCH   1   2
ATOM      2  C   UNL     1     139.676 127.290 115.594  1.00  0.00    -0.006 A 
ATOM      3  C   UNL     1     137.965 127.224 117.326  1.00  0.00     0.001 A 
ATOM      4  C   UNL     1     136.967 127.251 116.352  1.00  0.00     0.004 A 
ATOM      5  C   UNL     1     139.311 127.240 116.951  1.00  0.00     0.007 A 
ATOM      6  C   UNL     1     137.313 127.284 114.999  1.00  0.00     0.046 A 
ATOM      7  C   UNL     1     138.657 127.295 114.607  1.00  0.00     0.118 A 
BRANCH   7   8
ATOM      8  O   UNL     1     138.940 127.307 113.239  1.00  0.00    -0.508 OA
ATOM      9  H   UNL     1     138.976 128.150 112.683  1.00  0.00     0.293 HD
ENDBRANCH   7   8
ENDBRANCH   1   2
BRANCH   1  10
ATOM     10  C   UNL     1     142.011 127.257 116.496  1.00  0.00     0.040 C 
BRANCH  10  11
ATOM     11  C   UNL     1     143.399 127.754 116.195  1.00  0.00    -0.040 A 
ATOM     12  C   UNL     1     144.036 127.394 114.996  1.00  0.00     0.050 A 
ATOM     13  C   UNL     1     144.091 128.533 117.137  1.00  0.00     0.050 A 
ATOM     14  C   UNL     1     145.340 127.828 114.730  1.00  0.00     0.119 A 
ATOM     15  C   UNL     1     145.398 128.967 116.872  1.00  0.00     0.119 A 
ATOM     16  C   UNL     1     146.018 128.617 115.669  1.00  0.00     0.092 A 
BRANCH  14  17
ATOM     17  O   UNL     1     145.952 127.468 113.532  1.00  0.00    -0.508 OA
ATOM     18  H   UNL     1     145.420 127.086 112.759  1.00  0.00     0.293 HD
ENDBRANCH  14  17
BRANCH  15  19
ATOM     19  O   UNL     1     146.087 129.746 117.800  1.00  0.00    -0.508 OA
ATOM     20  H   UNL     1     145.867 129.712 118.788  1.00  0.00     0.293 HD
ENDBRANCH  15  19
ENDBRANCH  10  11
ENDBRANCH   1  10
TORSDOF 6
ENDMDL
