MODEL 1
REMARK VINA RESULT:    -3.692      0.000      0.000
REMARK INTER + INTRA:          -4.519
REMARK INTER:                  -4.447
REMARK INTRA:                  -0.072
REMARK UNBOUND:                -0.072
REMARK SMILES CC[C@@H](C)[C@H]([NH3+])C(=O)[O-]
REMARK SMILES IDX 3 1 4 2 5 3 6 4 7 8 8 9 9 10 2 11 1 12
REMARK H PARENT 6 5 6 6 6 7
REMARK Flexibility Score: inf
ROOT
ATOM      1  C   UNL     1     -23.469  -7.384  15.301  1.00  0.00     0.050 C 
ATOM      2  C   UNL     1     -22.844  -8.791  15.227  1.00  0.00     0.014 C 
ENDROOT
BRANCH   1   3
ATOM      3  C   UNL     1     -22.366  -6.314  15.576  1.00  0.00     0.230 C 
BRANCH   3   4
ATOM      4  N   UNL     1     -21.159  -6.907  16.167  1.00  0.00    -0.350 N 
ATOM      5  H   UNL     1     -20.888  -7.770  15.643  1.00  0.00     0.345 HD
ATOM      6  H   UNL     1     -20.367  -6.226  16.098  1.00  0.00     0.345 HD
ATOM      7  H   UNL     1     -21.297  -7.148  17.174  1.00  0.00     0.345 HD
ENDBRANCH   3   4
BRANCH   3   8
ATOM      8  C   UNL     1     -22.870  -5.170  16.424  1.00  0.00     0.099 C 
ATOM      9  O   UNL     1     -22.634  -5.153  17.661  1.00  0.00    -0.544 OA
ATOM     10  O   UNL     1     -23.563  -4.112  15.848  1.00  0.00    -0.544 OA
ENDBRANCH   3   8
ENDBRANCH   1   3
BRANCH   1  11
ATOM     11  C   UNL     1     -24.313  -7.080  14.035  1.00  0.00     0.006 C 
ATOM     12  C   UNL     1     -25.798  -7.392  14.222  1.00  0.00     0.004 C 
ENDBRANCH   1  11
TORSDOF 4
ENDMDL
MODEL 2
REMARK VINA RESULT:    -3.589      3.425      4.434
REMARK INTER + INTRA:          -4.396
REMARK INTER:                  -4.293
REMARK INTRA:                  -0.103
REMARK UNBOUND:                -0.072
REMARK SMILES CC[C@@H](C)[C@H]([NH3+])C(=O)[O-]
REMARK SMILES IDX 3 1 4 2 5 3 6 4 7 8 8 9 9 10 2 11 1 12
REMARK H PARENT 6 5 6 6 6 7
REMARK Flexibility Score: inf
ROOT
ATOM      1  C   UNL     1     -25.013  -6.837  13.493  1.00  0.00     0.050 C 
ATOM      2  C   UNL     1     -24.594  -7.021  12.021  1.00  0.00     0.014 C 
ENDROOT
BRANCH   1   3
ATOM      3  C   UNL     1     -26.520  -7.201  13.678  1.00  0.00     0.230 C 
BRANCH   3   4
ATOM      4  N   UNL     1     -27.400  -6.309  12.909  1.00  0.00    -0.350 N 
ATOM      5  H   UNL     1     -26.843  -5.775  12.203  1.00  0.00     0.345 HD
ATOM      6  H   UNL     1     -28.109  -6.881  12.394  1.00  0.00     0.345 HD
ATOM      7  H   UNL     1     -27.907  -5.635  13.526  1.00  0.00     0.345 HD
ENDBRANCH   3   4
BRANCH   3   8
ATOM      8  C   UNL     1     -26.932  -7.235  15.131  1.00  0.00     0.099 C 
ATOM      9  O   UNL     1     -27.457  -8.273  15.612  1.00  0.00    -0.544 OA
ATOM     10  O   UNL     1     -26.706  -6.140  15.957  1.00  0.00    -0.544 OA
ENDBRANCH   3   8
ENDBRANCH   1   3
BRANCH   1  11
ATOM     11  C   UNL     1     -24.074  -7.625  14.445  1.00  0.00     0.006 C 
ATOM     12  C   UNL     1     -23.084  -6.723  15.183  1.00  0.00     0.004 C 
ENDBRANCH   1  11
TORSDOF 4
ENDMDL
MODEL 3
REMARK VINA RESULT:    -3.565      3.418      4.329
REMARK INTER + INTRA:          -4.366
REMARK INTER:                  -4.317
REMARK INTRA:                  -0.049
REMARK UNBOUND:                -0.072
REMARK SMILES CC[C@@H](C)[C@H]([NH3+])C(=O)[O-]
REMARK SMILES IDX 3 1 4 2 5 3 6 4 7 8 8 9 9 10 2 11 1 12
REMARK H PARENT 6 5 6 6 6 7
REMARK Flexibility Score: inf
ROOT
ATOM      1  C   UNL     1     -24.555  -6.358  15.727  1.00  0.00     0.050 C 
ATOM      2  C   UNL     1     -24.168  -4.947  16.211  1.00  0.00     0.014 C 
ENDROOT
BRANCH   1   3
ATOM      3  C   UNL     1     -26.005  -6.356  15.149  1.00  0.00     0.230 C 
BRANCH   3   4
ATOM      4  N   UNL     1     -27.019  -6.248  16.209  1.00  0.00    -0.350 N 
ATOM      5  H   UNL     1     -26.604  -5.803  17.060  1.00  0.00     0.345 HD
ATOM      6  H   UNL     1     -27.804  -5.640  15.878  1.00  0.00     0.345 HD
ATOM      7  H   UNL     1     -27.413  -7.180  16.467  1.00  0.00     0.345 HD
ENDBRANCH   3   4
BRANCH   3   8
ATOM      8  C   UNL     1     -26.279  -7.552  14.269  1.00  0.00     0.099 C 
ATOM      9  O   UNL     1     -26.398  -8.696  14.781  1.00  0.00    -0.544 OA
ATOM     10  O   UNL     1     -26.436  -7.400  12.897  1.00  0.00    -0.544 OA
ENDBRANCH   3   8
ENDBRANCH   1   3
BRANCH   1  11
ATOM     11  C   UNL     1     -23.503  -6.915  14.731  1.00  0.00     0.006 C 
ATOM     12  C   UNL     1     -22.162  -7.227  15.397  1.00  0.00     0.004 C 
ENDBRANCH   1  11
TORSDOF 4
ENDMDL
MODEL 4
REMARK VINA RESULT:    -3.542      1.815      2.210
REMARK INTER + INTRA:          -4.339
REMARK INTER:                  -4.215
REMARK INTRA:                  -0.124
REMARK UNBOUND:                -0.072
REMARK SMILES CC[C@@H](C)[C@H]([NH3+])C(=O)[O-]
REMARK SMILES IDX 3 1 4 2 5 3 6 4 7 8 8 9 9 10 2 11 1 12
REMARK H PARENT 6 5 6 6 6 7
REMARK Flexibility Score: inf
ROOT
ATOM      1  C   UNL     1     -23.584  -6.610  15.525  1.00  0.00     0.050 C 
ATOM      2  C   UNL     1     -22.048  -6.735  15.547  1.00  0.00     0.014 C 
ENDROOT
BRANCH   1   3
ATOM      3  C   UNL     1     -24.017  -5.156  15.893  1.00  0.00     0.230 C 
BRANCH   3   4
ATOM      4  N   UNL     1     -22.865  -4.246  15.985  1.00  0.00    -0.350 N 
ATOM      5  H   UNL     1     -22.876  -3.571  15.187  1.00  0.00     0.345 HD
ATOM      6  H   UNL     1     -22.926  -3.697  16.873  1.00  0.00     0.345 HD
ATOM      7  H   UNL     1     -21.959  -4.765  15.982  1.00  0.00     0.345 HD
ENDBRANCH   3   4
BRANCH   3   8
ATOM      8  C   UNL     1     -24.842  -5.101  17.157  1.00  0.00     0.099 C 
ATOM      9  O   UNL     1     -26.081  -5.320  17.109  1.00  0.00    -0.544 OA
ATOM     10  O   UNL     1     -24.242  -4.846  18.384  1.00  0.00    -0.544 OA
ENDBRANCH   3   8
ENDBRANCH   1   3
BRANCH   1  11
ATOM     11  C   UNL     1     -24.165  -7.093  14.169  1.00  0.00     0.006 C 
ATOM     12  C   UNL     1     -25.648  -7.454  14.252  1.00  0.00     0.004 C 
ENDBRANCH   1  11
TORSDOF 4
ENDMDL
MODEL 5
REMARK VINA RESULT:    -3.419      1.817      2.660
REMARK INTER + INTRA:          -4.191
REMARK INTER:                  -4.095
REMARK INTRA:                  -0.096
REMARK UNBOUND:                -0.072
REMARK SMILES CC[C@@H](C)[C@H]([NH3+])C(=O)[O-]
REMARK SMILES IDX 3 1 4 2 5 3 6 4 7 8 8 9 9 10 2 11 1 12
REMARK H PARENT 6 5 6 6 6 7
REMARK Flexibility Score: inf
ROOT
ATOM      1  C   UNL     1     -24.213  -6.607  14.878  1.00  0.00     0.050 C 
ATOM      2  C   UNL     1     -25.438  -7.468  14.516  1.00  0.00     0.014 C 
ENDROOT
BRANCH   1   3
ATOM      3  C   UNL     1     -24.461  -5.843  16.217  1.00  0.00     0.230 C 
BRANCH   3   4
ATOM      4  N   UNL     1     -25.787  -5.210  16.251  1.00  0.00    -0.350 N 
ATOM      5  H   UNL     1     -26.473  -5.836  16.730  1.00  0.00     0.345 HD
ATOM      6  H   UNL     1     -25.731  -4.317  16.794  1.00  0.00     0.345 HD
ATOM      7  H   UNL     1     -26.137  -4.988  15.292  1.00  0.00     0.345 HD
ENDBRANCH   3   4
BRANCH   3   8
ATOM      8  C   UNL     1     -23.378  -4.834  16.515  1.00  0.00     0.099 C 
ATOM      9  O   UNL     1     -23.242  -3.821  15.779  1.00  0.00    -0.544 OA
ATOM     10  O   UNL     1     -22.548  -4.991  17.619  1.00  0.00    -0.544 OA
ENDBRANCH   3   8
ENDBRANCH   1   3
BRANCH   1  11
ATOM     11  C   UNL     1     -22.916  -7.458  14.892  1.00  0.00     0.006 C 
ATOM     12  C   UNL     1     -23.176  -8.933  15.204  1.00  0.00     0.004 C 
ENDBRANCH   1  11
TORSDOF 4
ENDMDL
MODEL 6
REMARK VINA RESULT:    -3.410      3.230      4.014
REMARK INTER + INTRA:          -4.180
REMARK INTER:                  -4.275
REMARK INTRA:                   0.094
REMARK UNBOUND:                -0.072
REMARK SMILES CC[C@@H](C)[C@H]([NH3+])C(=O)[O-]
REMARK SMILES IDX 3 1 4 2 5 3 6 4 7 8 8 9 9 10 2 11 1 12
REMARK H PARENT 6 5 6 6 6 7
REMARK Flexibility Score: inf
ROOT
ATOM      1  C   UNL     1     -23.964  -6.644  14.581  1.00  0.00     0.050 C 
ATOM      2  C   UNL     1     -22.914  -7.646  15.099  1.00  0.00     0.014 C 
ENDROOT
BRANCH   1   3
ATOM      3  C   UNL     1     -25.017  -7.372  13.687  1.00  0.00     0.230 C 
BRANCH   3   4
ATOM      4  N   UNL     1     -25.295  -6.628  12.450  1.00  0.00    -0.350 N 
ATOM      5  H   UNL     1     -24.424  -6.163  12.106  1.00  0.00     0.345 HD
ATOM      6  H   UNL     1     -25.618  -7.295  11.710  1.00  0.00     0.345 HD
ATOM      7  H   UNL     1     -26.037  -5.907  12.588  1.00  0.00     0.345 HD
ENDBRANCH   3   4
BRANCH   3   8
ATOM      8  C   UNL     1     -26.297  -7.672  14.429  1.00  0.00     0.099 C 
ATOM      9  O   UNL     1     -26.437  -8.774  15.022  1.00  0.00    -0.544 OA
ATOM     10  O   UNL     1     -27.315  -6.728  14.496  1.00  0.00    -0.544 OA
ENDBRANCH   3   8
ENDBRANCH   1   3
BRANCH   1  11
ATOM     11  C   UNL     1     -24.603  -5.850  15.752  1.00  0.00     0.006 C 
ATOM     12  C   UNL     1     -23.636  -4.854  16.393  1.00  0.00     0.004 C 
ENDBRANCH   1  11
TORSDOF 4
ENDMDL
MODEL 7
REMARK VINA RESULT:    -3.355      1.852      2.543
REMARK INTER + INTRA:          -4.114
REMARK INTER:                  -3.986
REMARK INTRA:                  -0.128
REMARK UNBOUND:                -0.072
REMARK SMILES CC[C@@H](C)[C@H]([NH3+])C(=O)[O-]
REMARK SMILES IDX 3 1 4 2 5 3 6 4 7 8 8 9 9 10 2 11 1 12
REMARK H PARENT 6 5 6 6 6 7
REMARK Flexibility Score: inf
ROOT
ATOM      1  C   UNL     1     -25.909  -7.359  14.280  1.00  0.00     0.050 C 
ATOM      2  C   UNL     1     -26.266  -8.769  14.791  1.00  0.00     0.014 C 
ENDROOT
BRANCH   1   3
ATOM      3  C   UNL     1     -24.385  -7.082  14.470  1.00  0.00     0.230 C 
BRANCH   3   4
ATOM      4  N   UNL     1     -23.632  -8.313  14.749  1.00  0.00    -0.350 N 
ATOM      5  H   UNL     1     -22.610  -8.152  14.599  1.00  0.00     0.345 HD
ATOM      6  H   UNL     1     -23.773  -8.587  15.749  1.00  0.00     0.345 HD
ATOM      7  H   UNL     1     -23.946  -9.106  14.145  1.00  0.00     0.345 HD
ENDBRANCH   3   4
BRANCH   3   8
ATOM      8  C   UNL     1     -24.115  -6.039  15.528  1.00  0.00     0.099 C 
ATOM      9  O   UNL     1     -22.929  -5.715  15.804  1.00  0.00    -0.544 OA
ATOM     10  O   UNL     1     -25.164  -5.404  16.181  1.00  0.00    -0.544 OA
ENDBRANCH   3   8
ENDBRANCH   1   3
BRANCH   1  11
ATOM     11  C   UNL     1     -26.389  -7.157  12.818  1.00  0.00     0.006 C 
ATOM     12  C   UNL     1     -25.249  -6.801  11.862  1.00  0.00     0.004 C 
ENDBRANCH   1  11
TORSDOF 4
ENDMDL
MODEL 8
REMARK VINA RESULT:    -3.319      2.169      2.823
REMARK INTER + INTRA:          -4.071
REMARK INTER:                  -4.003
REMARK INTRA:                  -0.067
REMARK UNBOUND:                -0.072
REMARK SMILES CC[C@@H](C)[C@H]([NH3+])C(=O)[O-]
REMARK SMILES IDX 3 1 4 2 5 3 6 4 7 8 8 9 9 10 2 11 1 12
REMARK H PARENT 6 5 6 6 6 7
REMARK Flexibility Score: inf
ROOT
ATOM      1  C   UNL     1     -24.634  -7.543  14.216  1.00  0.00     0.050 C 
ATOM      2  C   UNL     1     -24.763  -6.752  12.900  1.00  0.00     0.014 C 
ENDROOT
BRANCH   1   3
ATOM      3  C   UNL     1     -23.782  -6.743  15.250  1.00  0.00     0.230 C 
BRANCH   3   4
ATOM      4  N   UNL     1     -23.637  -5.331  14.868  1.00  0.00    -0.350 N 
ATOM      5  H   UNL     1     -24.566  -4.851  14.907  1.00  0.00     0.345 HD
ATOM      6  H   UNL     1     -22.999  -4.852  15.545  1.00  0.00     0.345 HD
ATOM      7  H   UNL     1     -23.237  -5.226  13.909  1.00  0.00     0.345 HD
ENDBRANCH   3   4
BRANCH   3   8
ATOM      8  C   UNL     1     -22.430  -7.371  15.495  1.00  0.00     0.099 C 
ATOM      9  O   UNL     1     -21.439  -6.644  15.770  1.00  0.00    -0.544 OA
ATOM     10  O   UNL     1     -22.273  -8.751  15.454  1.00  0.00    -0.544 OA
ENDBRANCH   3   8
ENDBRANCH   1   3
BRANCH   1  11
ATOM     11  C   UNL     1     -26.029  -7.951  14.761  1.00  0.00     0.006 C 
ATOM     12  C   UNL     1     -26.834  -6.760  15.285  1.00  0.00     0.004 C 
ENDBRANCH   1  11
TORSDOF 4
ENDMDL
MODEL 9
REMARK VINA RESULT:    -3.281      2.943      3.647
REMARK INTER + INTRA:          -4.024
REMARK INTER:                  -3.978
REMARK INTRA:                  -0.046
REMARK UNBOUND:                -0.072
REMARK SMILES CC[C@@H](C)[C@H]([NH3+])C(=O)[O-]
REMARK SMILES IDX 3 1 4 2 5 3 6 4 7 8 8 9 9 10 2 11 1 12
REMARK H PARENT 6 5 6 6 6 7
REMARK Flexibility Score: inf
ROOT
ATOM      1  C   UNL     1     -23.662  -6.150  15.134  1.00  0.00     0.050 C 
ATOM      2  C   UNL     1     -22.277  -6.632  15.607  1.00  0.00     0.014 C 
ENDROOT
BRANCH   1   3
ATOM      3  C   UNL     1     -24.576  -7.370  14.795  1.00  0.00     0.230 C 
BRANCH   3   4
ATOM      4  N   UNL     1     -23.831  -8.637  14.819  1.00  0.00    -0.350 N 
ATOM      5  H   UNL     1     -24.076  -9.214  13.981  1.00  0.00     0.345 HD
ATOM      6  H   UNL     1     -22.805  -8.438  14.784  1.00  0.00     0.345 HD
ATOM      7  H   UNL     1     -24.029  -9.189  15.684  1.00  0.00     0.345 HD
ENDBRANCH   3   4
BRANCH   3   8
ATOM      8  C   UNL     1     -25.302  -7.201  13.482  1.00  0.00     0.099 C 
ATOM      9  O   UNL     1     -26.545  -7.390  13.422  1.00  0.00    -0.544 OA
ATOM     10  O   UNL     1     -24.617  -6.803  12.340  1.00  0.00    -0.544 OA
ENDBRANCH   3   8
ENDBRANCH   1   3
BRANCH   1  11
ATOM     11  C   UNL     1     -24.298  -5.180  16.165  1.00  0.00     0.006 C 
ATOM     12  C   UNL     1     -25.740  -5.549  16.518  1.00  0.00     0.004 C 
ENDBRANCH   1  11
TORSDOF 4
ENDMDL
