MODEL 1
REMARK VINA RESULT:    -4.717      0.000      0.000
REMARK INTER + INTRA:          -5.338
REMARK INTER:                  -5.269
REMARK INTRA:                  -0.069
REMARK UNBOUND:                -0.069
REMARK SMILES COc1cc2ccc(=O)oc2c(O)c1O
REMARK SMILES IDX 3 1 14 2 12 3 11 4 5 5 4 6 6 7 7 8 8 9 9 10 10 11 2 12 1 13
REMARK SMILES IDX 15 14 13 16
REMARK H PARENT 15 15 13 17
REMARK Flexibility Score: inf
ROOT
ATOM      1  C   UNL     1      -5.018  87.797  -8.883  1.00  0.00     0.165 A 
ATOM      2  C   UNL     1      -3.720  87.565  -8.388  1.00  0.00     0.204 A 
ATOM      3  C   UNL     1      -3.164  86.279  -8.427  1.00  0.00     0.205 A 
ATOM      4  C   UNL     1      -3.901  85.210  -8.961  1.00  0.00     0.184 A 
ATOM      5  C   UNL     1      -5.203  85.437  -9.457  1.00  0.00     0.025 A 
ATOM      6  C   UNL     1      -5.755  86.723  -9.417  1.00  0.00     0.062 A 
ATOM      7  C   UNL     1      -5.915  84.354  -9.984  1.00  0.00     0.020 A 
ATOM      8  C   UNL     1      -5.327  83.092 -10.004  1.00  0.00     0.094 A 
ATOM      9  C   UNL     1      -4.034  82.939  -9.496  1.00  0.00     0.336 A 
ATOM     10  O   UNL     1      -3.484  81.808  -9.503  1.00  0.00    -0.246 OA
ATOM     11  O   UNL     1      -3.379  83.986  -9.001  1.00  0.00    -0.419 OA
ENDROOT
BRANCH   1  12
ATOM     12  O   UNL     1      -5.540  89.099  -8.826  1.00  0.00    -0.493 OA
ATOM     13  C   UNL     1      -5.584  90.003  -9.926  1.00  0.00     0.278 C 
ENDBRANCH   1  12
BRANCH   2  14
ATOM     14  O   UNL     1      -2.965  88.610  -7.852  1.00  0.00    -0.502 OA
ATOM     15  H   UNL     1      -2.342  89.174  -8.417  1.00  0.00     0.293 HD
ENDBRANCH   2  14
BRANCH   3  16
ATOM     16  O   UNL     1      -1.875  86.080  -7.929  1.00  0.00    -0.502 OA
ATOM     17  H   UNL     1      -1.486  86.656  -7.192  1.00  0.00     0.293 HD
ENDBRANCH   3  16
TORSDOF 3
ENDMDL
MODEL 2
REMARK VINA RESULT:    -4.538      7.949      9.423
REMARK INTER + INTRA:          -5.138
REMARK INTER:                  -5.082
REMARK INTRA:                  -0.056
REMARK UNBOUND:                -0.069
REMARK SMILES COc1cc2ccc(=O)oc2c(O)c1O
REMARK SMILES IDX 3 1 14 2 12 3 11 4 5 5 4 6 6 7 7 8 8 9 9 10 10 11 2 12 1 13
REMARK SMILES IDX 15 14 13 16
REMARK H PARENT 15 15 13 17
REMARK Flexibility Score: inf
ROOT
ATOM      1  C   UNL     1     -11.536  83.193  -8.135  1.00  0.00     0.165 A 
ATOM      2  C   UNL     1     -12.855  83.679  -8.213  1.00  0.00     0.204 A 
ATOM      3  C   UNL     1     -13.606  83.511  -9.385  1.00  0.00     0.205 A 
ATOM      4  C   UNL     1     -13.044  82.856 -10.492  1.00  0.00     0.184 A 
ATOM      5  C   UNL     1     -11.722  82.366 -10.419  1.00  0.00     0.025 A 
ATOM      6  C   UNL     1     -10.975  82.535  -9.247  1.00  0.00     0.062 A 
ATOM      7  C   UNL     1     -11.188  81.717 -11.537  1.00  0.00     0.020 A 
ATOM      8  C   UNL     1     -11.968  81.570 -12.683  1.00  0.00     0.094 A 
ATOM      9  C   UNL     1     -13.269  82.079 -12.685  1.00  0.00     0.336 A 
ATOM     10  O   UNL     1     -13.990  81.959 -13.709  1.00  0.00    -0.246 OA
ATOM     11  O   UNL     1     -13.753  82.693 -11.608  1.00  0.00    -0.419 OA
ENDROOT
BRANCH   1  12
ATOM     12  O   UNL     1     -10.815  83.380  -6.945  1.00  0.00    -0.493 OA
ATOM     13  C   UNL     1      -9.477  83.865  -6.875  1.00  0.00     0.278 C 
ENDBRANCH   1  12
BRANCH   2  14
ATOM     14  O   UNL     1     -13.437  84.334  -7.127  1.00  0.00    -0.502 OA
ATOM     15  H   UNL     1     -12.952  84.465  -6.248  1.00  0.00     0.293 HD
ENDBRANCH   2  14
BRANCH   3  16
ATOM     16  O   UNL     1     -14.911  84.004  -9.432  1.00  0.00    -0.502 OA
ATOM     17  H   UNL     1     -15.353  84.441  -8.631  1.00  0.00     0.293 HD
ENDBRANCH   3  16
TORSDOF 3
ENDMDL
MODEL 3
REMARK VINA RESULT:    -4.499      1.608      5.438
REMARK INTER + INTRA:          -5.095
REMARK INTER:                  -5.039
REMARK INTRA:                  -0.056
REMARK UNBOUND:                -0.069
REMARK SMILES COc1cc2ccc(=O)oc2c(O)c1O
REMARK SMILES IDX 3 1 14 2 12 3 11 4 5 5 4 6 6 7 7 8 8 9 9 10 10 11 2 12 1 13
REMARK SMILES IDX 15 14 13 16
REMARK H PARENT 15 15 13 17
REMARK Flexibility Score: inf
ROOT
ATOM      1  C   UNL     1      -3.762  83.451  -9.155  1.00  0.00     0.165 A 
ATOM      2  C   UNL     1      -5.003  83.809  -9.715  1.00  0.00     0.204 A 
ATOM      3  C   UNL     1      -5.436  85.142  -9.691  1.00  0.00     0.205 A 
ATOM      4  C   UNL     1      -4.631  86.132  -9.105  1.00  0.00     0.184 A 
ATOM      5  C   UNL     1      -3.385  85.778  -8.541  1.00  0.00     0.025 A 
ATOM      6  C   UNL     1      -2.956  84.446  -8.568  1.00  0.00     0.062 A 
ATOM      7  C   UNL     1      -2.604  86.784  -7.964  1.00  0.00     0.020 A 
ATOM      8  C   UNL     1      -3.070  88.097  -7.961  1.00  0.00     0.094 A 
ATOM      9  C   UNL     1      -4.312  88.376  -8.536  1.00  0.00     0.336 A 
ATOM     10  O   UNL     1      -4.753  89.555  -8.543  1.00  0.00    -0.246 OA
ATOM     11  O   UNL     1      -5.036  87.400  -9.079  1.00  0.00    -0.419 OA
ENDROOT
BRANCH   1  12
ATOM     12  O   UNL     1      -3.364  82.105  -9.199  1.00  0.00    -0.493 OA
ATOM     13  C   UNL     1      -2.831  81.382  -8.093  1.00  0.00     0.278 C 
ENDBRANCH   1  12
BRANCH   2  14
ATOM     14  O   UNL     1      -5.823  82.846 -10.305  1.00  0.00    -0.502 OA
ATOM     15  H   UNL     1      -6.610  83.090 -10.894  1.00  0.00     0.293 HD
ENDBRANCH   2  14
BRANCH   3  16
ATOM     16  O   UNL     1      -6.671  85.467 -10.254  1.00  0.00    -0.502 OA
ATOM     17  H   UNL     1      -7.525  85.486  -9.709  1.00  0.00     0.293 HD
ENDBRANCH   3  16
TORSDOF 3
ENDMDL
MODEL 4
REMARK VINA RESULT:    -4.266      9.415     11.617
REMARK INTER + INTRA:          -4.834
REMARK INTER:                  -4.765
REMARK INTRA:                  -0.069
REMARK UNBOUND:                -0.069
REMARK SMILES COc1cc2ccc(=O)oc2c(O)c1O
REMARK SMILES IDX 3 1 14 2 12 3 11 4 5 5 4 6 6 7 7 8 8 9 9 10 10 11 2 12 1 13
REMARK SMILES IDX 15 14 13 16
REMARK H PARENT 15 15 13 17
REMARK Flexibility Score: inf
ROOT
ATOM      1  C   UNL     1      -3.399  93.628 -19.291  1.00  0.00     0.165 A 
ATOM      2  C   UNL     1      -4.589  93.060 -19.785  1.00  0.00     0.204 A 
ATOM      3  C   UNL     1      -5.330  92.168 -18.998  1.00  0.00     0.205 A 
ATOM      4  C   UNL     1      -4.888  91.835 -17.707  1.00  0.00     0.184 A 
ATOM      5  C   UNL     1      -3.696  92.401 -17.207  1.00  0.00     0.025 A 
ATOM      6  C   UNL     1      -2.958  93.292 -17.996  1.00  0.00     0.062 A 
ATOM      7  C   UNL     1      -3.280  92.052 -15.919  1.00  0.00     0.020 A 
ATOM      8  C   UNL     1      -4.045  91.162 -15.168  1.00  0.00     0.094 A 
ATOM      9  C   UNL     1      -5.215  90.639 -15.726  1.00  0.00     0.336 A 
ATOM     10  O   UNL     1      -5.921  89.833 -15.067  1.00  0.00    -0.246 OA
ATOM     11  O   UNL     1      -5.589  90.988 -16.954  1.00  0.00    -0.419 OA
ENDROOT
BRANCH   1  12
ATOM     12  O   UNL     1      -2.684  94.517 -20.109  1.00  0.00    -0.493 OA
ATOM     13  C   UNL     1      -2.765  95.937 -20.028  1.00  0.00     0.278 C 
ENDBRANCH   1  12
BRANCH   2  14
ATOM     14  O   UNL     1      -5.051  93.374 -21.064  1.00  0.00    -0.502 OA
ATOM     15  H   UNL     1      -4.472  93.844 -21.749  1.00  0.00     0.293 HD
ENDBRANCH   2  14
BRANCH   3  16
ATOM     16  O   UNL     1      -6.505  91.620 -19.514  1.00  0.00    -0.502 OA
ATOM     17  H   UNL     1      -6.572  90.648 -19.793  1.00  0.00     0.293 HD
ENDBRANCH   3  16
TORSDOF 3
ENDMDL
MODEL 5
REMARK VINA RESULT:    -4.256      6.642      8.894
REMARK INTER + INTRA:          -4.823
REMARK INTER:                  -4.757
REMARK INTRA:                  -0.066
REMARK UNBOUND:                -0.069
REMARK SMILES COc1cc2ccc(=O)oc2c(O)c1O
REMARK SMILES IDX 3 1 14 2 12 3 11 4 5 5 4 6 6 7 7 8 8 9 9 10 10 11 2 12 1 13
REMARK SMILES IDX 15 14 13 16
REMARK H PARENT 15 15 13 17
REMARK Flexibility Score: inf
ROOT
ATOM      1  C   UNL     1      -5.540  91.481 -16.920  1.00  0.00     0.165 A 
ATOM      2  C   UNL     1      -4.203  91.122 -16.662  1.00  0.00     0.204 A 
ATOM      3  C   UNL     1      -3.731  91.040 -15.345  1.00  0.00     0.205 A 
ATOM      4  C   UNL     1      -4.591  91.317 -14.271  1.00  0.00     0.184 A 
ATOM      5  C   UNL     1      -5.933  91.678 -14.524  1.00  0.00     0.025 A 
ATOM      6  C   UNL     1      -6.401  91.759 -15.841  1.00  0.00     0.062 A 
ATOM      7  C   UNL     1      -6.768  91.948 -13.435  1.00  0.00     0.020 A 
ATOM      8  C   UNL     1      -6.260  91.855 -12.141  1.00  0.00     0.094 A 
ATOM      9  C   UNL     1      -4.922  91.492 -11.964  1.00  0.00     0.336 A 
ATOM     10  O   UNL     1      -4.442  91.403 -10.805  1.00  0.00    -0.246 OA
ATOM     11  O   UNL     1      -4.149  91.240 -13.017  1.00  0.00    -0.419 OA
ENDROOT
BRANCH   1  12
ATOM     12  O   UNL     1      -5.976  91.553 -18.253  1.00  0.00    -0.493 OA
ATOM     13  C   UNL     1      -6.013  92.747 -19.030  1.00  0.00     0.278 C 
ENDBRANCH   1  12
BRANCH   2  14
ATOM     14  O   UNL     1      -3.326  90.841 -17.711  1.00  0.00    -0.502 OA
ATOM     15  H   UNL     1      -2.823  91.567 -18.207  1.00  0.00     0.293 HD
ENDBRANCH   2  14
BRANCH   3  16
ATOM     16  O   UNL     1      -2.401  90.681 -15.121  1.00  0.00    -0.502 OA
ATOM     17  H   UNL     1      -1.910  90.930 -14.270  1.00  0.00     0.293 HD
ENDBRANCH   3  16
TORSDOF 3
ENDMDL
MODEL 6
REMARK VINA RESULT:    -4.205      7.864     10.033
REMARK INTER + INTRA:          -4.766
REMARK INTER:                  -4.707
REMARK INTRA:                  -0.060
REMARK UNBOUND:                -0.069
REMARK SMILES COc1cc2ccc(=O)oc2c(O)c1O
REMARK SMILES IDX 3 1 14 2 12 3 11 4 5 5 4 6 6 7 7 8 8 9 9 10 10 11 2 12 1 13
REMARK SMILES IDX 15 14 13 16
REMARK H PARENT 15 15 13 17
REMARK Flexibility Score: inf
ROOT
ATOM      1  C   UNL     1      -5.451  91.291 -14.869  1.00  0.00     0.165 A 
ATOM      2  C   UNL     1      -4.053  91.132 -14.830  1.00  0.00     0.204 A 
ATOM      3  C   UNL     1      -3.285  91.312 -15.989  1.00  0.00     0.205 A 
ATOM      4  C   UNL     1      -3.909  91.653 -17.200  1.00  0.00     0.184 A 
ATOM      5  C   UNL     1      -5.311  91.814 -17.244  1.00  0.00     0.025 A 
ATOM      6  C   UNL     1      -6.075  91.633 -16.085  1.00  0.00     0.062 A 
ATOM      7  C   UNL     1      -5.906  92.154 -18.463  1.00  0.00     0.020 A 
ATOM      8  C   UNL     1      -5.108  92.325 -19.592  1.00  0.00     0.094 A 
ATOM      9  C   UNL     1      -3.726  92.150 -19.476  1.00  0.00     0.336 A 
ATOM     10  O   UNL     1      -2.986  92.298 -20.483  1.00  0.00    -0.246 OA
ATOM     11  O   UNL     1      -3.185  91.826 -18.304  1.00  0.00    -0.419 OA
ENDROOT
BRANCH   1  12
ATOM     12  O   UNL     1      -6.186  91.101 -13.688  1.00  0.00    -0.493 OA
ATOM     13  C   UNL     1      -7.280  90.199 -13.550  1.00  0.00     0.278 C 
ENDBRANCH   1  12
BRANCH   2  14
ATOM     14  O   UNL     1      -3.407  90.793 -13.641  1.00  0.00    -0.502 OA
ATOM     15  H   UNL     1      -2.415  90.590 -13.600  1.00  0.00     0.293 HD
ENDBRANCH   2  14
BRANCH   3  16
ATOM     16  O   UNL     1      -1.901  91.147 -15.920  1.00  0.00    -0.502 OA
ATOM     17  H   UNL     1      -1.475  90.302 -15.560  1.00  0.00     0.293 HD
ENDBRANCH   3  16
TORSDOF 3
ENDMDL
MODEL 7
REMARK VINA RESULT:    -4.199      6.931      8.785
REMARK INTER + INTRA:          -4.759
REMARK INTER:                  -4.707
REMARK INTRA:                  -0.052
REMARK UNBOUND:                -0.069
REMARK SMILES COc1cc2ccc(=O)oc2c(O)c1O
REMARK SMILES IDX 3 1 14 2 12 3 11 4 5 5 4 6 6 7 7 8 8 9 9 10 10 11 2 12 1 13
REMARK SMILES IDX 15 14 13 16
REMARK H PARENT 15 15 13 17
REMARK Flexibility Score: inf
ROOT
ATOM      1  C   UNL     1     -13.044  81.787  -8.881  1.00  0.00     0.165 A 
ATOM      2  C   UNL     1     -12.552  81.725 -10.198  1.00  0.00     0.204 A 
ATOM      3  C   UNL     1     -11.236  82.116 -10.484  1.00  0.00     0.205 A 
ATOM      4  C   UNL     1     -10.399  82.573  -9.454  1.00  0.00     0.184 A 
ATOM      5  C   UNL     1     -10.888  82.637  -8.131  1.00  0.00     0.025 A 
ATOM      6  C   UNL     1     -12.202  82.246  -7.849  1.00  0.00     0.062 A 
ATOM      7  C   UNL     1     -10.032  83.096  -7.124  1.00  0.00     0.020 A 
ATOM      8  C   UNL     1      -8.732  83.475  -7.450  1.00  0.00     0.094 A 
ATOM      9  C   UNL     1      -8.314  83.386  -8.781  1.00  0.00     0.336 A 
ATOM     10  O   UNL     1      -7.144  83.723  -9.097  1.00  0.00    -0.246 OA
ATOM     11  O   UNL     1      -9.148  82.945  -9.719  1.00  0.00    -0.419 OA
ENDROOT
BRANCH   1  12
ATOM     12  O   UNL     1     -14.367  81.387  -8.634  1.00  0.00    -0.493 OA
ATOM     13  C   UNL     1     -15.241  82.012  -7.699  1.00  0.00     0.278 C 
ENDBRANCH   1  12
BRANCH   2  14
ATOM     14  O   UNL     1     -13.362  81.274 -11.241  1.00  0.00    -0.502 OA
ATOM     15  H   UNL     1     -14.237  80.790 -11.079  1.00  0.00     0.293 HD
ENDBRANCH   2  14
BRANCH   3  16
ATOM     16  O   UNL     1     -10.776  82.044 -11.800  1.00  0.00    -0.502 OA
ATOM     17  H   UNL     1     -10.074  82.678 -12.162  1.00  0.00     0.293 HD
ENDBRANCH   3  16
TORSDOF 3
ENDMDL
MODEL 8
REMARK VINA RESULT:    -4.159      1.355      4.648
REMARK INTER + INTRA:          -4.714
REMARK INTER:                  -4.648
REMARK INTRA:                  -0.066
REMARK UNBOUND:                -0.069
REMARK SMILES COc1cc2ccc(=O)oc2c(O)c1O
REMARK SMILES IDX 3 1 14 2 12 3 11 4 5 5 4 6 6 7 7 8 8 9 9 10 10 11 2 12 1 13
REMARK SMILES IDX 15 14 13 16
REMARK H PARENT 15 15 13 17
REMARK Flexibility Score: inf
ROOT
ATOM      1  C   UNL     1      -4.371  83.900  -9.043  1.00  0.00     0.165 A 
ATOM      2  C   UNL     1      -3.472  84.890  -8.603  1.00  0.00     0.204 A 
ATOM      3  C   UNL     1      -3.782  86.249  -8.753  1.00  0.00     0.205 A 
ATOM      4  C   UNL     1      -4.995  86.632  -9.345  1.00  0.00     0.184 A 
ATOM      5  C   UNL     1      -5.901  85.644  -9.789  1.00  0.00     0.025 A 
ATOM      6  C   UNL     1      -5.588  84.288  -9.637  1.00  0.00     0.062 A 
ATOM      7  C   UNL     1      -7.103  86.054 -10.374  1.00  0.00     0.020 A 
ATOM      8  C   UNL     1      -7.373  87.415 -10.504  1.00  0.00     0.094 A 
ATOM      9  C   UNL     1      -6.432  88.338 -10.044  1.00  0.00     0.336 A 
ATOM     10  O   UNL     1      -6.655  89.572 -10.152  1.00  0.00    -0.246 OA
ATOM     11  O   UNL     1      -5.296  87.922  -9.490  1.00  0.00    -0.419 OA
ENDROOT
BRANCH   1  12
ATOM     12  O   UNL     1      -4.025  82.550  -8.877  1.00  0.00    -0.493 OA
ATOM     13  C   UNL     1      -3.404  81.744  -9.873  1.00  0.00     0.278 C 
ENDBRANCH   1  12
BRANCH   2  14
ATOM     14  O   UNL     1      -2.258  84.537  -8.011  1.00  0.00    -0.502 OA
ATOM     15  H   UNL     1      -2.127  84.528  -7.007  1.00  0.00     0.293 HD
ENDBRANCH   2  14
BRANCH   3  16
ATOM     16  O   UNL     1      -2.870  87.207  -8.307  1.00  0.00    -0.502 OA
ATOM     17  H   UNL     1      -1.997  86.955  -7.859  1.00  0.00     0.293 HD
ENDBRANCH   3  16
TORSDOF 3
ENDMDL
