MODEL 1
REMARK VINA RESULT:    -3.675      0.000      0.000
REMARK INTER + INTRA:          -5.137
REMARK INTER:                  -4.964
REMARK INTRA:                  -0.174
REMARK UNBOUND:                -0.174
REMARK SMILES [NH3+]CCCC[C@@H]([NH3+])C(=O)[O-]
REMARK SMILES IDX 4 1 3 2 2 3 1 4 5 8 6 9 7 10 8 14 9 15 10 16
REMARK H PARENT 1 5 1 6 1 7 7 11 7 12 7 13
REMARK Flexibility Score: inf
ROOT
ATOM      1  C   UNL     1      -7.210  13.747   7.013  1.00  0.00     0.012 C 
ENDROOT
BRANCH   1   2
ATOM      2  C   UNL     1      -6.197  14.082   5.905  1.00  0.00     0.061 C 
BRANCH   2   3
ATOM      3  C   UNL     1      -6.169  15.579   5.557  1.00  0.00     0.258 C 
BRANCH   3   4
ATOM      4  N   UNL     1      -4.794  16.073   5.490  1.00  0.00    -0.358 N 
ATOM      5  H   UNL     1      -4.807  17.093   5.262  1.00  0.00     0.344 HD
ATOM      6  H   UNL     1      -4.318  15.936   6.411  1.00  0.00     0.344 HD
ATOM      7  H   UNL     1      -4.267  15.567   4.741  1.00  0.00     0.344 HD
ENDBRANCH   3   4
ENDBRANCH   2   3
ENDBRANCH   1   2
BRANCH   1   8
ATOM      8  C   UNL     1      -8.647  13.619   6.479  1.00  0.00     0.072 C 
BRANCH   8   9
ATOM      9  C   UNL     1      -9.712  13.848   7.576  1.00  0.00     0.227 C 
BRANCH   9  10
ATOM     10  N   UNL     1      -9.571  12.893   8.684  1.00  0.00    -0.350 N 
ATOM     11  H   UNL     1      -9.071  12.028   8.369  1.00  0.00     0.345 HD
ATOM     12  H   UNL     1      -9.032  13.330   9.467  1.00  0.00     0.345 HD
ATOM     13  H   UNL     1     -10.511  12.632   9.060  1.00  0.00     0.345 HD
ENDBRANCH   9  10
BRANCH   9  14
ATOM     14  C   UNL     1      -9.610  15.259   8.094  1.00  0.00     0.099 C 
ATOM     15  O   UNL     1      -9.389  15.477   9.314  1.00  0.00    -0.544 OA
ATOM     16  O   UNL     1      -9.739  16.330   7.219  1.00  0.00    -0.544 OA
ENDBRANCH   9  14
ENDBRANCH   8   9
ENDBRANCH   1   8
TORSDOF 7
ENDMDL
MODEL 2
REMARK VINA RESULT:    -3.656      5.103      6.896
REMARK INTER + INTRA:          -5.112
REMARK INTER:                  -4.961
REMARK INTRA:                  -0.151
REMARK UNBOUND:                -0.174
REMARK SMILES [NH3+]CCCC[C@@H]([NH3+])C(=O)[O-]
REMARK SMILES IDX 4 1 3 2 2 3 1 4 5 8 6 9 7 10 8 14 9 15 10 16
REMARK H PARENT 1 5 1 6 1 7 7 11 7 12 7 13
REMARK Flexibility Score: inf
ROOT
ATOM      1  C   UNL     1      -8.794  17.574  12.765  1.00  0.00     0.012 C 
ENDROOT
BRANCH   1   2
ATOM      2  C   UNL     1      -8.547  17.292  14.257  1.00  0.00     0.061 C 
BRANCH   2   3
ATOM      3  C   UNL     1      -8.746  15.812  14.624  1.00  0.00     0.258 C 
BRANCH   3   4
ATOM      4  N   UNL     1      -7.568  15.283  15.310  1.00  0.00    -0.358 N 
ATOM      5  H   UNL     1      -7.780  15.186  16.329  1.00  0.00     0.344 HD
ATOM      6  H   UNL     1      -7.320  14.343  14.924  1.00  0.00     0.344 HD
ATOM      7  H   UNL     1      -6.760  15.938  15.194  1.00  0.00     0.344 HD
ENDBRANCH   3   4
ENDBRANCH   2   3
ENDBRANCH   1   2
BRANCH   1   8
ATOM      8  C   UNL     1     -10.265  17.911  12.464  1.00  0.00     0.072 C 
BRANCH   8   9
ATOM      9  C   UNL     1     -10.634  17.687  10.980  1.00  0.00     0.227 C 
BRANCH   9  10
ATOM     10  N   UNL     1      -9.960  18.648  10.096  1.00  0.00    -0.350 N 
ATOM     11  H   UNL     1      -9.995  18.325   9.100  1.00  0.00     0.345 HD
ATOM     12  H   UNL     1     -10.421  19.584  10.167  1.00  0.00     0.345 HD
ATOM     13  H   UNL     1      -8.963  18.769  10.386  1.00  0.00     0.345 HD
ENDBRANCH   9  10
BRANCH   9  14
ATOM     14  C   UNL     1     -10.282  16.278  10.578  1.00  0.00     0.099 C 
ATOM     15  O   UNL     1      -9.444  16.066   9.662  1.00  0.00    -0.544 OA
ATOM     16  O   UNL     1     -10.867  15.202  11.234  1.00  0.00    -0.544 OA
ENDBRANCH   9  14
ENDBRANCH   8   9
ENDBRANCH   1   8
TORSDOF 7
ENDMDL
MODEL 3
REMARK VINA RESULT:    -3.617      4.932      6.668
REMARK INTER + INTRA:          -5.059
REMARK INTER:                  -4.979
REMARK INTRA:                  -0.080
REMARK UNBOUND:                -0.174
REMARK SMILES [NH3+]CCCC[C@@H]([NH3+])C(=O)[O-]
REMARK SMILES IDX 4 1 3 2 2 3 1 4 5 8 6 9 7 10 8 14 9 15 10 16
REMARK H PARENT 1 5 1 6 1 7 7 11 7 12 7 13
REMARK Flexibility Score: inf
ROOT
ATOM      1  C   UNL     1      -9.730  17.637  13.006  1.00  0.00     0.012 C 
ENDROOT
BRANCH   1   2
ATOM      2  C   UNL     1      -8.609  17.236  13.981  1.00  0.00     0.061 C 
BRANCH   2   3
ATOM      3  C   UNL     1      -8.823  15.841  14.591  1.00  0.00     0.258 C 
BRANCH   3   4
ATOM      4  N   UNL     1      -7.608  15.372  15.257  1.00  0.00    -0.358 N 
ATOM      5  H   UNL     1      -6.996  16.192  15.470  1.00  0.00     0.344 HD
ATOM      6  H   UNL     1      -7.853  14.889  16.152  1.00  0.00     0.344 HD
ATOM      7  H   UNL     1      -7.087  14.715  14.631  1.00  0.00     0.344 HD
ENDBRANCH   3   4
ENDBRANCH   2   3
ENDBRANCH   1   2
BRANCH   1   8
ATOM      8  C   UNL     1      -9.247  17.704  11.547  1.00  0.00     0.072 C 
BRANCH   8   9
ATOM      9  C   UNL     1     -10.414  17.681  10.533  1.00  0.00     0.227 C 
BRANCH   9  10
ATOM     10  N   UNL     1     -10.745  19.029  10.049  1.00  0.00    -0.350 N 
ATOM     11  H   UNL     1     -10.859  19.033   9.008  1.00  0.00     0.345 HD
ATOM     12  H   UNL     1     -11.635  19.358  10.490  1.00  0.00     0.345 HD
ATOM     13  H   UNL     1      -9.995  19.705  10.318  1.00  0.00     0.345 HD
ENDBRANCH   9  10
BRANCH   9  14
ATOM     14  C   UNL     1     -10.060  16.787   9.373  1.00  0.00     0.099 C 
ATOM     15  O   UNL     1      -9.533  15.661   9.573  1.00  0.00    -0.544 OA
ATOM     16  O   UNL     1     -10.334  17.195   8.074  1.00  0.00    -0.544 OA
ENDBRANCH   9  14
ENDBRANCH   8   9
ENDBRANCH   1   8
TORSDOF 7
ENDMDL
MODEL 4
REMARK VINA RESULT:    -3.568     16.245     17.039
REMARK INTER + INTRA:          -4.993
REMARK INTER:                  -4.876
REMARK INTRA:                  -0.118
REMARK UNBOUND:                -0.174
REMARK SMILES [NH3+]CCCC[C@@H]([NH3+])C(=O)[O-]
REMARK SMILES IDX 4 1 3 2 2 3 1 4 5 8 6 9 7 10 8 14 9 15 10 16
REMARK H PARENT 1 5 1 6 1 7 7 11 7 12 7 13
REMARK Flexibility Score: inf
ROOT
ATOM      1  C   UNL     1       5.523  11.590  15.949  1.00  0.00     0.012 C 
ENDROOT
BRANCH   1   2
ATOM      2  C   UNL     1       4.488  11.048  14.948  1.00  0.00     0.061 C 
BRANCH   2   3
ATOM      3  C   UNL     1       4.641   9.540  14.692  1.00  0.00     0.258 C 
BRANCH   3   4
ATOM      4  N   UNL     1       3.409   8.826  15.028  1.00  0.00    -0.358 N 
ATOM      5  H   UNL     1       3.111   8.253  14.206  1.00  0.00     0.344 HD
ATOM      6  H   UNL     1       3.573   8.192  15.843  1.00  0.00     0.344 HD
ATOM      7  H   UNL     1       2.650   9.509  15.257  1.00  0.00     0.344 HD
ENDBRANCH   3   4
ENDBRANCH   2   3
ENDBRANCH   1   2
BRANCH   1   8
ATOM      8  C   UNL     1       5.430  13.116  16.125  1.00  0.00     0.072 C 
BRANCH   8   9
ATOM      9  C   UNL     1       4.984  13.523  17.548  1.00  0.00     0.227 C 
BRANCH   9  10
ATOM     10  N   UNL     1       4.475  12.375  18.312  1.00  0.00    -0.350 N 
ATOM     11  H   UNL     1       3.473  12.186  18.076  1.00  0.00     0.345 HD
ATOM     12  H   UNL     1       5.042  11.523  18.098  1.00  0.00     0.345 HD
ATOM     13  H   UNL     1       4.561  12.557  19.338  1.00  0.00     0.345 HD
ENDBRANCH   9  10
BRANCH   9  14
ATOM     14  C   UNL     1       6.137  14.160  18.278  1.00  0.00     0.099 C 
ATOM     15  O   UNL     1       6.165  15.405  18.464  1.00  0.00    -0.544 OA
ATOM     16  O   UNL     1       7.168  13.370  18.771  1.00  0.00    -0.544 OA
ENDBRANCH   9  14
ENDBRANCH   8   9
ENDBRANCH   1   8
TORSDOF 7
ENDMDL
MODEL 5
REMARK VINA RESULT:    -3.477     16.857     17.683
REMARK INTER + INTRA:          -4.870
REMARK INTER:                  -4.717
REMARK INTRA:                  -0.153
REMARK UNBOUND:                -0.174
REMARK SMILES [NH3+]CCCC[C@@H]([NH3+])C(=O)[O-]
REMARK SMILES IDX 4 1 3 2 2 3 1 4 5 8 6 9 7 10 8 14 9 15 10 16
REMARK H PARENT 1 5 1 6 1 7 7 11 7 12 7 13
REMARK Flexibility Score: inf
ROOT
ATOM      1  C   UNL     1       7.900  10.590  16.348  1.00  0.00     0.012 C 
ENDROOT
BRANCH   1   2
ATOM      2  C   UNL     1       7.210   9.274  16.746  1.00  0.00     0.061 C 
BRANCH   2   3
ATOM      3  C   UNL     1       8.207   8.187  17.181  1.00  0.00     0.258 C 
BRANCH   3   4
ATOM      4  N   UNL     1       7.676   6.853  16.905  1.00  0.00    -0.358 N 
ATOM      5  H   UNL     1       7.742   6.272  17.772  1.00  0.00     0.344 HD
ATOM      6  H   UNL     1       6.672   6.919  16.616  1.00  0.00     0.344 HD
ATOM      7  H   UNL     1       8.233   6.394  16.148  1.00  0.00     0.344 HD
ENDBRANCH   3   4
ENDBRANCH   2   3
ENDBRANCH   1   2
BRANCH   1   8
ATOM      8  C   UNL     1       6.903  11.746  16.162  1.00  0.00     0.072 C 
BRANCH   8   9
ATOM      9  C   UNL     1       5.436  11.306  16.369  1.00  0.00     0.227 C 
BRANCH   9  10
ATOM     10  N   UNL     1       4.718  12.204  17.283  1.00  0.00    -0.350 N 
ATOM     11  H   UNL     1       5.349  12.964  17.631  1.00  0.00     0.345 HD
ATOM     12  H   UNL     1       3.903  12.639  16.791  1.00  0.00     0.345 HD
ATOM     13  H   UNL     1       4.340  11.667  18.096  1.00  0.00     0.345 HD
ENDBRANCH   9  10
BRANCH   9  14
ATOM     14  C   UNL     1       4.731  11.249  15.039  1.00  0.00     0.099 C 
ATOM     15  O   UNL     1       4.710  10.180  14.373  1.00  0.00    -0.544 OA
ATOM     16  O   UNL     1       4.080  12.374  14.549  1.00  0.00    -0.544 OA
ENDBRANCH   9  14
ENDBRANCH   8   9
ENDBRANCH   1   8
TORSDOF 7
ENDMDL
MODEL 6
REMARK VINA RESULT:    -3.463     16.064     16.743
REMARK INTER + INTRA:          -4.851
REMARK INTER:                  -4.700
REMARK INTRA:                  -0.151
REMARK UNBOUND:                -0.174
REMARK SMILES [NH3+]CCCC[C@@H]([NH3+])C(=O)[O-]
REMARK SMILES IDX 4 1 3 2 2 3 1 4 5 8 6 9 7 10 8 14 9 15 10 16
REMARK H PARENT 1 5 1 6 1 7 7 11 7 12 7 13
REMARK Flexibility Score: inf
ROOT
ATOM      1  C   UNL     1       7.359  19.463  12.351  1.00  0.00     0.012 C 
ENDROOT
BRANCH   1   2
ATOM      2  C   UNL     1       5.875  19.753  12.072  1.00  0.00     0.061 C 
BRANCH   2   3
ATOM      3  C   UNL     1       5.393  21.063  12.718  1.00  0.00     0.258 C 
BRANCH   3   4
ATOM      4  N   UNL     1       4.572  21.833  11.785  1.00  0.00    -0.358 N 
ATOM      5  H   UNL     1       4.877  21.623  10.807  1.00  0.00     0.344 HD
ATOM      6  H   UNL     1       3.565  21.568  11.891  1.00  0.00     0.344 HD
ATOM      7  H   UNL     1       4.690  22.857  11.963  1.00  0.00     0.344 HD
ENDBRANCH   3   4
ENDBRANCH   2   3
ENDBRANCH   1   2
BRANCH   1   8
ATOM      8  C   UNL     1       8.128  19.049  11.084  1.00  0.00     0.072 C 
BRANCH   8   9
ATOM      9  C   UNL     1       7.334  18.056  10.205  1.00  0.00     0.227 C 
BRANCH   9  10
ATOM     10  N   UNL     1       7.156  18.558   8.835  1.00  0.00    -0.350 N 
ATOM     11  H   UNL     1       6.841  19.556   8.843  1.00  0.00     0.345 HD
ATOM     12  H   UNL     1       8.057  18.489   8.310  1.00  0.00     0.345 HD
ATOM     13  H   UNL     1       6.453  17.976   8.326  1.00  0.00     0.345 HD
ENDBRANCH   9  10
BRANCH   9  14
ATOM     14  C   UNL     1       8.039  16.725  10.181  1.00  0.00     0.099 C 
ATOM     15  O   UNL     1       8.033  16.018   9.139  1.00  0.00    -0.544 OA
ATOM     16  O   UNL     1       8.720  16.280  11.307  1.00  0.00    -0.544 OA
ENDBRANCH   9  14
ENDBRANCH   8   9
ENDBRANCH   1   8
TORSDOF 7
ENDMDL
MODEL 7
REMARK VINA RESULT:    -3.461      1.819      2.081
REMARK INTER + INTRA:          -4.849
REMARK INTER:                  -4.736
REMARK INTRA:                  -0.113
REMARK UNBOUND:                -0.174
REMARK SMILES [NH3+]CCCC[C@@H]([NH3+])C(=O)[O-]
REMARK SMILES IDX 4 1 3 2 2 3 1 4 5 8 6 9 7 10 8 14 9 15 10 16
REMARK H PARENT 1 5 1 6 1 7 7 11 7 12 7 13
REMARK Flexibility Score: inf
ROOT
ATOM      1  C   UNL     1      -7.018  13.771   7.260  1.00  0.00     0.012 C 
ENDROOT
BRANCH   1   2
ATOM      2  C   UNL     1      -6.499  14.066   5.842  1.00  0.00     0.061 C 
BRANCH   2   3
ATOM      3  C   UNL     1      -6.299  15.569   5.583  1.00  0.00     0.258 C 
BRANCH   3   4
ATOM      4  N   UNL     1      -4.877  15.913   5.587  1.00  0.00    -0.358 N 
ATOM      5  H   UNL     1      -4.382  15.331   4.873  1.00  0.00     0.344 HD
ATOM      6  H   UNL     1      -4.752  16.924   5.348  1.00  0.00     0.344 HD
ATOM      7  H   UNL     1      -4.463  15.717   6.527  1.00  0.00     0.344 HD
ENDBRANCH   3   4
ENDBRANCH   2   3
ENDBRANCH   1   2
BRANCH   1   8
ATOM      8  C   UNL     1      -8.431  14.330   7.499  1.00  0.00     0.072 C 
BRANCH   8   9
ATOM      9  C   UNL     1      -9.491  13.216   7.662  1.00  0.00     0.227 C 
BRANCH   9  10
ATOM     10  N   UNL     1     -10.309  13.411   8.867  1.00  0.00    -0.350 N 
ATOM     11  H   UNL     1      -9.709  13.439   9.724  1.00  0.00     0.345 HD
ATOM     12  H   UNL     1     -10.842  14.308   8.796  1.00  0.00     0.345 HD
ATOM     13  H   UNL     1     -11.008  12.639   8.958  1.00  0.00     0.345 HD
ENDBRANCH   9  10
BRANCH   9  14
ATOM     14  C   UNL     1     -10.370  13.172   6.440  1.00  0.00     0.099 C 
ATOM     15  O   UNL     1     -10.444  12.124   5.745  1.00  0.00    -0.544 OA
ATOM     16  O   UNL     1     -11.125  14.283   6.087  1.00  0.00    -0.544 OA
ENDBRANCH   9  14
ENDBRANCH   8   9
ENDBRANCH   1   8
TORSDOF 7
ENDMDL
MODEL 8
REMARK VINA RESULT:    -3.388      2.509      3.864
REMARK INTER + INTRA:          -4.750
REMARK INTER:                  -4.201
REMARK INTRA:                  -0.549
REMARK UNBOUND:                -0.174
REMARK SMILES [NH3+]CCCC[C@@H]([NH3+])C(=O)[O-]
REMARK SMILES IDX 4 1 3 2 2 3 1 4 5 8 6 9 7 10 8 14 9 15 10 16
REMARK H PARENT 1 5 1 6 1 7 7 11 7 12 7 13
REMARK Flexibility Score: inf
ROOT
ATOM      1  C   UNL     1      -9.296  13.982   8.593  1.00  0.00     0.012 C 
ENDROOT
BRANCH   1   2
ATOM      2  C   UNL     1      -9.537  15.432   9.048  1.00  0.00     0.061 C 
BRANCH   2   3
ATOM      3  C   UNL     1     -10.633  16.136   8.231  1.00  0.00     0.258 C 
BRANCH   3   4
ATOM      4  N   UNL     1     -10.122  17.366   7.626  1.00  0.00    -0.358 N 
ATOM      5  H   UNL     1      -9.524  17.120   6.804  1.00  0.00     0.344 HD
ATOM      6  H   UNL     1     -10.917  17.963   7.302  1.00  0.00     0.344 HD
ATOM      7  H   UNL     1      -9.542  17.893   8.319  1.00  0.00     0.344 HD
ENDBRANCH   3   4
ENDBRANCH   2   3
ENDBRANCH   1   2
BRANCH   1   8
ATOM      8  C   UNL     1      -7.898  13.779   7.983  1.00  0.00     0.072 C 
BRANCH   8   9
ATOM      9  C   UNL     1      -7.924  13.742   6.438  1.00  0.00     0.227 C 
BRANCH   9  10
ATOM     10  N   UNL     1      -9.273  13.476   5.918  1.00  0.00    -0.350 N 
ATOM     11  H   UNL     1      -9.356  12.485   5.591  1.00  0.00     0.345 HD
ATOM     12  H   UNL     1      -9.984  13.647   6.666  1.00  0.00     0.345 HD
ATOM     13  H   UNL     1      -9.490  14.123   5.127  1.00  0.00     0.345 HD
ENDBRANCH   9  10
BRANCH   9  14
ATOM     14  C   UNL     1      -7.408  15.048   5.892  1.00  0.00     0.099 C 
ATOM     15  O   UNL     1      -8.200  15.999   5.656  1.00  0.00    -0.544 OA
ATOM     16  O   UNL     1      -6.048  15.217   5.665  1.00  0.00    -0.544 OA
ENDBRANCH   9  14
ENDBRANCH   8   9
ENDBRANCH   1   8
TORSDOF 7
ENDMDL
MODEL 9
REMARK VINA RESULT:    -3.348     16.188     16.952
REMARK INTER + INTRA:          -4.696
REMARK INTER:                  -4.614
REMARK INTRA:                  -0.083
REMARK UNBOUND:                -0.174
REMARK SMILES [NH3+]CCCC[C@@H]([NH3+])C(=O)[O-]
REMARK SMILES IDX 4 1 3 2 2 3 1 4 5 8 6 9 7 10 8 14 9 15 10 16
REMARK H PARENT 1 5 1 6 1 7 7 11 7 12 7 13
REMARK Flexibility Score: inf
ROOT
ATOM      1  C   UNL     1       5.404  12.660  16.829  1.00  0.00     0.012 C 
ENDROOT
BRANCH   1   2
ATOM      2  C   UNL     1       5.582  11.408  15.953  1.00  0.00     0.061 C 
BRANCH   2   3
ATOM      3  C   UNL     1       4.452  11.238  14.924  1.00  0.00     0.258 C 
BRANCH   3   4
ATOM      4  N   UNL     1       3.967   9.858  14.906  1.00  0.00    -0.358 N 
ATOM      5  H   UNL     1       3.303   9.718  15.701  1.00  0.00     0.344 HD
ATOM      6  H   UNL     1       3.468   9.665  14.007  1.00  0.00     0.344 HD
ATOM      7  H   UNL     1       4.769   9.194  15.015  1.00  0.00     0.344 HD
ENDBRANCH   3   4
ENDBRANCH   2   3
ENDBRANCH   1   2
BRANCH   1   8
ATOM      8  C   UNL     1       5.394  12.333  18.332  1.00  0.00     0.072 C 
BRANCH   8   9
ATOM      9  C   UNL     1       4.664  13.407  19.170  1.00  0.00     0.227 C 
BRANCH   9  10
ATOM     10  N   UNL     1       3.910  14.343  18.323  1.00  0.00    -0.350 N 
ATOM     11  H   UNL     1       3.582  13.872  17.448  1.00  0.00     0.345 HD
ATOM     12  H   UNL     1       3.080  14.708  18.844  1.00  0.00     0.345 HD
ATOM     13  H   UNL     1       4.506  15.164  18.072  1.00  0.00     0.345 HD
ENDBRANCH   9  10
BRANCH   9  14
ATOM     14  C   UNL     1       3.739  12.740  20.154  1.00  0.00     0.099 C 
ATOM     15  O   UNL     1       4.133  11.758  20.836  1.00  0.00    -0.544 OA
ATOM     16  O   UNL     1       2.447  13.222  20.329  1.00  0.00    -0.544 OA
ENDBRANCH   9  14
ENDBRANCH   8   9
ENDBRANCH   1   8
TORSDOF 7
ENDMDL
