MODEL 1
REMARK VINA RESULT:    -4.218      0.000      0.000
REMARK INTER + INTRA:          -6.311
REMARK INTER:                  -5.697
REMARK INTRA:                  -0.614
REMARK UNBOUND:                -0.614
REMARK SMILES O=C[C@H](O)[C@H](O)[C@@H](O)CO
REMARK SMILES IDX 7 1 9 2 10 3 5 5 3 6 2 7 1 8 4 9 6 11 8 13
REMARK H PARENT 10 4 4 10 6 12 8 14
REMARK Flexibility Score: inf
ROOT
ATOM      1  C   UNL     1      11.222 -13.845 -12.211  1.00  0.00     0.171 C 
ENDROOT
BRANCH   1   2
ATOM      2  C   UNL     1      10.782 -12.382 -12.013  1.00  0.00     0.190 C 
BRANCH   2   3
ATOM      3  O   UNL     1       9.384 -12.254 -12.060  1.00  0.00    -0.394 OA
ATOM      4  H   UNL     1       9.009 -13.171 -12.023  1.00  0.00     0.210 HD
ENDBRANCH   2   3
ENDBRANCH   1   2
BRANCH   1   5
ATOM      5  C   UNL     1      11.572 -14.600 -10.896  1.00  0.00     0.181 C 
BRANCH   5   6
ATOM      6  C   UNL     1      10.937 -16.017 -10.779  1.00  0.00     0.209 C 
BRANCH   6   7
ATOM      7  C   UNL     1      10.906 -16.513  -9.360  1.00  0.00     0.258 C 
ATOM      8  O   UNL     1       9.936 -16.298  -8.651  1.00  0.00    -0.300 OA
ENDBRANCH   6   7
BRANCH   6   9
ATOM      9  O   UNL     1      11.617 -16.945 -11.583  1.00  0.00    -0.383 OA
ATOM     10  H   UNL     1      12.565 -16.940 -11.288  1.00  0.00     0.211 HD
ENDBRANCH   6   9
ENDBRANCH   5   6
BRANCH   5  11
ATOM     11  O   UNL     1      11.129 -13.818  -9.815  1.00  0.00    -0.387 OA
ATOM     12  H   UNL     1      11.900 -13.708  -9.198  1.00  0.00     0.211 HD
ENDBRANCH   5  11
ENDBRANCH   1   5
BRANCH   1  13
ATOM     13  O   UNL     1      10.235 -14.545 -12.929  1.00  0.00    -0.388 OA
ATOM     14  H   UNL     1      10.569 -15.467 -13.083  1.00  0.00     0.211 HD
ENDBRANCH   1  13
TORSDOF 8
ENDMDL
MODEL 2
REMARK VINA RESULT:    -4.131     13.505     14.653
REMARK INTER + INTRA:          -6.193
REMARK INTER:                  -5.471
REMARK INTRA:                  -0.722
REMARK UNBOUND:                -0.614
REMARK SMILES O=C[C@H](O)[C@H](O)[C@@H](O)CO
REMARK SMILES IDX 7 1 9 2 10 3 5 5 3 6 2 7 1 8 4 9 6 11 8 13
REMARK H PARENT 10 4 4 10 6 12 8 14
REMARK Flexibility Score: inf
ROOT
ATOM      1  C   UNL     1      -3.407 -20.640  -9.209  1.00  0.00     0.171 C 
ENDROOT
BRANCH   1   2
ATOM      2  C   UNL     1      -4.129 -21.813  -9.898  1.00  0.00     0.190 C 
BRANCH   2   3
ATOM      3  O   UNL     1      -4.647 -21.436 -11.148  1.00  0.00    -0.394 OA
ATOM      4  H   UNL     1      -5.194 -20.622 -11.000  1.00  0.00     0.210 HD
ENDBRANCH   2   3
ENDBRANCH   1   2
BRANCH   1   5
ATOM      5  C   UNL     1      -1.990 -20.330  -9.774  1.00  0.00     0.181 C 
BRANCH   5   6
ATOM      6  C   UNL     1      -1.756 -18.834 -10.137  1.00  0.00     0.209 C 
BRANCH   6   7
ATOM      7  C   UNL     1      -0.549 -18.642 -11.012  1.00  0.00     0.258 C 
ATOM      8  O   UNL     1       0.488 -19.241 -10.775  1.00  0.00    -0.300 OA
ENDBRANCH   6   7
BRANCH   6   9
ATOM      9  O   UNL     1      -1.625 -18.047  -8.982  1.00  0.00    -0.383 OA
ATOM     10  H   UNL     1      -1.345 -17.143  -9.282  1.00  0.00     0.211 HD
ENDBRANCH   6   9
ENDBRANCH   5   6
BRANCH   5  11
ATOM     11  O   UNL     1      -1.804 -21.108 -10.930  1.00  0.00    -0.387 OA
ATOM     12  H   UNL     1      -1.641 -20.480 -11.682  1.00  0.00     0.211 HD
ENDBRANCH   5  11
ENDBRANCH   1   5
BRANCH   1  13
ATOM     13  O   UNL     1      -4.215 -19.489  -9.257  1.00  0.00    -0.388 OA
ATOM     14  H   UNL     1      -3.771 -18.784  -8.718  1.00  0.00     0.211 HD
ENDBRANCH   1  13
TORSDOF 8
ENDMDL
MODEL 3
REMARK VINA RESULT:    -4.087     12.819     13.598
REMARK INTER + INTRA:          -6.135
REMARK INTER:                  -5.386
REMARK INTRA:                  -0.748
REMARK UNBOUND:                -0.614
REMARK SMILES O=C[C@H](O)[C@H](O)[C@@H](O)CO
REMARK SMILES IDX 7 1 9 2 10 3 5 5 3 6 2 7 1 8 4 9 6 11 8 13
REMARK H PARENT 10 4 4 10 6 12 8 14
REMARK Flexibility Score: inf
ROOT
ATOM      1  C   UNL     1      -0.353 -18.959 -10.113  1.00  0.00     0.171 C 
ENDROOT
BRANCH   1   2
ATOM      2  C   UNL     1      -0.670 -17.868 -11.153  1.00  0.00     0.190 C 
BRANCH   2   3
ATOM      3  O   UNL     1      -0.637 -16.586 -10.580  1.00  0.00    -0.394 OA
ATOM      4  H   UNL     1      -1.568 -16.362 -10.322  1.00  0.00     0.210 HD
ENDBRANCH   2   3
ENDBRANCH   1   2
BRANCH   1   5
ATOM      5  C   UNL     1      -1.531 -19.303  -9.155  1.00  0.00     0.181 C 
BRANCH   5   6
ATOM      6  C   UNL     1      -2.824 -19.788  -9.873  1.00  0.00     0.209 C 
BRANCH   6   7
ATOM      7  C   UNL     1      -3.967 -19.989  -8.917  1.00  0.00     0.258 C 
ATOM      8  O   UNL     1      -4.642 -19.040  -8.553  1.00  0.00    -0.300 OA
ENDBRANCH   6   7
BRANCH   6   9
ATOM      9  O   UNL     1      -2.594 -20.977 -10.583  1.00  0.00    -0.383 OA
ATOM     10  H   UNL     1      -2.706 -21.723  -9.937  1.00  0.00     0.211 HD
ENDBRANCH   6   9
ENDBRANCH   5   6
BRANCH   5  11
ATOM     11  O   UNL     1      -1.835 -18.151  -8.410  1.00  0.00    -0.387 OA
ATOM     12  H   UNL     1      -2.415 -17.579  -8.979  1.00  0.00     0.211 HD
ENDBRANCH   5  11
ENDBRANCH   1   5
BRANCH   1  13
ATOM     13  O   UNL     1       0.100 -20.121 -10.766  1.00  0.00    -0.388 OA
ATOM     14  H   UNL     1      -0.394 -20.894 -10.388  1.00  0.00     0.211 HD
ENDBRANCH   1  13
TORSDOF 8
ENDMDL
MODEL 4
REMARK VINA RESULT:    -4.005      2.746      5.078
REMARK INTER + INTRA:          -6.024
REMARK INTER:                  -5.399
REMARK INTRA:                  -0.624
REMARK UNBOUND:                -0.614
REMARK SMILES O=C[C@H](O)[C@H](O)[C@@H](O)CO
REMARK SMILES IDX 7 1 9 2 10 3 5 5 3 6 2 7 1 8 4 9 6 11 8 13
REMARK H PARENT 10 4 4 10 6 12 8 14
REMARK Flexibility Score: inf
ROOT
ATOM      1  C   UNL     1      11.221 -11.802 -10.977  1.00  0.00     0.171 C 
ENDROOT
BRANCH   1   2
ATOM      2  C   UNL     1      11.339 -12.867 -12.083  1.00  0.00     0.190 C 
BRANCH   2   3
ATOM      3  O   UNL     1      10.120 -13.532 -12.291  1.00  0.00    -0.394 OA
ATOM      4  H   UNL     1       9.402 -12.852 -12.204  1.00  0.00     0.210 HD
ENDBRANCH   2   3
ENDBRANCH   1   2
BRANCH   1   5
ATOM      5  C   UNL     1      10.174 -10.685 -11.263  1.00  0.00     0.181 C 
BRANCH   5   6
ATOM      6  C   UNL     1      10.121  -9.562 -10.186  1.00  0.00     0.209 C 
BRANCH   6   7
ATOM      7  C   UNL     1       9.011  -9.775  -9.194  1.00  0.00     0.258 C 
ATOM      8  O   UNL     1       9.134 -10.593  -8.296  1.00  0.00    -0.300 OA
ENDBRANCH   6   7
BRANCH   6   9
ATOM      9  O   UNL     1       9.980  -8.297 -10.779  1.00  0.00    -0.383 OA
ATOM     10  H   UNL     1      10.653  -8.244 -11.506  1.00  0.00     0.211 HD
ENDBRANCH   6   9
ENDBRANCH   5   6
BRANCH   5  11
ATOM     11  O   UNL     1       8.907 -11.288 -11.347  1.00  0.00    -0.387 OA
ATOM     12  H   UNL     1       8.963 -12.155 -10.865  1.00  0.00     0.211 HD
ENDBRANCH   5  11
ENDBRANCH   1   5
BRANCH   1  13
ATOM     13  O   UNL     1      10.947 -12.423  -9.745  1.00  0.00    -0.388 OA
ATOM     14  H   UNL     1      11.813 -12.707  -9.350  1.00  0.00     0.211 HD
ENDBRANCH   1  13
TORSDOF 8
ENDMDL
MODEL 5
REMARK VINA RESULT:    -3.986     11.889     12.886
REMARK INTER + INTRA:          -5.998
REMARK INTER:                  -5.173
REMARK INTRA:                  -0.825
REMARK UNBOUND:                -0.614
REMARK SMILES O=C[C@H](O)[C@H](O)[C@@H](O)CO
REMARK SMILES IDX 7 1 9 2 10 3 5 5 3 6 2 7 1 8 4 9 6 11 8 13
REMARK H PARENT 10 4 4 10 6 12 8 14
REMARK Flexibility Score: inf
ROOT
ATOM      1  C   UNL     1      -0.682 -18.082 -10.838  1.00  0.00     0.171 C 
ENDROOT
BRANCH   1   2
ATOM      2  C   UNL     1       0.726 -18.676 -10.644  1.00  0.00     0.190 C 
BRANCH   2   3
ATOM      3  O   UNL     1       0.748 -20.052 -10.924  1.00  0.00    -0.394 OA
ATOM      4  H   UNL     1       1.156 -20.499 -10.138  1.00  0.00     0.210 HD
ENDBRANCH   2   3
ENDBRANCH   1   2
BRANCH   1   5
ATOM      5  C   UNL     1      -1.804 -18.796 -10.026  1.00  0.00     0.181 C 
BRANCH   5   6
ATOM      6  C   UNL     1      -1.486 -18.979  -8.514  1.00  0.00     0.209 C 
BRANCH   6   7
ATOM      7  C   UNL     1      -1.405 -20.427  -8.118  1.00  0.00     0.258 C 
ATOM      8  O   UNL     1      -0.400 -21.078  -8.359  1.00  0.00    -0.300 OA
ENDBRANCH   6   7
BRANCH   6   9
ATOM      9  O   UNL     1      -2.440 -18.330  -7.713  1.00  0.00    -0.383 OA
ATOM     10  H   UNL     1      -2.270 -17.355  -7.798  1.00  0.00     0.211 HD
ENDBRANCH   6   9
ENDBRANCH   5   6
BRANCH   5  11
ATOM     11  O   UNL     1      -2.014 -20.062 -10.599  1.00  0.00    -0.387 OA
ATOM     12  H   UNL     1      -2.544 -20.593  -9.947  1.00  0.00     0.211 HD
ENDBRANCH   5  11
ENDBRANCH   1   5
BRANCH   1  13
ATOM     13  O   UNL     1      -0.664 -16.707 -10.540  1.00  0.00    -0.388 OA
ATOM     14  H   UNL     1      -1.180 -16.571  -9.703  1.00  0.00     0.211 HD
ENDBRANCH   1  13
TORSDOF 8
ENDMDL
MODEL 6
REMARK VINA RESULT:    -3.908     14.499     15.629
REMARK INTER + INTRA:          -5.892
REMARK INTER:                  -5.136
REMARK INTRA:                  -0.756
REMARK UNBOUND:                -0.614
REMARK SMILES O=C[C@H](O)[C@H](O)[C@@H](O)CO
REMARK SMILES IDX 7 1 9 2 10 3 5 5 3 6 2 7 1 8 4 9 6 11 8 13
REMARK H PARENT 10 4 4 10 6 12 8 14
REMARK Flexibility Score: inf
ROOT
ATOM      1  C   UNL     1      -4.696 -20.976  -9.832  1.00  0.00     0.171 C 
ENDROOT
BRANCH   1   2
ATOM      2  C   UNL     1      -4.603 -22.180  -8.876  1.00  0.00     0.190 C 
BRANCH   2   3
ATOM      3  O   UNL     1      -5.122 -21.872  -7.608  1.00  0.00    -0.394 OA
ATOM      4  H   UNL     1      -4.349 -21.660  -7.023  1.00  0.00     0.210 HD
ENDBRANCH   2   3
ENDBRANCH   1   2
BRANCH   1   5
ATOM      5  C   UNL     1      -3.625 -19.872  -9.591  1.00  0.00     0.181 C 
BRANCH   5   6
ATOM      6  C   UNL     1      -2.156 -20.389  -9.596  1.00  0.00     0.209 C 
BRANCH   6   7
ATOM      7  C   UNL     1      -1.166 -19.298  -9.299  1.00  0.00     0.258 C 
ATOM      8  O   UNL     1      -1.495 -18.125  -9.383  1.00  0.00    -0.300 OA
ENDBRANCH   6   7
BRANCH   6   9
ATOM      9  O   UNL     1      -1.835 -20.990 -10.823  1.00  0.00    -0.383 OA
ATOM     10  H   UNL     1      -1.648 -21.946 -10.635  1.00  0.00     0.211 HD
ENDBRANCH   6   9
ENDBRANCH   5   6
BRANCH   5  11
ATOM     11  O   UNL     1      -3.888 -19.276  -8.345  1.00  0.00    -0.387 OA
ATOM     12  H   UNL     1      -3.293 -18.484  -8.268  1.00  0.00     0.211 HD
ENDBRANCH   5  11
ENDBRANCH   1   5
BRANCH   1  13
ATOM     13  O   UNL     1      -4.646 -21.422 -11.165  1.00  0.00    -0.388 OA
ATOM     14  H   UNL     1      -4.917 -20.665 -11.749  1.00  0.00     0.211 HD
ENDBRANCH   1  13
TORSDOF 8
ENDMDL
MODEL 7
REMARK VINA RESULT:    -3.905     11.742     12.630
REMARK INTER + INTRA:          -5.888
REMARK INTER:                  -5.586
REMARK INTRA:                  -0.303
REMARK UNBOUND:                -0.614
REMARK SMILES O=C[C@H](O)[C@H](O)[C@@H](O)CO
REMARK SMILES IDX 7 1 9 2 10 3 5 5 3 6 2 7 1 8 4 9 6 11 8 13
REMARK H PARENT 10 4 4 10 6 12 8 14
REMARK Flexibility Score: inf
ROOT
ATOM      1  C   UNL     1      -0.276 -19.054 -10.361  1.00  0.00     0.171 C 
ENDROOT
BRANCH   1   2
ATOM      2  C   UNL     1      -0.704 -17.907 -11.295  1.00  0.00     0.190 C 
BRANCH   2   3
ATOM      3  O   UNL     1      -0.595 -16.658 -10.662  1.00  0.00    -0.394 OA
ATOM      4  H   UNL     1      -0.953 -16.769  -9.743  1.00  0.00     0.210 HD
ENDBRANCH   2   3
ENDBRANCH   1   2
BRANCH   1   5
ATOM      5  C   UNL     1      -1.451 -19.913  -9.809  1.00  0.00     0.181 C 
BRANCH   5   6
ATOM      6  C   UNL     1      -1.133 -20.663  -8.483  1.00  0.00     0.209 C 
BRANCH   6   7
ATOM      7  C   UNL     1      -0.941 -19.722  -7.326  1.00  0.00     0.258 C 
ATOM      8  O   UNL     1      -0.036 -19.902  -6.527  1.00  0.00    -0.300 OA
ENDBRANCH   6   7
BRANCH   6   9
ATOM      9  O   UNL     1       0.006 -21.473  -8.619  1.00  0.00    -0.383 OA
ATOM     10  H   UNL     1      -0.035 -21.876  -9.525  1.00  0.00     0.211 HD
ENDBRANCH   6   9
ENDBRANCH   5   6
BRANCH   5  11
ATOM     11  O   UNL     1      -1.795 -20.860 -10.790  1.00  0.00    -0.387 OA
ATOM     12  H   UNL     1      -1.739 -20.402 -11.670  1.00  0.00     0.211 HD
ENDBRANCH   5  11
ENDBRANCH   1   5
BRANCH   1  13
ATOM     13  O   UNL     1       0.664 -19.873 -11.013  1.00  0.00    -0.388 OA
ATOM     14  H   UNL     1       1.374 -19.286 -11.382  1.00  0.00     0.211 HD
ENDBRANCH   1  13
TORSDOF 8
ENDMDL
MODEL 8
REMARK VINA RESULT:    -3.834     14.193     15.308
REMARK INTER + INTRA:          -5.793
REMARK INTER:                  -5.095
REMARK INTRA:                  -0.698
REMARK UNBOUND:                -0.614
REMARK SMILES O=C[C@H](O)[C@H](O)[C@@H](O)CO
REMARK SMILES IDX 7 1 9 2 10 3 5 5 3 6 2 7 1 8 4 9 6 11 8 13
REMARK H PARENT 10 4 4 10 6 12 8 14
REMARK Flexibility Score: inf
ROOT
ATOM      1  C   UNL     1      -3.853 -21.603  -9.410  1.00  0.00     0.171 C 
ENDROOT
BRANCH   1   2
ATOM      2  C   UNL     1      -5.212 -20.961  -9.744  1.00  0.00     0.190 C 
BRANCH   2   3
ATOM      3  O   UNL     1      -5.529 -21.104 -11.105  1.00  0.00    -0.394 OA
ATOM      4  H   UNL     1      -6.492 -21.336 -11.153  1.00  0.00     0.210 HD
ENDBRANCH   2   3
ENDBRANCH   1   2
BRANCH   1   5
ATOM      5  C   UNL     1      -2.618 -20.827  -9.955  1.00  0.00     0.181 C 
BRANCH   5   6
ATOM      6  C   UNL     1      -1.492 -20.592  -8.906  1.00  0.00     0.209 C 
BRANCH   6   7
ATOM      7  C   UNL     1      -1.540 -19.210  -8.316  1.00  0.00     0.258 C 
ATOM      8  O   UNL     1      -2.504 -18.854  -7.655  1.00  0.00    -0.300 OA
ENDBRANCH   6   7
BRANCH   6   9
ATOM      9  O   UNL     1      -0.224 -20.816  -9.465  1.00  0.00    -0.383 OA
ATOM     10  H   UNL     1      -0.102 -21.799  -9.518  1.00  0.00     0.211 HD
ENDBRANCH   6   9
ENDBRANCH   5   6
BRANCH   5  11
ATOM     11  O   UNL     1      -3.063 -19.579 -10.425  1.00  0.00    -0.387 OA
ATOM     12  H   UNL     1      -3.586 -19.747 -11.252  1.00  0.00     0.211 HD
ENDBRANCH   5  11
ENDBRANCH   1   5
BRANCH   1  13
ATOM     13  O   UNL     1      -3.741 -21.785  -8.019  1.00  0.00    -0.388 OA
ATOM     14  H   UNL     1      -3.652 -20.888  -7.603  1.00  0.00     0.211 HD
ENDBRANCH   1  13
TORSDOF 8
ENDMDL
MODEL 9
REMARK VINA RESULT:    -3.807     12.584     13.564
REMARK INTER + INTRA:          -5.756
REMARK INTER:                  -5.071
REMARK INTRA:                  -0.686
REMARK UNBOUND:                -0.614
REMARK SMILES O=C[C@H](O)[C@H](O)[C@@H](O)CO
REMARK SMILES IDX 7 1 9 2 10 3 5 5 3 6 2 7 1 8 4 9 6 11 8 13
REMARK H PARENT 10 4 4 10 6 12 8 14
REMARK Flexibility Score: inf
ROOT
ATOM      1  C   UNL     1      -0.766 -19.036 -10.673  1.00  0.00     0.171 C 
ENDROOT
BRANCH   1   2
ATOM      2  C   UNL     1       0.771 -18.959 -10.732  1.00  0.00     0.190 C 
BRANCH   2   3
ATOM      3  O   UNL     1       1.335 -20.195 -11.087  1.00  0.00    -0.394 OA
ATOM      4  H   UNL     1       0.603 -20.748 -11.465  1.00  0.00     0.210 HD
ENDBRANCH   2   3
ENDBRANCH   1   2
BRANCH   1   5
ATOM      5  C   UNL     1      -1.332 -20.444 -10.327  1.00  0.00     0.181 C 
BRANCH   5   6
ATOM      6  C   UNL     1      -2.841 -20.456  -9.949  1.00  0.00     0.209 C 
BRANCH   6   7
ATOM      7  C   UNL     1      -3.061 -20.709  -8.483  1.00  0.00     0.258 C 
ATOM      8  O   UNL     1      -2.744 -19.868  -7.657  1.00  0.00    -0.300 OA
ENDBRANCH   6   7
BRANCH   6   9
ATOM      9  O   UNL     1      -3.544 -21.414 -10.698  1.00  0.00    -0.383 OA
ATOM     10  H   UNL     1      -4.479 -21.089 -10.774  1.00  0.00     0.211 HD
ENDBRANCH   6   9
ENDBRANCH   5   6
BRANCH   5  11
ATOM     11  O   UNL     1      -0.593 -20.955  -9.246  1.00  0.00    -0.387 OA
ATOM     12  H   UNL     1       0.330 -20.597  -9.327  1.00  0.00     0.211 HD
ENDBRANCH   5  11
ENDBRANCH   1   5
BRANCH   1  13
ATOM     13  O   UNL     1      -1.256 -18.076  -9.767  1.00  0.00    -0.388 OA
ATOM     14  H   UNL     1      -0.836 -18.251  -8.885  1.00  0.00     0.211 HD
ENDBRANCH   1  13
TORSDOF 8
ENDMDL
