MODEL 1
REMARK VINA RESULT:    -2.980      0.000      0.000
REMARK INTER + INTRA:          -4.035
REMARK INTER:                  -3.851
REMARK INTRA:                  -0.183
REMARK UNBOUND:                -0.183
REMARK SMILES CCCCCCC=O
REMARK SMILES IDX 4 1 3 2 2 3 1 4 5 5 6 6 7 7 8 8
REMARK H PARENT
REMARK Flexibility Score: inf
ROOT
ATOM      1  C   UNL     1       6.824   2.317   6.396  1.00  0.00     0.000 C 
ENDROOT
BRANCH   1   2
ATOM      2  C   UNL     1       7.594   1.003   6.590  1.00  0.00    -0.000 C 
BRANCH   2   3
ATOM      3  C   UNL     1       8.536   0.692   5.417  1.00  0.00    -0.003 C 
ATOM      4  C   UNL     1       9.242  -0.655   5.565  1.00  0.00     0.004 C 
ENDBRANCH   2   3
ENDBRANCH   1   2
BRANCH   1   5
ATOM      5  C   UNL     1       7.402   3.126   5.229  1.00  0.00     0.008 C 
BRANCH   5   6
ATOM      6  C   UNL     1       6.808   4.538   5.190  1.00  0.00     0.072 C 
BRANCH   6   7
ATOM      7  C   UNL     1       5.449   4.566   5.823  1.00  0.00     0.224 C 
ATOM      8  O   UNL     1       4.446   4.658   5.132  1.00  0.00    -0.303 OA
ENDBRANCH   6   7
ENDBRANCH   5   6
ENDBRANCH   1   5
TORSDOF 5
ENDMDL
MODEL 2
REMARK VINA RESULT:    -2.975      1.326      1.782
REMARK INTER + INTRA:          -4.029
REMARK INTER:                  -3.704
REMARK INTRA:                  -0.324
REMARK UNBOUND:                -0.183
REMARK SMILES CCCCCCC=O
REMARK SMILES IDX 4 1 3 2 2 3 1 4 5 5 6 6 7 7 8 8
REMARK H PARENT
REMARK Flexibility Score: inf
ROOT
ATOM      1  C   UNL     1       8.307   3.587   5.711  1.00  0.00     0.000 C 
ENDROOT
BRANCH   1   2
ATOM      2  C   UNL     1       8.290   2.185   5.086  1.00  0.00    -0.000 C 
BRANCH   2   3
ATOM      3  C   UNL     1       7.302   1.238   5.785  1.00  0.00    -0.003 C 
ATOM      4  C   UNL     1       7.258   1.441   7.298  1.00  0.00     0.004 C 
ENDBRANCH   2   3
ENDBRANCH   1   2
BRANCH   1   5
ATOM      5  C   UNL     1       7.330   4.522   4.990  1.00  0.00     0.008 C 
BRANCH   5   6
ATOM      6  C   UNL     1       6.201   4.968   5.925  1.00  0.00     0.072 C 
BRANCH   6   7
ATOM      7  C   UNL     1       4.954   4.172   5.680  1.00  0.00     0.224 C 
ATOM      8  O   UNL     1       4.068   4.616   4.967  1.00  0.00    -0.303 OA
ENDBRANCH   6   7
ENDBRANCH   5   6
ENDBRANCH   1   5
TORSDOF 5
ENDMDL
MODEL 3
REMARK VINA RESULT:    -2.795     14.402     14.868
REMARK INTER + INTRA:          -3.796
REMARK INTER:                  -3.618
REMARK INTRA:                  -0.178
REMARK UNBOUND:                -0.183
REMARK SMILES CCCCCCC=O
REMARK SMILES IDX 4 1 3 2 2 3 1 4 5 5 6 6 7 7 8 8
REMARK H PARENT
REMARK Flexibility Score: inf
ROOT
ATOM      1  C   UNL     1       2.426  -5.155  -7.322  1.00  0.00     0.000 C 
ENDROOT
BRANCH   1   2
ATOM      2  C   UNL     1       3.826  -5.203  -6.694  1.00  0.00    -0.000 C 
BRANCH   2   3
ATOM      3  C   UNL     1       4.083  -6.506  -5.922  1.00  0.00    -0.003 C 
ATOM      4  C   UNL     1       3.104  -7.618  -6.296  1.00  0.00     0.004 C 
ENDBRANCH   2   3
ENDBRANCH   1   2
BRANCH   1   5
ATOM      5  C   UNL     1       1.885  -3.721  -7.349  1.00  0.00     0.008 C 
BRANCH   5   6
ATOM      6  C   UNL     1       3.012  -2.704  -7.142  1.00  0.00     0.072 C 
BRANCH   6   7
ATOM      7  C   UNL     1       2.470  -1.306  -7.084  1.00  0.00     0.224 C 
ATOM      8  O   UNL     1       1.311  -1.105  -6.757  1.00  0.00    -0.303 OA
ENDBRANCH   6   7
ENDBRANCH   5   6
ENDBRANCH   1   5
TORSDOF 5
ENDMDL
MODEL 4
REMARK VINA RESULT:    -2.676      2.667      4.578
REMARK INTER + INTRA:          -3.642
REMARK INTER:                  -3.453
REMARK INTRA:                  -0.189
REMARK UNBOUND:                -0.183
REMARK SMILES CCCCCCC=O
REMARK SMILES IDX 4 1 3 2 2 3 1 4 5 5 6 6 7 7 8 8
REMARK H PARENT
REMARK Flexibility Score: inf
ROOT
ATOM      1  C   UNL     1       6.989   2.563   6.738  1.00  0.00     0.000 C 
ENDROOT
BRANCH   1   2
ATOM      2  C   UNL     1       5.648   3.157   6.282  1.00  0.00    -0.000 C 
BRANCH   2   3
ATOM      3  C   UNL     1       5.788   4.591   5.748  1.00  0.00    -0.003 C 
ATOM      4  C   UNL     1       7.098   4.818   4.997  1.00  0.00     0.004 C 
ENDBRANCH   2   3
ENDBRANCH   1   2
BRANCH   1   5
ATOM      5  C   UNL     1       7.274   1.237   6.023  1.00  0.00     0.008 C 
BRANCH   5   6
ATOM      6  C   UNL     1       8.321   1.421   4.920  1.00  0.00     0.072 C 
BRANCH   6   7
ATOM      7  C   UNL     1       9.342   0.323   4.961  1.00  0.00     0.224 C 
ATOM      8  O   UNL     1       8.992  -0.846   5.012  1.00  0.00    -0.303 OA
ENDBRANCH   6   7
ENDBRANCH   5   6
ENDBRANCH   1   5
TORSDOF 5
ENDMDL
MODEL 5
REMARK VINA RESULT:    -2.675     13.221     14.028
REMARK INTER + INTRA:          -3.641
REMARK INTER:                  -3.484
REMARK INTRA:                  -0.157
REMARK UNBOUND:                -0.183
REMARK SMILES CCCCCCC=O
REMARK SMILES IDX 4 1 3 2 2 3 1 4 5 5 6 6 7 7 8 8
REMARK H PARENT
REMARK Flexibility Score: inf
ROOT
ATOM      1  C   UNL     1       4.771  -6.068  -5.589  1.00  0.00     0.000 C 
ENDROOT
BRANCH   1   2
ATOM      2  C   UNL     1       5.490  -4.738  -5.322  1.00  0.00    -0.000 C 
BRANCH   2   3
ATOM      3  C   UNL     1       5.938  -4.592  -3.859  1.00  0.00    -0.003 C 
ATOM      4  C   UNL     1       6.234  -3.143  -3.473  1.00  0.00     0.004 C 
ENDBRANCH   2   3
ENDBRANCH   1   2
BRANCH   1   5
ATOM      5  C   UNL     1       3.590  -5.871  -6.547  1.00  0.00     0.008 C 
BRANCH   5   6
ATOM      6  C   UNL     1       3.509  -4.419  -7.028  1.00  0.00     0.072 C 
BRANCH   6   7
ATOM      7  C   UNL     1       2.143  -4.105  -7.562  1.00  0.00     0.224 C 
ATOM      8  O   UNL     1       1.459  -3.238  -7.039  1.00  0.00    -0.303 OA
ENDBRANCH   6   7
ENDBRANCH   5   6
ENDBRANCH   1   5
TORSDOF 5
ENDMDL
MODEL 6
REMARK VINA RESULT:    -2.669     15.050     15.941
REMARK INTER + INTRA:          -3.633
REMARK INTER:                  -3.473
REMARK INTRA:                  -0.159
REMARK UNBOUND:                -0.183
REMARK SMILES CCCCCCC=O
REMARK SMILES IDX 4 1 3 2 2 3 1 4 5 5 6 6 7 7 8 8
REMARK H PARENT
REMARK Flexibility Score: inf
ROOT
ATOM      1  C   UNL     1      -8.148   0.823   0.967  1.00  0.00     0.000 C 
ENDROOT
BRANCH   1   2
ATOM      2  C   UNL     1      -7.088   1.603   0.177  1.00  0.00    -0.000 C 
BRANCH   2   3
ATOM      3  C   UNL     1      -7.525   3.042  -0.137  1.00  0.00    -0.003 C 
ATOM      4  C   UNL     1      -6.397   4.057   0.045  1.00  0.00     0.004 C 
ENDBRANCH   2   3
ENDBRANCH   1   2
BRANCH   1   5
ATOM      5  C   UNL     1      -7.861   0.878   2.472  1.00  0.00     0.008 C 
BRANCH   5   6
ATOM      6  C   UNL     1      -8.317  -0.410   3.166  1.00  0.00     0.072 C 
BRANCH   6   7
ATOM      7  C   UNL     1      -8.066  -1.606   2.298  1.00  0.00     0.224 C 
ATOM      8  O   UNL     1      -7.208  -2.421   2.600  1.00  0.00    -0.303 OA
ENDBRANCH   6   7
ENDBRANCH   5   6
ENDBRANCH   1   5
TORSDOF 5
ENDMDL
MODEL 7
REMARK VINA RESULT:    -2.646     10.047     11.412
REMARK INTER + INTRA:          -3.603
REMARK INTER:                  -3.413
REMARK INTRA:                  -0.190
REMARK UNBOUND:                -0.183
REMARK SMILES CCCCCCC=O
REMARK SMILES IDX 4 1 3 2 2 3 1 4 5 5 6 6 7 7 8 8
REMARK H PARENT
REMARK Flexibility Score: inf
ROOT
ATOM      1  C   UNL     1       0.498   9.152  -0.195  1.00  0.00     0.000 C 
ENDROOT
BRANCH   1   2
ATOM      2  C   UNL     1       1.054   8.911  -1.606  1.00  0.00    -0.000 C 
BRANCH   2   3
ATOM      3  C   UNL     1       2.565   9.175  -1.699  1.00  0.00    -0.003 C 
ATOM      4  C   UNL     1       3.272   9.048  -0.351  1.00  0.00     0.004 C 
ENDBRANCH   2   3
ENDBRANCH   1   2
BRANCH   1   5
ATOM      5  C   UNL     1      -0.905   8.552  -0.048  1.00  0.00     0.008 C 
BRANCH   5   6
ATOM      6  C   UNL     1      -1.252   7.664  -1.248  1.00  0.00     0.072 C 
BRANCH   6   7
ATOM      7  C   UNL     1      -2.170   6.549  -0.843  1.00  0.00     0.224 C 
ATOM      8  O   UNL     1      -1.766   5.641  -0.134  1.00  0.00    -0.303 OA
ENDBRANCH   6   7
ENDBRANCH   5   6
ENDBRANCH   1   5
TORSDOF 5
ENDMDL
MODEL 8
REMARK VINA RESULT:    -2.584     11.077     12.449
REMARK INTER + INTRA:          -3.522
REMARK INTER:                  -3.256
REMARK INTRA:                  -0.266
REMARK UNBOUND:                -0.183
REMARK SMILES CCCCCCC=O
REMARK SMILES IDX 4 1 3 2 2 3 1 4 5 5 6 6 7 7 8 8
REMARK H PARENT
REMARK Flexibility Score: inf
ROOT
ATOM      1  C   UNL     1      -4.418   6.778   1.868  1.00  0.00     0.000 C 
ENDROOT
BRANCH   1   2
ATOM      2  C   UNL     1      -4.623   6.619   3.381  1.00  0.00    -0.000 C 
BRANCH   2   3
ATOM      3  C   UNL     1      -3.402   7.078   4.194  1.00  0.00    -0.003 C 
ATOM      4  C   UNL     1      -2.211   7.451   3.313  1.00  0.00     0.004 C 
ENDBRANCH   2   3
ENDBRANCH   1   2
BRANCH   1   5
ATOM      5  C   UNL     1      -4.991   5.577   1.107  1.00  0.00     0.008 C 
BRANCH   5   6
ATOM      6  C   UNL     1      -4.029   5.110   0.009  1.00  0.00     0.072 C 
BRANCH   6   7
ATOM      7  C   UNL     1      -2.881   6.063  -0.139  1.00  0.00     0.224 C 
ATOM      8  O   UNL     1      -1.731   5.653  -0.123  1.00  0.00    -0.303 OA
ENDBRANCH   6   7
ENDBRANCH   5   6
ENDBRANCH   1   5
TORSDOF 5
ENDMDL
MODEL 9
REMARK VINA RESULT:    -2.527      1.939      4.173
REMARK INTER + INTRA:          -3.449
REMARK INTER:                  -3.152
REMARK INTRA:                  -0.297
REMARK UNBOUND:                -0.183
REMARK SMILES CCCCCCC=O
REMARK SMILES IDX 4 1 3 2 2 3 1 4 5 5 6 6 7 7 8 8
REMARK H PARENT
REMARK Flexibility Score: inf
ROOT
ATOM      1  C   UNL     1       8.039   3.616   5.729  1.00  0.00     0.000 C 
ENDROOT
BRANCH   1   2
ATOM      2  C   UNL     1       7.071   4.568   5.013  1.00  0.00    -0.000 C 
BRANCH   2   3
ATOM      3  C   UNL     1       5.673   4.578   5.649  1.00  0.00    -0.003 C 
ATOM      4  C   UNL     1       5.628   5.353   6.966  1.00  0.00     0.004 C 
ENDBRANCH   2   3
ENDBRANCH   1   2
BRANCH   1   5
ATOM      5  C   UNL     1       8.161   2.287   4.976  1.00  0.00     0.008 C 
BRANCH   5   6
ATOM      6  C   UNL     1       7.417   1.167   5.711  1.00  0.00     0.072 C 
BRANCH   6   7
ATOM      7  C   UNL     1       7.142   1.550   7.135  1.00  0.00     0.224 C 
ATOM      8  O   UNL     1       6.012   1.463   7.592  1.00  0.00    -0.303 OA
ENDBRANCH   6   7
ENDBRANCH   5   6
ENDBRANCH   1   5
TORSDOF 5
ENDMDL
