MODEL 1
REMARK VINA RESULT:    -2.820      0.000      0.000
REMARK INTER + INTRA:          -6.000
REMARK INTER:                  -5.128
REMARK INTRA:                  -0.873
REMARK UNBOUND:                -0.873
REMARK SMILES CCCCCCCCCCCCCC[C@H](C)C(=O)[O-]
REMARK SMILES IDX 9 1 10 2 11 3 12 4 13 5 14 6 15 7 16 8 17 9 18 10 19 11 8 12
REMARK SMILES IDX 7 13 6 14 5 15 4 16 3 17 2 18 1 19
REMARK H PARENT
REMARK Flexibility Score: inf
ROOT
ATOM      1  C   UNL     1      33.678  18.912  13.762  1.00  0.00     0.000 C 
ENDROOT
BRANCH   1   2
ATOM      2  C   UNL     1      32.938  19.755  12.707  1.00  0.00     0.000 C 
BRANCH   2   3
ATOM      3  C   UNL     1      32.875  21.269  12.998  1.00  0.00     0.000 C 
BRANCH   3   4
ATOM      4  C   UNL     1      34.237  21.946  13.234  1.00  0.00     0.000 C 
BRANCH   4   5
ATOM      5  C   UNL     1      34.559  23.019  12.183  1.00  0.00     0.001 C 
BRANCH   5   6
ATOM      6  C   UNL     1      34.016  22.616  10.803  1.00  0.00     0.009 C 
BRANCH   6   7
ATOM      7  C   UNL     1      35.042  22.864   9.678  1.00  0.00     0.032 C 
ATOM      8  C   UNL     1      34.513  22.339   8.340  1.00  0.00     0.014 C 
BRANCH   7   9
ATOM      9  C   UNL     1      36.364  22.214   9.991  1.00  0.00     0.044 C 
ATOM     10  O   UNL     1      36.677  21.124   9.444  1.00  0.00    -0.550 OA
ATOM     11  O   UNL     1      37.246  22.810  10.884  1.00  0.00    -0.550 OA
ENDBRANCH   7   9
ENDBRANCH   6   7
ENDBRANCH   5   6
ENDBRANCH   4   5
ENDBRANCH   3   4
ENDBRANCH   2   3
ENDBRANCH   1   2
BRANCH   1  12
ATOM     12  C   UNL     1      32.882  18.758  15.069  1.00  0.00     0.000 C 
BRANCH  12  13
ATOM     13  C   UNL     1      33.713  19.101  16.319  1.00  0.00    -0.000 C 
BRANCH  13  14
ATOM     14  C   UNL     1      34.596  20.360  16.199  1.00  0.00    -0.000 C 
BRANCH  14  15
ATOM     15  C   UNL     1      36.094  20.089  15.970  1.00  0.00    -0.000 C 
BRANCH  15  16
ATOM     16  C   UNL     1      36.928  21.377  15.896  1.00  0.00    -0.000 C 
BRANCH  16  17
ATOM     17  C   UNL     1      37.147  21.803  14.436  1.00  0.00    -0.000 C 
BRANCH  17  18
ATOM     18  C   UNL     1      38.219  22.895  14.294  1.00  0.00    -0.003 C 
ATOM     19  C   UNL     1      39.600  22.431  14.756  1.00  0.00     0.004 C 
ENDBRANCH  17  18
ENDBRANCH  16  17
ENDBRANCH  15  16
ENDBRANCH  14  15
ENDBRANCH  13  14
ENDBRANCH  12  13
ENDBRANCH   1  12
TORSDOF 14
ENDMDL
MODEL 2
REMARK VINA RESULT:    -2.403     13.420     16.878
REMARK INTER + INTRA:          -5.243
REMARK INTER:                  -4.371
REMARK INTRA:                  -0.872
REMARK UNBOUND:                -0.873
REMARK SMILES CCCCCCCCCCCCCC[C@H](C)C(=O)[O-]
REMARK SMILES IDX 9 1 10 2 11 3 12 4 13 5 14 6 15 7 16 8 17 9 18 10 19 11 8 12
REMARK SMILES IDX 7 13 6 14 5 15 4 16 3 17 2 18 1 19
REMARK H PARENT
REMARK Flexibility Score: inf
ROOT
ATOM      1  C   UNL     1      46.855  21.250  16.493  1.00  0.00     0.000 C 
ENDROOT
BRANCH   1   2
ATOM      2  C   UNL     1      47.338  22.583  17.093  1.00  0.00     0.000 C 
BRANCH   2   3
ATOM      3  C   UNL     1      48.238  22.458  18.340  1.00  0.00     0.000 C 
BRANCH   3   4
ATOM      4  C   UNL     1      49.642  23.072  18.197  1.00  0.00     0.000 C 
BRANCH   4   5
ATOM      5  C   UNL     1      50.408  23.123  19.527  1.00  0.00     0.001 C 
BRANCH   5   6
ATOM      6  C   UNL     1      49.540  22.601  20.682  1.00  0.00     0.009 C 
BRANCH   6   7
ATOM      7  C   UNL     1      50.208  21.429  21.430  1.00  0.00     0.032 C 
ATOM      8  C   UNL     1      49.150  20.493  22.021  1.00  0.00     0.014 C 
BRANCH   7   9
ATOM      9  C   UNL     1      51.114  21.926  22.524  1.00  0.00     0.044 C 
ATOM     10  O   UNL     1      50.773  22.912  23.228  1.00  0.00    -0.550 OA
ATOM     11  O   UNL     1      52.333  21.302  22.766  1.00  0.00    -0.550 OA
ENDBRANCH   7   9
ENDBRANCH   6   7
ENDBRANCH   5   6
ENDBRANCH   4   5
ENDBRANCH   3   4
ENDBRANCH   2   3
ENDBRANCH   1   2
BRANCH   1  12
ATOM     12  C   UNL     1      47.955  20.514  15.710  1.00  0.00     0.000 C 
BRANCH  12  13
ATOM     13  C   UNL     1      49.121  21.435  15.307  1.00  0.00    -0.000 C 
BRANCH  13  14
ATOM     14  C   UNL     1      50.504  20.756  15.236  1.00  0.00    -0.000 C 
BRANCH  14  15
ATOM     15  C   UNL     1      51.493  21.389  14.240  1.00  0.00    -0.000 C 
BRANCH  15  16
ATOM     16  C   UNL     1      52.946  21.347  14.734  1.00  0.00    -0.000 C 
BRANCH  16  17
ATOM     17  C   UNL     1      53.019  20.810  16.172  1.00  0.00    -0.000 C 
BRANCH  17  18
ATOM     18  C   UNL     1      52.898  21.923  17.224  1.00  0.00    -0.003 C 
ATOM     19  C   UNL     1      53.025  21.401  18.655  1.00  0.00     0.004 C 
ENDBRANCH  17  18
ENDBRANCH  16  17
ENDBRANCH  15  16
ENDBRANCH  14  15
ENDBRANCH  13  14
ENDBRANCH  12  13
ENDBRANCH   1  12
TORSDOF 14
ENDMDL
MODEL 3
REMARK VINA RESULT:    -0.931      3.267      6.111
REMARK INTER + INTRA:          -2.565
REMARK INTER:                  -2.836
REMARK INTRA:                   0.271
REMARK UNBOUND:                -0.873
REMARK SMILES CCCCCCCCCCCCCC[C@H](C)C(=O)[O-]
REMARK SMILES IDX 9 1 10 2 11 3 12 4 13 5 14 6 15 7 16 8 17 9 18 10 19 11 8 12
REMARK SMILES IDX 7 13 6 14 5 15 4 16 3 17 2 18 1 19
REMARK H PARENT
REMARK Flexibility Score: inf
ROOT
ATOM      1  C   UNL     1      37.006  21.263  14.598  1.00  0.00     0.000 C 
ENDROOT
BRANCH   1   2
ATOM      2  C   UNL     1      37.022  20.221  15.731  1.00  0.00     0.000 C 
BRANCH   2   3
ATOM      3  C   UNL     1      35.635  19.731  16.197  1.00  0.00     0.000 C 
BRANCH   3   4
ATOM      4  C   UNL     1      34.871  20.706  17.111  1.00  0.00     0.000 C 
BRANCH   4   5
ATOM      5  C   UNL     1      33.360  20.436  17.140  1.00  0.00     0.001 C 
BRANCH   5   6
ATOM      6  C   UNL     1      32.875  19.885  15.790  1.00  0.00     0.009 C 
BRANCH   6   7
ATOM      7  C   UNL     1      33.495  18.511  15.465  1.00  0.00     0.032 C 
ATOM      8  C   UNL     1      33.053  18.034  14.078  1.00  0.00     0.014 C 
BRANCH   7   9
ATOM      9  C   UNL     1      33.117  17.483  16.499  1.00  0.00     0.044 C 
ATOM     10  O   UNL     1      32.917  16.288  16.157  1.00  0.00    -0.550 OA
ATOM     11  O   UNL     1      32.985  17.845  17.834  1.00  0.00    -0.550 OA
ENDBRANCH   7   9
ENDBRANCH   6   7
ENDBRANCH   5   6
ENDBRANCH   4   5
ENDBRANCH   3   4
ENDBRANCH   2   3
ENDBRANCH   1   2
BRANCH   1  12
ATOM     12  C   UNL     1      36.450  22.625  15.047  1.00  0.00     0.000 C 
BRANCH  12  13
ATOM     13  C   UNL     1      35.285  23.114  14.168  1.00  0.00    -0.000 C 
BRANCH  13  14
ATOM     14  C   UNL     1      34.242  22.040  13.797  1.00  0.00    -0.000 C 
BRANCH  14  15
ATOM     15  C   UNL     1      34.036  21.822  12.286  1.00  0.00    -0.000 C 
BRANCH  15  16
ATOM     16  C   UNL     1      35.075  20.870  11.675  1.00  0.00    -0.000 C 
BRANCH  16  17
ATOM     17  C   UNL     1      36.055  21.635  10.773  1.00  0.00    -0.000 C 
BRANCH  17  18
ATOM     18  C   UNL     1      35.355  22.686   9.898  1.00  0.00    -0.003 C 
ATOM     19  C   UNL     1      34.754  22.092   8.625  1.00  0.00     0.004 C 
ENDBRANCH  17  18
ENDBRANCH  16  17
ENDBRANCH  15  16
ENDBRANCH  14  15
ENDBRANCH  13  14
ENDBRANCH  12  13
ENDBRANCH   1  12
TORSDOF 14
ENDMDL
MODEL 4
REMARK VINA RESULT:    -0.709      2.109      5.762
REMARK INTER + INTRA:          -2.161
REMARK INTER:                  -1.470
REMARK INTRA:                  -0.691
REMARK UNBOUND:                -0.873
REMARK SMILES CCCCCCCCCCCCCC[C@H](C)C(=O)[O-]
REMARK SMILES IDX 9 1 10 2 11 3 12 4 13 5 14 6 15 7 16 8 17 9 18 10 19 11 8 12
REMARK SMILES IDX 7 13 6 14 5 15 4 16 3 17 2 18 1 19
REMARK H PARENT
REMARK Flexibility Score: inf
ROOT
ATOM      1  C   UNL     1      37.201  21.223  13.655  1.00  0.00     0.000 C 
ENDROOT
BRANCH   1   2
ATOM      2  C   UNL     1      37.472  21.140  15.168  1.00  0.00     0.000 C 
BRANCH   2   3
ATOM      3  C   UNL     1      36.265  20.720  16.031  1.00  0.00     0.000 C 
BRANCH   3   4
ATOM      4  C   UNL     1      35.023  21.621  15.901  1.00  0.00     0.000 C 
BRANCH   4   5
ATOM      5  C   UNL     1      33.776  20.854  15.439  1.00  0.00     0.001 C 
BRANCH   5   6
ATOM      6  C   UNL     1      34.160  19.496  14.832  1.00  0.00     0.009 C 
BRANCH   6   7
ATOM      7  C   UNL     1      32.923  18.661  14.442  1.00  0.00     0.032 C 
ATOM      8  C   UNL     1      32.877  17.358  15.245  1.00  0.00     0.014 C 
BRANCH   7   9
ATOM      9  C   UNL     1      32.915  18.350  12.969  1.00  0.00     0.044 C 
ATOM     10  O   UNL     1      32.876  17.155  12.576  1.00  0.00    -0.550 OA
ATOM     11  O   UNL     1      32.953  19.377  12.033  1.00  0.00    -0.550 OA
ENDBRANCH   7   9
ENDBRANCH   6   7
ENDBRANCH   5   6
ENDBRANCH   4   5
ENDBRANCH   3   4
ENDBRANCH   2   3
ENDBRANCH   1   2
BRANCH   1  12
ATOM     12  C   UNL     1      36.703  22.610  13.212  1.00  0.00     0.000 C 
BRANCH  12  13
ATOM     13  C   UNL     1      35.751  22.546  12.004  1.00  0.00    -0.000 C 
BRANCH  13  14
ATOM     14  C   UNL     1      34.256  22.744  12.331  1.00  0.00    -0.000 C 
BRANCH  14  15
ATOM     15  C   UNL     1      33.288  22.424  11.177  1.00  0.00    -0.000 C 
BRANCH  15  16
ATOM     16  C   UNL     1      33.951  21.619  10.049  1.00  0.00    -0.000 C 
BRANCH  16  17
ATOM     17  C   UNL     1      34.221  22.512   8.828  1.00  0.00    -0.000 C 
BRANCH  17  18
ATOM     18  C   UNL     1      35.721  22.713   8.565  1.00  0.00    -0.003 C 
ATOM     19  C   UNL     1      36.593  21.700   9.304  1.00  0.00     0.004 C 
ENDBRANCH  17  18
ENDBRANCH  16  17
ENDBRANCH  15  16
ENDBRANCH  14  15
ENDBRANCH  13  14
ENDBRANCH  12  13
ENDBRANCH   1  12
TORSDOF 14
ENDMDL
