MODEL 1
REMARK VINA RESULT:    -4.541      0.000      0.000
REMARK INTER + INTRA:          -4.674
REMARK INTER:                  -4.674
REMARK INTRA:                   0.000
REMARK UNBOUND:                 0.000
REMARK SMILES Oc1ccc2[nH]ccc2c1
REMARK SMILES IDX 3 1 4 2 5 3 9 4 8 5 7 6 6 7 10 8 2 9 1 11
REMARK H PARENT 6 10 1 12
REMARK Flexibility Score: inf
ROOT
ATOM      1  C   UNL     1      17.371  -1.840   9.496  1.00  0.00     0.048 A 
ATOM      2  C   UNL     1      18.741  -2.080   9.286  1.00  0.00     0.030 A 
ATOM      3  C   UNL     1      19.650  -1.162   9.809  1.00  0.00     0.046 A 
ATOM      4  C   UNL     1      19.238  -0.059  10.507  1.00  0.00     0.003 A 
ATOM      5  C   UNL     1      20.367   0.636  10.883  1.00  0.00     0.028 A 
ATOM      6  C   UNL     1      21.432  -0.103  10.381  1.00  0.00     0.083 A 
ATOM      7  N   UNL     1      20.991  -1.201   9.725  1.00  0.00    -0.361 N 
ATOM      8  C   UNL     1      17.890   0.209  10.732  1.00  0.00     0.056 A 
ATOM      9  C   UNL     1      16.943  -0.698  10.218  1.00  0.00     0.116 A 
ATOM     10  H   UNL     1      21.574  -1.927   9.253  1.00  0.00     0.166 HD
ENDROOT
BRANCH   9  11
ATOM     11  O   UNL     1      15.586  -0.460  10.425  1.00  0.00    -0.508 OA
ATOM     12  H   UNL     1      14.912  -1.218  10.435  1.00  0.00     0.293 HD
ENDBRANCH   9  11
TORSDOF 1
ENDMDL
MODEL 2
REMARK VINA RESULT:    -3.990      1.453      2.221
REMARK INTER + INTRA:          -4.107
REMARK INTER:                  -4.107
REMARK INTRA:                   0.000
REMARK UNBOUND:                 0.000
REMARK SMILES Oc1ccc2[nH]ccc2c1
REMARK SMILES IDX 3 1 4 2 5 3 9 4 8 5 7 6 6 7 10 8 2 9 1 11
REMARK H PARENT 6 10 1 12
REMARK Flexibility Score: inf
ROOT
ATOM      1  C   UNL     1      18.504   1.256  10.376  1.00  0.00     0.048 A 
ATOM      2  C   UNL     1      19.892   1.399  10.191  1.00  0.00     0.030 A 
ATOM      3  C   UNL     1      20.703   0.303  10.481  1.00  0.00     0.046 A 
ATOM      4  C   UNL     1      20.181  -0.880  10.931  1.00  0.00     0.003 A 
ATOM      5  C   UNL     1      21.233  -1.749  11.121  1.00  0.00     0.028 A 
ATOM      6  C   UNL     1      22.368  -1.028  10.765  1.00  0.00     0.083 A 
ATOM      7  N   UNL     1      22.040   0.225  10.376  1.00  0.00    -0.361 N 
ATOM      8  C   UNL     1      18.812  -1.055  11.125  1.00  0.00     0.056 A 
ATOM      9  C   UNL     1      17.963   0.032  10.841  1.00  0.00     0.116 A 
ATOM     10  H   UNL     1      22.694   0.975  10.058  1.00  0.00     0.166 HD
ENDROOT
BRANCH   9  11
ATOM     11  O   UNL     1      16.588  -0.108  11.024  1.00  0.00    -0.508 OA
ATOM     12  H   UNL     1      15.925   0.297  10.373  1.00  0.00     0.293 HD
ENDBRANCH   9  11
TORSDOF 1
ENDMDL
MODEL 3
REMARK VINA RESULT:    -3.970     18.185     18.901
REMARK INTER + INTRA:          -4.086
REMARK INTER:                  -4.086
REMARK INTRA:                   0.000
REMARK UNBOUND:                 0.000
REMARK SMILES Oc1ccc2[nH]ccc2c1
REMARK SMILES IDX 3 1 4 2 5 3 9 4 8 5 7 6 6 7 10 8 2 9 1 11
REMARK H PARENT 6 10 1 12
REMARK Flexibility Score: inf
ROOT
ATOM      1  C   UNL     1      19.646  14.979   4.093  1.00  0.00     0.048 A 
ATOM      2  C   UNL     1      18.959  14.912   2.866  1.00  0.00     0.030 A 
ATOM      3  C   UNL     1      18.970  16.042   2.051  1.00  0.00     0.046 A 
ATOM      4  C   UNL     1      19.623  17.188   2.418  1.00  0.00     0.003 A 
ATOM      5  C   UNL     1      19.444  18.107   1.407  1.00  0.00     0.028 A 
ATOM      6  C   UNL     1      18.672  17.451   0.454  1.00  0.00     0.083 A 
ATOM      7  N   UNL     1      18.384  16.191   0.852  1.00  0.00    -0.361 N 
ATOM      8  C   UNL     1      20.312  17.289   3.626  1.00  0.00     0.056 A 
ATOM      9  C   UNL     1      20.322  16.165   4.474  1.00  0.00     0.116 A 
ATOM     10  H   UNL     1      17.822  15.482   0.331  1.00  0.00     0.166 HD
ENDROOT
BRANCH   9  11
ATOM     11  O   UNL     1      21.002  16.231   5.689  1.00  0.00    -0.508 OA
ATOM     12  H   UNL     1      20.923  15.494   6.379  1.00  0.00     0.293 HD
ENDBRANCH   9  11
TORSDOF 1
ENDMDL
MODEL 4
REMARK VINA RESULT:    -3.786     17.646     18.355
REMARK INTER + INTRA:          -3.897
REMARK INTER:                  -3.897
REMARK INTRA:                   0.000
REMARK UNBOUND:                 0.000
REMARK SMILES Oc1ccc2[nH]ccc2c1
REMARK SMILES IDX 3 1 4 2 5 3 9 4 8 5 7 6 6 7 10 8 2 9 1 11
REMARK H PARENT 6 10 1 12
REMARK Flexibility Score: inf
ROOT
ATOM      1  C   UNL     1      18.927  16.385   1.721  1.00  0.00     0.048 A 
ATOM      2  C   UNL     1      20.092  17.174   1.740  1.00  0.00     0.030 A 
ATOM      3  C   UNL     1      21.188  16.700   2.459  1.00  0.00     0.046 A 
ATOM      4  C   UNL     1      21.147  15.506   3.128  1.00  0.00     0.003 A 
ATOM      5  C   UNL     1      22.375  15.329   3.729  1.00  0.00     0.028 A 
ATOM      6  C   UNL     1      23.114  16.455   3.382  1.00  0.00     0.083 A 
ATOM      7  N   UNL     1      22.386  17.289   2.606  1.00  0.00    -0.361 N 
ATOM      8  C   UNL     1      20.010  14.700   3.130  1.00  0.00     0.056 A 
ATOM      9  C   UNL     1      18.884  15.149   2.414  1.00  0.00     0.116 A 
ATOM     10  H   UNL     1      22.694  18.203   2.206  1.00  0.00     0.166 HD
ENDROOT
BRANCH   9  11
ATOM     11  O   UNL     1      17.730  14.368   2.394  1.00  0.00    -0.508 OA
ATOM     12  H   UNL     1      16.808  14.787   2.413  1.00  0.00     0.293 HD
ENDBRANCH   9  11
TORSDOF 1
ENDMDL
MODEL 5
REMARK VINA RESULT:    -3.725     17.914     18.604
REMARK INTER + INTRA:          -3.834
REMARK INTER:                  -3.834
REMARK INTRA:                   0.000
REMARK UNBOUND:                 0.000
REMARK SMILES Oc1ccc2[nH]ccc2c1
REMARK SMILES IDX 3 1 4 2 5 3 9 4 8 5 7 6 6 7 10 8 2 9 1 11
REMARK H PARENT 6 10 1 12
REMARK Flexibility Score: inf
ROOT
ATOM      1  C   UNL     1      18.886  15.171   2.300  1.00  0.00     0.048 A 
ATOM      2  C   UNL     1      19.470  14.919   3.555  1.00  0.00     0.030 A 
ATOM      3  C   UNL     1      20.040  15.993   4.235  1.00  0.00     0.046 A 
ATOM      4  C   UNL     1      20.039  17.259   3.713  1.00  0.00     0.003 A 
ATOM      5  C   UNL     1      20.671  18.080   4.620  1.00  0.00     0.028 A 
ATOM      6  C   UNL     1      21.031  17.247   5.674  1.00  0.00     0.083 A 
ATOM      7  N   UNL     1      20.644  15.973   5.435  1.00  0.00    -0.361 N 
ATOM      8  C   UNL     1      19.470  17.543   2.472  1.00  0.00     0.056 A 
ATOM      9  C   UNL     1      18.884  16.481   1.758  1.00  0.00     0.116 A 
ATOM     10  H   UNL     1      20.786  15.147   6.057  1.00  0.00     0.166 HD
ENDROOT
BRANCH   9  11
ATOM     11  O   UNL     1      18.306  16.730   0.514  1.00  0.00    -0.508 OA
ATOM     12  H   UNL     1      17.804  16.007   0.011  1.00  0.00     0.293 HD
ENDBRANCH   9  11
TORSDOF 1
ENDMDL
MODEL 6
REMARK VINA RESULT:    -3.528     17.937     18.618
REMARK INTER + INTRA:          -3.631
REMARK INTER:                  -3.631
REMARK INTRA:                   0.000
REMARK UNBOUND:                 0.000
REMARK SMILES Oc1ccc2[nH]ccc2c1
REMARK SMILES IDX 3 1 4 2 5 3 9 4 8 5 7 6 6 7 10 8 2 9 1 11
REMARK H PARENT 6 10 1 12
REMARK Flexibility Score: inf
ROOT
ATOM      1  C   UNL     1      18.892  15.431   2.402  1.00  0.00     0.048 A 
ATOM      2  C   UNL     1      19.945  14.823   3.111  1.00  0.00     0.030 A 
ATOM      3  C   UNL     1      21.191  15.448   3.089  1.00  0.00     0.046 A 
ATOM      4  C   UNL     1      21.398  16.615   2.404  1.00  0.00     0.003 A 
ATOM      5  C   UNL     1      22.719  16.967   2.579  1.00  0.00     0.028 A 
ATOM      6  C   UNL     1      23.256  15.968   3.384  1.00  0.00     0.083 A 
ATOM      7  N   UNL     1      22.320  15.042   3.693  1.00  0.00    -0.361 N 
ATOM      8  C   UNL     1      20.378  17.243   1.691  1.00  0.00     0.056 A 
ATOM      9  C   UNL     1      19.106  16.639   1.693  1.00  0.00     0.116 A 
ATOM     10  H   UNL     1      22.451  14.188   4.280  1.00  0.00     0.166 HD
ENDROOT
BRANCH   9  11
ATOM     11  O   UNL     1      18.063  17.240   0.991  1.00  0.00    -0.508 OA
ATOM     12  H   UNL     1      17.554  18.028   1.373  1.00  0.00     0.293 HD
ENDBRANCH   9  11
TORSDOF 1
ENDMDL
MODEL 7
REMARK VINA RESULT:    -3.353     18.485     19.287
REMARK INTER + INTRA:          -3.451
REMARK INTER:                  -3.451
REMARK INTRA:                   0.000
REMARK UNBOUND:                 0.000
REMARK SMILES Oc1ccc2[nH]ccc2c1
REMARK SMILES IDX 3 1 4 2 5 3 9 4 8 5 7 6 6 7 10 8 2 9 1 11
REMARK H PARENT 6 10 1 12
REMARK Flexibility Score: inf
ROOT
ATOM      1  C   UNL     1      21.560  14.947   3.205  1.00  0.00     0.048 A 
ATOM      2  C   UNL     1      20.195  15.019   2.872  1.00  0.00     0.030 A 
ATOM      3  C   UNL     1      19.761  16.121   2.138  1.00  0.00     0.046 A 
ATOM      4  C   UNL     1      20.624  17.109   1.745  1.00  0.00     0.003 A 
ATOM      5  C   UNL     1      19.891  18.042   1.044  1.00  0.00     0.028 A 
ATOM      6  C   UNL     1      18.588  17.556   1.049  1.00  0.00     0.083 A 
ATOM      7  N   UNL     1      18.512  16.383   1.718  1.00  0.00    -0.361 N 
ATOM      8  C   UNL     1      21.981  17.069   2.058  1.00  0.00     0.056 A 
ATOM      9  C   UNL     1      22.454  15.969   2.800  1.00  0.00     0.116 A 
ATOM     10  H   UNL     1      17.658  15.804   1.874  1.00  0.00     0.166 HD
ENDROOT
BRANCH   9  11
ATOM     11  O   UNL     1      23.806  15.897   3.130  1.00  0.00    -0.508 OA
ATOM     12  H   UNL     1      24.181  16.394   3.930  1.00  0.00     0.293 HD
ENDBRANCH   9  11
TORSDOF 1
ENDMDL
MODEL 8
REMARK VINA RESULT:    -3.301     17.979     18.721
REMARK INTER + INTRA:          -3.398
REMARK INTER:                  -3.398
REMARK INTRA:                   0.000
REMARK UNBOUND:                 0.000
REMARK SMILES Oc1ccc2[nH]ccc2c1
REMARK SMILES IDX 3 1 4 2 5 3 9 4 8 5 7 6 6 7 10 8 2 9 1 11
REMARK H PARENT 6 10 1 12
REMARK Flexibility Score: inf
ROOT
ATOM      1  C   UNL     1      19.606  15.127   3.982  1.00  0.00     0.048 A 
ATOM      2  C   UNL     1      20.723  15.810   4.497  1.00  0.00     0.030 A 
ATOM      3  C   UNL     1      21.394  16.691   3.651  1.00  0.00     0.046 A 
ATOM      4  C   UNL     1      20.991  16.895   2.358  1.00  0.00     0.003 A 
ATOM      5  C   UNL     1      21.853  17.812   1.798  1.00  0.00     0.028 A 
ATOM      6  C   UNL     1      22.757  18.125   2.808  1.00  0.00     0.083 A 
ATOM      7  N   UNL     1      22.474  17.437   3.937  1.00  0.00    -0.361 N 
ATOM      8  C   UNL     1      19.890  16.235   1.816  1.00  0.00     0.056 A 
ATOM      9  C   UNL     1      19.188  15.338   2.644  1.00  0.00     0.116 A 
ATOM     10  H   UNL     1      22.989  17.481   4.844  1.00  0.00     0.166 HD
ENDROOT
BRANCH   9  11
ATOM     11  O   UNL     1      18.082  14.660   2.134  1.00  0.00    -0.508 OA
ATOM     12  H   UNL     1      17.935  13.675   2.318  1.00  0.00     0.293 HD
ENDBRANCH   9  11
TORSDOF 1
ENDMDL
MODEL 9
REMARK VINA RESULT:    -3.256     18.242     19.013
REMARK INTER + INTRA:          -3.351
REMARK INTER:                  -3.351
REMARK INTRA:                   0.000
REMARK UNBOUND:                 0.000
REMARK SMILES Oc1ccc2[nH]ccc2c1
REMARK SMILES IDX 3 1 4 2 5 3 9 4 8 5 7 6 6 7 10 8 2 9 1 11
REMARK H PARENT 6 10 1 12
REMARK Flexibility Score: inf
ROOT
ATOM      1  C   UNL     1      20.029  17.792   1.376  1.00  0.00     0.048 A 
ATOM      2  C   UNL     1      20.813  18.102   2.502  1.00  0.00     0.030 A 
ATOM      3  C   UNL     1      20.746  17.244   3.598  1.00  0.00     0.046 A 
ATOM      4  C   UNL     1      19.948  16.132   3.593  1.00  0.00     0.003 A 
ATOM      5  C   UNL     1      20.106  15.505   4.810  1.00  0.00     0.028 A 
ATOM      6  C   UNL     1      21.018  16.292   5.507  1.00  0.00     0.083 A 
ATOM      7  N   UNL     1      21.405  17.353   4.763  1.00  0.00    -0.361 N 
ATOM      8  C   UNL     1      19.158  15.796   2.495  1.00  0.00     0.056 A 
ATOM      9  C   UNL     1      19.202  16.641   1.370  1.00  0.00     0.116 A 
ATOM     10  H   UNL     1      22.079  18.101   5.041  1.00  0.00     0.166 HD
ENDROOT
BRANCH   9  11
ATOM     11  O   UNL     1      18.426  16.335   0.254  1.00  0.00    -0.508 OA
ATOM     12  H   UNL     1      17.663  15.670   0.307  1.00  0.00     0.293 HD
ENDBRANCH   9  11
TORSDOF 1
ENDMDL
