MODEL 1
REMARK VINA RESULT:    -6.939      0.000      0.000
REMARK INTER + INTRA:          -7.438
REMARK INTER:                  -7.344
REMARK INTRA:                  -0.094
REMARK UNBOUND:                -0.094
REMARK SMILES C=C(C)[C@H]1CC=C(C)C(=O)C1
REMARK SMILES IDX 8 1 7 2 6 3 5 4 4 5 11 6 9 7 10 8 2 9 1 10 3 11
REMARK H PARENT
REMARK Flexibility Score: inf
ROOT
ATOM      1  C   UNL     1      -6.125  29.876  29.520  1.00  0.00     0.048 C 
ATOM      2  C   UNL     1      -4.843  29.134  29.257  1.00  0.00    -0.012 C 
ATOM      3  C   UNL     1      -4.377  28.249  30.154  1.00  0.00    -0.019 C 
ATOM      4  C   UNL     1      -3.060  27.542  29.972  1.00  0.00     0.036 C 
ATOM      5  C   UNL     1      -2.740  27.340  28.477  1.00  0.00     0.025 C 
ATOM      6  C   UNL     1      -2.787  28.688  27.734  1.00  0.00     0.089 C 
ATOM      7  C   UNL     1      -4.082  29.402  28.011  1.00  0.00     0.158 C 
ATOM      8  O   UNL     1      -4.494  30.267  27.191  1.00  0.00    -0.295 OA
ENDROOT
BRANCH   5   9
ATOM      9  C   UNL     1      -1.403  26.636  28.280  1.00  0.00    -0.077 C 
ATOM     10  C   UNL     1      -0.345  26.911  29.062  1.00  0.00     0.008 C 
ATOM     11  C   UNL     1      -1.246  25.608  27.190  1.00  0.00     0.039 C 
ENDBRANCH   5   9
TORSDOF 1
ENDMDL
MODEL 2
REMARK VINA RESULT:    -6.261      1.343      1.999
REMARK INTER + INTRA:          -6.721
REMARK INTER:                  -6.632
REMARK INTRA:                  -0.089
REMARK UNBOUND:                -0.094
REMARK SMILES C=C(C)[C@H]1CC=C(C)C(=O)C1
REMARK SMILES IDX 8 1 7 2 6 3 5 4 4 5 11 6 9 7 10 8 2 9 1 10 3 11
REMARK H PARENT
REMARK Flexibility Score: inf
ROOT
ATOM      1  C   UNL     1      -5.749  30.519  28.678  1.00  0.00     0.048 C 
ATOM      2  C   UNL     1      -4.678  29.476  28.508  1.00  0.00    -0.012 C 
ATOM      3  C   UNL     1      -3.792  29.575  27.502  1.00  0.00    -0.019 C 
ATOM      4  C   UNL     1      -2.753  28.516  27.244  1.00  0.00     0.036 C 
ATOM      5  C   UNL     1      -2.334  27.818  28.553  1.00  0.00     0.025 C 
ATOM      6  C   UNL     1      -3.570  27.258  29.281  1.00  0.00     0.089 C 
ATOM      7  C   UNL     1      -4.619  28.325  29.442  1.00  0.00     0.158 C 
ATOM      8  O   UNL     1      -5.478  28.207  30.357  1.00  0.00    -0.295 OA
ENDROOT
BRANCH   5   9
ATOM      9  C   UNL     1      -1.291  26.735  28.303  1.00  0.00    -0.077 C 
ATOM     10  C   UNL     1      -0.152  26.683  29.015  1.00  0.00     0.008 C 
ATOM     11  C   UNL     1      -1.524  25.695  27.238  1.00  0.00     0.039 C 
ENDBRANCH   5   9
TORSDOF 1
ENDMDL
MODEL 3
REMARK VINA RESULT:    -5.867      2.177      4.487
REMARK INTER + INTRA:          -6.304
REMARK INTER:                  -6.209
REMARK INTRA:                  -0.094
REMARK UNBOUND:                -0.094
REMARK SMILES C=C(C)[C@H]1CC=C(C)C(=O)C1
REMARK SMILES IDX 8 1 7 2 6 3 5 4 4 5 11 6 9 7 10 8 2 9 1 10 3 11
REMARK H PARENT
REMARK Flexibility Score: inf
ROOT
ATOM      1  C   UNL     1      -4.266  26.760  30.155  1.00  0.00     0.048 C 
ATOM      2  C   UNL     1      -4.430  28.018  29.347  1.00  0.00    -0.012 C 
ATOM      3  C   UNL     1      -5.472  28.836  29.572  1.00  0.00    -0.019 C 
ATOM      4  C   UNL     1      -5.721  30.063  28.737  1.00  0.00     0.036 C 
ATOM      5  C   UNL     1      -4.399  30.654  28.208  1.00  0.00     0.025 C 
ATOM      6  C   UNL     1      -3.601  29.581  27.445  1.00  0.00     0.089 C 
ATOM      7  C   UNL     1      -3.447  28.340  28.282  1.00  0.00     0.158 C 
ATOM      8  O   UNL     1      -2.496  27.548  28.038  1.00  0.00    -0.295 OA
ENDROOT
BRANCH   5   9
ATOM      9  C   UNL     1      -4.640  31.890  27.351  1.00  0.00    -0.077 C 
ATOM     10  C   UNL     1      -5.752  32.020  26.607  1.00  0.00     0.008 C 
ATOM     11  C   UNL     1      -3.621  33.000  27.323  1.00  0.00     0.039 C 
ENDBRANCH   5   9
TORSDOF 1
ENDMDL
MODEL 4
REMARK VINA RESULT:    -5.515      2.026      4.702
REMARK INTER + INTRA:          -5.932
REMARK INTER:                  -5.838
REMARK INTRA:                  -0.093
REMARK UNBOUND:                -0.094
REMARK SMILES C=C(C)[C@H]1CC=C(C)C(=O)C1
REMARK SMILES IDX 8 1 7 2 6 3 5 4 4 5 11 6 9 7 10 8 2 9 1 10 3 11
REMARK H PARENT
REMARK Flexibility Score: inf
ROOT
ATOM      1  C   UNL     1      -0.250  26.150  28.349  1.00  0.00     0.048 C 
ATOM      2  C   UNL     1      -1.394  27.117  28.486  1.00  0.00    -0.012 C 
ATOM      3  C   UNL     1      -2.008  27.599  27.392  1.00  0.00    -0.019 C 
ATOM      4  C   UNL     1      -3.103  28.628  27.476  1.00  0.00     0.036 C 
ATOM      5  C   UNL     1      -3.902  28.484  28.787  1.00  0.00     0.025 C 
ATOM      6  C   UNL     1      -2.954  28.538  30.000  1.00  0.00     0.089 C 
ATOM      7  C   UNL     1      -1.827  27.556  29.837  1.00  0.00     0.158 C 
ATOM      8  O   UNL     1      -1.220  27.141  30.861  1.00  0.00    -0.295 OA
ENDROOT
BRANCH   5   9
ATOM      9  C   UNL     1      -5.006  29.528  28.890  1.00  0.00    -0.077 C 
ATOM     10  C   UNL     1      -6.068  29.347  29.693  1.00  0.00     0.008 C 
ATOM     11  C   UNL     1      -4.923  30.796  28.080  1.00  0.00     0.039 C 
ENDBRANCH   5   9
TORSDOF 1
ENDMDL
MODEL 5
REMARK VINA RESULT:    -5.369      1.769      4.335
REMARK INTER + INTRA:          -5.777
REMARK INTER:                  -5.681
REMARK INTRA:                  -0.096
REMARK UNBOUND:                -0.094
REMARK SMILES C=C(C)[C@H]1CC=C(C)C(=O)C1
REMARK SMILES IDX 8 1 7 2 6 3 5 4 4 5 11 6 9 7 10 8 2 9 1 10 3 11
REMARK H PARENT
REMARK Flexibility Score: inf
ROOT
ATOM      1  C   UNL     1      -0.937  26.740  30.154  1.00  0.00     0.048 C 
ATOM      2  C   UNL     1      -2.051  27.631  29.675  1.00  0.00    -0.012 C 
ATOM      3  C   UNL     1      -2.835  28.268  30.561  1.00  0.00    -0.019 C 
ATOM      4  C   UNL     1      -4.011  29.106  30.132  1.00  0.00     0.036 C 
ATOM      5  C   UNL     1      -3.765  29.740  28.748  1.00  0.00     0.025 C 
ATOM      6  C   UNL     1      -3.415  28.652  27.715  1.00  0.00     0.089 C 
ATOM      7  C   UNL     1      -2.294  27.784  28.219  1.00  0.00     0.158 C 
ATOM      8  O   UNL     1      -1.589  27.149  27.389  1.00  0.00    -0.295 OA
ENDROOT
BRANCH   5   9
ATOM      9  C   UNL     1      -4.953  30.581  28.297  1.00  0.00    -0.077 C 
ATOM     10  C   UNL     1      -6.125  30.546  28.955  1.00  0.00     0.008 C 
ATOM     11  C   UNL     1      -4.831  31.475  27.091  1.00  0.00     0.039 C 
ENDBRANCH   5   9
TORSDOF 1
ENDMDL
MODEL 6
REMARK VINA RESULT:    -5.151      2.055      4.657
REMARK INTER + INTRA:          -5.546
REMARK INTER:                  -5.453
REMARK INTRA:                  -0.093
REMARK UNBOUND:                -0.094
REMARK SMILES C=C(C)[C@H]1CC=C(C)C(=O)C1
REMARK SMILES IDX 8 1 7 2 6 3 5 4 4 5 11 6 9 7 10 8 2 9 1 10 3 11
REMARK H PARENT
REMARK Flexibility Score: inf
ROOT
ATOM      1  C   UNL     1       0.630  25.619  27.963  1.00  0.00     0.048 C 
ATOM      2  C   UNL     1      -0.618  26.352  28.374  1.00  0.00    -0.012 C 
ATOM      3  C   UNL     1      -0.541  27.401  29.211  1.00  0.00    -0.019 C 
ATOM      4  C   UNL     1      -1.768  28.115  29.713  1.00  0.00     0.036 C 
ATOM      5  C   UNL     1      -2.907  28.061  28.675  1.00  0.00     0.025 C 
ATOM      6  C   UNL     1      -3.202  26.601  28.281  1.00  0.00     0.089 C 
ATOM      7  C   UNL     1      -1.937  25.898  27.868  1.00  0.00     0.158 C 
ATOM      8  O   UNL     1      -2.014  24.885  27.121  1.00  0.00    -0.295 OA
ENDROOT
BRANCH   5   9
ATOM      9  C   UNL     1      -4.158  28.771  29.177  1.00  0.00    -0.077 C 
ATOM     10  C   UNL     1      -4.949  28.217  30.111  1.00  0.00     0.008 C 
ATOM     11  C   UNL     1      -4.532  30.122  28.624  1.00  0.00     0.039 C 
ENDBRANCH   5   9
TORSDOF 1
ENDMDL
MODEL 7
REMARK VINA RESULT:    -4.305      1.719      2.825
REMARK INTER + INTRA:          -4.650
REMARK INTER:                  -4.553
REMARK INTRA:                  -0.098
REMARK UNBOUND:                -0.094
REMARK SMILES C=C(C)[C@H]1CC=C(C)C(=O)C1
REMARK SMILES IDX 8 1 7 2 6 3 5 4 4 5 11 6 9 7 10 8 2 9 1 10 3 11
REMARK H PARENT
REMARK Flexibility Score: inf
ROOT
ATOM      1  C   UNL     1      -4.755  32.543  27.497  1.00  0.00     0.048 C 
ATOM      2  C   UNL     1      -4.489  31.102  27.838  1.00  0.00    -0.012 C 
ATOM      3  C   UNL     1      -3.590  30.395  27.131  1.00  0.00    -0.019 C 
ATOM      4  C   UNL     1      -3.348  28.930  27.384  1.00  0.00     0.036 C 
ATOM      5  C   UNL     1      -3.594  28.573  28.863  1.00  0.00     0.025 C 
ATOM      6  C   UNL     1      -5.006  29.013  29.292  1.00  0.00     0.089 C 
ATOM      7  C   UNL     1      -5.239  30.458  28.945  1.00  0.00     0.158 C 
ATOM      8  O   UNL     1      -6.116  31.108  29.577  1.00  0.00    -0.295 OA
ENDROOT
BRANCH   5   9
ATOM      9  C   UNL     1      -3.363  27.091  29.128  1.00  0.00    -0.077 C 
ATOM     10  C   UNL     1      -4.143  26.402  29.980  1.00  0.00     0.008 C 
ATOM     11  C   UNL     1      -2.242  26.365  28.431  1.00  0.00     0.039 C 
ENDBRANCH   5   9
TORSDOF 1
ENDMDL
MODEL 8
REMARK VINA RESULT:    -4.230      2.933      4.412
REMARK INTER + INTRA:          -4.572
REMARK INTER:                  -4.477
REMARK INTRA:                  -0.095
REMARK UNBOUND:                -0.094
REMARK SMILES C=C(C)[C@H]1CC=C(C)C(=O)C1
REMARK SMILES IDX 8 1 7 2 6 3 5 4 4 5 11 6 9 7 10 8 2 9 1 10 3 11
REMARK H PARENT
REMARK Flexibility Score: inf
ROOT
ATOM      1  C   UNL     1      -5.269  34.087  25.618  1.00  0.00     0.048 C 
ATOM      2  C   UNL     1      -5.082  32.898  26.522  1.00  0.00    -0.012 C 
ATOM      3  C   UNL     1      -6.086  32.023  26.705  1.00  0.00    -0.019 C 
ATOM      4  C   UNL     1      -5.973  30.865  27.659  1.00  0.00     0.036 C 
ATOM      5  C   UNL     1      -4.516  30.375  27.770  1.00  0.00     0.025 C 
ATOM      6  C   UNL     1      -3.587  31.541  28.155  1.00  0.00     0.089 C 
ATOM      7  C   UNL     1      -3.791  32.709  27.229  1.00  0.00     0.158 C 
ATOM      8  O   UNL     1      -2.866  33.556  27.095  1.00  0.00    -0.295 OA
ENDROOT
BRANCH   5   9
ATOM      9  C   UNL     1      -4.388  29.209  28.743  1.00  0.00    -0.077 C 
ATOM     10  C   UNL     1      -5.269  29.033  29.743  1.00  0.00     0.008 C 
ATOM     11  C   UNL     1      -3.256  28.225  28.597  1.00  0.00     0.039 C 
ENDBRANCH   5   9
TORSDOF 1
ENDMDL
MODEL 9
REMARK VINA RESULT:    -4.128      1.658      2.696
REMARK INTER + INTRA:          -4.464
REMARK INTER:                  -4.368
REMARK INTRA:                  -0.095
REMARK UNBOUND:                -0.094
REMARK SMILES C=C(C)[C@H]1CC=C(C)C(=O)C1
REMARK SMILES IDX 8 1 7 2 6 3 5 4 4 5 11 6 9 7 10 8 2 9 1 10 3 11
REMARK H PARENT
REMARK Flexibility Score: inf
ROOT
ATOM      1  C   UNL     1      -6.119  32.387  27.304  1.00  0.00     0.048 C 
ATOM      2  C   UNL     1      -5.424  31.212  27.937  1.00  0.00    -0.012 C 
ATOM      3  C   UNL     1      -6.125  30.322  28.660  1.00  0.00    -0.019 C 
ATOM      4  C   UNL     1      -5.463  29.176  29.379  1.00  0.00     0.036 C 
ATOM      5  C   UNL     1      -4.194  28.713  28.636  1.00  0.00     0.025 C 
ATOM      6  C   UNL     1      -3.236  29.900  28.422  1.00  0.00     0.089 C 
ATOM      7  C   UNL     1      -3.957  31.054  27.780  1.00  0.00     0.158 C 
ATOM      8  O   UNL     1      -3.293  31.915  27.142  1.00  0.00    -0.295 OA
ENDROOT
BRANCH   5   9
ATOM      9  C   UNL     1      -3.508  27.562  29.360  1.00  0.00    -0.077 C 
ATOM     10  C   UNL     1      -4.213  26.656  30.060  1.00  0.00     0.008 C 
ATOM     11  C   UNL     1      -2.009  27.420  29.303  1.00  0.00     0.039 C 
ENDBRANCH   5   9
TORSDOF 1
ENDMDL
