MODEL 1
REMARK VINA RESULT:    -9.123      0.000      0.000
REMARK INTER + INTRA:         -10.640
REMARK INTER:                 -10.990
REMARK INTRA:                   0.350
REMARK UNBOUND:                 0.350
REMARK SMILES O=c1c(O)c(-c2ccc(O)c(O)c2)oc2cc(O)cc(O)c12
REMARK SMILES IDX 5 1 3 2 2 3 1 4 22 5 20 6 19 7 17 8 16 9 15 10 14 11 6 12
REMARK SMILES IDX 7 13 8 14 9 15 13 16 11 17 10 18 12 20 4 22 21 24 18 26
REMARK H PARENT 10 19 12 21 4 23 21 25 18 27
REMARK Flexibility Score: inf
ROOT
ATOM      1  C   UNL     1     140.006 -18.622  80.721  1.00  0.00     0.180 A 
ATOM      2  C   UNL     1     139.621 -17.275  80.618  1.00  0.00     0.208 A 
ATOM      3  C   UNL     1     139.498 -16.697  79.343  1.00  0.00     0.238 A 
ATOM      4  O   UNL     1     139.206 -15.476  79.258  1.00  0.00    -0.285 OA
ATOM      5  C   UNL     1     139.747 -17.479  78.189  1.00  0.00     0.111 A 
ATOM      6  C   UNL     1     139.615 -17.008  76.848  1.00  0.00     0.134 A 
ATOM      7  C   UNL     1     140.013 -17.829  75.785  1.00  0.00     0.093 A 
ATOM      8  C   UNL     1     140.478 -19.128  76.013  1.00  0.00     0.123 A 
ATOM      9  C   UNL     1     140.555 -19.616  77.315  1.00  0.00     0.094 A 
ATOM     10  C   UNL     1     140.199 -18.808  78.398  1.00  0.00     0.146 A 
ATOM     11  O   UNL     1     140.297 -19.310  79.623  1.00  0.00    -0.452 OA
ENDROOT
BRANCH   1  12
ATOM     12  C   UNL     1     140.133 -19.307  82.027  1.00  0.00     0.025 A 
ATOM     13  C   UNL     1     140.360 -18.587  83.213  1.00  0.00     0.016 A 
ATOM     14  C   UNL     1     140.452 -19.252  84.438  1.00  0.00     0.051 A 
ATOM     15  C   UNL     1     140.305 -20.644  84.500  1.00  0.00     0.157 A 
ATOM     16  C   UNL     1     139.965 -20.701  82.097  1.00  0.00     0.062 A 
ATOM     17  C   UNL     1     140.057 -21.370  83.323  1.00  0.00     0.158 A 
BRANCH  15  18
ATOM     18  O   UNL     1     140.399 -21.305  85.724  1.00  0.00    -0.504 OA
ATOM     19  H   UNL     1     140.842 -22.213  85.803  1.00  0.00     0.293 HD
ENDBRANCH  15  18
BRANCH  17  20
ATOM     20  O   UNL     1     139.898 -22.755  83.351  1.00  0.00    -0.504 OA
ATOM     21  H   UNL     1     138.986 -23.191  83.409  1.00  0.00     0.293 HD
ENDBRANCH  17  20
ENDBRANCH   1  12
BRANCH   2  22
ATOM     22  O   UNL     1     139.401 -16.516  81.770  1.00  0.00    -0.502 OA
ATOM     23  H   UNL     1     139.107 -16.930  82.647  1.00  0.00     0.293 HD
ENDBRANCH   2  22
BRANCH   6  24
ATOM     24  O   UNL     1     139.076 -15.764  76.507  1.00  0.00    -0.507 OA
ATOM     25  H   UNL     1     139.211 -14.915  77.035  1.00  0.00     0.293 HD
ENDBRANCH   6  24
BRANCH   8  26
ATOM     26  O   UNL     1     140.857 -19.943  74.949  1.00  0.00    -0.508 OA
ATOM     27  H   UNL     1     140.794 -19.625  73.989  1.00  0.00     0.293 HD
ENDBRANCH   8  26
TORSDOF 6
ENDMDL
MODEL 2
REMARK VINA RESULT:    -8.671      1.373      1.922
REMARK INTER + INTRA:         -10.095
REMARK INTER:                  -9.939
REMARK INTRA:                  -0.156
REMARK UNBOUND:                 0.350
REMARK SMILES O=c1c(O)c(-c2ccc(O)c(O)c2)oc2cc(O)cc(O)c12
REMARK SMILES IDX 5 1 3 2 2 3 1 4 22 5 20 6 19 7 17 8 16 9 15 10 14 11 6 12
REMARK SMILES IDX 7 13 8 14 9 15 13 16 11 17 10 18 12 20 4 22 21 24 18 26
REMARK H PARENT 10 19 12 21 4 23 21 25 18 27
REMARK Flexibility Score: inf
ROOT
ATOM      1  C   UNL     1     139.983 -19.306  80.194  1.00  0.00     0.180 A 
ATOM      2  C   UNL     1     139.940 -17.917  80.403  1.00  0.00     0.208 A 
ATOM      3  C   UNL     1     140.375 -17.060  79.379  1.00  0.00     0.238 A 
ATOM      4  O   UNL     1     140.386 -15.819  79.591  1.00  0.00    -0.285 OA
ATOM      5  C   UNL     1     140.833 -17.603  78.154  1.00  0.00     0.111 A 
ATOM      6  C   UNL     1     141.260 -16.828  77.033  1.00  0.00     0.134 A 
ATOM      7  C   UNL     1     141.815 -17.471  75.920  1.00  0.00     0.093 A 
ATOM      8  C   UNL     1     141.899 -18.865  75.861  1.00  0.00     0.123 A 
ATOM      9  C   UNL     1     141.431 -19.632  76.925  1.00  0.00     0.094 A 
ATOM     10  C   UNL     1     140.905 -19.017  78.065  1.00  0.00     0.146 A 
ATOM     11  O   UNL     1     140.480 -19.786  79.060  1.00  0.00    -0.452 OA
ENDROOT
BRANCH   1  12
ATOM     12  C   UNL     1     139.519 -20.271  81.216  1.00  0.00     0.025 A 
ATOM     13  C   UNL     1     138.421 -21.117  80.979  1.00  0.00     0.016 A 
ATOM     14  C   UNL     1     138.015 -22.036  81.949  1.00  0.00     0.051 A 
ATOM     15  C   UNL     1     138.706 -22.135  83.164  1.00  0.00     0.157 A 
ATOM     16  C   UNL     1     140.221 -20.387  82.428  1.00  0.00     0.062 A 
ATOM     17  C   UNL     1     139.817 -21.308  83.402  1.00  0.00     0.158 A 
BRANCH  15  18
ATOM     18  O   UNL     1     138.297 -23.052  84.131  1.00  0.00    -0.504 OA
ATOM     19  H   UNL     1     138.197 -24.037  83.918  1.00  0.00     0.293 HD
ENDBRANCH  15  18
BRANCH  17  20
ATOM     20  O   UNL     1     140.531 -21.386  84.597  1.00  0.00    -0.504 OA
ATOM     21  H   UNL     1     140.328 -22.086  85.300  1.00  0.00     0.293 HD
ENDBRANCH  17  20
ENDBRANCH   1  12
BRANCH   2  22
ATOM     22  O   UNL     1     139.506 -17.403  81.628  1.00  0.00    -0.502 OA
ATOM     23  H   UNL     1     138.880 -17.912  82.240  1.00  0.00     0.293 HD
ENDBRANCH   2  22
BRANCH   6  24
ATOM     24  O   UNL     1     141.135 -15.438  76.953  1.00  0.00    -0.507 OA
ATOM     25  H   UNL     1     141.269 -14.896  76.112  1.00  0.00     0.293 HD
ENDBRANCH   6  24
BRANCH   8  26
ATOM     26  O   UNL     1     142.439 -19.497  74.743  1.00  0.00    -0.508 OA
ATOM     27  H   UNL     1     142.068 -19.340  73.814  1.00  0.00     0.293 HD
ENDBRANCH   8  26
TORSDOF 6
ENDMDL
MODEL 3
REMARK VINA RESULT:    -8.655      2.118      7.022
REMARK INTER + INTRA:         -10.076
REMARK INTER:                  -9.899
REMARK INTRA:                  -0.177
REMARK UNBOUND:                 0.350
REMARK SMILES O=c1c(O)c(-c2ccc(O)c(O)c2)oc2cc(O)cc(O)c12
REMARK SMILES IDX 5 1 3 2 2 3 1 4 22 5 20 6 19 7 17 8 16 9 15 10 14 11 6 12
REMARK SMILES IDX 7 13 8 14 9 15 13 16 11 17 10 18 12 20 4 22 21 24 18 26
REMARK H PARENT 10 19 12 21 4 23 21 25 18 27
REMARK Flexibility Score: inf
ROOT
ATOM      1  C   UNL     1     139.813 -17.742  80.169  1.00  0.00     0.180 A 
ATOM      2  C   UNL     1     139.334 -18.930  79.592  1.00  0.00     0.208 A 
ATOM      3  C   UNL     1     139.208 -20.076  80.394  1.00  0.00     0.238 A 
ATOM      4  O   UNL     1     138.829 -21.150  79.859  1.00  0.00    -0.285 OA
ATOM      5  C   UNL     1     139.547 -20.014  81.768  1.00  0.00     0.111 A 
ATOM      6  C   UNL     1     139.422 -21.102  82.683  1.00  0.00     0.134 A 
ATOM      7  C   UNL     1     139.910 -20.967  83.989  1.00  0.00     0.093 A 
ATOM      8  C   UNL     1     140.461 -19.760  84.430  1.00  0.00     0.123 A 
ATOM      9  C   UNL     1     140.534 -18.675  83.561  1.00  0.00     0.094 A 
ATOM     10  C   UNL     1     140.088 -18.791  82.242  1.00  0.00     0.146 A 
ATOM     11  O   UNL     1     140.186 -17.734  81.444  1.00  0.00    -0.452 OA
ENDROOT
BRANCH   1  12
ATOM     12  C   UNL     1     139.950 -16.488  79.394  1.00  0.00     0.025 A 
ATOM     13  C   UNL     1     138.831 -15.850  78.830  1.00  0.00     0.016 A 
ATOM     14  C   UNL     1     138.981 -14.655  78.123  1.00  0.00     0.051 A 
ATOM     15  C   UNL     1     140.247 -14.072  77.979  1.00  0.00     0.157 A 
ATOM     16  C   UNL     1     141.214 -15.889  79.265  1.00  0.00     0.062 A 
ATOM     17  C   UNL     1     141.368 -14.692  78.557  1.00  0.00     0.158 A 
BRANCH  15  18
ATOM     18  O   UNL     1     140.393 -12.880  77.271  1.00  0.00    -0.504 OA
ATOM     19  H   UNL     1     140.602 -12.007  77.739  1.00  0.00     0.293 HD
ENDBRANCH  15  18
BRANCH  17  20
ATOM     20  O   UNL     1     142.640 -14.133  78.439  1.00  0.00    -0.504 OA
ATOM     21  H   UNL     1     143.452 -14.690  78.198  1.00  0.00     0.293 HD
ENDBRANCH  17  20
ENDBRANCH   1  12
BRANCH   2  22
ATOM     22  O   UNL     1     139.025 -18.975  78.229  1.00  0.00    -0.502 OA
ATOM     23  H   UNL     1     139.714 -18.797  77.509  1.00  0.00     0.293 HD
ENDBRANCH   2  22
BRANCH   6  24
ATOM     24  O   UNL     1     138.804 -22.317  82.371  1.00  0.00    -0.507 OA
ATOM     25  H   UNL     1     137.951 -22.408  81.841  1.00  0.00     0.293 HD
ENDBRANCH   6  24
BRANCH   8  26
ATOM     26  O   UNL     1     140.930 -19.629  85.735  1.00  0.00    -0.508 OA
ATOM     27  H   UNL     1     141.553 -20.314  86.146  1.00  0.00     0.293 HD
ENDBRANCH   8  26
TORSDOF 6
ENDMDL
MODEL 4
REMARK VINA RESULT:    -8.423      1.552      6.758
REMARK INTER + INTRA:          -9.797
REMARK INTER:                  -9.584
REMARK INTRA:                  -0.212
REMARK UNBOUND:                 0.350
REMARK SMILES O=c1c(O)c(-c2ccc(O)c(O)c2)oc2cc(O)cc(O)c12
REMARK SMILES IDX 5 1 3 2 2 3 1 4 22 5 20 6 19 7 17 8 16 9 15 10 14 11 6 12
REMARK SMILES IDX 7 13 8 14 9 15 13 16 11 17 10 18 12 20 4 22 21 24 18 26
REMARK H PARENT 10 19 12 21 4 23 21 25 18 27
REMARK Flexibility Score: inf
ROOT
ATOM      1  C   UNL     1     139.710 -18.029  80.266  1.00  0.00     0.180 A 
ATOM      2  C   UNL     1     139.858 -17.049  81.263  1.00  0.00     0.208 A 
ATOM      3  C   UNL     1     140.049 -17.455  82.594  1.00  0.00     0.238 A 
ATOM      4  O   UNL     1     140.126 -16.574  83.489  1.00  0.00    -0.285 OA
ATOM      5  C   UNL     1     140.105 -18.834  82.908  1.00  0.00     0.111 A 
ATOM      6  C   UNL     1     140.333 -19.358  84.216  1.00  0.00     0.134 A 
ATOM      7  C   UNL     1     140.239 -20.739  84.434  1.00  0.00     0.093 A 
ATOM      8  C   UNL     1     139.988 -21.618  83.377  1.00  0.00     0.123 A 
ATOM      9  C   UNL     1     139.822 -21.121  82.087  1.00  0.00     0.094 A 
ATOM     10  C   UNL     1     139.875 -19.746  81.845  1.00  0.00     0.146 A 
ATOM     11  O   UNL     1     139.701 -19.314  80.602  1.00  0.00    -0.452 OA
ENDROOT
BRANCH   1  12
ATOM     12  C   UNL     1     139.531 -17.680  78.839  1.00  0.00     0.025 A 
ATOM     13  C   UNL     1     138.297 -17.862  78.190  1.00  0.00     0.016 A 
ATOM     14  C   UNL     1     138.144 -17.502  76.849  1.00  0.00     0.051 A 
ATOM     15  C   UNL     1     139.216 -16.945  76.139  1.00  0.00     0.157 A 
ATOM     16  C   UNL     1     140.596 -17.101  78.129  1.00  0.00     0.062 A 
ATOM     17  C   UNL     1     140.446 -16.740  76.785  1.00  0.00     0.158 A 
BRANCH  15  18
ATOM     18  O   UNL     1     139.060 -16.589  74.799  1.00  0.00    -0.504 OA
ATOM     19  H   UNL     1     138.275 -16.920  74.251  1.00  0.00     0.293 HD
ENDBRANCH  15  18
BRANCH  17  20
ATOM     20  O   UNL     1     141.530 -16.179  76.109  1.00  0.00    -0.504 OA
ATOM     21  H   UNL     1     142.109 -15.460  76.525  1.00  0.00     0.293 HD
ENDBRANCH  17  20
ENDBRANCH   1  12
BRANCH   2  22
ATOM     22  O   UNL     1     139.778 -15.693  80.933  1.00  0.00    -0.502 OA
ATOM     23  H   UNL     1     140.333 -15.279  80.194  1.00  0.00     0.293 HD
ENDBRANCH   2  22
BRANCH   6  24
ATOM     24  O   UNL     1     140.682 -18.575  85.321  1.00  0.00    -0.507 OA
ATOM     25  H   UNL     1     140.031 -18.035  85.871  1.00  0.00     0.293 HD
ENDBRANCH   6  24
BRANCH   8  26
ATOM     26  O   UNL     1     139.911 -22.991  83.600  1.00  0.00    -0.508 OA
ATOM     27  H   UNL     1     140.624 -23.625  83.257  1.00  0.00     0.293 HD
ENDBRANCH   8  26
TORSDOF 6
ENDMDL
MODEL 5
REMARK VINA RESULT:    -8.321      3.230      6.028
REMARK INTER + INTRA:          -9.674
REMARK INTER:                  -9.339
REMARK INTRA:                  -0.335
REMARK UNBOUND:                 0.350
REMARK SMILES O=c1c(O)c(-c2ccc(O)c(O)c2)oc2cc(O)cc(O)c12
REMARK SMILES IDX 5 1 3 2 2 3 1 4 22 5 20 6 19 7 17 8 16 9 15 10 14 11 6 12
REMARK SMILES IDX 7 13 8 14 9 15 13 16 11 17 10 18 12 20 4 22 21 24 18 26
REMARK H PARENT 10 19 12 21 4 23 21 25 18 27
REMARK Flexibility Score: inf
ROOT
ATOM      1  C   UNL     1     139.810 -17.351  77.848  1.00  0.00     0.180 A 
ATOM      2  C   UNL     1     138.946 -17.305  76.740  1.00  0.00     0.208 A 
ATOM      3  C   UNL     1     137.996 -18.326  76.574  1.00  0.00     0.238 A 
ATOM      4  O   UNL     1     137.262 -18.309  75.552  1.00  0.00    -0.285 OA
ATOM      5  C   UNL     1     137.911 -19.371  77.526  1.00  0.00     0.111 A 
ATOM      6  C   UNL     1     136.961 -20.435  77.479  1.00  0.00     0.134 A 
ATOM      7  C   UNL     1     137.053 -21.485  78.401  1.00  0.00     0.093 A 
ATOM      8  C   UNL     1     138.022 -21.476  79.409  1.00  0.00     0.123 A 
ATOM      9  C   UNL     1     138.916 -20.412  79.498  1.00  0.00     0.094 A 
ATOM     10  C   UNL     1     138.872 -19.368  78.571  1.00  0.00     0.146 A 
ATOM     11  O   UNL     1     139.750 -18.379  78.687  1.00  0.00    -0.452 OA
ENDROOT
BRANCH   1  12
ATOM     12  C   UNL     1     140.819 -16.299  78.104  1.00  0.00     0.025 A 
ATOM     13  C   UNL     1     140.508 -15.154  78.858  1.00  0.00     0.016 A 
ATOM     14  C   UNL     1     141.484 -14.186  79.107  1.00  0.00     0.051 A 
ATOM     15  C   UNL     1     142.787 -14.352  78.619  1.00  0.00     0.157 A 
ATOM     16  C   UNL     1     142.132 -16.472  77.635  1.00  0.00     0.062 A 
ATOM     17  C   UNL     1     143.112 -15.503  77.883  1.00  0.00     0.158 A 
BRANCH  15  18
ATOM     18  O   UNL     1     143.757 -13.382  78.868  1.00  0.00    -0.504 OA
ATOM     19  H   UNL     1     143.576 -12.398  78.711  1.00  0.00     0.293 HD
ENDBRANCH  15  18
BRANCH  17  20
ATOM     20  O   UNL     1     144.401 -15.703  77.390  1.00  0.00    -0.504 OA
ATOM     21  H   UNL     1     145.218 -15.655  77.987  1.00  0.00     0.293 HD
ENDBRANCH  17  20
ENDBRANCH   1  12
BRANCH   2  22
ATOM     22  O   UNL     1     139.061 -16.277  75.801  1.00  0.00    -0.502 OA
ATOM     23  H   UNL     1     138.342 -15.575  75.671  1.00  0.00     0.293 HD
ENDBRANCH   2  22
BRANCH   6  24
ATOM     24  O   UNL     1     135.899 -20.493  76.571  1.00  0.00    -0.507 OA
ATOM     25  H   UNL     1     135.916 -20.998  75.698  1.00  0.00     0.293 HD
ENDBRANCH   6  24
BRANCH   8  26
ATOM     26  O   UNL     1     138.097 -22.517  80.331  1.00  0.00    -0.508 OA
ATOM     27  H   UNL     1     138.722 -22.476  81.128  1.00  0.00     0.293 HD
ENDBRANCH   8  26
TORSDOF 6
ENDMDL
MODEL 6
REMARK VINA RESULT:    -8.301      1.460      2.782
REMARK INTER + INTRA:          -9.649
REMARK INTER:                 -10.116
REMARK INTRA:                   0.467
REMARK UNBOUND:                 0.350
REMARK SMILES O=c1c(O)c(-c2ccc(O)c(O)c2)oc2cc(O)cc(O)c12
REMARK SMILES IDX 5 1 3 2 2 3 1 4 22 5 20 6 19 7 17 8 16 9 15 10 14 11 6 12
REMARK SMILES IDX 7 13 8 14 9 15 13 16 11 17 10 18 12 20 4 22 21 24 18 26
REMARK H PARENT 10 19 12 21 4 23 21 25 18 27
REMARK Flexibility Score: inf
ROOT
ATOM      1  C   UNL     1     139.899 -18.762  80.778  1.00  0.00     0.180 A 
ATOM      2  C   UNL     1     139.288 -19.410  79.690  1.00  0.00     0.208 A 
ATOM      3  C   UNL     1     139.193 -18.736  78.462  1.00  0.00     0.238 A 
ATOM      4  O   UNL     1     138.598 -19.300  77.507  1.00  0.00    -0.285 OA
ATOM      5  C   UNL     1     139.723 -17.429  78.333  1.00  0.00     0.111 A 
ATOM      6  C   UNL     1     139.717 -16.668  77.125  1.00  0.00     0.134 A 
ATOM      7  C   UNL     1     140.152 -15.336  77.146  1.00  0.00     0.093 A 
ATOM      8  C   UNL     1     140.652 -14.760  78.317  1.00  0.00     0.123 A 
ATOM      9  C   UNL     1     140.715 -15.514  79.486  1.00  0.00     0.094 A 
ATOM     10  C   UNL     1     140.256 -16.833  79.505  1.00  0.00     0.146 A 
ATOM     11  O   UNL     1     140.326 -17.512  80.644  1.00  0.00    -0.452 OA
ENDROOT
BRANCH   1  12
ATOM     12  C   UNL     1     140.058 -19.417  82.096  1.00  0.00     0.025 A 
ATOM     13  C   UNL     1     140.296 -18.668  83.262  1.00  0.00     0.016 A 
ATOM     14  C   UNL     1     140.420 -19.306  84.498  1.00  0.00     0.051 A 
ATOM     15  C   UNL     1     140.295 -20.698  84.593  1.00  0.00     0.157 A 
ATOM     16  C   UNL     1     139.913 -20.811  82.198  1.00  0.00     0.062 A 
ATOM     17  C   UNL     1     140.036 -21.453  83.436  1.00  0.00     0.158 A 
BRANCH  15  18
ATOM     18  O   UNL     1     140.421 -21.331  85.829  1.00  0.00    -0.504 OA
ATOM     19  H   UNL     1     141.325 -21.470  86.264  1.00  0.00     0.293 HD
ENDBRANCH  15  18
BRANCH  17  20
ATOM     20  O   UNL     1     139.898 -22.839  83.497  1.00  0.00    -0.504 OA
ATOM     21  H   UNL     1     140.022 -23.354  84.360  1.00  0.00     0.293 HD
ENDBRANCH  17  20
ENDBRANCH   1  12
BRANCH   2  22
ATOM     22  O   UNL     1     138.752 -20.692  79.846  1.00  0.00    -0.502 OA
ATOM     23  H   UNL     1     138.322 -21.198  79.081  1.00  0.00     0.293 HD
ENDBRANCH   2  22
BRANCH   6  24
ATOM     24  O   UNL     1     139.325 -17.178  75.884  1.00  0.00    -0.507 OA
ATOM     25  H   UNL     1     139.726 -17.992  75.444  1.00  0.00     0.293 HD
ENDBRANCH   6  24
BRANCH   8  26
ATOM     26  O   UNL     1     141.096 -13.440  78.324  1.00  0.00    -0.508 OA
ATOM     27  H   UNL     1     141.515 -13.026  79.149  1.00  0.00     0.293 HD
ENDBRANCH   8  26
TORSDOF 6
ENDMDL
MODEL 7
REMARK VINA RESULT:    -8.255      2.594      7.168
REMARK INTER + INTRA:          -9.594
REMARK INTER:                  -9.288
REMARK INTRA:                  -0.306
REMARK UNBOUND:                 0.350
REMARK SMILES O=c1c(O)c(-c2ccc(O)c(O)c2)oc2cc(O)cc(O)c12
REMARK SMILES IDX 5 1 3 2 2 3 1 4 22 5 20 6 19 7 17 8 16 9 15 10 14 11 6 12
REMARK SMILES IDX 7 13 8 14 9 15 13 16 11 17 10 18 12 20 4 22 21 24 18 26
REMARK H PARENT 10 19 12 21 4 23 21 25 18 27
REMARK Flexibility Score: inf
ROOT
ATOM      1  C   UNL     1     138.956 -20.111  78.915  1.00  0.00     0.180 A 
ATOM      2  C   UNL     1     137.972 -20.942  78.352  1.00  0.00     0.208 A 
ATOM      3  C   UNL     1     137.340 -21.897  79.165  1.00  0.00     0.238 A 
ATOM      4  O   UNL     1     136.500 -22.675  78.644  1.00  0.00    -0.285 OA
ATOM      5  C   UNL     1     137.689 -21.998  80.534  1.00  0.00     0.111 A 
ATOM      6  C   UNL     1     137.086 -22.902  81.460  1.00  0.00     0.134 A 
ATOM      7  C   UNL     1     137.600 -23.006  82.759  1.00  0.00     0.093 A 
ATOM      8  C   UNL     1     138.654 -22.192  83.183  1.00  0.00     0.123 A 
ATOM      9  C   UNL     1     139.210 -21.266  82.305  1.00  0.00     0.094 A 
ATOM     10  C   UNL     1     138.742 -21.164  80.992  1.00  0.00     0.146 A 
ATOM     11  O   UNL     1     139.308 -20.274  80.185  1.00  0.00    -0.452 OA
ENDROOT
BRANCH   1  12
ATOM     12  C   UNL     1     139.647 -19.065  78.128  1.00  0.00     0.025 A 
ATOM     13  C   UNL     1     140.899 -19.303  77.534  1.00  0.00     0.016 A 
ATOM     14  C   UNL     1     141.521 -18.309  76.775  1.00  0.00     0.051 A 
ATOM     15  C   UNL     1     140.899 -17.067  76.588  1.00  0.00     0.157 A 
ATOM     16  C   UNL     1     139.018 -17.826  77.920  1.00  0.00     0.062 A 
ATOM     17  C   UNL     1     139.639 -16.828  77.161  1.00  0.00     0.158 A 
BRANCH  15  18
ATOM     18  O   UNL     1     141.525 -16.077  75.833  1.00  0.00    -0.504 OA
ATOM     19  H   UNL     1     142.033 -15.318  76.270  1.00  0.00     0.293 HD
ENDBRANCH  15  18
BRANCH  17  20
ATOM     20  O   UNL     1     138.990 -15.606  76.987  1.00  0.00    -0.504 OA
ATOM     21  H   UNL     1     139.497 -14.733  76.912  1.00  0.00     0.293 HD
ENDBRANCH  17  20
ENDBRANCH   1  12
BRANCH   2  22
ATOM     22  O   UNL     1     137.659 -20.841  76.994  1.00  0.00    -0.502 OA
ATOM     23  H   UNL     1     137.764 -21.617  76.352  1.00  0.00     0.293 HD
ENDBRANCH   2  22
BRANCH   6  24
ATOM     24  O   UNL     1     135.971 -23.693  81.164  1.00  0.00    -0.507 OA
ATOM     25  H   UNL     1     135.255 -23.947  81.828  1.00  0.00     0.293 HD
ENDBRANCH   6  24
BRANCH   8  26
ATOM     26  O   UNL     1     139.148 -22.291  84.482  1.00  0.00    -0.508 OA
ATOM     27  H   UNL     1     138.631 -22.767  85.212  1.00  0.00     0.293 HD
ENDBRANCH   8  26
TORSDOF 6
ENDMDL
MODEL 8
REMARK VINA RESULT:    -8.173      2.455      6.737
REMARK INTER + INTRA:          -9.496
REMARK INTER:                  -9.186
REMARK INTRA:                  -0.309
REMARK UNBOUND:                 0.350
REMARK SMILES O=c1c(O)c(-c2ccc(O)c(O)c2)oc2cc(O)cc(O)c12
REMARK SMILES IDX 5 1 3 2 2 3 1 4 22 5 20 6 19 7 17 8 16 9 15 10 14 11 6 12
REMARK SMILES IDX 7 13 8 14 9 15 13 16 11 17 10 18 12 20 4 22 21 24 18 26
REMARK H PARENT 10 19 12 21 4 23 21 25 18 27
REMARK Flexibility Score: inf
ROOT
ATOM      1  C   UNL     1     139.515 -19.644  79.510  1.00  0.00     0.180 A 
ATOM      2  C   UNL     1     139.863 -19.445  80.857  1.00  0.00     0.208 A 
ATOM      3  C   UNL     1     139.358 -20.325  81.828  1.00  0.00     0.238 A 
ATOM      4  O   UNL     1     139.629 -20.110  83.038  1.00  0.00    -0.285 OA
ATOM      5  C   UNL     1     138.524 -21.401  81.438  1.00  0.00     0.111 A 
ATOM      6  C   UNL     1     137.989 -22.377  82.331  1.00  0.00     0.134 A 
ATOM      7  C   UNL     1     137.070 -23.321  81.855  1.00  0.00     0.093 A 
ATOM      8  C   UNL     1     136.719 -23.364  80.502  1.00  0.00     0.123 A 
ATOM      9  C   UNL     1     137.282 -22.453  79.612  1.00  0.00     0.094 A 
ATOM     10  C   UNL     1     138.173 -21.477  80.065  1.00  0.00     0.146 A 
ATOM     11  O   UNL     1     138.678 -20.622  79.183  1.00  0.00    -0.452 OA
ENDROOT
BRANCH   1  12
ATOM     12  C   UNL     1     140.028 -18.774  78.427  1.00  0.00     0.025 A 
ATOM     13  C   UNL     1     141.134 -19.152  77.645  1.00  0.00     0.016 A 
ATOM     14  C   UNL     1     141.585 -18.327  76.613  1.00  0.00     0.051 A 
ATOM     15  C   UNL     1     140.932 -17.118  76.337  1.00  0.00     0.157 A 
ATOM     16  C   UNL     1     139.364 -17.571  78.133  1.00  0.00     0.062 A 
ATOM     17  C   UNL     1     139.814 -16.741  77.100  1.00  0.00     0.158 A 
BRANCH  15  18
ATOM     18  O   UNL     1     141.387 -16.295  75.308  1.00  0.00    -0.504 OA
ATOM     19  H   UNL     1     142.343 -16.340  74.976  1.00  0.00     0.293 HD
ENDBRANCH  15  18
BRANCH  17  20
ATOM     20  O   UNL     1     139.137 -15.549  76.846  1.00  0.00    -0.504 OA
ATOM     21  H   UNL     1     138.374 -15.229  77.429  1.00  0.00     0.293 HD
ENDBRANCH  17  20
ENDBRANCH   1  12
BRANCH   2  22
ATOM     22  O   UNL     1     140.670 -18.364  81.223  1.00  0.00    -0.502 OA
ATOM     23  H   UNL     1     140.717 -18.018  82.173  1.00  0.00     0.293 HD
ENDBRANCH   2  22
BRANCH   6  24
ATOM     24  O   UNL     1     138.345 -22.478  83.680  1.00  0.00    -0.507 OA
ATOM     25  H   UNL     1     139.244 -22.222  84.058  1.00  0.00     0.293 HD
ENDBRANCH   6  24
BRANCH   8  26
ATOM     26  O   UNL     1     135.817 -24.316  80.034  1.00  0.00    -0.508 OA
ATOM     27  H   UNL     1     135.059 -24.067  79.410  1.00  0.00     0.293 HD
ENDBRANCH   8  26
TORSDOF 6
ENDMDL
MODEL 9
REMARK VINA RESULT:    -8.115      1.617      7.190
REMARK INTER + INTRA:          -9.425
REMARK INTER:                  -9.110
REMARK INTRA:                  -0.316
REMARK UNBOUND:                 0.350
REMARK SMILES O=c1c(O)c(-c2ccc(O)c(O)c2)oc2cc(O)cc(O)c12
REMARK SMILES IDX 5 1 3 2 2 3 1 4 22 5 20 6 19 7 17 8 16 9 15 10 14 11 6 12
REMARK SMILES IDX 7 13 8 14 9 15 13 16 11 17 10 18 12 20 4 22 21 24 18 26
REMARK H PARENT 10 19 12 21 4 23 21 25 18 27
REMARK Flexibility Score: inf
ROOT
ATOM      1  C   UNL     1     139.592 -19.548  80.564  1.00  0.00     0.180 A 
ATOM      2  C   UNL     1     138.899 -20.764  80.686  1.00  0.00     0.208 A 
ATOM      3  C   UNL     1     138.873 -21.411  81.933  1.00  0.00     0.238 A 
ATOM      4  O   UNL     1     138.297 -22.526  82.023  1.00  0.00    -0.285 OA
ATOM      5  C   UNL     1     139.526 -20.825  83.044  1.00  0.00     0.111 A 
ATOM      6  C   UNL     1     139.531 -21.372  84.362  1.00  0.00     0.134 A 
ATOM      7  C   UNL     1     140.319 -20.776  85.355  1.00  0.00     0.093 A 
ATOM      8  C   UNL     1     141.051 -19.615  85.093  1.00  0.00     0.123 A 
ATOM      9  C   UNL     1     141.006 -19.040  83.825  1.00  0.00     0.094 A 
ATOM     10  C   UNL     1     140.257 -19.632  82.804  1.00  0.00     0.146 A 
ATOM     11  O   UNL     1     140.251 -19.057  81.608  1.00  0.00    -0.452 OA
ENDROOT
BRANCH   1  12
ATOM     12  C   UNL     1     139.644 -18.795  79.290  1.00  0.00     0.025 A 
ATOM     13  C   UNL     1     138.756 -17.737  79.028  1.00  0.00     0.016 A 
ATOM     14  C   UNL     1     138.839 -17.025  77.829  1.00  0.00     0.051 A 
ATOM     15  C   UNL     1     139.816 -17.350  76.880  1.00  0.00     0.157 A 
ATOM     16  C   UNL     1     140.636 -19.103  78.344  1.00  0.00     0.062 A 
ATOM     17  C   UNL     1     140.721 -18.392  77.141  1.00  0.00     0.158 A 
BRANCH  15  18
ATOM     18  O   UNL     1     139.894 -16.639  75.683  1.00  0.00    -0.504 OA
ATOM     19  H   UNL     1     139.186 -16.730  74.964  1.00  0.00     0.293 HD
ENDBRANCH  15  18
BRANCH  17  20
ATOM     20  O   UNL     1     141.711 -18.735  76.221  1.00  0.00    -0.504 OA
ATOM     21  H   UNL     1     142.680 -18.471  76.350  1.00  0.00     0.293 HD
ENDBRANCH  17  20
ENDBRANCH   1  12
BRANCH   2  22
ATOM     22  O   UNL     1     138.280 -21.336  79.571  1.00  0.00    -0.502 OA
ATOM     23  H   UNL     1     137.382 -21.802  79.627  1.00  0.00     0.293 HD
ENDBRANCH   2  22
BRANCH   6  24
ATOM     24  O   UNL     1     138.764 -22.474  84.752  1.00  0.00    -0.507 OA
ATOM     25  H   UNL     1     139.040 -23.437  84.635  1.00  0.00     0.293 HD
ENDBRANCH   6  24
BRANCH   8  26
ATOM     26  O   UNL     1     141.819 -19.019  86.091  1.00  0.00    -0.508 OA
ATOM     27  H   UNL     1     142.710 -18.583  85.885  1.00  0.00     0.293 HD
ENDBRANCH   8  26
TORSDOF 6
ENDMDL
