MODEL 1
REMARK VINA RESULT:    -4.621      0.000      0.000
REMARK INTER + INTRA:          -8.748
REMARK INTER:                  -8.132
REMARK INTRA:                  -0.616
REMARK UNBOUND:                -0.616
REMARK SMILES CCCCCCCCCCCCCCC(=O)[O-]
REMARK SMILES IDX 9 1 10 2 11 3 12 4 13 5 14 6 15 7 16 8 17 9 8 10 7 11 6 12
REMARK SMILES IDX 5 13 4 14 3 15 2 16 1 17
REMARK H PARENT
REMARK Flexibility Score: inf
ROOT
ATOM      1  C   UNL     1       7.487  -9.734   1.341  1.00  0.00     0.000 C 
ENDROOT
BRANCH   1   2
ATOM      2  C   UNL     1       6.061  -9.678   0.768  1.00  0.00     0.000 C 
BRANCH   2   3
ATOM      3  C   UNL     1       5.022 -10.310   1.706  1.00  0.00     0.000 C 
BRANCH   3   4
ATOM      4  C   UNL     1       5.670 -10.760   3.024  1.00  0.00     0.000 C 
BRANCH   4   5
ATOM      5  C   UNL     1       5.033 -10.108   4.263  1.00  0.00     0.006 C 
BRANCH   5   6
ATOM      6  C   UNL     1       3.494 -10.057   4.223  1.00  0.00     0.053 C 
BRANCH   6   7
ATOM      7  C   UNL     1       2.953  -8.683   4.485  1.00  0.00     0.041 C 
ATOM      8  O   UNL     1       2.848  -8.256   5.665  1.00  0.00    -0.550 OA
ATOM      9  O   UNL     1       2.593  -7.863   3.422  1.00  0.00    -0.550 OA
ENDBRANCH   6   7
ENDBRANCH   5   6
ENDBRANCH   4   5
ENDBRANCH   3   4
ENDBRANCH   2   3
ENDBRANCH   1   2
BRANCH   1  10
ATOM     10  C   UNL     1       8.566  -9.730   0.247  1.00  0.00     0.000 C 
BRANCH  10  11
ATOM     11  C   UNL     1       8.025  -9.118  -1.054  1.00  0.00    -0.000 C 
BRANCH  11  12
ATOM     12  C   UNL     1       8.749  -7.818  -1.444  1.00  0.00    -0.000 C 
BRANCH  12  13
ATOM     13  C   UNL     1       8.298  -7.280  -2.813  1.00  0.00    -0.000 C 
BRANCH  13  14
ATOM     14  C   UNL     1       8.699  -5.811  -3.040  1.00  0.00    -0.000 C 
BRANCH  14  15
ATOM     15  C   UNL     1       8.614  -5.329  -4.500  1.00  0.00    -0.000 C 
BRANCH  15  16
ATOM     16  C   UNL     1       7.750  -4.071  -4.666  1.00  0.00    -0.003 C 
ATOM     17  C   UNL     1       7.753  -3.589  -6.114  1.00  0.00     0.004 C 
ENDBRANCH  15  16
ENDBRANCH  14  15
ENDBRANCH  13  14
ENDBRANCH  12  13
ENDBRANCH  11  12
ENDBRANCH  10  11
ENDBRANCH   1  10
TORSDOF 13
ENDMDL
MODEL 2
REMARK VINA RESULT:    -4.592      2.914      5.944
REMARK INTER + INTRA:          -8.698
REMARK INTER:                  -7.817
REMARK INTRA:                  -0.881
REMARK UNBOUND:                -0.616
REMARK SMILES CCCCCCCCCCCCCCC(=O)[O-]
REMARK SMILES IDX 9 1 10 2 11 3 12 4 13 5 14 6 15 7 16 8 17 9 8 10 7 11 6 12
REMARK SMILES IDX 5 13 4 14 3 15 2 16 1 17
REMARK H PARENT
REMARK Flexibility Score: inf
ROOT
ATOM      1  C   UNL     1       8.349  -5.544  -3.466  1.00  0.00     0.000 C 
ENDROOT
BRANCH   1   2
ATOM      2  C   UNL     1       8.772  -6.835  -4.186  1.00  0.00     0.000 C 
BRANCH   2   3
ATOM      3  C   UNL     1       8.382  -8.101  -3.407  1.00  0.00     0.000 C 
BRANCH   3   4
ATOM      4  C   UNL     1       8.345  -7.829  -1.896  1.00  0.00     0.000 C 
BRANCH   4   5
ATOM      5  C   UNL     1       7.537  -8.880  -1.114  1.00  0.00     0.006 C 
BRANCH   5   6
ATOM      6  C   UNL     1       8.106  -9.195   0.282  1.00  0.00     0.053 C 
BRANCH   6   7
ATOM      7  C   UNL     1       7.153  -9.982   1.132  1.00  0.00     0.041 C 
ATOM      8  O   UNL     1       7.576 -10.915   1.864  1.00  0.00    -0.550 OA
ATOM      9  O   UNL     1       5.801  -9.662   1.139  1.00  0.00    -0.550 OA
ENDBRANCH   6   7
ENDBRANCH   5   6
ENDBRANCH   4   5
ENDBRANCH   3   4
ENDBRANCH   2   3
ENDBRANCH   1   2
BRANCH   1  10
ATOM     10  C   UNL     1       7.358  -4.705  -4.286  1.00  0.00     0.000 C 
BRANCH  10  11
ATOM     11  C   UNL     1       8.100  -3.711  -5.192  1.00  0.00    -0.000 C 
BRANCH  11  12
ATOM     12  C   UNL     1       7.860  -3.979  -6.687  1.00  0.00    -0.000 C 
BRANCH  12  13
ATOM     13  C   UNL     1       9.001  -4.784  -7.333  1.00  0.00    -0.000 C 
BRANCH  13  14
ATOM     14  C   UNL     1       8.656  -6.274  -7.514  1.00  0.00    -0.000 C 
BRANCH  14  15
ATOM     15  C   UNL     1       7.836  -6.607  -8.774  1.00  0.00    -0.000 C 
BRANCH  15  16
ATOM     16  C   UNL     1       7.575  -8.111  -8.938  1.00  0.00    -0.003 C 
ATOM     17  C   UNL     1       7.980  -8.880  -7.684  1.00  0.00     0.004 C 
ENDBRANCH  15  16
ENDBRANCH  14  15
ENDBRANCH  13  14
ENDBRANCH  12  13
ENDBRANCH  11  12
ENDBRANCH  10  11
ENDBRANCH   1  10
TORSDOF 13
ENDMDL
MODEL 3
REMARK VINA RESULT:    -4.559      5.377      8.342
REMARK INTER + INTRA:          -8.640
REMARK INTER:                  -7.630
REMARK INTRA:                  -1.009
REMARK UNBOUND:                -0.616
REMARK SMILES CCCCCCCCCCCCCCC(=O)[O-]
REMARK SMILES IDX 9 1 10 2 11 3 12 4 13 5 14 6 15 7 16 8 17 9 8 10 7 11 6 12
REMARK SMILES IDX 5 13 4 14 3 15 2 16 1 17
REMARK H PARENT
REMARK Flexibility Score: inf
ROOT
ATOM      1  C   UNL     1       7.721  -4.058  -6.466  1.00  0.00     0.000 C 
ENDROOT
BRANCH   1   2
ATOM      2  C   UNL     1       7.448  -4.230  -4.963  1.00  0.00     0.000 C 
BRANCH   2   3
ATOM      3  C   UNL     1       8.711  -4.046  -4.107  1.00  0.00     0.000 C 
BRANCH   3   4
ATOM      4  C   UNL     1       8.855  -5.183  -3.085  1.00  0.00     0.000 C 
BRANCH   4   5
ATOM      5  C   UNL     1       8.226  -6.504  -3.560  1.00  0.00     0.006 C 
BRANCH   5   6
ATOM      6  C   UNL     1       8.124  -7.580  -2.463  1.00  0.00     0.053 C 
BRANCH   6   7
ATOM      7  C   UNL     1       7.807  -8.939  -3.012  1.00  0.00     0.041 C 
ATOM      8  O   UNL     1       7.725  -9.120  -4.256  1.00  0.00    -0.550 OA
ATOM      9  O   UNL     1       7.633 -10.014  -2.149  1.00  0.00    -0.550 OA
ENDBRANCH   6   7
ENDBRANCH   5   6
ENDBRANCH   4   5
ENDBRANCH   3   4
ENDBRANCH   2   3
ENDBRANCH   1   2
BRANCH   1  10
ATOM     10  C   UNL     1       9.018  -4.747  -6.915  1.00  0.00     0.000 C 
BRANCH  10  11
ATOM     11  C   UNL     1       8.761  -6.219  -7.274  1.00  0.00    -0.000 C 
BRANCH  11  12
ATOM     12  C   UNL     1       7.700  -6.384  -8.375  1.00  0.00    -0.000 C 
BRANCH  12  13
ATOM     13  C   UNL     1       8.059  -7.494  -9.379  1.00  0.00    -0.000 C 
BRANCH  13  14
ATOM     14  C   UNL     1       6.843  -8.341  -9.796  1.00  0.00    -0.000 C 
BRANCH  14  15
ATOM     15  C   UNL     1       6.311  -9.298  -8.715  1.00  0.00    -0.000 C 
BRANCH  15  16
ATOM     16  C   UNL     1       4.781  -9.415  -8.719  1.00  0.00    -0.003 C 
ATOM     17  C   UNL     1       4.334 -10.775  -9.248  1.00  0.00     0.004 C 
ENDBRANCH  15  16
ENDBRANCH  14  15
ENDBRANCH  13  14
ENDBRANCH  12  13
ENDBRANCH  11  12
ENDBRANCH  10  11
ENDBRANCH   1  10
TORSDOF 13
ENDMDL
MODEL 4
REMARK VINA RESULT:    -4.499      6.371      9.583
REMARK INTER + INTRA:          -8.534
REMARK INTER:                  -7.253
REMARK INTRA:                  -1.281
REMARK UNBOUND:                -0.616
REMARK SMILES CCCCCCCCCCCCCCC(=O)[O-]
REMARK SMILES IDX 9 1 10 2 11 3 12 4 13 5 14 6 15 7 16 8 17 9 8 10 7 11 6 12
REMARK SMILES IDX 5 13 4 14 3 15 2 16 1 17
REMARK H PARENT
REMARK Flexibility Score: inf
ROOT
ATOM      1  C   UNL     1       7.855  -3.629  -6.251  1.00  0.00     0.000 C 
ENDROOT
BRANCH   1   2
ATOM      2  C   UNL     1       8.812  -4.457  -7.123  1.00  0.00     0.000 C 
BRANCH   2   3
ATOM      3  C   UNL     1       8.486  -5.959  -7.097  1.00  0.00     0.000 C 
BRANCH   3   4
ATOM      4  C   UNL     1       8.716  -6.596  -8.476  1.00  0.00     0.000 C 
BRANCH   4   5
ATOM      5  C   UNL     1       8.229  -8.054  -8.555  1.00  0.00     0.006 C 
BRANCH   5   6
ATOM      6  C   UNL     1       6.833  -8.214  -9.183  1.00  0.00     0.053 C 
BRANCH   6   7
ATOM      7  C   UNL     1       6.067  -9.368  -8.609  1.00  0.00     0.041 C 
ATOM      8  O   UNL     1       6.678 -10.342  -8.092  1.00  0.00    -0.550 OA
ATOM      9  O   UNL     1       4.678  -9.354  -8.616  1.00  0.00    -0.550 OA
ENDBRANCH   6   7
ENDBRANCH   5   6
ENDBRANCH   4   5
ENDBRANCH   3   4
ENDBRANCH   2   3
ENDBRANCH   1   2
BRANCH   1  10
ATOM     10  C   UNL     1       7.598  -4.270  -4.878  1.00  0.00     0.000 C 
BRANCH  10  11
ATOM     11  C   UNL     1       8.775  -4.013  -3.925  1.00  0.00    -0.000 C 
BRANCH  11  12
ATOM     12  C   UNL     1       9.074  -5.215  -3.014  1.00  0.00    -0.000 C 
BRANCH  12  13
ATOM     13  C   UNL     1       8.306  -6.480  -3.436  1.00  0.00    -0.000 C 
BRANCH  13  14
ATOM     14  C   UNL     1       8.515  -7.659  -2.468  1.00  0.00    -0.000 C 
BRANCH  14  15
ATOM     15  C   UNL     1       7.765  -8.951  -2.839  1.00  0.00    -0.000 C 
BRANCH  15  16
ATOM     16  C   UNL     1       7.445  -9.048  -4.337  1.00  0.00    -0.003 C 
ATOM     17  C   UNL     1       8.562  -9.762  -5.093  1.00  0.00     0.004 C 
ENDBRANCH  15  16
ENDBRANCH  14  15
ENDBRANCH  13  14
ENDBRANCH  12  13
ENDBRANCH  11  12
ENDBRANCH  10  11
ENDBRANCH   1  10
TORSDOF 13
ENDMDL
MODEL 5
REMARK VINA RESULT:    -4.494      4.346      7.642
REMARK INTER + INTRA:          -8.525
REMARK INTER:                  -7.854
REMARK INTRA:                  -0.671
REMARK UNBOUND:                -0.616
REMARK SMILES CCCCCCCCCCCCCCC(=O)[O-]
REMARK SMILES IDX 9 1 10 2 11 3 12 4 13 5 14 6 15 7 16 8 17 9 8 10 7 11 6 12
REMARK SMILES IDX 5 13 4 14 3 15 2 16 1 17
REMARK H PARENT
REMARK Flexibility Score: inf
ROOT
ATOM      1  C   UNL     1       8.023  -3.713  -5.761  1.00  0.00     0.000 C 
ENDROOT
BRANCH   1   2
ATOM      2  C   UNL     1       7.254  -4.305  -4.569  1.00  0.00     0.000 C 
BRANCH   2   3
ATOM      3  C   UNL     1       8.183  -4.929  -3.516  1.00  0.00     0.000 C 
BRANCH   3   4
ATOM      4  C   UNL     1       8.276  -6.451  -3.697  1.00  0.00     0.000 C 
BRANCH   4   5
ATOM      5  C   UNL     1       8.694  -7.187  -2.412  1.00  0.00     0.006 C 
BRANCH   5   6
ATOM      6  C   UNL     1       7.909  -8.485  -2.149  1.00  0.00     0.053 C 
BRANCH   6   7
ATOM      7  C   UNL     1       7.933  -8.896  -0.707  1.00  0.00     0.041 C 
ATOM      8  O   UNL     1       6.971  -9.542  -0.214  1.00  0.00    -0.550 OA
ATOM      9  O   UNL     1       9.035  -8.592   0.084  1.00  0.00    -0.550 OA
ENDBRANCH   6   7
ENDBRANCH   5   6
ENDBRANCH   4   5
ENDBRANCH   3   4
ENDBRANCH   2   3
ENDBRANCH   1   2
BRANCH   1  10
ATOM     10  C   UNL     1       7.862  -4.544  -7.043  1.00  0.00     0.000 C 
BRANCH  10  11
ATOM     11  C   UNL     1       9.082  -5.451  -7.264  1.00  0.00    -0.000 C 
BRANCH  11  12
ATOM     12  C   UNL     1       8.909  -6.395  -8.466  1.00  0.00    -0.000 C 
BRANCH  12  13
ATOM     13  C   UNL     1       8.261  -7.735  -8.074  1.00  0.00    -0.000 C 
BRANCH  13  14
ATOM     14  C   UNL     1       7.350  -8.305  -9.177  1.00  0.00    -0.000 C 
BRANCH  14  15
ATOM     15  C   UNL     1       6.538  -9.550  -8.776  1.00  0.00    -0.000 C 
BRANCH  15  16
ATOM     16  C   UNL     1       5.025  -9.359  -8.949  1.00  0.00    -0.003 C 
ATOM     17  C   UNL     1       4.294 -10.698  -8.916  1.00  0.00     0.004 C 
ENDBRANCH  15  16
ENDBRANCH  14  15
ENDBRANCH  13  14
ENDBRANCH  12  13
ENDBRANCH  11  12
ENDBRANCH  10  11
ENDBRANCH   1  10
TORSDOF 13
ENDMDL
MODEL 6
REMARK VINA RESULT:    -4.410      4.621      9.151
REMARK INTER + INTRA:          -8.378
REMARK INTER:                  -8.140
REMARK INTRA:                  -0.238
REMARK UNBOUND:                -0.616
REMARK SMILES CCCCCCCCCCCCCCC(=O)[O-]
REMARK SMILES IDX 9 1 10 2 11 3 12 4 13 5 14 6 15 7 16 8 17 9 8 10 7 11 6 12
REMARK SMILES IDX 5 13 4 14 3 15 2 16 1 17
REMARK H PARENT
REMARK Flexibility Score: inf
ROOT
ATOM      1  C   UNL     1       8.955  -8.414  -1.396  1.00  0.00     0.000 C 
ENDROOT
BRANCH   1   2
ATOM      2  C   UNL     1       8.293  -7.375  -2.316  1.00  0.00     0.000 C 
BRANCH   2   3
ATOM      3  C   UNL     1       8.302  -7.801  -3.792  1.00  0.00     0.000 C 
BRANCH   3   4
ATOM      4  C   UNL     1       8.620  -6.610  -4.708  1.00  0.00     0.000 C 
BRANCH   4   5
ATOM      5  C   UNL     1       8.437  -5.249  -4.012  1.00  0.00     0.006 C 
BRANCH   5   6
ATOM      6  C   UNL     1       7.499  -4.285  -4.761  1.00  0.00     0.053 C 
BRANCH   6   7
ATOM      7  C   UNL     1       8.015  -3.911  -6.119  1.00  0.00     0.041 C 
ATOM      8  O   UNL     1       9.124  -4.353  -6.521  1.00  0.00    -0.550 OA
ATOM      9  O   UNL     1       7.255  -3.100  -6.953  1.00  0.00    -0.550 OA
ENDBRANCH   6   7
ENDBRANCH   5   6
ENDBRANCH   4   5
ENDBRANCH   3   4
ENDBRANCH   2   3
ENDBRANCH   1   2
BRANCH   1  10
ATOM     10  C   UNL     1       7.984  -8.988  -0.354  1.00  0.00     0.000 C 
BRANCH  10  11
ATOM     11  C   UNL     1       8.705  -9.965   0.587  1.00  0.00    -0.000 C 
BRANCH  11  12
ATOM     12  C   UNL     1       7.817 -10.428   1.754  1.00  0.00    -0.000 C 
BRANCH  12  13
ATOM     13  C   UNL     1       6.421  -9.781   1.727  1.00  0.00    -0.000 C 
BRANCH  13  14
ATOM     14  C   UNL     1       5.307 -10.740   2.185  1.00  0.00    -0.000 C 
BRANCH  14  15
ATOM     15  C   UNL     1       5.202 -10.940   3.708  1.00  0.00    -0.000 C 
BRANCH  15  16
ATOM     16  C   UNL     1       4.941  -9.632   4.467  1.00  0.00    -0.003 C 
ATOM     17  C   UNL     1       3.471  -9.233   4.386  1.00  0.00     0.004 C 
ENDBRANCH  15  16
ENDBRANCH  14  15
ENDBRANCH  13  14
ENDBRANCH  12  13
ENDBRANCH  11  12
ENDBRANCH  10  11
ENDBRANCH   1  10
TORSDOF 13
ENDMDL
MODEL 7
REMARK VINA RESULT:    -4.344      4.359      7.411
REMARK INTER + INTRA:          -8.261
REMARK INTER:                  -6.939
REMARK INTRA:                  -1.323
REMARK UNBOUND:                -0.616
REMARK SMILES CCCCCCCCCCCCCCC(=O)[O-]
REMARK SMILES IDX 9 1 10 2 11 3 12 4 13 5 14 6 15 7 16 8 17 9 8 10 7 11 6 12
REMARK SMILES IDX 5 13 4 14 3 15 2 16 1 17
REMARK H PARENT
REMARK Flexibility Score: inf
ROOT
ATOM      1  C   UNL     1       7.430  -4.584  -4.984  1.00  0.00     0.000 C 
ENDROOT
BRANCH   1   2
ATOM      2  C   UNL     1       8.483  -4.347  -3.889  1.00  0.00     0.000 C 
BRANCH   2   3
ATOM      3  C   UNL     1       8.784  -5.614  -3.073  1.00  0.00     0.000 C 
BRANCH   3   4
ATOM      4  C   UNL     1       8.795  -6.858  -3.973  1.00  0.00     0.000 C 
BRANCH   4   5
ATOM      5  C   UNL     1       7.974  -8.026  -3.397  1.00  0.00     0.006 C 
BRANCH   5   6
ATOM      6  C   UNL     1       8.006  -8.116  -1.861  1.00  0.00     0.053 C 
BRANCH   6   7
ATOM      7  C   UNL     1       7.939  -9.528  -1.361  1.00  0.00     0.041 C 
ATOM      8  O   UNL     1       7.833  -9.762  -0.128  1.00  0.00    -0.550 OA
ATOM      9  O   UNL     1       7.961 -10.586  -2.261  1.00  0.00    -0.550 OA
ENDBRANCH   6   7
ENDBRANCH   5   6
ENDBRANCH   4   5
ENDBRANCH   3   4
ENDBRANCH   2   3
ENDBRANCH   1   2
BRANCH   1  10
ATOM     10  C   UNL     1       7.854  -4.016  -6.347  1.00  0.00     0.000 C 
BRANCH  10  11
ATOM     11  C   UNL     1       9.125  -4.710  -6.859  1.00  0.00    -0.000 C 
BRANCH  11  12
ATOM     12  C   UNL     1       8.839  -6.088  -7.479  1.00  0.00    -0.000 C 
BRANCH  12  13
ATOM     13  C   UNL     1       7.632  -6.067  -8.433  1.00  0.00    -0.000 C 
BRANCH  13  14
ATOM     14  C   UNL     1       7.343  -7.442  -9.064  1.00  0.00    -0.000 C 
BRANCH  14  15
ATOM     15  C   UNL     1       8.264  -8.583  -8.595  1.00  0.00    -0.000 C 
BRANCH  15  16
ATOM     16  C   UNL     1       7.492  -9.764  -7.990  1.00  0.00    -0.003 C 
ATOM     17  C   UNL     1       7.847  -9.958  -6.518  1.00  0.00     0.004 C 
ENDBRANCH  15  16
ENDBRANCH  14  15
ENDBRANCH  13  14
ENDBRANCH  12  13
ENDBRANCH  11  12
ENDBRANCH  10  11
ENDBRANCH   1  10
TORSDOF 13
ENDMDL
MODEL 8
REMARK VINA RESULT:    -4.227      5.381      9.740
REMARK INTER + INTRA:          -8.054
REMARK INTER:                  -7.206
REMARK INTRA:                  -0.849
REMARK UNBOUND:                -0.616
REMARK SMILES CCCCCCCCCCCCCCC(=O)[O-]
REMARK SMILES IDX 9 1 10 2 11 3 12 4 13 5 14 6 15 7 16 8 17 9 8 10 7 11 6 12
REMARK SMILES IDX 5 13 4 14 3 15 2 16 1 17
REMARK H PARENT
REMARK Flexibility Score: inf
ROOT
ATOM      1  C   UNL     1       7.522  -4.169  -5.883  1.00  0.00     0.000 C 
ENDROOT
BRANCH   1   2
ATOM      2  C   UNL     1       8.903  -4.349  -6.535  1.00  0.00     0.000 C 
BRANCH   2   3
ATOM      3  C   UNL     1       9.125  -5.774  -7.064  1.00  0.00     0.000 C 
BRANCH   3   4
ATOM      4  C   UNL     1       8.066  -6.144  -8.113  1.00  0.00     0.000 C 
BRANCH   4   5
ATOM      5  C   UNL     1       8.124  -7.624  -8.533  1.00  0.00     0.006 C 
BRANCH   5   6
ATOM      6  C   UNL     1       6.903  -8.093  -9.345  1.00  0.00     0.053 C 
BRANCH   6   7
ATOM      7  C   UNL     1       6.245  -9.304  -8.755  1.00  0.00     0.041 C 
ATOM      8  O   UNL     1       6.936 -10.303  -8.420  1.00  0.00    -0.550 OA
ATOM      9  O   UNL     1       4.872  -9.318  -8.547  1.00  0.00    -0.550 OA
ENDBRANCH   6   7
ENDBRANCH   5   6
ENDBRANCH   4   5
ENDBRANCH   3   4
ENDBRANCH   2   3
ENDBRANCH   1   2
BRANCH   1  10
ATOM     10  C   UNL     1       7.604  -3.993  -4.360  1.00  0.00     0.000 C 
BRANCH  10  11
ATOM     11  C   UNL     1       8.906  -4.592  -3.808  1.00  0.00    -0.000 C 
BRANCH  11  12
ATOM     12  C   UNL     1       8.668  -5.864  -2.976  1.00  0.00    -0.000 C 
BRANCH  12  13
ATOM     13  C   UNL     1       8.361  -7.092  -3.850  1.00  0.00    -0.000 C 
BRANCH  13  14
ATOM     14  C   UNL     1       7.954  -8.328  -3.026  1.00  0.00    -0.000 C 
BRANCH  14  15
ATOM     15  C   UNL     1       8.326  -8.268  -1.533  1.00  0.00    -0.000 C 
BRANCH  15  16
ATOM     16  C   UNL     1       7.452  -9.182  -0.662  1.00  0.00    -0.003 C 
ATOM     17  C   UNL     1       8.155  -9.531   0.647  1.00  0.00     0.004 C 
ENDBRANCH  15  16
ENDBRANCH  14  15
ENDBRANCH  13  14
ENDBRANCH  12  13
ENDBRANCH  11  12
ENDBRANCH  10  11
ENDBRANCH   1  10
TORSDOF 13
ENDMDL
MODEL 9
REMARK VINA RESULT:    -4.211      5.522      9.812
REMARK INTER + INTRA:          -8.027
REMARK INTER:                  -6.818
REMARK INTRA:                  -1.209
REMARK UNBOUND:                -0.616
REMARK SMILES CCCCCCCCCCCCCCC(=O)[O-]
REMARK SMILES IDX 9 1 10 2 11 3 12 4 13 5 14 6 15 7 16 8 17 9 8 10 7 11 6 12
REMARK SMILES IDX 5 13 4 14 3 15 2 16 1 17
REMARK H PARENT
REMARK Flexibility Score: inf
ROOT
ATOM      1  C   UNL     1       7.613  -4.433  -4.361  1.00  0.00     0.000 C 
ENDROOT
BRANCH   1   2
ATOM      2  C   UNL     1       7.902  -3.522  -5.566  1.00  0.00     0.000 C 
BRANCH   2   3
ATOM      3  C   UNL     1       7.795  -4.265  -6.907  1.00  0.00     0.000 C 
BRANCH   3   4
ATOM      4  C   UNL     1       9.038  -5.130  -7.158  1.00  0.00     0.000 C 
BRANCH   4   5
ATOM      5  C   UNL     1       8.697  -6.594  -7.488  1.00  0.00     0.006 C 
BRANCH   5   6
ATOM      6  C   UNL     1       7.881  -6.771  -8.782  1.00  0.00     0.053 C 
BRANCH   6   7
ATOM      7  C   UNL     1       7.567  -8.207  -9.078  1.00  0.00     0.041 C 
ATOM      8  O   UNL     1       8.485  -9.002  -9.411  1.00  0.00    -0.550 OA
ATOM      9  O   UNL     1       6.264  -8.674  -8.956  1.00  0.00    -0.550 OA
ENDBRANCH   6   7
ENDBRANCH   5   6
ENDBRANCH   4   5
ENDBRANCH   3   4
ENDBRANCH   2   3
ENDBRANCH   1   2
BRANCH   1  10
ATOM     10  C   UNL     1       8.855  -4.676  -3.490  1.00  0.00     0.000 C 
BRANCH  10  11
ATOM     11  C   UNL     1       9.077  -6.178  -3.259  1.00  0.00    -0.000 C 
BRANCH  11  12
ATOM     12  C   UNL     1       7.960  -7.043  -3.867  1.00  0.00    -0.000 C 
BRANCH  12  13
ATOM     13  C   UNL     1       8.327  -8.537  -3.909  1.00  0.00    -0.000 C 
BRANCH  13  14
ATOM     14  C   UNL     1       8.889  -9.054  -2.572  1.00  0.00    -0.000 C 
BRANCH  14  15
ATOM     15  C   UNL     1       7.917  -8.975  -1.381  1.00  0.00    -0.000 C 
BRANCH  15  16
ATOM     16  C   UNL     1       8.636  -8.890  -0.027  1.00  0.00    -0.003 C 
ATOM     17  C   UNL     1       8.099  -9.934   0.948  1.00  0.00     0.004 C 
ENDBRANCH  15  16
ENDBRANCH  14  15
ENDBRANCH  13  14
ENDBRANCH  12  13
ENDBRANCH  11  12
ENDBRANCH  10  11
ENDBRANCH   1  10
TORSDOF 13
ENDMDL
