MODEL 1
REMARK VINA RESULT:    -5.088      0.000      0.000
REMARK INTER + INTRA:         -13.494
REMARK INTER:                 -11.037
REMARK INTRA:                  -2.458
REMARK UNBOUND:                -2.458
REMARK SMILES CCCCCCCCCCCCCCCCCCCCCC(=O)[O-]
REMARK SMILES IDX 12 1 11 2 10 3 9 4 8 5 7 6 6 7 5 8 4 9 3 10 2 11 1 12 13 13
REMARK SMILES IDX 14 14 15 15 16 16 17 17 18 18 19 19 20 20 21 21 22 22 23 23
REMARK SMILES IDX 24 24
REMARK H PARENT
REMARK Flexibility Score: inf
ROOT
ATOM      1  C   UNL     1       1.383  17.995 -10.793  1.00  0.00     0.000 C 
ENDROOT
BRANCH   1   2
ATOM      2  C   UNL     1       0.040  18.022 -10.046  1.00  0.00     0.000 C 
BRANCH   2   3
ATOM      3  C   UNL     1       0.195  17.773  -8.537  1.00  0.00     0.000 C 
BRANCH   3   4
ATOM      4  C   UNL     1       1.644  17.464  -8.133  1.00  0.00    -0.000 C 
BRANCH   4   5
ATOM      5  C   UNL     1       1.840  17.630  -6.621  1.00  0.00    -0.000 C 
BRANCH   5   6
ATOM      6  C   UNL     1       0.570  18.181  -5.958  1.00  0.00    -0.000 C 
BRANCH   6   7
ATOM      7  C   UNL     1       0.866  19.277  -4.919  1.00  0.00    -0.000 C 
BRANCH   7   8
ATOM      8  C   UNL     1       1.201  20.647  -5.544  1.00  0.00    -0.000 C 
BRANCH   8   9
ATOM      9  C   UNL     1       0.203  21.046  -6.643  1.00  0.00    -0.000 C 
BRANCH   9  10
ATOM     10  C   UNL     1       0.920  21.273  -7.982  1.00  0.00    -0.000 C 
BRANCH  10  11
ATOM     11  C   UNL     1       2.450  21.249  -7.845  1.00  0.00    -0.003 C 
ATOM     12  C   UNL     1       3.150  20.776  -9.119  1.00  0.00     0.004 C 
ENDBRANCH  10  11
ENDBRANCH   9  10
ENDBRANCH   8   9
ENDBRANCH   7   8
ENDBRANCH   6   7
ENDBRANCH   5   6
ENDBRANCH   4   5
ENDBRANCH   3   4
ENDBRANCH   2   3
ENDBRANCH   1   2
BRANCH   1  13
ATOM     13  C   UNL     1       1.225  18.525 -12.223  1.00  0.00     0.000 C 
BRANCH  13  14
ATOM     14  C   UNL     1       2.478  19.292 -12.667  1.00  0.00     0.000 C 
BRANCH  14  15
ATOM     15  C   UNL     1       2.149  20.633 -13.348  1.00  0.00     0.000 C 
BRANCH  15  16
ATOM     16  C   UNL     1       2.547  20.727 -14.834  1.00  0.00     0.000 C 
BRANCH  16  17
ATOM     17  C   UNL     1       3.074  22.103 -15.282  1.00  0.00     0.000 C 
BRANCH  17  18
ATOM     18  C   UNL     1       2.912  22.341 -16.790  1.00  0.00     0.000 C 
BRANCH  18  19
ATOM     19  C   UNL     1       1.625  21.687 -17.313  1.00  0.00     0.000 C 
BRANCH  19  20
ATOM     20  C   UNL     1       1.372  21.960 -18.807  1.00  0.00     0.006 C 
BRANCH  20  21
ATOM     21  C   UNL     1       2.632  21.845 -19.685  1.00  0.00     0.053 C 
BRANCH  21  22
ATOM     22  C   UNL     1       2.700  20.544 -20.425  1.00  0.00     0.041 C 
ATOM     23  O   UNL     1       1.836  19.650 -20.215  1.00  0.00    -0.550 OA
ATOM     24  O   UNL     1       3.693  20.328 -21.373  1.00  0.00    -0.550 OA
ENDBRANCH  21  22
ENDBRANCH  20  21
ENDBRANCH  19  20
ENDBRANCH  18  19
ENDBRANCH  17  18
ENDBRANCH  16  17
ENDBRANCH  15  16
ENDBRANCH  14  15
ENDBRANCH  13  14
ENDBRANCH   1  13
TORSDOF 20
ENDMDL
MODEL 2
REMARK VINA RESULT:    -5.019      0.874      2.011
REMARK INTER + INTRA:         -13.344
REMARK INTER:                 -11.389
REMARK INTRA:                  -1.955
REMARK UNBOUND:                -2.458
REMARK SMILES CCCCCCCCCCCCCCCCCCCCCC(=O)[O-]
REMARK SMILES IDX 12 1 11 2 10 3 9 4 8 5 7 6 6 7 5 8 4 9 3 10 2 11 1 12 13 13
REMARK SMILES IDX 14 14 15 15 16 16 17 17 18 18 19 19 20 20 21 21 22 22 23 23
REMARK SMILES IDX 24 24
REMARK H PARENT
REMARK Flexibility Score: inf
ROOT
ATOM      1  C   UNL     1       2.276  19.019 -12.640  1.00  0.00     0.000 C 
ENDROOT
BRANCH   1   2
ATOM      2  C   UNL     1       2.680  19.013 -11.157  1.00  0.00     0.000 C 
BRANCH   2   3
ATOM      3  C   UNL     1       1.931  17.947 -10.343  1.00  0.00     0.000 C 
BRANCH   3   4
ATOM      4  C   UNL     1       0.593  18.459  -9.787  1.00  0.00    -0.000 C 
BRANCH   4   5
ATOM      5  C   UNL     1       0.136  17.614  -8.592  1.00  0.00    -0.000 C 
BRANCH   5   6
ATOM      6  C   UNL     1       1.287  17.392  -7.601  1.00  0.00    -0.000 C 
BRANCH   6   7
ATOM      7  C   UNL     1       0.911  17.757  -6.155  1.00  0.00    -0.000 C 
BRANCH   7   8
ATOM      8  C   UNL     1      -0.214  18.810  -6.056  1.00  0.00    -0.000 C 
BRANCH   8   9
ATOM      9  C   UNL     1       0.246  20.088  -5.337  1.00  0.00    -0.000 C 
BRANCH   9  10
ATOM     10  C   UNL     1       1.430  20.736  -6.070  1.00  0.00    -0.000 C 
BRANCH  10  11
ATOM     11  C   UNL     1       1.065  21.200  -7.488  1.00  0.00    -0.003 C 
ATOM     12  C   UNL     1       2.293  21.472  -8.356  1.00  0.00     0.004 C 
ENDBRANCH  10  11
ENDBRANCH   9  10
ENDBRANCH   8   9
ENDBRANCH   7   8
ENDBRANCH   6   7
ENDBRANCH   5   6
ENDBRANCH   4   5
ENDBRANCH   3   4
ENDBRANCH   2   3
ENDBRANCH   1   2
BRANCH   1  13
ATOM     13  C   UNL     1       2.114  20.455 -13.157  1.00  0.00     0.000 C 
BRANCH  13  14
ATOM     14  C   UNL     1       2.478  20.548 -14.645  1.00  0.00     0.000 C 
BRANCH  14  15
ATOM     15  C   UNL     1       2.841  21.979 -15.083  1.00  0.00     0.000 C 
BRANCH  15  16
ATOM     16  C   UNL     1       3.784  22.070 -16.300  1.00  0.00     0.000 C 
BRANCH  16  17
ATOM     17  C   UNL     1       3.203  22.806 -17.521  1.00  0.00     0.000 C 
BRANCH  17  18
ATOM     18  C   UNL     1       1.682  22.997 -17.434  1.00  0.00     0.000 C 
BRANCH  18  19
ATOM     19  C   UNL     1       0.958  22.096 -18.445  1.00  0.00     0.000 C 
BRANCH  19  20
ATOM     20  C   UNL     1       1.887  21.555 -19.546  1.00  0.00     0.006 C 
BRANCH  20  21
ATOM     21  C   UNL     1       1.877  20.021 -19.674  1.00  0.00     0.053 C 
BRANCH  21  22
ATOM     22  C   UNL     1       2.687  19.536 -20.837  1.00  0.00     0.041 C 
ATOM     23  O   UNL     1       2.477  18.392 -21.323  1.00  0.00    -0.550 OA
ATOM     24  O   UNL     1       3.649  20.358 -21.412  1.00  0.00    -0.550 OA
ENDBRANCH  21  22
ENDBRANCH  20  21
ENDBRANCH  19  20
ENDBRANCH  18  19
ENDBRANCH  17  18
ENDBRANCH  16  17
ENDBRANCH  15  16
ENDBRANCH  14  15
ENDBRANCH  13  14
ENDBRANCH   1  13
TORSDOF 20
ENDMDL
MODEL 3
REMARK VINA RESULT:    -4.889      3.200     10.052
REMARK INTER + INTRA:         -13.063
REMARK INTER:                 -11.261
REMARK INTRA:                  -1.802
REMARK UNBOUND:                -2.458
REMARK SMILES CCCCCCCCCCCCCCCCCCCCCC(=O)[O-]
REMARK SMILES IDX 12 1 11 2 10 3 9 4 8 5 7 6 6 7 5 8 4 9 3 10 2 11 1 12 13 13
REMARK SMILES IDX 14 14 15 15 16 16 17 17 18 18 19 19 20 20 21 21 22 22 23 23
REMARK SMILES IDX 24 24
REMARK H PARENT
REMARK Flexibility Score: inf
ROOT
ATOM      1  C   UNL     1       0.829  19.202 -11.763  1.00  0.00     0.000 C 
ENDROOT
BRANCH   1   2
ATOM      2  C   UNL     1       1.998  19.257 -12.759  1.00  0.00     0.000 C 
BRANCH   2   3
ATOM      3  C   UNL     1       2.242  20.671 -13.310  1.00  0.00     0.000 C 
BRANCH   3   4
ATOM      4  C   UNL     1       2.538  20.677 -14.817  1.00  0.00    -0.000 C 
BRANCH   4   5
ATOM      5  C   UNL     1       2.820  22.100 -15.316  1.00  0.00    -0.000 C 
BRANCH   5   6
ATOM      6  C   UNL     1       3.562  22.076 -16.659  1.00  0.00    -0.000 C 
BRANCH   6   7
ATOM      7  C   UNL     1       3.081  23.170 -17.627  1.00  0.00    -0.000 C 
BRANCH   7   8
ATOM      8  C   UNL     1       2.330  22.619 -18.858  1.00  0.00    -0.000 C 
BRANCH   8   9
ATOM      9  C   UNL     1       1.691  21.249 -18.585  1.00  0.00    -0.000 C 
BRANCH   9  10
ATOM     10  C   UNL     1       1.237  20.582 -19.892  1.00  0.00    -0.000 C 
BRANCH  10  11
ATOM     11  C   UNL     1       2.122  19.388 -20.284  1.00  0.00    -0.003 C 
ATOM     12  C   UNL     1       3.424  19.815 -20.961  1.00  0.00     0.004 C 
ENDBRANCH  10  11
ENDBRANCH   9  10
ENDBRANCH   8   9
ENDBRANCH   7   8
ENDBRANCH   6   7
ENDBRANCH   5   6
ENDBRANCH   4   5
ENDBRANCH   3   4
ENDBRANCH   2   3
ENDBRANCH   1   2
BRANCH   1  13
ATOM     13  C   UNL     1       1.013  18.050 -10.767  1.00  0.00     0.000 C 
BRANCH  13  14
ATOM     14  C   UNL     1       0.240  18.317  -9.468  1.00  0.00     0.000 C 
BRANCH  14  15
ATOM     15  C   UNL     1       0.677  17.398  -8.313  1.00  0.00     0.000 C 
BRANCH  15  16
ATOM     16  C   UNL     1      -0.019  17.668  -6.963  1.00  0.00     0.000 C 
BRANCH  16  17
ATOM     17  C   UNL     1       0.750  18.598  -6.008  1.00  0.00     0.000 C 
BRANCH  17  18
ATOM     18  C   UNL     1      -0.086  19.801  -5.546  1.00  0.00     0.000 C 
BRANCH  18  19
ATOM     19  C   UNL     1       0.123  21.003  -6.477  1.00  0.00     0.000 C 
BRANCH  19  20
ATOM     20  C   UNL     1       1.500  21.003  -7.165  1.00  0.00     0.006 C 
BRANCH  20  21
ATOM     21  C   UNL     1       1.502  21.660  -8.558  1.00  0.00     0.053 C 
BRANCH  21  22
ATOM     22  C   UNL     1       2.692  21.264  -9.377  1.00  0.00     0.041 C 
ATOM     23  O   UNL     1       3.280  20.172  -9.155  1.00  0.00    -0.550 OA
ATOM     24  O   UNL     1       3.134  22.082 -10.411  1.00  0.00    -0.550 OA
ENDBRANCH  21  22
ENDBRANCH  20  21
ENDBRANCH  19  20
ENDBRANCH  18  19
ENDBRANCH  17  18
ENDBRANCH  16  17
ENDBRANCH  15  16
ENDBRANCH  14  15
ENDBRANCH  13  14
ENDBRANCH   1  13
TORSDOF 20
ENDMDL
MODEL 4
REMARK VINA RESULT:    -4.888      1.146      2.567
REMARK INTER + INTRA:         -13.062
REMARK INTER:                 -11.123
REMARK INTRA:                  -1.938
REMARK UNBOUND:                -2.458
REMARK SMILES CCCCCCCCCCCCCCCCCCCCCC(=O)[O-]
REMARK SMILES IDX 12 1 11 2 10 3 9 4 8 5 7 6 6 7 5 8 4 9 3 10 2 11 1 12 13 13
REMARK SMILES IDX 14 14 15 15 16 16 17 17 18 18 19 19 20 20 21 21 22 22 23 23
REMARK SMILES IDX 24 24
REMARK H PARENT
REMARK Flexibility Score: inf
ROOT
ATOM      1  C   UNL     1       2.181  21.459 -11.166  1.00  0.00     0.000 C 
ENDROOT
BRANCH   1   2
ATOM      2  C   UNL     1       2.190  19.946 -10.894  1.00  0.00     0.000 C 
BRANCH   2   3
ATOM      3  C   UNL     1       1.747  19.598  -9.464  1.00  0.00     0.000 C 
BRANCH   3   4
ATOM      4  C   UNL     1       2.847  19.855  -8.423  1.00  0.00    -0.000 C 
BRANCH   4   5
ATOM      5  C   UNL     1       2.451  20.993  -7.475  1.00  0.00    -0.000 C 
BRANCH   5   6
ATOM      6  C   UNL     1       0.987  21.400  -7.684  1.00  0.00    -0.000 C 
BRANCH   6   7
ATOM      7  C   UNL     1       0.123  21.191  -6.429  1.00  0.00    -0.000 C 
BRANCH   7   8
ATOM      8  C   UNL     1       0.923  20.709  -5.200  1.00  0.00    -0.000 C 
BRANCH   8   9
ATOM      9  C   UNL     1       0.690  19.219  -4.902  1.00  0.00    -0.000 C 
BRANCH   9  10
ATOM     10  C   UNL     1      -0.254  18.591  -5.938  1.00  0.00    -0.000 C 
BRANCH  10  11
ATOM     11  C   UNL     1       0.348  17.348  -6.609  1.00  0.00    -0.003 C 
ATOM     12  C   UNL     1       1.777  17.062  -6.148  1.00  0.00     0.004 C 
ENDBRANCH  10  11
ENDBRANCH   9  10
ENDBRANCH   8   9
ENDBRANCH   7   8
ENDBRANCH   6   7
ENDBRANCH   5   6
ENDBRANCH   4   5
ENDBRANCH   3   4
ENDBRANCH   2   3
ENDBRANCH   1   2
BRANCH   1  13
ATOM     13  C   UNL     1       2.136  21.743 -12.673  1.00  0.00     0.000 C 
BRANCH  13  14
ATOM     14  C   UNL     1       2.151  20.437 -13.480  1.00  0.00     0.000 C 
BRANCH  14  15
ATOM     15  C   UNL     1       2.633  20.635 -14.929  1.00  0.00     0.000 C 
BRANCH  15  16
ATOM     16  C   UNL     1       2.899  22.099 -15.335  1.00  0.00     0.000 C 
BRANCH  16  17
ATOM     17  C   UNL     1       3.507  22.286 -16.738  1.00  0.00     0.000 C 
BRANCH  17  18
ATOM     18  C   UNL     1       2.585  23.065 -17.687  1.00  0.00     0.000 C 
BRANCH  18  19
ATOM     19  C   UNL     1       1.270  22.309 -17.918  1.00  0.00     0.000 C 
BRANCH  19  20
ATOM     20  C   UNL     1       1.329  21.347 -19.118  1.00  0.00     0.006 C 
BRANCH  20  21
ATOM     21  C   UNL     1       2.696  21.314 -19.826  1.00  0.00     0.053 C 
BRANCH  21  22
ATOM     22  C   UNL     1       2.891  20.071 -20.640  1.00  0.00     0.041 C 
ATOM     23  O   UNL     1       2.180  19.054 -20.423  1.00  0.00    -0.550 OA
ATOM     24  O   UNL     1       3.831  20.045 -21.663  1.00  0.00    -0.550 OA
ENDBRANCH  21  22
ENDBRANCH  20  21
ENDBRANCH  19  20
ENDBRANCH  18  19
ENDBRANCH  17  18
ENDBRANCH  16  17
ENDBRANCH  15  16
ENDBRANCH  14  15
ENDBRANCH  13  14
ENDBRANCH   1  13
TORSDOF 20
ENDMDL
MODEL 5
REMARK VINA RESULT:    -4.729      0.954      1.567
REMARK INTER + INTRA:         -12.716
REMARK INTER:                 -10.238
REMARK INTRA:                  -2.477
REMARK UNBOUND:                -2.458
REMARK SMILES CCCCCCCCCCCCCCCCCCCCCC(=O)[O-]
REMARK SMILES IDX 12 1 11 2 10 3 9 4 8 5 7 6 6 7 5 8 4 9 3 10 2 11 1 12 13 13
REMARK SMILES IDX 14 14 15 15 16 16 17 17 18 18 19 19 20 20 21 21 22 22 23 23
REMARK SMILES IDX 24 24
REMARK H PARENT
REMARK Flexibility Score: inf
ROOT
ATOM      1  C   UNL     1       0.251  18.212 -10.283  1.00  0.00     0.000 C 
ENDROOT
BRANCH   1   2
ATOM      2  C   UNL     1      -0.118  17.576  -8.934  1.00  0.00     0.000 C 
BRANCH   2   3
ATOM      3  C   UNL     1       1.093  17.423  -8.000  1.00  0.00     0.000 C 
BRANCH   3   4
ATOM      4  C   UNL     1       0.690  17.316  -6.521  1.00  0.00    -0.000 C 
BRANCH   4   5
ATOM      5  C   UNL     1       1.848  17.732  -5.605  1.00  0.00    -0.000 C 
BRANCH   5   6
ATOM      6  C   UNL     1       1.577  19.099  -4.962  1.00  0.00    -0.000 C 
BRANCH   6   7
ATOM      7  C   UNL     1       0.182  19.652  -5.299  1.00  0.00    -0.000 C 
BRANCH   7   8
ATOM      8  C   UNL     1       0.210  21.063  -5.924  1.00  0.00    -0.000 C 
BRANCH   8   9
ATOM      9  C   UNL     1       0.439  21.021  -7.443  1.00  0.00    -0.000 C 
BRANCH   9  10
ATOM     10  C   UNL     1       1.863  21.472  -7.798  1.00  0.00    -0.000 C 
BRANCH  10  11
ATOM     11  C   UNL     1       2.209  21.229  -9.275  1.00  0.00    -0.003 C 
ATOM     12  C   UNL     1       3.237  20.114  -9.466  1.00  0.00     0.004 C 
ENDBRANCH  10  11
ENDBRANCH   9  10
ENDBRANCH   8   9
ENDBRANCH   7   8
ENDBRANCH   6   7
ENDBRANCH   5   6
ENDBRANCH   4   5
ENDBRANCH   3   4
ENDBRANCH   2   3
ENDBRANCH   1   2
BRANCH   1  13
ATOM     13  C   UNL     1       1.090  17.249 -11.132  1.00  0.00     0.000 C 
BRANCH  13  14
ATOM     14  C   UNL     1       1.921  18.012 -12.173  1.00  0.00     0.000 C 
BRANCH  14  15
ATOM     15  C   UNL     1       1.225  19.293 -12.670  1.00  0.00     0.000 C 
BRANCH  15  16
ATOM     16  C   UNL     1       2.174  20.456 -13.026  1.00  0.00     0.000 C 
BRANCH  16  17
ATOM     17  C   UNL     1       2.545  20.561 -14.516  1.00  0.00     0.000 C 
BRANCH  17  18
ATOM     18  C   UNL     1       2.812  22.005 -14.963  1.00  0.00     0.000 C 
BRANCH  18  19
ATOM     19  C   UNL     1       3.666  22.035 -16.238  1.00  0.00     0.000 C 
BRANCH  19  20
ATOM     20  C   UNL     1       2.893  22.532 -17.473  1.00  0.00     0.006 C 
BRANCH  20  21
ATOM     21  C   UNL     1       1.703  21.638 -17.866  1.00  0.00     0.053 C 
BRANCH  21  22
ATOM     22  C   UNL     1       1.763  21.198 -19.297  1.00  0.00     0.041 C 
ATOM     23  O   UNL     1       0.756  20.670 -19.840  1.00  0.00    -0.550 OA
ATOM     24  O   UNL     1       2.918  21.401 -20.043  1.00  0.00    -0.550 OA
ENDBRANCH  21  22
ENDBRANCH  20  21
ENDBRANCH  19  20
ENDBRANCH  18  19
ENDBRANCH  17  18
ENDBRANCH  16  17
ENDBRANCH  15  16
ENDBRANCH  14  15
ENDBRANCH  13  14
ENDBRANCH   1  13
TORSDOF 20
ENDMDL
MODEL 6
REMARK VINA RESULT:    -4.688      1.013      2.524
REMARK INTER + INTRA:         -12.627
REMARK INTER:                 -10.587
REMARK INTRA:                  -2.040
REMARK UNBOUND:                -2.458
REMARK SMILES CCCCCCCCCCCCCCCCCCCCCC(=O)[O-]
REMARK SMILES IDX 12 1 11 2 10 3 9 4 8 5 7 6 6 7 5 8 4 9 3 10 2 11 1 12 13 13
REMARK SMILES IDX 14 14 15 15 16 16 17 17 18 18 19 19 20 20 21 21 22 22 23 23
REMARK SMILES IDX 24 24
REMARK H PARENT
REMARK Flexibility Score: inf
ROOT
ATOM      1  C   UNL     1       0.988  21.284 -11.242  1.00  0.00     0.000 C 
ENDROOT
BRANCH   1   2
ATOM      2  C   UNL     1       1.646  21.547  -9.879  1.00  0.00     0.000 C 
BRANCH   2   3
ATOM      3  C   UNL     1       2.894  20.682  -9.645  1.00  0.00     0.000 C 
BRANCH   3   4
ATOM      4  C   UNL     1       3.074  20.287  -8.172  1.00  0.00    -0.000 C 
BRANCH   4   5
ATOM      5  C   UNL     1       3.091  18.762  -8.010  1.00  0.00    -0.000 C 
BRANCH   5   6
ATOM      6  C   UNL     1       1.682  18.175  -8.171  1.00  0.00    -0.000 C 
BRANCH   6   7
ATOM      7  C   UNL     1       1.459  16.915  -7.316  1.00  0.00    -0.000 C 
BRANCH   7   8
ATOM      8  C   UNL     1       0.275  17.037  -6.333  1.00  0.00    -0.000 C 
BRANCH   8   9
ATOM      9  C   UNL     1      -0.173  18.494  -6.140  1.00  0.00    -0.000 C 
BRANCH   9  10
ATOM     10  C   UNL     1       0.567  19.147  -4.963  1.00  0.00    -0.000 C 
BRANCH  10  11
ATOM     11  C   UNL     1       1.077  20.557  -5.295  1.00  0.00    -0.003 C 
ATOM     12  C   UNL     1       0.104  21.346  -6.171  1.00  0.00     0.004 C 
ENDBRANCH  10  11
ENDBRANCH   9  10
ENDBRANCH   8   9
ENDBRANCH   7   8
ENDBRANCH   6   7
ENDBRANCH   5   6
ENDBRANCH   4   5
ENDBRANCH   3   4
ENDBRANCH   2   3
ENDBRANCH   1   2
BRANCH   1  13
ATOM     13  C   UNL     1       0.907  19.779 -11.530  1.00  0.00     0.000 C 
BRANCH  13  14
ATOM     14  C   UNL     1       1.547  19.442 -12.884  1.00  0.00     0.000 C 
BRANCH  14  15
ATOM     15  C   UNL     1       2.437  20.577 -13.423  1.00  0.00     0.000 C 
BRANCH  15  16
ATOM     16  C   UNL     1       2.508  20.678 -14.960  1.00  0.00     0.000 C 
BRANCH  16  17
ATOM     17  C   UNL     1       3.020  22.025 -15.502  1.00  0.00     0.000 C 
BRANCH  17  18
ATOM     18  C   UNL     1       3.010  22.093 -17.036  1.00  0.00     0.000 C 
BRANCH  18  19
ATOM     19  C   UNL     1       1.586  22.311 -17.566  1.00  0.00     0.000 C 
BRANCH  19  20
ATOM     20  C   UNL     1       1.514  22.361 -19.103  1.00  0.00     0.006 C 
BRANCH  20  21
ATOM     21  C   UNL     1       2.805  21.902 -19.804  1.00  0.00     0.053 C 
BRANCH  21  22
ATOM     22  C   UNL     1       2.655  20.569 -20.470  1.00  0.00     0.041 C 
ATOM     23  O   UNL     1       3.521  20.172 -21.295  1.00  0.00    -0.550 OA
ATOM     24  O   UNL     1       1.580  19.746 -20.156  1.00  0.00    -0.550 OA
ENDBRANCH  21  22
ENDBRANCH  20  21
ENDBRANCH  19  20
ENDBRANCH  18  19
ENDBRANCH  17  18
ENDBRANCH  16  17
ENDBRANCH  15  16
ENDBRANCH  14  15
ENDBRANCH  13  14
ENDBRANCH   1  13
TORSDOF 20
ENDMDL
MODEL 7
REMARK VINA RESULT:    -4.649     10.166     13.515
REMARK INTER + INTRA:         -12.542
REMARK INTER:                  -9.676
REMARK INTRA:                  -2.866
REMARK UNBOUND:                -2.458
REMARK SMILES CCCCCCCCCCCCCCCCCCCCCC(=O)[O-]
REMARK SMILES IDX 12 1 11 2 10 3 9 4 8 5 7 6 6 7 5 8 4 9 3 10 2 11 1 12 13 13
REMARK SMILES IDX 14 14 15 15 16 16 17 17 18 18 19 19 20 20 21 21 22 22 23 23
REMARK SMILES IDX 24 24
REMARK H PARENT
REMARK Flexibility Score: inf
ROOT
ATOM      1  C   UNL     1       5.842  30.427 -15.249  1.00  0.00     0.000 C 
ENDROOT
BRANCH   1   2
ATOM      2  C   UNL     1       5.968  31.422 -16.414  1.00  0.00     0.000 C 
BRANCH   2   3
ATOM      3  C   UNL     1       5.621  32.862 -16.004  1.00  0.00     0.000 C 
BRANCH   3   4
ATOM      4  C   UNL     1       6.863  33.755 -15.868  1.00  0.00    -0.000 C 
BRANCH   4   5
ATOM      5  C   UNL     1       8.000  33.010 -15.159  1.00  0.00    -0.000 C 
BRANCH   5   6
ATOM      6  C   UNL     1       8.434  33.749 -13.886  1.00  0.00    -0.000 C 
BRANCH   6   7
ATOM      7  C   UNL     1       8.433  32.846 -12.640  1.00  0.00    -0.000 C 
BRANCH   7   8
ATOM      8  C   UNL     1       7.187  33.027 -11.748  1.00  0.00    -0.000 C 
BRANCH   8   9
ATOM      9  C   UNL     1       6.111  31.967 -12.029  1.00  0.00    -0.000 C 
BRANCH   9  10
ATOM     10  C   UNL     1       4.800  32.621 -12.492  1.00  0.00    -0.000 C 
BRANCH  10  11
ATOM     11  C   UNL     1       4.611  34.033 -11.920  1.00  0.00    -0.003 C 
ATOM     12  C   UNL     1       3.237  34.233 -11.281  1.00  0.00     0.004 C 
ENDBRANCH  10  11
ENDBRANCH   9  10
ENDBRANCH   8   9
ENDBRANCH   7   8
ENDBRANCH   6   7
ENDBRANCH   5   6
ENDBRANCH   4   5
ENDBRANCH   3   4
ENDBRANCH   2   3
ENDBRANCH   1   2
BRANCH   1  13
ATOM     13  C   UNL     1       6.960  29.378 -15.301  1.00  0.00     0.000 C 
BRANCH  13  14
ATOM     14  C   UNL     1       6.608  28.155 -14.444  1.00  0.00     0.000 C 
BRANCH  14  15
ATOM     15  C   UNL     1       7.356  28.132 -13.098  1.00  0.00     0.000 C 
BRANCH  15  16
ATOM     16  C   UNL     1       8.514  29.143 -12.977  1.00  0.00     0.000 C 
BRANCH  16  17
ATOM     17  C   UNL     1       9.924  28.523 -12.993  1.00  0.00     0.000 C 
BRANCH  17  18
ATOM     18  C   UNL     1       9.909  27.015 -13.279  1.00  0.00     0.000 C 
BRANCH  18  19
ATOM     19  C   UNL     1      10.442  26.223 -12.077  1.00  0.00     0.000 C 
BRANCH  19  20
ATOM     20  C   UNL     1       9.586  24.990 -11.737  1.00  0.00     0.006 C 
BRANCH  20  21
ATOM     21  C   UNL     1       8.440  24.732 -12.732  1.00  0.00     0.053 C 
BRANCH  21  22
ATOM     22  C   UNL     1       7.163  24.348 -12.049  1.00  0.00     0.041 C 
ATOM     23  O   UNL     1       7.191  23.704 -10.967  1.00  0.00    -0.550 OA
ATOM     24  O   UNL     1       5.939  24.732 -12.586  1.00  0.00    -0.550 OA
ENDBRANCH  21  22
ENDBRANCH  20  21
ENDBRANCH  19  20
ENDBRANCH  18  19
ENDBRANCH  17  18
ENDBRANCH  16  17
ENDBRANCH  15  16
ENDBRANCH  14  15
ENDBRANCH  13  14
ENDBRANCH   1  13
TORSDOF 20
ENDMDL
MODEL 8
REMARK VINA RESULT:    -4.635     10.469     13.441
REMARK INTER + INTRA:         -12.511
REMARK INTER:                  -9.407
REMARK INTRA:                  -3.104
REMARK UNBOUND:                -2.458
REMARK SMILES CCCCCCCCCCCCCCCCCCCCCC(=O)[O-]
REMARK SMILES IDX 12 1 11 2 10 3 9 4 8 5 7 6 6 7 5 8 4 9 3 10 2 11 1 12 13 13
REMARK SMILES IDX 14 14 15 15 16 16 17 17 18 18 19 19 20 20 21 21 22 22 23 23
REMARK SMILES IDX 24 24
REMARK H PARENT
REMARK Flexibility Score: inf
ROOT
ATOM      1  C   UNL     1       7.451  29.428 -13.305  1.00  0.00     0.000 C 
ENDROOT
BRANCH   1   2
ATOM      2  C   UNL     1       8.933  29.409 -12.901  1.00  0.00     0.000 C 
BRANCH   2   3
ATOM      3  C   UNL     1       9.860  29.897 -14.026  1.00  0.00     0.000 C 
BRANCH   3   4
ATOM      4  C   UNL     1      11.024  28.931 -14.295  1.00  0.00    -0.000 C 
BRANCH   4   5
ATOM      5  C   UNL     1      10.601  27.817 -15.260  1.00  0.00    -0.000 C 
BRANCH   5   6
ATOM      6  C   UNL     1      11.104  26.450 -14.777  1.00  0.00    -0.000 C 
BRANCH   6   7
ATOM      7  C   UNL     1       9.973  25.549 -14.252  1.00  0.00    -0.000 C 
BRANCH   7   8
ATOM      8  C   UNL     1       9.795  25.609 -12.721  1.00  0.00    -0.000 C 
BRANCH   8   9
ATOM      9  C   UNL     1       8.323  25.780 -12.312  1.00  0.00    -0.000 C 
BRANCH   9  10
ATOM     10  C   UNL     1       7.609  24.422 -12.243  1.00  0.00    -0.000 C 
BRANCH  10  11
ATOM     11  C   UNL     1       8.393  23.383 -11.426  1.00  0.00    -0.003 C 
ATOM     12  C   UNL     1       7.996  23.371  -9.950  1.00  0.00     0.004 C 
ENDBRANCH  10  11
ENDBRANCH   9  10
ENDBRANCH   8   9
ENDBRANCH   7   8
ENDBRANCH   6   7
ENDBRANCH   5   6
ENDBRANCH   4   5
ENDBRANCH   3   4
ENDBRANCH   2   3
ENDBRANCH   1   2
BRANCH   1  13
ATOM     13  C   UNL     1       7.190  28.473 -14.477  1.00  0.00     0.000 C 
BRANCH  13  14
ATOM     14  C   UNL     1       6.222  29.097 -15.491  1.00  0.00     0.000 C 
BRANCH  14  15
ATOM     15  C   UNL     1       5.734  30.496 -15.070  1.00  0.00     0.000 C 
BRANCH  15  16
ATOM     16  C   UNL     1       6.253  31.659 -15.939  1.00  0.00     0.000 C 
BRANCH  16  17
ATOM     17  C   UNL     1       7.326  32.541 -15.275  1.00  0.00     0.000 C 
BRANCH  17  18
ATOM     18  C   UNL     1       6.765  33.404 -14.135  1.00  0.00     0.000 C 
BRANCH  18  19
ATOM     19  C   UNL     1       7.659  33.317 -12.890  1.00  0.00     0.000 C 
BRANCH  19  20
ATOM     20  C   UNL     1       6.922  32.776 -11.652  1.00  0.00     0.006 C 
BRANCH  20  21
ATOM     21  C   UNL     1       5.387  32.844 -11.760  1.00  0.00     0.053 C 
BRANCH  21  22
ATOM     22  C   UNL     1       4.816  34.048 -11.074  1.00  0.00     0.041 C 
ATOM     23  O   UNL     1       3.630  34.032 -10.650  1.00  0.00    -0.550 OA
ATOM     24  O   UNL     1       5.602  35.176 -10.870  1.00  0.00    -0.550 OA
ENDBRANCH  21  22
ENDBRANCH  20  21
ENDBRANCH  19  20
ENDBRANCH  18  19
ENDBRANCH  17  18
ENDBRANCH  16  17
ENDBRANCH  15  16
ENDBRANCH  14  15
ENDBRANCH  13  14
ENDBRANCH   1  13
TORSDOF 20
ENDMDL
MODEL 9
REMARK VINA RESULT:    -4.592     10.878     13.923
REMARK INTER + INTRA:         -12.419
REMARK INTER:                  -9.561
REMARK INTRA:                  -2.858
REMARK UNBOUND:                -2.458
REMARK SMILES CCCCCCCCCCCCCCCCCCCCCC(=O)[O-]
REMARK SMILES IDX 12 1 11 2 10 3 9 4 8 5 7 6 6 7 5 8 4 9 3 10 2 11 1 12 13 13
REMARK SMILES IDX 14 14 15 15 16 16 17 17 18 18 19 19 20 20 21 21 22 22 23 23
REMARK SMILES IDX 24 24
REMARK H PARENT
REMARK Flexibility Score: inf
ROOT
ATOM      1  C   UNL     1       8.692  33.717 -14.557  1.00  0.00     0.000 C 
ENDROOT
BRANCH   1   2
ATOM      2  C   UNL     1       8.738  32.664 -13.439  1.00  0.00     0.000 C 
BRANCH   2   3
ATOM      3  C   UNL     1       8.910  31.235 -13.977  1.00  0.00     0.000 C 
BRANCH   3   4
ATOM      4  C   UNL     1       9.003  30.187 -12.858  1.00  0.00    -0.000 C 
BRANCH   4   5
ATOM      5  C   UNL     1       7.724  29.342 -12.790  1.00  0.00    -0.000 C 
BRANCH   5   6
ATOM      6  C   UNL     1       7.908  28.005 -13.519  1.00  0.00    -0.000 C 
BRANCH   6   7
ATOM      7  C   UNL     1       8.930  27.084 -12.831  1.00  0.00    -0.000 C 
BRANCH   7   8
ATOM      8  C   UNL     1       9.583  26.062 -13.786  1.00  0.00    -0.000 C 
BRANCH   8   9
ATOM      9  C   UNL     1       9.215  24.614 -13.428  1.00  0.00    -0.000 C 
BRANCH   9  10
ATOM     10  C   UNL     1       8.299  24.566 -12.197  1.00  0.00    -0.000 C 
BRANCH  10  11
ATOM     11  C   UNL     1       8.394  23.232 -11.441  1.00  0.00    -0.003 C 
ATOM     12  C   UNL     1       7.941  23.344  -9.985  1.00  0.00     0.004 C 
ENDBRANCH  10  11
ENDBRANCH   9  10
ENDBRANCH   8   9
ENDBRANCH   7   8
ENDBRANCH   6   7
ENDBRANCH   5   6
ENDBRANCH   4   5
ENDBRANCH   3   4
ENDBRANCH   2   3
ENDBRANCH   1   2
BRANCH   1  13
ATOM     13  C   UNL     1       7.365  34.486 -14.531  1.00  0.00     0.000 C 
BRANCH  13  14
ATOM     14  C   UNL     1       6.795  34.648 -15.947  1.00  0.00     0.000 C 
BRANCH  14  15
ATOM     15  C   UNL     1       6.983  33.390 -16.815  1.00  0.00     0.000 C 
BRANCH  15  16
ATOM     16  C   UNL     1       5.765  32.445 -16.867  1.00  0.00     0.000 C 
BRANCH  16  17
ATOM     17  C   UNL     1       5.919  31.139 -16.066  1.00  0.00     0.000 C 
BRANCH  17  18
ATOM     18  C   UNL     1       5.278  31.215 -14.673  1.00  0.00     0.000 C 
BRANCH  18  19
ATOM     19  C   UNL     1       4.281  32.379 -14.591  1.00  0.00     0.000 C 
BRANCH  19  20
ATOM     20  C   UNL     1       4.107  32.927 -13.163  1.00  0.00     0.006 C 
BRANCH  20  21
ATOM     21  C   UNL     1       5.229  32.513 -12.194  1.00  0.00     0.053 C 
BRANCH  21  22
ATOM     22  C   UNL     1       5.280  33.377 -10.971  1.00  0.00     0.041 C 
ATOM     23  O   UNL     1       5.412  34.625 -11.083  1.00  0.00    -0.550 OA
ATOM     24  O   UNL     1       5.144  32.812  -9.708  1.00  0.00    -0.550 OA
ENDBRANCH  21  22
ENDBRANCH  20  21
ENDBRANCH  19  20
ENDBRANCH  18  19
ENDBRANCH  17  18
ENDBRANCH  16  17
ENDBRANCH  15  16
ENDBRANCH  14  15
ENDBRANCH  13  14
ENDBRANCH   1  13
TORSDOF 20
ENDMDL
