MODEL 1
REMARK VINA RESULT:    -7.231      0.000      0.000
REMARK INTER + INTRA:          -8.583
REMARK INTER:                  -8.288
REMARK INTRA:                  -0.295
REMARK UNBOUND:                -0.295
REMARK SMILES O=C1C[C@@H](c2ccc(O)cc2)Oc2cc(O)cc(O)c21
REMARK SMILES IDX 3 1 4 2 12 3 13 4 14 5 15 6 17 7 18 8 20 9 2 10 1 11 5 12
REMARK SMILES IDX 6 13 11 14 7 15 10 16 8 17 9 18 19 20 16 22
REMARK H PARENT 9 19 19 21 16 23
REMARK Flexibility Score: inf
ROOT
ATOM      1  C   UNL     1       1.897  -9.745   7.116  1.00  0.00     0.131 C 
ATOM      2  C   UNL     1       1.967  -8.310   6.580  1.00  0.00     0.211 C 
ATOM      3  O   UNL     1       2.997  -8.202   5.598  1.00  0.00    -0.484 OA
ATOM      4  C   UNL     1       3.156  -9.158   4.589  1.00  0.00     0.138 A 
ATOM      5  C   UNL     1       3.953  -8.847   3.486  1.00  0.00     0.093 A 
ATOM      6  C   UNL     1       4.111  -9.768   2.449  1.00  0.00     0.123 A 
ATOM      7  C   UNL     1       3.455 -10.998   2.509  1.00  0.00     0.093 A 
ATOM      8  C   UNL     1       2.644 -11.329   3.602  1.00  0.00     0.133 A 
ATOM      9  C   UNL     1       2.525 -10.420   4.690  1.00  0.00     0.102 A 
ATOM     10  C   UNL     1       1.846 -10.731   5.982  1.00  0.00     0.174 C 
ATOM     11  O   UNL     1       1.316 -11.851   6.199  1.00  0.00    -0.294 OA
ENDROOT
BRANCH   2  12
ATOM     12  C   UNL     1       2.212  -7.329   7.700  1.00  0.00    -0.007 A 
ATOM     13  C   UNL     1       3.523  -7.055   8.126  1.00  0.00     0.011 A 
ATOM     14  C   UNL     1       1.141  -6.636   8.292  1.00  0.00     0.011 A 
ATOM     15  C   UNL     1       3.756  -6.124   9.141  1.00  0.00     0.046 A 
ATOM     16  C   UNL     1       1.377  -5.705   9.308  1.00  0.00     0.046 A 
ATOM     17  C   UNL     1       2.683  -5.448   9.737  1.00  0.00     0.115 A 
BRANCH  17  18
ATOM     18  O   UNL     1       2.904  -4.517  10.751  1.00  0.00    -0.508 OA
ATOM     19  H   UNL     1       3.576  -4.689  11.489  1.00  0.00     0.293 HD
ENDBRANCH  17  18
ENDBRANCH   2  12
BRANCH   8  20
ATOM     20  O   UNL     1       1.976 -12.556   3.543  1.00  0.00    -0.507 OA
ATOM     21  H   UNL     1       1.215 -12.763   2.914  1.00  0.00     0.293 HD
ENDBRANCH   8  20
BRANCH   6  22
ATOM     22  O   UNL     1       4.909  -9.468   1.347  1.00  0.00    -0.508 OA
ATOM     23  H   UNL     1       5.630 -10.103   1.026  1.00  0.00     0.293 HD
ENDBRANCH   6  22
TORSDOF 4
ENDMDL
MODEL 2
REMARK VINA RESULT:    -6.230      1.619      7.255
REMARK INTER + INTRA:          -7.435
REMARK INTER:                  -7.135
REMARK INTRA:                  -0.301
REMARK UNBOUND:                -0.295
REMARK SMILES O=C1C[C@@H](c2ccc(O)cc2)Oc2cc(O)cc(O)c21
REMARK SMILES IDX 3 1 4 2 12 3 13 4 14 5 15 6 17 7 18 8 20 9 2 10 1 11 5 12
REMARK SMILES IDX 6 13 11 14 7 15 10 16 8 17 9 18 19 20 16 22
REMARK H PARENT 9 19 19 21 16 23
REMARK Flexibility Score: inf
ROOT
ATOM      1  C   UNL     1       3.765  -7.774   7.292  1.00  0.00     0.131 C 
ATOM      2  C   UNL     1       2.524  -7.706   6.394  1.00  0.00     0.211 C 
ATOM      3  O   UNL     1       1.342  -7.677   7.192  1.00  0.00    -0.484 OA
ATOM      4  C   UNL     1       1.232  -6.853   8.317  1.00  0.00     0.138 A 
ATOM      5  C   UNL     1      -0.032  -6.624   8.864  1.00  0.00     0.093 A 
ATOM      6  C   UNL     1      -0.179  -5.785   9.971  1.00  0.00     0.123 A 
ATOM      7  C   UNL     1       0.942  -5.163  10.521  1.00  0.00     0.093 A 
ATOM      8  C   UNL     1       2.219  -5.372   9.985  1.00  0.00     0.133 A 
ATOM      9  C   UNL     1       2.384  -6.271   8.894  1.00  0.00     0.102 A 
ATOM     10  C   UNL     1       3.704  -6.716   8.358  1.00  0.00     0.174 C 
ATOM     11  O   UNL     1       4.789  -6.311   8.849  1.00  0.00    -0.294 OA
ENDROOT
BRANCH   2  12
ATOM     12  C   UNL     1       2.482  -8.879   5.446  1.00  0.00    -0.007 A 
ATOM     13  C   UNL     1       3.181  -8.829   4.227  1.00  0.00     0.011 A 
ATOM     14  C   UNL     1       1.793 -10.056   5.791  1.00  0.00     0.011 A 
ATOM     15  C   UNL     1       3.170  -9.926   3.361  1.00  0.00     0.046 A 
ATOM     16  C   UNL     1       1.784 -11.151   4.923  1.00  0.00     0.046 A 
ATOM     17  C   UNL     1       2.469 -11.089   3.705  1.00  0.00     0.115 A 
BRANCH  17  18
ATOM     18  O   UNL     1       2.451 -12.188   2.849  1.00  0.00    -0.508 OA
ATOM     19  H   UNL     1       2.135 -12.107   1.890  1.00  0.00     0.293 HD
ENDBRANCH  17  18
ENDBRANCH   2  12
BRANCH   8  20
ATOM     20  O   UNL     1       3.270  -4.654  10.562  1.00  0.00    -0.507 OA
ATOM     21  H   UNL     1       4.152  -5.055  10.840  1.00  0.00     0.293 HD
ENDBRANCH   8  20
BRANCH   6  22
ATOM     22  O   UNL     1      -1.435  -5.555  10.525  1.00  0.00    -0.508 OA
ATOM     23  H   UNL     1      -1.551  -4.995  11.362  1.00  0.00     0.293 HD
ENDBRANCH   6  22
TORSDOF 4
ENDMDL
MODEL 3
REMARK VINA RESULT:    -6.229      1.384      2.582
REMARK INTER + INTRA:          -7.435
REMARK INTER:                  -7.122
REMARK INTRA:                  -0.313
REMARK UNBOUND:                -0.295
REMARK SMILES O=C1C[C@@H](c2ccc(O)cc2)Oc2cc(O)cc(O)c21
REMARK SMILES IDX 3 1 4 2 12 3 13 4 14 5 15 6 17 7 18 8 20 9 2 10 1 11 5 12
REMARK SMILES IDX 6 13 11 14 7 15 10 16 8 17 9 18 19 20 16 22
REMARK H PARENT 9 19 19 21 16 23
REMARK Flexibility Score: inf
ROOT
ATOM      1  C   UNL     1       4.176  -7.830   5.822  1.00  0.00     0.131 C 
ATOM      2  C   UNL     1       3.099  -8.414   6.744  1.00  0.00     0.211 C 
ATOM      3  O   UNL     1       1.978  -8.848   5.976  1.00  0.00    -0.484 OA
ATOM      4  C   UNL     1       2.134  -9.590   4.800  1.00  0.00     0.138 A 
ATOM      5  C   UNL     1       1.026 -10.254   4.271  1.00  0.00     0.093 A 
ATOM      6  C   UNL     1       1.153 -11.025   3.113  1.00  0.00     0.123 A 
ATOM      7  C   UNL     1       2.397 -11.143   2.494  1.00  0.00     0.093 A 
ATOM      8  C   UNL     1       3.525 -10.492   3.010  1.00  0.00     0.133 A 
ATOM      9  C   UNL     1       3.391  -9.657   4.156  1.00  0.00     0.102 A 
ATOM     10  C   UNL     1       4.468  -8.773   4.688  1.00  0.00     0.174 C 
ATOM     11  O   UNL     1       5.601  -8.707   4.143  1.00  0.00    -0.294 OA
ENDROOT
BRANCH   2  12
ATOM     12  C   UNL     1       2.663  -7.398   7.771  1.00  0.00    -0.007 A 
ATOM     13  C   UNL     1       3.614  -6.768   8.591  1.00  0.00     0.011 A 
ATOM     14  C   UNL     1       1.311  -7.027   7.882  1.00  0.00     0.011 A 
ATOM     15  C   UNL     1       3.217  -5.804   9.522  1.00  0.00     0.046 A 
ATOM     16  C   UNL     1       0.916  -6.063   8.814  1.00  0.00     0.046 A 
ATOM     17  C   UNL     1       1.867  -5.450   9.638  1.00  0.00     0.115 A 
BRANCH  17  18
ATOM     18  O   UNL     1       1.459  -4.490  10.562  1.00  0.00    -0.508 OA
ATOM     19  H   UNL     1       2.023  -3.672  10.759  1.00  0.00     0.293 HD
ENDBRANCH  17  18
ENDBRANCH   2  12
BRANCH   8  20
ATOM     20  O   UNL     1       4.740 -10.723   2.360  1.00  0.00    -0.507 OA
ATOM     21  H   UNL     1       4.895 -10.591   1.372  1.00  0.00     0.293 HD
ENDBRANCH   8  20
BRANCH   6  22
ATOM     22  O   UNL     1       0.052 -11.686   2.575  1.00  0.00    -0.508 OA
ATOM     23  H   UNL     1      -0.450 -12.394   3.100  1.00  0.00     0.293 HD
ENDBRANCH   6  22
TORSDOF 4
ENDMDL
MODEL 4
REMARK VINA RESULT:    -5.926     10.704     13.021
REMARK INTER + INTRA:          -7.087
REMARK INTER:                  -6.776
REMARK INTRA:                  -0.311
REMARK UNBOUND:                -0.295
REMARK SMILES O=C1C[C@@H](c2ccc(O)cc2)Oc2cc(O)cc(O)c21
REMARK SMILES IDX 3 1 4 2 12 3 13 4 14 5 15 6 17 7 18 8 20 9 2 10 1 11 5 12
REMARK SMILES IDX 6 13 11 14 7 15 10 16 8 17 9 18 19 20 16 22
REMARK H PARENT 9 19 19 21 16 23
REMARK Flexibility Score: inf
ROOT
ATOM      1  C   UNL     1      -0.520   0.387  10.100  1.00  0.00     0.131 C 
ATOM      2  C   UNL     1      -1.631   1.410   9.833  1.00  0.00     0.211 C 
ATOM      3  O   UNL     1      -1.202   2.713  10.225  1.00  0.00    -0.484 OA
ATOM      4  C   UNL     1       0.066   3.202   9.893  1.00  0.00     0.138 A 
ATOM      5  C   UNL     1       0.312   4.571  10.015  1.00  0.00     0.093 A 
ATOM      6  C   UNL     1       1.559   5.096   9.667  1.00  0.00     0.123 A 
ATOM      7  C   UNL     1       2.555   4.249   9.180  1.00  0.00     0.093 A 
ATOM      8  C   UNL     1       2.328   2.874   9.042  1.00  0.00     0.133 A 
ATOM      9  C   UNL     1       1.081   2.323   9.451  1.00  0.00     0.102 A 
ATOM     10  C   UNL     1       0.785   0.862   9.525  1.00  0.00     0.174 C 
ATOM     11  O   UNL     1       1.646  -0.004   9.221  1.00  0.00    -0.294 OA
ENDROOT
BRANCH   2  12
ATOM     12  C   UNL     1      -2.894   1.035  10.569  1.00  0.00    -0.007 A 
ATOM     13  C   UNL     1      -3.081  -0.280  11.028  1.00  0.00     0.011 A 
ATOM     14  C   UNL     1      -3.871   2.005  10.853  1.00  0.00     0.011 A 
ATOM     15  C   UNL     1      -4.236  -0.622  11.737  1.00  0.00     0.046 A 
ATOM     16  C   UNL     1      -5.025   1.660  11.562  1.00  0.00     0.046 A 
ATOM     17  C   UNL     1      -5.212   0.346  12.004  1.00  0.00     0.115 A 
BRANCH  17  18
ATOM     18  O   UNL     1      -6.368   0.015  12.709  1.00  0.00    -0.508 OA
ATOM     19  H   UNL     1      -7.281   0.334  12.408  1.00  0.00     0.293 HD
ENDBRANCH  17  18
ENDBRANCH   2  12
BRANCH   8  20
ATOM     20  O   UNL     1       3.362   2.117   8.484  1.00  0.00    -0.507 OA
ATOM     21  H   UNL     1       3.403   1.827   7.520  1.00  0.00     0.293 HD
ENDBRANCH   8  20
BRANCH   6  22
ATOM     22  O   UNL     1       1.815   6.460   9.790  1.00  0.00    -0.508 OA
ATOM     23  H   UNL     1       1.064   7.136   9.860  1.00  0.00     0.293 HD
ENDBRANCH   6  22
TORSDOF 4
ENDMDL
MODEL 5
REMARK VINA RESULT:    -5.636      9.962     12.936
REMARK INTER + INTRA:          -6.755
REMARK INTER:                  -6.460
REMARK INTRA:                  -0.295
REMARK UNBOUND:                -0.295
REMARK SMILES O=C1C[C@@H](c2ccc(O)cc2)Oc2cc(O)cc(O)c21
REMARK SMILES IDX 3 1 4 2 12 3 13 4 14 5 15 6 17 7 18 8 20 9 2 10 1 11 5 12
REMARK SMILES IDX 6 13 11 14 7 15 10 16 8 17 9 18 19 20 16 22
REMARK H PARENT 9 19 19 21 16 23
REMARK Flexibility Score: inf
ROOT
ATOM      1  C   UNL     1      -4.426   0.639  11.018  1.00  0.00     0.131 C 
ATOM      2  C   UNL     1      -3.331  -0.314  11.510  1.00  0.00     0.211 C 
ATOM      3  O   UNL     1      -2.109  -0.054  10.821  1.00  0.00    -0.484 OA
ATOM      4  C   UNL     1      -1.636   1.247  10.625  1.00  0.00     0.138 A 
ATOM      5  C   UNL     1      -0.306   1.430  10.240  1.00  0.00     0.093 A 
ATOM      6  C   UNL     1       0.205   2.717  10.062  1.00  0.00     0.123 A 
ATOM      7  C   UNL     1      -0.614   3.824  10.286  1.00  0.00     0.093 A 
ATOM      8  C   UNL     1      -1.949   3.666  10.679  1.00  0.00     0.133 A 
ATOM      9  C   UNL     1      -2.493   2.357  10.805  1.00  0.00     0.102 A 
ATOM     10  C   UNL     1      -3.938   2.060  11.037  1.00  0.00     0.174 C 
ATOM     11  O   UNL     1      -4.793   2.977  11.140  1.00  0.00    -0.294 OA
ENDROOT
BRANCH   2  12
ATOM     12  C   UNL     1      -3.742  -1.752  11.314  1.00  0.00    -0.007 A 
ATOM     13  C   UNL     1      -2.868  -2.793  11.674  1.00  0.00     0.011 A 
ATOM     14  C   UNL     1      -5.021  -2.072  10.825  1.00  0.00     0.011 A 
ATOM     15  C   UNL     1      -3.258  -4.127  11.523  1.00  0.00     0.046 A 
ATOM     16  C   UNL     1      -5.408  -3.406  10.674  1.00  0.00     0.046 A 
ATOM     17  C   UNL     1      -4.529  -4.437  11.021  1.00  0.00     0.115 A 
BRANCH  17  18
ATOM     18  O   UNL     1      -4.928  -5.763  10.866  1.00  0.00    -0.508 OA
ATOM     19  H   UNL     1      -4.847  -6.240   9.975  1.00  0.00     0.293 HD
ENDBRANCH  17  18
ENDBRANCH   2  12
BRANCH   8  20
ATOM     20  O   UNL     1      -2.672   4.833  10.943  1.00  0.00    -0.507 OA
ATOM     21  H   UNL     1      -2.300   5.767  10.861  1.00  0.00     0.293 HD
ENDBRANCH   8  20
BRANCH   6  22
ATOM     22  O   UNL     1       1.529   2.909   9.674  1.00  0.00    -0.508 OA
ATOM     23  H   UNL     1       2.113   2.134   9.380  1.00  0.00     0.293 HD
ENDBRANCH   6  22
TORSDOF 4
ENDMDL
MODEL 6
REMARK VINA RESULT:    -5.461     10.719     12.128
REMARK INTER + INTRA:          -6.554
REMARK INTER:                  -6.274
REMARK INTRA:                  -0.281
REMARK UNBOUND:                -0.295
REMARK SMILES O=C1C[C@@H](c2ccc(O)cc2)Oc2cc(O)cc(O)c21
REMARK SMILES IDX 3 1 4 2 12 3 13 4 14 5 15 6 17 7 18 8 20 9 2 10 1 11 5 12
REMARK SMILES IDX 6 13 11 14 7 15 10 16 8 17 9 18 19 20 16 22
REMARK H PARENT 9 19 19 21 16 23
REMARK Flexibility Score: inf
ROOT
ATOM      1  C   UNL     1      -2.900  -2.308  11.769  1.00  0.00     0.131 C 
ATOM      2  C   UNL     1      -3.800  -1.067  11.771  1.00  0.00     0.211 C 
ATOM      3  O   UNL     1      -5.025  -1.349  11.095  1.00  0.00    -0.484 OA
ATOM      4  C   UNL     1      -5.740  -2.529  11.327  1.00  0.00     0.138 A 
ATOM      5  C   UNL     1      -7.065  -2.609  10.895  1.00  0.00     0.093 A 
ATOM      6  C   UNL     1      -7.816  -3.762  11.135  1.00  0.00     0.123 A 
ATOM      7  C   UNL     1      -7.241  -4.831  11.823  1.00  0.00     0.093 A 
ATOM      8  C   UNL     1      -5.916  -4.770  12.273  1.00  0.00     0.133 A 
ATOM      9  C   UNL     1      -5.127  -3.622  11.981  1.00  0.00     0.102 A 
ATOM     10  C   UNL     1      -3.662  -3.515  12.242  1.00  0.00     0.174 C 
ATOM     11  O   UNL     1      -3.009  -4.461  12.755  1.00  0.00    -0.294 OA
ENDROOT
BRANCH   2  12
ATOM     12  C   UNL     1      -3.105   0.102  11.119  1.00  0.00    -0.007 A 
ATOM     13  C   UNL     1      -3.586   1.409  11.312  1.00  0.00     0.011 A 
ATOM     14  C   UNL     1      -1.937  -0.091  10.360  1.00  0.00     0.011 A 
ATOM     15  C   UNL     1      -2.926   2.497  10.736  1.00  0.00     0.046 A 
ATOM     16  C   UNL     1      -1.279   1.000   9.784  1.00  0.00     0.046 A 
ATOM     17  C   UNL     1      -1.771   2.296   9.969  1.00  0.00     0.115 A 
BRANCH  17  18
ATOM     18  O   UNL     1      -1.105   3.374   9.389  1.00  0.00    -0.508 OA
ATOM     19  H   UNL     1      -0.096   3.386   9.300  1.00  0.00     0.293 HD
ENDBRANCH  17  18
ENDBRANCH   2  12
BRANCH   8  20
ATOM     20  O   UNL     1      -5.449  -5.862  13.010  1.00  0.00    -0.507 OA
ATOM     21  H   UNL     1      -6.040  -6.509  13.511  1.00  0.00     0.293 HD
ENDBRANCH   8  20
BRANCH   6  22
ATOM     22  O   UNL     1      -9.137  -3.853  10.703  1.00  0.00    -0.508 OA
ATOM     23  H   UNL     1      -9.366  -4.032   9.732  1.00  0.00     0.293 HD
ENDBRANCH   6  22
TORSDOF 4
ENDMDL
MODEL 7
REMARK VINA RESULT:    -5.456     10.692     12.610
REMARK INTER + INTRA:          -6.548
REMARK INTER:                  -6.236
REMARK INTRA:                  -0.312
REMARK UNBOUND:                -0.295
REMARK SMILES O=C1C[C@@H](c2ccc(O)cc2)Oc2cc(O)cc(O)c21
REMARK SMILES IDX 3 1 4 2 12 3 13 4 14 5 15 6 17 7 18 8 20 9 2 10 1 11 5 12
REMARK SMILES IDX 6 13 11 14 7 15 10 16 8 17 9 18 19 20 16 22
REMARK H PARENT 9 19 19 21 16 23
REMARK Flexibility Score: inf
ROOT
ATOM      1  C   UNL     1      -3.879   1.178  11.763  1.00  0.00     0.131 C 
ATOM      2  C   UNL     1      -3.153   0.438  10.633  1.00  0.00     0.211 C 
ATOM      3  O   UNL     1      -2.933  -0.923  11.000  1.00  0.00    -0.484 OA
ATOM      4  C   UNL     1      -3.936  -1.699  11.589  1.00  0.00     0.138 A 
ATOM      5  C   UNL     1      -3.778  -3.086  11.631  1.00  0.00     0.093 A 
ATOM      6  C   UNL     1      -4.773  -3.892  12.187  1.00  0.00     0.123 A 
ATOM      7  C   UNL     1      -5.938  -3.308  12.687  1.00  0.00     0.093 A 
ATOM      8  C   UNL     1      -6.122  -1.920  12.649  1.00  0.00     0.133 A 
ATOM      9  C   UNL     1      -5.087  -1.088  12.138  1.00  0.00     0.102 A 
ATOM     10  C   UNL     1      -5.087   0.403  12.211  1.00  0.00     0.174 C 
ATOM     11  O   UNL     1      -6.032   1.040  12.746  1.00  0.00    -0.294 OA
ENDROOT
BRANCH   2  12
ATOM     12  C   UNL     1      -1.841   1.108  10.309  1.00  0.00    -0.007 A 
ATOM     13  C   UNL     1      -1.632   2.456  10.648  1.00  0.00     0.011 A 
ATOM     14  C   UNL     1      -0.792   0.381   9.717  1.00  0.00     0.011 A 
ATOM     15  C   UNL     1      -0.406   3.071  10.378  1.00  0.00     0.046 A 
ATOM     16  C   UNL     1       0.432   0.999   9.448  1.00  0.00     0.046 A 
ATOM     17  C   UNL     1       0.629   2.344   9.775  1.00  0.00     0.115 A 
BRANCH  17  18
ATOM     18  O   UNL     1       1.855   2.947   9.500  1.00  0.00    -0.508 OA
ATOM     19  H   UNL     1       1.976   3.562   8.703  1.00  0.00     0.293 HD
ENDBRANCH  17  18
ENDBRANCH   2  12
BRANCH   8  20
ATOM     20  O   UNL     1      -7.348  -1.434  13.113  1.00  0.00    -0.507 OA
ATOM     21  H   UNL     1      -7.633  -0.467  13.071  1.00  0.00     0.293 HD
ENDBRANCH   8  20
BRANCH   6  22
ATOM     22  O   UNL     1      -4.621  -5.275  12.238  1.00  0.00    -0.508 OA
ATOM     23  H   UNL     1      -4.943  -5.872  11.484  1.00  0.00     0.293 HD
ENDBRANCH   6  22
TORSDOF 4
ENDMDL
MODEL 8
REMARK VINA RESULT:    -5.390     13.426     15.355
REMARK INTER + INTRA:          -6.473
REMARK INTER:                  -6.178
REMARK INTRA:                  -0.295
REMARK UNBOUND:                -0.295
REMARK SMILES O=C1C[C@@H](c2ccc(O)cc2)Oc2cc(O)cc(O)c21
REMARK SMILES IDX 3 1 4 2 12 3 13 4 14 5 15 6 17 7 18 8 20 9 2 10 1 11 5 12
REMARK SMILES IDX 6 13 11 14 7 15 10 16 8 17 9 18 19 20 16 22
REMARK H PARENT 9 19 19 21 16 23
REMARK Flexibility Score: inf
ROOT
ATOM      1  C   UNL     1     -10.066  -8.857   2.476  1.00  0.00     0.131 C 
ATOM      2  C   UNL     1     -10.871 -10.035   1.917  1.00  0.00     0.211 C 
ATOM      3  O   UNL     1     -10.805 -11.144   2.812  1.00  0.00    -0.484 OA
ATOM      4  C   UNL     1     -10.974 -10.989   4.192  1.00  0.00     0.138 A 
ATOM      5  C   UNL     1     -11.218 -12.120   4.972  1.00  0.00     0.093 A 
ATOM      6  C   UNL     1     -11.418 -11.997   6.349  1.00  0.00     0.123 A 
ATOM      7  C   UNL     1     -11.390 -10.734   6.942  1.00  0.00     0.093 A 
ATOM      8  C   UNL     1     -11.155  -9.584   6.178  1.00  0.00     0.133 A 
ATOM      9  C   UNL     1     -10.891  -9.708   4.785  1.00  0.00     0.102 A 
ATOM     10  C   UNL     1     -10.449  -8.586   3.905  1.00  0.00     0.174 C 
ATOM     11  O   UNL     1     -10.276  -7.422   4.352  1.00  0.00    -0.294 OA
ENDROOT
BRANCH   2  12
ATOM     12  C   UNL     1     -10.361 -10.436   0.554  1.00  0.00    -0.007 A 
ATOM     13  C   UNL     1     -10.978  -9.937  -0.606  1.00  0.00     0.011 A 
ATOM     14  C   UNL     1      -9.232 -11.264   0.427  1.00  0.00     0.011 A 
ATOM     15  C   UNL     1     -10.489 -10.281  -1.869  1.00  0.00     0.046 A 
ATOM     16  C   UNL     1      -8.745 -11.606  -0.837  1.00  0.00     0.046 A 
ATOM     17  C   UNL     1      -9.372 -11.119  -1.989  1.00  0.00     0.115 A 
BRANCH  17  18
ATOM     18  O   UNL     1      -8.876 -11.468  -3.243  1.00  0.00    -0.508 OA
ATOM     19  H   UNL     1      -8.870 -12.431  -3.560  1.00  0.00     0.293 HD
ENDBRANCH  17  18
ENDBRANCH   2  12
BRANCH   8  20
ATOM     20  O   UNL     1     -11.211  -8.359   6.849  1.00  0.00    -0.507 OA
ATOM     21  H   UNL     1     -10.533  -7.620   6.748  1.00  0.00     0.293 HD
ENDBRANCH   8  20
BRANCH   6  22
ATOM     22  O   UNL     1     -11.657 -13.121   7.136  1.00  0.00    -0.508 OA
ATOM     23  H   UNL     1     -12.191 -13.908   6.787  1.00  0.00     0.293 HD
ENDBRANCH   6  22
TORSDOF 4
ENDMDL
MODEL 9
REMARK VINA RESULT:    -5.161     11.218     13.596
REMARK INTER + INTRA:          -6.210
REMARK INTER:                  -5.909
REMARK INTRA:                  -0.301
REMARK UNBOUND:                -0.295
REMARK SMILES O=C1C[C@@H](c2ccc(O)cc2)Oc2cc(O)cc(O)c21
REMARK SMILES IDX 3 1 4 2 12 3 13 4 14 5 15 6 17 7 18 8 20 9 2 10 1 11 5 12
REMARK SMILES IDX 6 13 11 14 7 15 10 16 8 17 9 18 19 20 16 22
REMARK H PARENT 9 19 19 21 16 23
REMARK Flexibility Score: inf
ROOT
ATOM      1  C   UNL     1      -1.216   0.303  10.717  1.00  0.00     0.131 C 
ATOM      2  C   UNL     1      -2.610   0.584  10.144  1.00  0.00     0.211 C 
ATOM      3  O   UNL     1      -3.023   1.906  10.484  1.00  0.00    -0.484 OA
ATOM      4  C   UNL     1      -2.163   3.003  10.359  1.00  0.00     0.138 A 
ATOM      5  C   UNL     1      -2.702   4.290  10.395  1.00  0.00     0.093 A 
ATOM      6  C   UNL     1      -1.875   5.405  10.246  1.00  0.00     0.123 A 
ATOM      7  C   UNL     1      -0.506   5.228  10.044  1.00  0.00     0.093 A 
ATOM      8  C   UNL     1       0.057   3.947   9.997  1.00  0.00     0.133 A 
ATOM      9  C   UNL     1      -0.771   2.808  10.207  1.00  0.00     0.102 A 
ATOM     10  C   UNL     1      -0.265   1.412  10.362  1.00  0.00     0.174 C 
ATOM     11  O   UNL     1       0.963   1.144  10.314  1.00  0.00    -0.294 OA
ENDROOT
BRANCH   2  12
ATOM     12  C   UNL     1      -3.613  -0.421  10.653  1.00  0.00    -0.007 A 
ATOM     13  C   UNL     1      -4.988  -0.219  10.440  1.00  0.00     0.011 A 
ATOM     14  C   UNL     1      -3.186  -1.598  11.294  1.00  0.00     0.011 A 
ATOM     15  C   UNL     1      -5.917  -1.164  10.883  1.00  0.00     0.046 A 
ATOM     16  C   UNL     1      -4.118  -2.540  11.737  1.00  0.00     0.046 A 
ATOM     17  C   UNL     1      -5.486  -2.326  11.535  1.00  0.00     0.115 A 
BRANCH  17  18
ATOM     18  O   UNL     1      -6.404  -3.274  11.981  1.00  0.00    -0.508 OA
ATOM     19  H   UNL     1      -6.791  -3.972  11.356  1.00  0.00     0.293 HD
ENDBRANCH  17  18
ENDBRANCH   2  12
BRANCH   8  20
ATOM     20  O   UNL     1       1.426   3.868   9.724  1.00  0.00    -0.507 OA
ATOM     21  H   UNL     1       2.098   3.388  10.302  1.00  0.00     0.293 HD
ENDBRANCH   8  20
BRANCH   6  22
ATOM     22  O   UNL     1      -2.404   6.693  10.286  1.00  0.00    -0.508 OA
ATOM     23  H   UNL     1      -3.381   6.858  10.499  1.00  0.00     0.293 HD
ENDBRANCH   6  22
TORSDOF 4
ENDMDL
