MODEL 1
REMARK VINA RESULT:    -4.691      0.000      0.000
REMARK INTER + INTRA:          -5.102
REMARK INTER:                  -5.102
REMARK INTRA:                   0.000
REMARK UNBOUND:                 0.000
REMARK SMILES Cc1cc(O)c2c(c1)C(=O)c1cc(O)cc(O)c1C2=O
REMARK SMILES IDX 1 1 2 2 8 3 7 4 6 5 4 6 3 7 19 8 20 9 18 10 11 11 9 12 10 13
REMARK SMILES IDX 12 14 13 15 15 16 16 17 5 18 17 20 14 22
REMARK H PARENT 5 19 17 21 14 23
REMARK Flexibility Score: inf
ROOT
ATOM      1  C   UNL     1       6.112  -3.579  10.761  1.00  0.00     0.044 C 
ATOM      2  C   UNL     1       6.971  -4.718  11.225  1.00  0.00    -0.047 A 
ATOM      3  C   UNL     1       6.573  -5.501  12.315  1.00  0.00     0.016 A 
ATOM      4  C   UNL     1       7.355  -6.588  12.740  1.00  0.00     0.038 A 
ATOM      5  C   UNL     1       8.555  -6.898  12.061  1.00  0.00     0.076 A 
ATOM      6  C   UNL     1       8.909  -6.154  10.906  1.00  0.00     0.127 A 
ATOM      7  C   UNL     1       8.125  -5.064  10.515  1.00  0.00     0.050 A 
ATOM      8  C   UNL     1       9.429  -7.958  12.628  1.00  0.00     0.201 C 
ATOM      9  O   UNL     1      10.676  -7.899  12.460  1.00  0.00    -0.288 OA
ATOM     10  C   UNL     1       8.854  -8.977  13.544  1.00  0.00     0.076 A 
ATOM     11  C   UNL     1       7.652  -8.665  14.219  1.00  0.00     0.041 A 
ATOM     12  C   UNL     1       6.923  -7.416  13.890  1.00  0.00     0.194 C 
ATOM     13  O   UNL     1       5.921  -7.072  14.575  1.00  0.00    -0.289 OA
ATOM     14  C   UNL     1       7.150  -9.542  15.195  1.00  0.00     0.059 A 
ATOM     15  C   UNL     1       7.823 -10.730  15.493  1.00  0.00     0.120 A 
ATOM     16  C   UNL     1       8.986 -11.061  14.801  1.00  0.00     0.093 A 
ATOM     17  C   UNL     1       9.496 -10.214  13.811  1.00  0.00     0.131 A 
ENDROOT
BRANCH   6  18
ATOM     18  O   UNL     1      10.002  -6.483  10.102  1.00  0.00    -0.507 OA
ATOM     19  H   UNL     1       9.978  -7.203   9.394  1.00  0.00     0.293 HD
ENDBRANCH   6  18
BRANCH  17  20
ATOM     20  O   UNL     1      10.613 -10.655  13.097  1.00  0.00    -0.507 OA
ATOM     21  H   UNL     1      11.558 -10.366  13.303  1.00  0.00     0.293 HD
ENDBRANCH  17  20
BRANCH  15  22
ATOM     22  O   UNL     1       7.335 -11.597  16.469  1.00  0.00    -0.508 OA
ATOM     23  H   UNL     1       6.753 -12.392  16.229  1.00  0.00     0.293 HD
ENDBRANCH  15  22
TORSDOF 3
ENDMDL
MODEL 2
REMARK VINA RESULT:    -4.399      1.538      2.342
REMARK INTER + INTRA:          -4.785
REMARK INTER:                  -4.785
REMARK INTRA:                   0.000
REMARK UNBOUND:                 0.000
REMARK SMILES Cc1cc(O)c2c(c1)C(=O)c1cc(O)cc(O)c1C2=O
REMARK SMILES IDX 1 1 2 2 8 3 7 4 6 5 4 6 3 7 19 8 20 9 18 10 11 11 9 12 10 13
REMARK SMILES IDX 12 14 13 15 15 16 16 17 5 18 17 20 14 22
REMARK H PARENT 5 19 17 21 14 23
REMARK Flexibility Score: inf
ROOT
ATOM      1  C   UNL     1       8.166  -3.090   7.885  1.00  0.00     0.044 C 
ATOM      2  C   UNL     1       8.539  -4.162   8.866  1.00  0.00    -0.047 A 
ATOM      3  C   UNL     1       7.744  -4.391   9.994  1.00  0.00     0.016 A 
ATOM      4  C   UNL     1       8.068  -5.412  10.904  1.00  0.00     0.038 A 
ATOM      5  C   UNL     1       9.206  -6.217  10.680  1.00  0.00     0.076 A 
ATOM      6  C   UNL     1       9.960  -6.036   9.491  1.00  0.00     0.127 A 
ATOM      7  C   UNL     1       9.630  -5.001   8.611  1.00  0.00     0.050 A 
ATOM      8  C   UNL     1       9.601  -7.185  11.736  1.00  0.00     0.201 C 
ATOM      9  O   UNL     1      10.814  -7.488  11.888  1.00  0.00    -0.288 OA
ATOM     10  C   UNL     1       8.595  -7.646  12.728  1.00  0.00     0.076 A 
ATOM     11  C   UNL     1       7.455  -6.840  12.947  1.00  0.00     0.041 A 
ATOM     12  C   UNL     1       7.215  -5.652  12.092  1.00  0.00     0.194 C 
ATOM     13  O   UNL     1       6.272  -4.859  12.364  1.00  0.00    -0.289 OA
ATOM     14  C   UNL     1       6.551  -7.169  13.971  1.00  0.00     0.059 A 
ATOM     15  C   UNL     1       6.763  -8.299  14.765  1.00  0.00     0.120 A 
ATOM     16  C   UNL     1       7.863  -9.120  14.526  1.00  0.00     0.093 A 
ATOM     17  C   UNL     1       8.767  -8.825  13.500  1.00  0.00     0.131 A 
ENDROOT
BRANCH   6  18
ATOM     18  O   UNL     1      11.014  -6.878   9.130  1.00  0.00    -0.507 OA
ATOM     19  H   UNL     1      10.983  -7.883   9.227  1.00  0.00     0.293 HD
ENDBRANCH   6  18
BRANCH  17  20
ATOM     20  O   UNL     1       9.793  -9.742  13.260  1.00  0.00    -0.507 OA
ATOM     21  H   UNL     1       9.660 -10.743  13.261  1.00  0.00     0.293 HD
ENDBRANCH  17  20
BRANCH  15  22
ATOM     22  O   UNL     1       5.875  -8.623  15.790  1.00  0.00    -0.508 OA
ATOM     23  H   UNL     1       5.740  -8.012  16.587  1.00  0.00     0.293 HD
ENDBRANCH  15  22
TORSDOF 3
ENDMDL
MODEL 3
REMARK VINA RESULT:    -3.739      2.364      5.891
REMARK INTER + INTRA:          -4.067
REMARK INTER:                  -4.067
REMARK INTRA:                   0.000
REMARK UNBOUND:                 0.000
REMARK SMILES Cc1cc(O)c2c(c1)C(=O)c1cc(O)cc(O)c1C2=O
REMARK SMILES IDX 1 1 2 2 8 3 7 4 6 5 4 6 3 7 19 8 20 9 18 10 11 11 9 12 10 13
REMARK SMILES IDX 12 14 13 15 15 16 16 17 5 18 17 20 14 22
REMARK H PARENT 5 19 17 21 14 23
REMARK Flexibility Score: inf
ROOT
ATOM      1  C   UNL     1       7.737 -11.443  16.853  1.00  0.00     0.044 C 
ATOM      2  C   UNL     1       7.431 -10.825  15.521  1.00  0.00    -0.047 A 
ATOM      3  C   UNL     1       7.219  -9.446  15.417  1.00  0.00     0.016 A 
ATOM      4  C   UNL     1       6.960  -8.852  14.169  1.00  0.00     0.038 A 
ATOM      5  C   UNL     1       6.913  -9.654  13.007  1.00  0.00     0.076 A 
ATOM      6  C   UNL     1       7.212 -11.037  13.107  1.00  0.00     0.127 A 
ATOM      7  C   UNL     1       7.447 -11.608  14.362  1.00  0.00     0.050 A 
ATOM      8  C   UNL     1       6.490  -9.018  11.732  1.00  0.00     0.201 C 
ATOM      9  O   UNL     1       5.894  -9.701  10.858  1.00  0.00    -0.288 OA
ATOM     10  C   UNL     1       6.603  -7.545  11.569  1.00  0.00     0.076 A 
ATOM     11  C   UNL     1       6.653  -6.747  12.735  1.00  0.00     0.041 A 
ATOM     12  C   UNL     1       6.744  -7.390  14.068  1.00  0.00     0.194 C 
ATOM     13  O   UNL     1       6.662  -6.689  15.114  1.00  0.00    -0.289 OA
ATOM     14  C   UNL     1       6.621  -5.346  12.625  1.00  0.00     0.059 A 
ATOM     15  C   UNL     1       6.556  -4.736  11.370  1.00  0.00     0.120 A 
ATOM     16  C   UNL     1       6.548  -5.518  10.217  1.00  0.00     0.093 A 
ATOM     17  C   UNL     1       6.599  -6.913  10.298  1.00  0.00     0.131 A 
ENDROOT
BRANCH   6  18
ATOM     18  O   UNL     1       7.321 -11.868  11.990  1.00  0.00    -0.507 OA
ATOM     19  H   UNL     1       7.420 -11.524  11.045  1.00  0.00     0.293 HD
ENDBRANCH   6  18
BRANCH  17  20
ATOM     20  O   UNL     1       6.680  -7.627   9.100  1.00  0.00    -0.507 OA
ATOM     21  H   UNL     1       6.596  -7.201   8.188  1.00  0.00     0.293 HD
ENDBRANCH  17  20
BRANCH  15  22
ATOM     22  O   UNL     1       6.512  -3.347  11.257  1.00  0.00    -0.508 OA
ATOM     23  H   UNL     1       7.325  -2.774  11.450  1.00  0.00     0.293 HD
ENDBRANCH  15  22
TORSDOF 3
ENDMDL
MODEL 4
REMARK VINA RESULT:    -3.498      4.334      6.444
REMARK INTER + INTRA:          -3.805
REMARK INTER:                  -3.805
REMARK INTRA:                   0.000
REMARK UNBOUND:                 0.000
REMARK SMILES Cc1cc(O)c2c(c1)C(=O)c1cc(O)cc(O)c1C2=O
REMARK SMILES IDX 1 1 2 2 8 3 7 4 6 5 4 6 3 7 19 8 20 9 18 10 11 11 9 12 10 13
REMARK SMILES IDX 12 14 13 15 15 16 16 17 5 18 17 20 14 22
REMARK H PARENT 5 19 17 21 14 23
REMARK Flexibility Score: inf
ROOT
ATOM      1  C   UNL     1       8.364   1.969   8.188  1.00  0.00     0.044 C 
ATOM      2  C   UNL     1       8.507   0.614   8.817  1.00  0.00    -0.047 A 
ATOM      3  C   UNL     1       7.642  -0.425   8.454  1.00  0.00     0.016 A 
ATOM      4  C   UNL     1       7.785  -1.705   9.015  1.00  0.00     0.038 A 
ATOM      5  C   UNL     1       8.812  -1.950   9.953  1.00  0.00     0.076 A 
ATOM      6  C   UNL     1       9.737  -0.917  10.252  1.00  0.00     0.127 A 
ATOM      7  C   UNL     1       9.562   0.354   9.697  1.00  0.00     0.050 A 
ATOM      8  C   UNL     1       8.841  -3.271  10.634  1.00  0.00     0.201 C 
ATOM      9  O   UNL     1       9.300  -3.363  11.803  1.00  0.00    -0.288 OA
ATOM     10  C   UNL     1       8.161  -4.436  10.013  1.00  0.00     0.076 A 
ATOM     11  C   UNL     1       7.136  -4.188   9.072  1.00  0.00     0.041 A 
ATOM     12  C   UNL     1       6.869  -2.801   8.619  1.00  0.00     0.194 C 
ATOM     13  O   UNL     1       5.876  -2.559   7.878  1.00  0.00    -0.289 OA
ATOM     14  C   UNL     1       6.377  -5.256   8.565  1.00  0.00     0.059 A 
ATOM     15  C   UNL     1       6.638  -6.567   8.973  1.00  0.00     0.120 A 
ATOM     16  C   UNL     1       7.674  -6.821   9.870  1.00  0.00     0.093 A 
ATOM     17  C   UNL     1       8.457  -5.777  10.373  1.00  0.00     0.131 A 
ENDROOT
BRANCH   6  18
ATOM     18  O   UNL     1      10.858  -1.119  11.061  1.00  0.00    -0.507 OA
ATOM     19  H   UNL     1      11.326  -0.377  11.562  1.00  0.00     0.293 HD
ENDBRANCH   6  18
BRANCH  17  20
ATOM     20  O   UNL     1       9.535  -6.117  11.194  1.00  0.00    -0.507 OA
ATOM     21  H   UNL     1       9.563  -6.951  11.764  1.00  0.00     0.293 HD
ENDBRANCH  17  20
BRANCH  15  22
ATOM     22  O   UNL     1       5.879  -7.628   8.483  1.00  0.00    -0.508 OA
ATOM     23  H   UNL     1       5.997  -8.571   8.835  1.00  0.00     0.293 HD
ENDBRANCH  15  22
TORSDOF 3
ENDMDL
MODEL 5
REMARK VINA RESULT:    -3.420      2.395      6.518
REMARK INTER + INTRA:          -3.720
REMARK INTER:                  -3.720
REMARK INTRA:                   0.000
REMARK UNBOUND:                 0.000
REMARK SMILES Cc1cc(O)c2c(c1)C(=O)c1cc(O)cc(O)c1C2=O
REMARK SMILES IDX 1 1 2 2 8 3 7 4 6 5 4 6 3 7 19 8 20 9 18 10 11 11 9 12 10 13
REMARK SMILES IDX 12 14 13 15 15 16 16 17 5 18 17 20 14 22
REMARK H PARENT 5 19 17 21 14 23
REMARK Flexibility Score: inf
ROOT
ATOM      1  C   UNL     1       7.841  -8.737  14.607  1.00  0.00     0.044 C 
ATOM      2  C   UNL     1       8.229  -7.900  13.423  1.00  0.00    -0.047 A 
ATOM      3  C   UNL     1       7.446  -6.800  13.053  1.00  0.00     0.016 A 
ATOM      4  C   UNL     1       7.816  -5.992  11.964  1.00  0.00     0.038 A 
ATOM      5  C   UNL     1       8.989  -6.290  11.235  1.00  0.00     0.076 A 
ATOM      6  C   UNL     1       9.822  -7.354  11.667  1.00  0.00     0.127 A 
ATOM      7  C   UNL     1       9.423  -8.156  12.741  1.00  0.00     0.050 A 
ATOM      8  C   UNL     1       9.268  -5.506  10.003  1.00  0.00     0.201 C 
ATOM      9  O   UNL     1       9.897  -6.038   9.051  1.00  0.00    -0.288 OA
ATOM     10  C   UNL     1       8.644  -4.170   9.822  1.00  0.00     0.076 A 
ATOM     11  C   UNL     1       7.473  -3.874  10.555  1.00  0.00     0.041 A 
ATOM     12  C   UNL     1       6.985  -4.826  11.583  1.00  0.00     0.194 C 
ATOM     13  O   UNL     1       5.875  -4.628  12.150  1.00  0.00    -0.289 OA
ATOM     14  C   UNL     1       6.777  -2.678  10.311  1.00  0.00     0.059 A 
ATOM     15  C   UNL     1       7.244  -1.770   9.358  1.00  0.00     0.120 A 
ATOM     16  C   UNL     1       8.421  -2.038   8.661  1.00  0.00     0.093 A 
ATOM     17  C   UNL     1       9.142  -3.212   8.900  1.00  0.00     0.131 A 
ENDROOT
BRANCH   6  18
ATOM     18  O   UNL     1      11.063  -7.624  11.087  1.00  0.00    -0.507 OA
ATOM     19  H   UNL     1      11.176  -7.941  10.134  1.00  0.00     0.293 HD
ENDBRANCH   6  18
BRANCH  17  20
ATOM     20  O   UNL     1      10.359  -3.369   8.232  1.00  0.00    -0.507 OA
ATOM     21  H   UNL     1      10.985  -4.147   8.385  1.00  0.00     0.293 HD
ENDBRANCH  17  20
BRANCH  15  22
ATOM     22  O   UNL     1       6.550  -0.587   9.103  1.00  0.00    -0.508 OA
ATOM     23  H   UNL     1       5.663  -0.387   9.551  1.00  0.00     0.293 HD
ENDBRANCH  15  22
TORSDOF 3
ENDMDL
MODEL 6
REMARK VINA RESULT:    -3.359      5.857      9.792
REMARK INTER + INTRA:          -3.654
REMARK INTER:                  -3.654
REMARK INTRA:                   0.000
REMARK UNBOUND:                 0.000
REMARK SMILES Cc1cc(O)c2c(c1)C(=O)c1cc(O)cc(O)c1C2=O
REMARK SMILES IDX 1 1 2 2 8 3 7 4 6 5 4 6 3 7 19 8 20 9 18 10 11 11 9 12 10 13
REMARK SMILES IDX 12 14 13 15 15 16 16 17 5 18 17 20 14 22
REMARK H PARENT 5 19 17 21 14 23
REMARK Flexibility Score: inf
ROOT
ATOM      1  C   UNL     1       9.291  -6.121   9.836  1.00  0.00     0.044 C 
ATOM      2  C   UNL     1       8.747  -4.743   9.601  1.00  0.00    -0.047 A 
ATOM      3  C   UNL     1       9.488  -3.619   9.984  1.00  0.00     0.016 A 
ATOM      4  C   UNL     1       9.001  -2.323   9.742  1.00  0.00     0.038 A 
ATOM      5  C   UNL     1       7.752  -2.150   9.106  1.00  0.00     0.076 A 
ATOM      6  C   UNL     1       7.045  -3.291   8.644  1.00  0.00     0.127 A 
ATOM      7  C   UNL     1       7.540  -4.570   8.914  1.00  0.00     0.050 A 
ATOM      8  C   UNL     1       7.202  -0.773   9.001  1.00  0.00     0.201 C 
ATOM      9  O   UNL     1       5.955  -0.595   8.996  1.00  0.00    -0.288 OA
ATOM     10  C   UNL     1       8.115   0.395   9.092  1.00  0.00     0.076 A 
ATOM     11  C   UNL     1       9.366   0.217   9.726  1.00  0.00     0.041 A 
ATOM     12  C   UNL     1       9.796  -1.139  10.145  1.00  0.00     0.194 C 
ATOM     13  O   UNL     1      10.850  -1.286  10.822  1.00  0.00    -0.289 OA
ATOM     14  C   UNL     1      10.199   1.325   9.954  1.00  0.00     0.059 A 
ATOM     15  C   UNL     1       9.807   2.602   9.543  1.00  0.00     0.120 A 
ATOM     16  C   UNL     1       8.593   2.776   8.881  1.00  0.00     0.093 A 
ATOM     17  C   UNL     1       7.755   1.686   8.624  1.00  0.00     0.131 A 
ENDROOT
BRANCH   6  18
ATOM     18  O   UNL     1       5.875  -3.199   7.887  1.00  0.00    -0.507 OA
ATOM     19  H   UNL     1       5.495  -3.966   7.351  1.00  0.00     0.293 HD
ENDBRANCH   6  18
BRANCH  17  20
ATOM     20  O   UNL     1       6.600   1.923   7.875  1.00  0.00    -0.507 OA
ATOM     21  H   UNL     1       5.824   1.278   7.826  1.00  0.00     0.293 HD
ENDBRANCH  17  20
BRANCH  15  22
ATOM     22  O   UNL     1      10.625   3.706   9.778  1.00  0.00    -0.508 OA
ATOM     23  H   UNL     1      11.614   3.689   9.560  1.00  0.00     0.293 HD
ENDBRANCH  15  22
TORSDOF 3
ENDMDL
MODEL 7
REMARK VINA RESULT:    -2.656      1.963      6.347
REMARK INTER + INTRA:          -2.889
REMARK INTER:                  -2.889
REMARK INTRA:                   0.000
REMARK UNBOUND:                 0.000
REMARK SMILES Cc1cc(O)c2c(c1)C(=O)c1cc(O)cc(O)c1C2=O
REMARK SMILES IDX 1 1 2 2 8 3 7 4 6 5 4 6 3 7 19 8 20 9 18 10 11 11 9 12 10 13
REMARK SMILES IDX 12 14 13 15 15 16 16 17 5 18 17 20 14 22
REMARK H PARENT 5 19 17 21 14 23
REMARK Flexibility Score: inf
ROOT
ATOM      1  C   UNL     1      13.425 -12.125  14.538  1.00  0.00     0.044 C 
ATOM      2  C   UNL     1      12.119 -11.419  14.322  1.00  0.00    -0.047 A 
ATOM      3  C   UNL     1      12.088 -10.179  13.673  1.00  0.00     0.016 A 
ATOM      4  C   UNL     1      10.868  -9.522  13.439  1.00  0.00     0.038 A 
ATOM      5  C   UNL     1       9.658 -10.118  13.861  1.00  0.00     0.076 A 
ATOM      6  C   UNL     1       9.689 -11.412  14.441  1.00  0.00     0.127 A 
ATOM      7  C   UNL     1      10.916 -12.037  14.682  1.00  0.00     0.050 A 
ATOM      8  C   UNL     1       8.405  -9.329  13.731  1.00  0.00     0.201 C 
ATOM      9  O   UNL     1       7.463  -9.511  14.547  1.00  0.00    -0.288 OA
ATOM     10  C   UNL     1       8.338  -8.205  12.762  1.00  0.00     0.076 A 
ATOM     11  C   UNL     1       9.550  -7.614  12.340  1.00  0.00     0.041 A 
ATOM     12  C   UNL     1      10.845  -8.213  12.745  1.00  0.00     0.194 C 
ATOM     13  O   UNL     1      11.926  -7.620  12.478  1.00  0.00    -0.289 OA
ATOM     14  C   UNL     1       9.525  -6.463  11.534  1.00  0.00     0.059 A 
ATOM     15  C   UNL     1       8.307  -5.907  11.133  1.00  0.00     0.120 A 
ATOM     16  C   UNL     1       7.110  -6.510  11.513  1.00  0.00     0.093 A 
ATOM     17  C   UNL     1       7.109  -7.667  12.298  1.00  0.00     0.131 A 
ENDROOT
BRANCH   6  18
ATOM     18  O   UNL     1       8.530 -12.125  14.757  1.00  0.00    -0.507 OA
ATOM     19  H   UNL     1       8.080 -12.770  14.122  1.00  0.00     0.293 HD
ENDBRANCH   6  18
BRANCH  17  20
ATOM     20  O   UNL     1       5.875  -8.267  12.562  1.00  0.00    -0.507 OA
ATOM     21  H   UNL     1       5.199  -8.495  11.846  1.00  0.00     0.293 HD
ENDBRANCH  17  20
BRANCH  15  22
ATOM     22  O   UNL     1       8.277  -4.758  10.343  1.00  0.00    -0.508 OA
ATOM     23  H   UNL     1       8.581  -4.772   9.377  1.00  0.00     0.293 HD
ENDBRANCH  15  22
TORSDOF 3
ENDMDL
