MODEL 1
REMARK VINA RESULT:    -4.170      0.000      0.000
REMARK INTER + INTRA:          -9.819
REMARK INTER:                  -7.582
REMARK INTRA:                  -2.237
REMARK UNBOUND:                -2.237
REMARK SMILES CCCCCCCCCCCCCC[C@@H](C)C(=O)[O-]
REMARK SMILES IDX 9 1 10 2 11 3 12 4 13 5 14 6 15 7 16 8 17 9 18 10 19 11 8 12
REMARK SMILES IDX 7 13 6 14 5 15 4 16 3 17 2 18 1 19
REMARK H PARENT
REMARK Flexibility Score: inf
ROOT
ATOM      1  C   UNL     1      10.198 -14.522  32.663  1.00  0.00     0.000 C 
ENDROOT
BRANCH   1   2
ATOM      2  C   UNL     1      10.395 -15.579  31.560  1.00  0.00     0.000 C 
BRANCH   2   3
ATOM      3  C   UNL     1      10.846 -16.968  32.047  1.00  0.00     0.000 C 
BRANCH   3   4
ATOM      4  C   UNL     1      10.822 -18.031  30.936  1.00  0.00     0.000 C 
BRANCH   4   5
ATOM      5  C   UNL     1      10.040 -19.291  31.341  1.00  0.00     0.001 C 
BRANCH   5   6
ATOM      6  C   UNL     1      10.481 -20.540  30.557  1.00  0.00     0.009 C 
BRANCH   6   7
ATOM      7  C   UNL     1       9.399 -21.011  29.560  1.00  0.00     0.032 C 
ATOM      8  C   UNL     1       8.002 -20.620  30.054  1.00  0.00     0.014 C 
BRANCH   7   9
ATOM      9  C   UNL     1       9.631 -20.446  28.185  1.00  0.00     0.044 C 
ATOM     10  O   UNL     1      10.130 -21.160  27.273  1.00  0.00    -0.550 OA
ATOM     11  O   UNL     1       9.297 -19.125  27.912  1.00  0.00    -0.550 OA
ENDBRANCH   7   9
ENDBRANCH   6   7
ENDBRANCH   5   6
ENDBRANCH   4   5
ENDBRANCH   3   4
ENDBRANCH   2   3
ENDBRANCH   1   2
BRANCH   1  12
ATOM     12  C   UNL     1      11.097 -14.759  33.888  1.00  0.00     0.000 C 
BRANCH  12  13
ATOM     13  C   UNL     1      10.416 -14.378  35.216  1.00  0.00    -0.000 C 
BRANCH  13  14
ATOM     14  C   UNL     1      10.098 -15.558  36.152  1.00  0.00    -0.000 C 
BRANCH  14  15
ATOM     15  C   UNL     1       9.609 -16.807  35.405  1.00  0.00    -0.000 C 
BRANCH  15  16
ATOM     16  C   UNL     1       8.096 -16.741  35.155  1.00  0.00    -0.000 C 
BRANCH  16  17
ATOM     17  C   UNL     1       7.670 -17.454  33.859  1.00  0.00    -0.000 C 
BRANCH  17  18
ATOM     18  C   UNL     1       7.047 -16.537  32.791  1.00  0.00    -0.003 C 
ATOM     19  C   UNL     1       7.046 -17.161  31.395  1.00  0.00     0.004 C 
ENDBRANCH  17  18
ENDBRANCH  16  17
ENDBRANCH  15  16
ENDBRANCH  14  15
ENDBRANCH  13  14
ENDBRANCH  12  13
ENDBRANCH   1  12
TORSDOF 14
ENDMDL
MODEL 2
REMARK VINA RESULT:    -4.161      0.827      2.962
REMARK INTER + INTRA:          -9.803
REMARK INTER:                  -7.607
REMARK INTRA:                  -2.195
REMARK UNBOUND:                -2.237
REMARK SMILES CCCCCCCCCCCCCC[C@@H](C)C(=O)[O-]
REMARK SMILES IDX 9 1 10 2 11 3 12 4 13 5 14 6 15 7 16 8 17 9 18 10 19 11 8 12
REMARK SMILES IDX 7 13 6 14 5 15 4 16 3 17 2 18 1 19
REMARK H PARENT
REMARK Flexibility Score: inf
ROOT
ATOM      1  C   UNL     1       7.936 -16.189  31.618  1.00  0.00     0.000 C 
ENDROOT
BRANCH   1   2
ATOM      2  C   UNL     1       9.010 -16.716  30.648  1.00  0.00     0.000 C 
BRANCH   2   3
ATOM      3  C   UNL     1      10.452 -16.702  31.187  1.00  0.00     0.000 C 
BRANCH   3   4
ATOM      4  C   UNL     1      11.150 -18.068  31.069  1.00  0.00     0.000 C 
BRANCH   4   5
ATOM      5  C   UNL     1      10.239 -19.234  31.488  1.00  0.00     0.001 C 
BRANCH   5   6
ATOM      6  C   UNL     1      10.476 -20.502  30.647  1.00  0.00     0.009 C 
BRANCH   6   7
ATOM      7  C   UNL     1       9.248 -20.861  29.782  1.00  0.00     0.032 C 
ATOM      8  C   UNL     1       7.969 -20.272  30.387  1.00  0.00     0.014 C 
BRANCH   7   9
ATOM      9  C   UNL     1       9.412 -20.381  28.365  1.00  0.00     0.044 C 
ATOM     10  O   UNL     1       8.783 -19.368  27.953  1.00  0.00    -0.550 OA
ATOM     11  O   UNL     1      10.261 -21.057  27.497  1.00  0.00    -0.550 OA
ENDBRANCH   7   9
ENDBRANCH   6   7
ENDBRANCH   5   6
ENDBRANCH   4   5
ENDBRANCH   3   4
ENDBRANCH   2   3
ENDBRANCH   1   2
BRANCH   1  12
ATOM     12  C   UNL     1       6.947 -17.278  32.067  1.00  0.00     0.000 C 
BRANCH  12  13
ATOM     13  C   UNL     1       7.216 -17.782  33.498  1.00  0.00    -0.000 C 
BRANCH  13  14
ATOM     14  C   UNL     1       7.925 -16.778  34.425  1.00  0.00    -0.000 C 
BRANCH  14  15
ATOM     15  C   UNL     1       9.317 -17.247  34.871  1.00  0.00    -0.000 C 
BRANCH  15  16
ATOM     16  C   UNL     1       9.999 -16.188  35.749  1.00  0.00    -0.000 C 
BRANCH  16  17
ATOM     17  C   UNL     1      10.218 -14.852  35.016  1.00  0.00    -0.000 C 
BRANCH  17  18
ATOM     18  C   UNL     1      11.355 -14.864  33.977  1.00  0.00    -0.003 C 
ATOM     19  C   UNL     1      11.644 -13.481  33.394  1.00  0.00     0.004 C 
ENDBRANCH  17  18
ENDBRANCH  16  17
ENDBRANCH  15  16
ENDBRANCH  14  15
ENDBRANCH  13  14
ENDBRANCH  12  13
ENDBRANCH   1  12
TORSDOF 14
ENDMDL
MODEL 3
REMARK VINA RESULT:    -4.132      3.719      6.964
REMARK INTER + INTRA:          -9.751
REMARK INTER:                  -7.480
REMARK INTRA:                  -2.271
REMARK UNBOUND:                -2.237
REMARK SMILES CCCCCCCCCCCCCC[C@@H](C)C(=O)[O-]
REMARK SMILES IDX 9 1 10 2 11 3 12 4 13 5 14 6 15 7 16 8 17 9 18 10 19 11 8 12
REMARK SMILES IDX 7 13 6 14 5 15 4 16 3 17 2 18 1 19
REMARK H PARENT
REMARK Flexibility Score: inf
ROOT
ATOM      1  C   UNL     1       6.771 -17.457  31.770  1.00  0.00     0.000 C 
ENDROOT
BRANCH   1   2
ATOM      2  C   UNL     1       7.469 -17.840  33.088  1.00  0.00     0.000 C 
BRANCH   2   3
ATOM      3  C   UNL     1       7.169 -16.922  34.287  1.00  0.00     0.000 C 
BRANCH   3   4
ATOM      4  C   UNL     1       8.085 -17.190  35.493  1.00  0.00     0.000 C 
BRANCH   4   5
ATOM      5  C   UNL     1       9.561 -16.881  35.193  1.00  0.00     0.001 C 
BRANCH   5   6
ATOM      6  C   UNL     1      10.053 -15.601  35.893  1.00  0.00     0.009 C 
BRANCH   6   7
ATOM      7  C   UNL     1      10.577 -14.555  34.885  1.00  0.00     0.032 C 
ATOM      8  C   UNL     1       9.432 -14.014  34.022  1.00  0.00     0.014 C 
BRANCH   7   9
ATOM      9  C   UNL     1      11.273 -13.417  35.583  1.00  0.00     0.044 C 
ATOM     10  O   UNL     1      10.672 -12.328  35.792  1.00  0.00    -0.550 OA
ATOM     11  O   UNL     1      12.591 -13.561  35.999  1.00  0.00    -0.550 OA
ENDBRANCH   7   9
ENDBRANCH   6   7
ENDBRANCH   5   6
ENDBRANCH   4   5
ENDBRANCH   3   4
ENDBRANCH   2   3
ENDBRANCH   1   2
BRANCH   1  12
ATOM     12  C   UNL     1       6.790 -18.590  30.730  1.00  0.00     0.000 C 
BRANCH  12  13
ATOM     13  C   UNL     1       7.762 -19.727  31.097  1.00  0.00    -0.000 C 
BRANCH  13  14
ATOM     14  C   UNL     1       8.716 -20.164  29.970  1.00  0.00    -0.000 C 
BRANCH  14  15
ATOM     15  C   UNL     1      10.167 -20.334  30.440  1.00  0.00    -0.000 C 
BRANCH  15  16
ATOM     16  C   UNL     1      10.509 -19.322  31.544  1.00  0.00    -0.000 C 
BRANCH  16  17
ATOM     17  C   UNL     1      11.156 -18.036  30.998  1.00  0.00    -0.000 C 
BRANCH  17  18
ATOM     18  C   UNL     1      10.673 -16.735  31.666  1.00  0.00    -0.003 C 
ATOM     19  C   UNL     1       9.829 -15.865  30.735  1.00  0.00     0.004 C 
ENDBRANCH  17  18
ENDBRANCH  16  17
ENDBRANCH  15  16
ENDBRANCH  14  15
ENDBRANCH  13  14
ENDBRANCH  12  13
ENDBRANCH   1  12
TORSDOF 14
ENDMDL
MODEL 4
REMARK VINA RESULT:    -4.131      1.057      1.717
REMARK INTER + INTRA:          -9.748
REMARK INTER:                  -7.910
REMARK INTRA:                  -1.838
REMARK UNBOUND:                -2.237
REMARK SMILES CCCCCCCCCCCCCC[C@@H](C)C(=O)[O-]
REMARK SMILES IDX 9 1 10 2 11 3 12 4 13 5 14 6 15 7 16 8 17 9 18 10 19 11 8 12
REMARK SMILES IDX 7 13 6 14 5 15 4 16 3 17 2 18 1 19
REMARK H PARENT
REMARK Flexibility Score: inf
ROOT
ATOM      1  C   UNL     1       9.941 -14.395  31.706  1.00  0.00     0.000 C 
ENDROOT
BRANCH   1   2
ATOM      2  C   UNL     1       9.505 -15.871  31.708  1.00  0.00     0.000 C 
BRANCH   2   3
ATOM      3  C   UNL     1      10.171 -16.760  30.642  1.00  0.00     0.000 C 
BRANCH   3   4
ATOM      4  C   UNL     1      11.062 -17.859  31.247  1.00  0.00     0.000 C 
BRANCH   4   5
ATOM      5  C   UNL     1      10.268 -19.121  31.622  1.00  0.00     0.001 C 
BRANCH   5   6
ATOM      6  C   UNL     1      10.629 -20.331  30.742  1.00  0.00     0.009 C 
BRANCH   6   7
ATOM      7  C   UNL     1       9.466 -20.737  29.810  1.00  0.00     0.032 C 
ATOM      8  C   UNL     1       8.143 -20.143  30.306  1.00  0.00     0.014 C 
BRANCH   7   9
ATOM      9  C   UNL     1       9.720 -20.306  28.390  1.00  0.00     0.044 C 
ATOM     10  O   UNL     1      10.026 -21.153  27.507  1.00  0.00    -0.550 OA
ATOM     11  O   UNL     1       9.619 -18.964  28.044  1.00  0.00    -0.550 OA
ENDBRANCH   7   9
ENDBRANCH   6   7
ENDBRANCH   5   6
ENDBRANCH   4   5
ENDBRANCH   3   4
ENDBRANCH   2   3
ENDBRANCH   1   2
BRANCH   1  12
ATOM     12  C   UNL     1      11.106 -14.111  32.669  1.00  0.00     0.000 C 
BRANCH  12  13
ATOM     13  C   UNL     1      11.171 -15.106  33.843  1.00  0.00    -0.000 C 
BRANCH  13  14
ATOM     14  C   UNL     1      10.826 -14.517  35.223  1.00  0.00    -0.000 C 
BRANCH  14  15
ATOM     15  C   UNL     1       9.918 -15.430  36.059  1.00  0.00    -0.000 C 
BRANCH  15  16
ATOM     16  C   UNL     1       9.689 -16.774  35.351  1.00  0.00    -0.000 C 
BRANCH  16  17
ATOM     17  C   UNL     1       8.208 -17.030  35.016  1.00  0.00    -0.000 C 
BRANCH  17  18
ATOM     18  C   UNL     1       7.237 -15.937  35.499  1.00  0.00    -0.003 C 
ATOM     19  C   UNL     1       6.328 -16.407  36.635  1.00  0.00     0.004 C 
ENDBRANCH  17  18
ENDBRANCH  16  17
ENDBRANCH  15  16
ENDBRANCH  14  15
ENDBRANCH  13  14
ENDBRANCH  12  13
ENDBRANCH   1  12
TORSDOF 14
ENDMDL
MODEL 5
REMARK VINA RESULT:    -4.117      1.669      3.333
REMARK INTER + INTRA:          -9.724
REMARK INTER:                  -7.787
REMARK INTRA:                  -1.937
REMARK UNBOUND:                -2.237
REMARK SMILES CCCCCCCCCCCCCC[C@@H](C)C(=O)[O-]
REMARK SMILES IDX 9 1 10 2 11 3 12 4 13 5 14 6 15 7 16 8 17 9 18 10 19 11 8 12
REMARK SMILES IDX 7 13 6 14 5 15 4 16 3 17 2 18 1 19
REMARK H PARENT
REMARK Flexibility Score: inf
ROOT
ATOM      1  C   UNL     1       9.352 -17.940  32.850  1.00  0.00     0.000 C 
ENDROOT
BRANCH   1   2
ATOM      2  C   UNL     1      10.058 -17.300  31.641  1.00  0.00     0.000 C 
BRANCH   2   3
ATOM      3  C   UNL     1      10.861 -18.270  30.754  1.00  0.00     0.000 C 
BRANCH   3   4
ATOM      4  C   UNL     1      10.803 -19.725  31.250  1.00  0.00     0.000 C 
BRANCH   4   5
ATOM      5  C   UNL     1      10.323 -20.700  30.163  1.00  0.00     0.001 C 
BRANCH   5   6
ATOM      6  C   UNL     1       9.024 -20.234  29.481  1.00  0.00     0.009 C 
BRANCH   6   7
ATOM      7  C   UNL     1       7.767 -20.765  30.204  1.00  0.00     0.032 C 
ATOM      8  C   UNL     1       6.819 -19.614  30.556  1.00  0.00     0.014 C 
BRANCH   7   9
ATOM      9  C   UNL     1       7.042 -21.788  29.371  1.00  0.00     0.044 C 
ATOM     10  O   UNL     1       7.683 -22.653  28.715  1.00  0.00    -0.550 OA
ATOM     11  O   UNL     1       5.653 -21.783  29.321  1.00  0.00    -0.550 OA
ENDBRANCH   7   9
ENDBRANCH   6   7
ENDBRANCH   5   6
ENDBRANCH   4   5
ENDBRANCH   3   4
ENDBRANCH   2   3
ENDBRANCH   1   2
BRANCH   1  12
ATOM     12  C   UNL     1       7.988 -17.300  33.156  1.00  0.00     0.000 C 
BRANCH  12  13
ATOM     13  C   UNL     1       7.871 -16.797  34.607  1.00  0.00    -0.000 C 
BRANCH  13  14
ATOM     14  C   UNL     1       9.053 -17.159  35.524  1.00  0.00    -0.000 C 
BRANCH  14  15
ATOM     15  C   UNL     1      10.025 -15.991  35.747  1.00  0.00    -0.000 C 
BRANCH  15  16
ATOM     16  C   UNL     1       9.399 -14.663  35.296  1.00  0.00    -0.000 C 
BRANCH  16  17
ATOM     17  C   UNL     1      10.097 -14.061  34.062  1.00  0.00    -0.000 C 
BRANCH  17  18
ATOM     18  C   UNL     1      11.511 -14.605  33.789  1.00  0.00    -0.003 C 
ATOM     19  C   UNL     1      12.615 -13.689  34.318  1.00  0.00     0.004 C 
ENDBRANCH  17  18
ENDBRANCH  16  17
ENDBRANCH  15  16
ENDBRANCH  14  15
ENDBRANCH  13  14
ENDBRANCH  12  13
ENDBRANCH   1  12
TORSDOF 14
ENDMDL
MODEL 6
REMARK VINA RESULT:    -4.097      2.829      3.814
REMARK INTER + INTRA:          -9.686
REMARK INTER:                  -8.736
REMARK INTRA:                  -0.950
REMARK UNBOUND:                -2.237
REMARK SMILES CCCCCCCCCCCCCC[C@@H](C)C(=O)[O-]
REMARK SMILES IDX 9 1 10 2 11 3 12 4 13 5 14 6 15 7 16 8 17 9 18 10 19 11 8 12
REMARK SMILES IDX 7 13 6 14 5 15 4 16 3 17 2 18 1 19
REMARK H PARENT
REMARK Flexibility Score: inf
ROOT
ATOM      1  C   UNL     1       9.201 -16.585  34.274  1.00  0.00     0.000 C 
ENDROOT
BRANCH   1   2
ATOM      2  C   UNL     1       9.268 -17.434  32.991  1.00  0.00     0.000 C 
BRANCH   2   3
ATOM      3  C   UNL     1      10.284 -16.959  31.935  1.00  0.00     0.000 C 
BRANCH   3   4
ATOM      4  C   UNL     1      10.993 -18.121  31.219  1.00  0.00     0.000 C 
BRANCH   4   5
ATOM      5  C   UNL     1      10.392 -19.490  31.577  1.00  0.00     0.001 C 
BRANCH   5   6
ATOM      6  C   UNL     1      10.565 -20.525  30.451  1.00  0.00     0.009 C 
BRANCH   6   7
ATOM      7  C   UNL     1       9.234 -20.819  29.725  1.00  0.00     0.032 C 
ATOM      8  C   UNL     1       8.074 -20.082  30.402  1.00  0.00     0.014 C 
BRANCH   7   9
ATOM      9  C   UNL     1       9.302 -20.439  28.270  1.00  0.00     0.044 C 
ATOM     10  O   UNL     1      10.141 -20.983  27.502  1.00  0.00    -0.550 OA
ATOM     11  O   UNL     1       8.436 -19.477  27.764  1.00  0.00    -0.550 OA
ENDBRANCH   7   9
ENDBRANCH   6   7
ENDBRANCH   5   6
ENDBRANCH   4   5
ENDBRANCH   3   4
ENDBRANCH   2   3
ENDBRANCH   1   2
BRANCH   1  12
ATOM     12  C   UNL     1       8.271 -17.185  35.342  1.00  0.00     0.000 C 
BRANCH  12  13
ATOM     13  C   UNL     1       6.827 -17.378  34.843  1.00  0.00    -0.000 C 
BRANCH  13  14
ATOM     14  C   UNL     1       5.887 -18.107  35.820  1.00  0.00    -0.000 C 
BRANCH  14  15
ATOM     15  C   UNL     1       6.529 -18.376  37.188  1.00  0.00    -0.000 C 
BRANCH  15  16
ATOM     16  C   UNL     1       6.231 -19.805  37.664  1.00  0.00    -0.000 C 
BRANCH  16  17
ATOM     17  C   UNL     1       7.372 -20.407  38.504  1.00  0.00    -0.000 C 
BRANCH  17  18
ATOM     18  C   UNL     1       7.348 -21.942  38.624  1.00  0.00    -0.003 C 
ATOM     19  C   UNL     1       6.368 -22.600  37.653  1.00  0.00     0.004 C 
ENDBRANCH  17  18
ENDBRANCH  16  17
ENDBRANCH  15  16
ENDBRANCH  14  15
ENDBRANCH  13  14
ENDBRANCH  12  13
ENDBRANCH   1  12
TORSDOF 14
ENDMDL
MODEL 7
REMARK VINA RESULT:    -4.091      3.844      6.842
REMARK INTER + INTRA:          -9.676
REMARK INTER:                  -7.579
REMARK INTRA:                  -2.097
REMARK UNBOUND:                -2.237
REMARK SMILES CCCCCCCCCCCCCC[C@@H](C)C(=O)[O-]
REMARK SMILES IDX 9 1 10 2 11 3 12 4 13 5 14 6 15 7 16 8 17 9 18 10 19 11 8 12
REMARK SMILES IDX 7 13 6 14 5 15 4 16 3 17 2 18 1 19
REMARK H PARENT
REMARK Flexibility Score: inf
ROOT
ATOM      1  C   UNL     1       9.509 -16.200  31.572  1.00  0.00     0.000 C 
ENDROOT
BRANCH   1   2
ATOM      2  C   UNL     1       8.476 -16.337  32.706  1.00  0.00     0.000 C 
BRANCH   2   3
ATOM      3  C   UNL     1       8.727 -17.491  33.694  1.00  0.00     0.000 C 
BRANCH   3   4
ATOM      4  C   UNL     1       8.677 -17.044  35.165  1.00  0.00     0.000 C 
BRANCH   4   5
ATOM      5  C   UNL     1       9.985 -16.377  35.623  1.00  0.00     0.001 C 
BRANCH   5   6
ATOM      6  C   UNL     1       9.769 -14.945  36.143  1.00  0.00     0.009 C 
BRANCH   6   7
ATOM      7  C   UNL     1      10.869 -13.978  35.652  1.00  0.00     0.032 C 
ATOM      8  C   UNL     1      11.343 -14.367  34.248  1.00  0.00     0.014 C 
BRANCH   7   9
ATOM      9  C   UNL     1      10.391 -12.551  35.654  1.00  0.00     0.044 C 
ATOM     10  O   UNL     1      11.073 -11.644  35.104  1.00  0.00    -0.550 OA
ATOM     11  O   UNL     1       9.187 -12.223  36.267  1.00  0.00    -0.550 OA
ENDBRANCH   7   9
ENDBRANCH   6   7
ENDBRANCH   5   6
ENDBRANCH   4   5
ENDBRANCH   3   4
ENDBRANCH   2   3
ENDBRANCH   1   2
BRANCH   1  12
ATOM     12  C   UNL     1      10.732 -17.112  31.762  1.00  0.00     0.000 C 
BRANCH  12  13
ATOM     13  C   UNL     1      10.803 -18.247  30.723  1.00  0.00    -0.000 C 
BRANCH  13  14
ATOM     14  C   UNL     1      10.655 -19.670  31.293  1.00  0.00    -0.000 C 
BRANCH  14  15
ATOM     15  C   UNL     1      10.300 -20.714  30.225  1.00  0.00    -0.000 C 
BRANCH  15  16
ATOM     16  C   UNL     1       9.034 -20.306  29.457  1.00  0.00    -0.000 C 
BRANCH  16  17
ATOM     17  C   UNL     1       7.739 -20.625  30.225  1.00  0.00    -0.000 C 
BRANCH  17  18
ATOM     18  C   UNL     1       7.128 -19.435  30.987  1.00  0.00    -0.003 C 
ATOM     19  C   UNL     1       6.745 -18.273  30.071  1.00  0.00     0.004 C 
ENDBRANCH  17  18
ENDBRANCH  16  17
ENDBRANCH  15  16
ENDBRANCH  14  15
ENDBRANCH  13  14
ENDBRANCH  12  13
ENDBRANCH   1  12
TORSDOF 14
ENDMDL
MODEL 8
REMARK VINA RESULT:    -4.031      1.617      3.725
REMARK INTER + INTRA:          -9.567
REMARK INTER:                  -7.688
REMARK INTRA:                  -1.880
REMARK UNBOUND:                -2.237
REMARK SMILES CCCCCCCCCCCCCC[C@@H](C)C(=O)[O-]
REMARK SMILES IDX 9 1 10 2 11 3 12 4 13 5 14 6 15 7 16 8 17 9 18 10 19 11 8 12
REMARK SMILES IDX 7 13 6 14 5 15 4 16 3 17 2 18 1 19
REMARK H PARENT
REMARK Flexibility Score: inf
ROOT
ATOM      1  C   UNL     1      11.114 -18.304  30.910  1.00  0.00     0.000 C 
ENDROOT
BRANCH   1   2
ATOM      2  C   UNL     1      10.847 -19.784  31.240  1.00  0.00     0.000 C 
BRANCH   2   3
ATOM      3  C   UNL     1      10.215 -20.611  30.105  1.00  0.00     0.000 C 
BRANCH   3   4
ATOM      4  C   UNL     1       8.679 -20.530  30.086  1.00  0.00     0.000 C 
BRANCH   4   5
ATOM      5  C   UNL     1       8.137 -19.927  28.779  1.00  0.00     0.001 C 
BRANCH   5   6
ATOM      6  C   UNL     1       9.057 -20.198  27.575  1.00  0.00     0.009 C 
BRANCH   6   7
ATOM      7  C   UNL     1       9.253 -18.941  26.701  1.00  0.00     0.032 C 
ATOM      8  C   UNL     1       9.740 -17.762  27.549  1.00  0.00     0.014 C 
BRANCH   7   9
ATOM      9  C   UNL     1      10.220 -19.195  25.575  1.00  0.00     0.044 C 
ATOM     10  O   UNL     1      10.814 -18.237  25.010  1.00  0.00    -0.550 OA
ATOM     11  O   UNL     1      10.462 -20.496  25.150  1.00  0.00    -0.550 OA
ENDBRANCH   7   9
ENDBRANCH   6   7
ENDBRANCH   5   6
ENDBRANCH   4   5
ENDBRANCH   3   4
ENDBRANCH   2   3
ENDBRANCH   1   2
BRANCH   1  12
ATOM     12  C   UNL     1      10.145 -17.346  31.623  1.00  0.00     0.000 C 
BRANCH  12  13
ATOM     13  C   UNL     1       9.371 -18.019  32.772  1.00  0.00    -0.000 C 
BRANCH  13  14
ATOM     14  C   UNL     1       7.985 -17.419  33.069  1.00  0.00    -0.000 C 
BRANCH  14  15
ATOM     15  C   UNL     1       7.936 -16.636  34.389  1.00  0.00    -0.000 C 
BRANCH  15  16
ATOM     16  C   UNL     1       8.989 -17.159  35.377  1.00  0.00    -0.000 C 
BRANCH  16  17
ATOM     17  C   UNL     1      10.025 -16.090  35.769  1.00  0.00    -0.000 C 
BRANCH  17  18
ATOM     18  C   UNL     1      10.053 -14.850  34.857  1.00  0.00    -0.003 C 
ATOM     19  C   UNL     1      11.309 -14.777  33.988  1.00  0.00     0.004 C 
ENDBRANCH  17  18
ENDBRANCH  16  17
ENDBRANCH  15  16
ENDBRANCH  14  15
ENDBRANCH  13  14
ENDBRANCH  12  13
ENDBRANCH   1  12
TORSDOF 14
ENDMDL
MODEL 9
REMARK VINA RESULT:    -4.025      3.260      5.887
REMARK INTER + INTRA:          -9.556
REMARK INTER:                  -7.313
REMARK INTRA:                  -2.243
REMARK UNBOUND:                -2.237
REMARK SMILES CCCCCCCCCCCCCC[C@@H](C)C(=O)[O-]
REMARK SMILES IDX 9 1 10 2 11 3 12 4 13 5 14 6 15 7 16 8 17 9 18 10 19 11 8 12
REMARK SMILES IDX 7 13 6 14 5 15 4 16 3 17 2 18 1 19
REMARK H PARENT
REMARK Flexibility Score: inf
ROOT
ATOM      1  C   UNL     1      10.578 -14.547  31.369  1.00  0.00     0.000 C 
ENDROOT
BRANCH   1   2
ATOM      2  C   UNL     1      10.641 -13.960  32.791  1.00  0.00     0.000 C 
BRANCH   2   3
ATOM      3  C   UNL     1      11.114 -14.932  33.887  1.00  0.00     0.000 C 
BRANCH   3   4
ATOM      4  C   UNL     1      10.221 -14.906  35.140  1.00  0.00     0.000 C 
BRANCH   4   5
ATOM      5  C   UNL     1      10.022 -16.302  35.751  1.00  0.00     0.001 C 
BRANCH   5   6
ATOM      6  C   UNL     1       9.267 -17.259  34.810  1.00  0.00     0.009 C 
BRANCH   6   7
ATOM      7  C   UNL     1       7.850 -16.746  34.477  1.00  0.00     0.032 C 
ATOM      8  C   UNL     1       7.204 -17.610  33.388  1.00  0.00     0.014 C 
BRANCH   7   9
ATOM      9  C   UNL     1       6.970 -16.721  35.699  1.00  0.00     0.044 C 
ATOM     10  O   UNL     1       6.482 -15.636  36.116  1.00  0.00    -0.550 OA
ATOM     11  O   UNL     1       6.693 -17.901  36.377  1.00  0.00    -0.550 OA
ENDBRANCH   7   9
ENDBRANCH   6   7
ENDBRANCH   5   6
ENDBRANCH   4   5
ENDBRANCH   3   4
ENDBRANCH   2   3
ENDBRANCH   1   2
BRANCH   1  12
ATOM     12  C   UNL     1       9.609 -15.735  31.251  1.00  0.00     0.000 C 
BRANCH  12  13
ATOM     13  C   UNL     1      10.189 -16.906  30.438  1.00  0.00    -0.000 C 
BRANCH  13  14
ATOM     14  C   UNL     1      11.093 -17.870  31.228  1.00  0.00    -0.000 C 
BRANCH  14  15
ATOM     15  C   UNL     1      10.328 -19.054  31.836  1.00  0.00    -0.000 C 
BRANCH  15  16
ATOM     16  C   UNL     1       9.298 -19.611  30.843  1.00  0.00    -0.000 C 
BRANCH  16  17
ATOM     17  C   UNL     1       9.842 -20.789  30.013  1.00  0.00    -0.000 C 
BRANCH  17  18
ATOM     18  C   UNL     1       9.289 -20.880  28.579  1.00  0.00    -0.003 C 
ATOM     19  C   UNL     1       9.455 -19.581  27.792  1.00  0.00     0.004 C 
ENDBRANCH  17  18
ENDBRANCH  16  17
ENDBRANCH  15  16
ENDBRANCH  14  15
ENDBRANCH  13  14
ENDBRANCH  12  13
ENDBRANCH   1  12
TORSDOF 14
ENDMDL
