MODEL 1
REMARK VINA RESULT:    -3.010      0.000      0.000
REMARK INTER + INTRA:          -3.098
REMARK INTER:                  -3.098
REMARK INTRA:                   0.000
REMARK UNBOUND:                 0.000
REMARK SMILES Oc1ccc2[nH]ccc2c1
REMARK SMILES IDX 3 1 4 2 5 3 9 4 8 5 7 6 6 7 10 8 2 9 1 11
REMARK H PARENT 6 10 1 12
REMARK Flexibility Score: inf
ROOT
ATOM      1  C   UNL     1     112.108 113.397 108.290  1.00  0.00     0.048 A 
ATOM      2  C   UNL     1     111.354 113.015 107.166  1.00  0.00     0.030 A 
ATOM      3  C   UNL     1     110.037 112.608 107.373  1.00  0.00     0.046 A 
ATOM      4  C   UNL     1     109.482 112.576 108.624  1.00  0.00     0.003 A 
ATOM      5  C   UNL     1     108.184 112.134 108.488  1.00  0.00     0.028 A 
ATOM      6  C   UNL     1     108.017 111.916 107.123  1.00  0.00     0.083 A 
ATOM      7  N   UNL     1     109.151 112.206 106.447  1.00  0.00    -0.361 N 
ATOM      8  C   UNL     1     110.200 112.948 109.758  1.00  0.00     0.056 A 
ATOM      9  C   UNL     1     111.535 113.364 109.586  1.00  0.00     0.116 A 
ATOM     10  H   UNL     1     109.303 112.133 105.416  1.00  0.00     0.166 HD
ENDROOT
BRANCH   9  11
ATOM     11  O   UNL     1     112.282 113.743 110.699  1.00  0.00    -0.508 OA
ATOM     12  H   UNL     1     112.168 114.653 111.127  1.00  0.00     0.293 HD
ENDBRANCH   9  11
TORSDOF 1
ENDMDL
MODEL 2
REMARK VINA RESULT:    -3.006      8.750      9.599
REMARK INTER + INTRA:          -3.094
REMARK INTER:                  -3.094
REMARK INTRA:                   0.000
REMARK UNBOUND:                 0.000
REMARK SMILES Oc1ccc2[nH]ccc2c1
REMARK SMILES IDX 3 1 4 2 5 3 9 4 8 5 7 6 6 7 10 8 2 9 1 11
REMARK H PARENT 6 10 1 12
REMARK Flexibility Score: inf
ROOT
ATOM      1  C   UNL     1     118.602 112.097 108.282  1.00  0.00     0.048 A 
ATOM      2  C   UNL     1     118.980 111.337 107.160  1.00  0.00     0.030 A 
ATOM      3  C   UNL     1     119.390 110.022 107.372  1.00  0.00     0.046 A 
ATOM      4  C   UNL     1     119.430 109.474 108.626  1.00  0.00     0.003 A 
ATOM      5  C   UNL     1     119.873 108.176 108.495  1.00  0.00     0.028 A 
ATOM      6  C   UNL     1     120.085 108.001 107.130  1.00  0.00     0.083 A 
ATOM      7  N   UNL     1     119.789 109.132 106.449  1.00  0.00    -0.361 N 
ATOM      8  C   UNL     1     119.063 110.198 109.758  1.00  0.00     0.056 A 
ATOM      9  C   UNL     1     118.643 111.531 109.581  1.00  0.00     0.116 A 
ATOM     10  H   UNL     1     119.857 109.277 105.417  1.00  0.00     0.166 HD
ENDROOT
BRANCH   9  11
ATOM     11  O   UNL     1     118.269 112.283 110.691  1.00  0.00    -0.508 OA
ATOM     12  H   UNL     1     117.367 112.740 110.741  1.00  0.00     0.293 HD
ENDBRANCH   9  11
TORSDOF 1
ENDMDL
MODEL 3
REMARK VINA RESULT:    -3.004      8.731      9.579
REMARK INTER + INTRA:          -3.091
REMARK INTER:                  -3.091
REMARK INTRA:                   0.000
REMARK UNBOUND:                 0.000
REMARK SMILES Oc1ccc2[nH]ccc2c1
REMARK SMILES IDX 3 1 4 2 5 3 9 4 8 5 7 6 6 7 10 8 2 9 1 11
REMARK H PARENT 6 10 1 12
REMARK Flexibility Score: inf
ROOT
ATOM      1  C   UNL     1     113.396 119.868 108.296  1.00  0.00     0.048 A 
ATOM      2  C   UNL     1     113.017 120.610 107.162  1.00  0.00     0.030 A 
ATOM      3  C   UNL     1     112.620 121.932 107.352  1.00  0.00     0.046 A 
ATOM      4  C   UNL     1     112.594 122.504 108.596  1.00  0.00     0.003 A 
ATOM      5  C   UNL     1     112.161 123.804 108.443  1.00  0.00     0.028 A 
ATOM      6  C   UNL     1     111.941 123.954 107.077  1.00  0.00     0.083 A 
ATOM      7  N   UNL     1     112.223 122.809 106.415  1.00  0.00    -0.361 N 
ATOM      8  C   UNL     1     112.963 121.798 109.739  1.00  0.00     0.056 A 
ATOM      9  C   UNL     1     113.369 120.459 109.584  1.00  0.00     0.116 A 
ATOM     10  H   UNL     1     112.146 122.644 105.387  1.00  0.00     0.166 HD
ENDROOT
BRANCH   9  11
ATOM     11  O   UNL     1     113.745 119.724 110.706  1.00  0.00    -0.508 OA
ATOM     12  H   UNL     1     113.618 118.720 110.747  1.00  0.00     0.293 HD
ENDBRANCH   9  11
TORSDOF 1
ENDMDL
MODEL 4
REMARK VINA RESULT:    -3.001     11.721     13.512
REMARK INTER + INTRA:          -3.089
REMARK INTER:                  -3.089
REMARK INTRA:                   0.000
REMARK UNBOUND:                 0.000
REMARK SMILES Oc1ccc2[nH]ccc2c1
REMARK SMILES IDX 3 1 4 2 5 3 9 4 8 5 7 6 6 7 10 8 2 9 1 11
REMARK H PARENT 6 10 1 12
REMARK Flexibility Score: inf
ROOT
ATOM      1  C   UNL     1     119.831 118.608 108.314  1.00  0.00     0.048 A 
ATOM      2  C   UNL     1     120.571 118.987 107.179  1.00  0.00     0.030 A 
ATOM      3  C   UNL     1     121.896 119.376 107.365  1.00  0.00     0.046 A 
ATOM      4  C   UNL     1     122.473 119.394 108.607  1.00  0.00     0.003 A 
ATOM      5  C   UNL     1     123.774 119.819 108.451  1.00  0.00     0.028 A 
ATOM      6  C   UNL     1     123.921 120.044 107.085  1.00  0.00     0.083 A 
ATOM      7  N   UNL     1     122.771 119.772 106.426  1.00  0.00    -0.361 N 
ATOM      8  C   UNL     1     121.770 119.024 109.751  1.00  0.00     0.056 A 
ATOM      9  C   UNL     1     120.427 118.626 109.600  1.00  0.00     0.116 A 
ATOM     10  H   UNL     1     122.603 119.854 105.399  1.00  0.00     0.166 HD
ENDROOT
BRANCH   9  11
ATOM     11  O   UNL     1     119.694 118.251 110.723  1.00  0.00    -0.508 OA
ATOM     12  H   UNL     1     119.007 118.868 111.137  1.00  0.00     0.293 HD
ENDBRANCH   9  11
TORSDOF 1
ENDMDL
MODEL 5
REMARK VINA RESULT:    -2.897     12.487     13.692
REMARK INTER + INTRA:          -2.982
REMARK INTER:                  -2.982
REMARK INTRA:                   0.000
REMARK UNBOUND:                 0.000
REMARK SMILES Oc1ccc2[nH]ccc2c1
REMARK SMILES IDX 3 1 4 2 5 3 9 4 8 5 7 6 6 7 10 8 2 9 1 11
REMARK H PARENT 6 10 1 12
REMARK Flexibility Score: inf
ROOT
ATOM      1  C   UNL     1     121.880 119.445 109.790  1.00  0.00     0.048 A 
ATOM      2  C   UNL     1     123.077 119.510 109.053  1.00  0.00     0.030 A 
ATOM      3  C   UNL     1     123.403 118.423 108.244  1.00  0.00     0.046 A 
ATOM      4  C   UNL     1     122.595 117.320 108.159  1.00  0.00     0.003 A 
ATOM      5  C   UNL     1     123.193 116.437 107.287  1.00  0.00     0.028 A 
ATOM      6  C   UNL     1     124.364 117.068 106.878  1.00  0.00     0.083 A 
ATOM      7  N   UNL     1     124.488 118.280 107.466  1.00  0.00    -0.361 N 
ATOM      8  C   UNL     1     121.404 117.225 108.874  1.00  0.00     0.056 A 
ATOM      9  C   UNL     1     121.043 118.305 109.703  1.00  0.00     0.116 A 
ATOM     10  H   UNL     1     125.269 118.962 107.337  1.00  0.00     0.166 HD
ENDROOT
BRANCH   9  11
ATOM     11  O   UNL     1     119.858 118.242 110.432  1.00  0.00    -0.508 OA
ATOM     12  H   UNL     1     119.862 118.192 111.444  1.00  0.00     0.293 HD
ENDBRANCH   9  11
TORSDOF 1
ENDMDL
MODEL 6
REMARK VINA RESULT:    -2.895      9.750     10.915
REMARK INTER + INTRA:          -2.980
REMARK INTER:                  -2.980
REMARK INTRA:                   0.000
REMARK UNBOUND:                 0.000
REMARK SMILES Oc1ccc2[nH]ccc2c1
REMARK SMILES IDX 3 1 4 2 5 3 9 4 8 5 7 6 6 7 10 8 2 9 1 11
REMARK H PARENT 6 10 1 12
REMARK Flexibility Score: inf
ROOT
ATOM      1  C   UNL     1     112.538 121.897 109.780  1.00  0.00     0.048 A 
ATOM      2  C   UNL     1     112.476 123.090 109.037  1.00  0.00     0.030 A 
ATOM      3  C   UNL     1     113.571 123.418 108.239  1.00  0.00     0.046 A 
ATOM      4  C   UNL     1     114.678 122.615 108.170  1.00  0.00     0.003 A 
ATOM      5  C   UNL     1     115.568 123.213 107.304  1.00  0.00     0.028 A 
ATOM      6  C   UNL     1     114.935 124.380 106.884  1.00  0.00     0.083 A 
ATOM      7  N   UNL     1     113.716 124.500 107.457  1.00  0.00    -0.361 N 
ATOM      8  C   UNL     1     114.771 121.428 108.892  1.00  0.00     0.056 A 
ATOM      9  C   UNL     1     113.684 121.065 109.710  1.00  0.00     0.116 A 
ATOM     10  H   UNL     1     113.032 125.277 107.317  1.00  0.00     0.166 HD
ENDROOT
BRANCH   9  11
ATOM     11  O   UNL     1     113.745 119.884 110.445  1.00  0.00    -0.508 OA
ATOM     12  H   UNL     1     112.905 119.407 110.750  1.00  0.00     0.293 HD
ENDBRANCH   9  11
TORSDOF 1
ENDMDL
MODEL 7
REMARK VINA RESULT:    -2.895      7.759      8.652
REMARK INTER + INTRA:          -2.979
REMARK INTER:                  -2.979
REMARK INTRA:                   0.000
REMARK UNBOUND:                 0.000
REMARK SMILES Oc1ccc2[nH]ccc2c1
REMARK SMILES IDX 3 1 4 2 5 3 9 4 8 5 7 6 6 7 10 8 2 9 1 11
REMARK H PARENT 6 10 1 12
REMARK Flexibility Score: inf
ROOT
ATOM      1  C   UNL     1     119.462 110.129 109.803  1.00  0.00     0.048 A 
ATOM      2  C   UNL     1     119.530 108.934 109.061  1.00  0.00     0.030 A 
ATOM      3  C   UNL     1     118.451 108.617 108.238  1.00  0.00     0.046 A 
ATOM      4  C   UNL     1     117.354 109.431 108.142  1.00  0.00     0.003 A 
ATOM      5  C   UNL     1     116.479 108.842 107.257  1.00  0.00     0.028 A 
ATOM      6  C   UNL     1     117.109 107.669 106.851  1.00  0.00     0.083 A 
ATOM      7  N   UNL     1     118.313 107.536 107.453  1.00  0.00    -0.361 N 
ATOM      8  C   UNL     1     117.255 110.620 108.862  1.00  0.00     0.056 A 
ATOM      9  C   UNL     1     118.327 110.972 109.705  1.00  0.00     0.116 A 
ATOM     10  H   UNL     1     118.993 106.753 107.329  1.00  0.00     0.166 HD
ENDROOT
BRANCH   9  11
ATOM     11  O   UNL     1     118.260 112.154 110.439  1.00  0.00    -0.508 OA
ATOM     12  H   UNL     1     118.442 112.169 111.435  1.00  0.00     0.293 HD
ENDBRANCH   9  11
TORSDOF 1
ENDMDL
MODEL 8
REMARK VINA RESULT:    -2.863      2.006      2.485
REMARK INTER + INTRA:          -2.947
REMARK INTER:                  -2.947
REMARK INTRA:                   0.000
REMARK UNBOUND:                 0.000
REMARK SMILES Oc1ccc2[nH]ccc2c1
REMARK SMILES IDX 3 1 4 2 5 3 9 4 8 5 7 6 6 7 10 8 2 9 1 11
REMARK H PARENT 6 10 1 12
REMARK Flexibility Score: inf
ROOT
ATOM      1  C   UNL     1     110.056 112.588 109.689  1.00  0.00     0.048 A 
ATOM      2  C   UNL     1     108.875 112.557 108.925  1.00  0.00     0.030 A 
ATOM      3  C   UNL     1     108.563 113.681 108.163  1.00  0.00     0.046 A 
ATOM      4  C   UNL     1     109.370 114.787 108.147  1.00  0.00     0.003 A 
ATOM      5  C   UNL     1     108.788 115.710 107.305  1.00  0.00     0.028 A 
ATOM      6  C   UNL     1     107.627 115.098 106.843  1.00  0.00     0.083 A 
ATOM      7  N   UNL     1     107.494 113.859 107.369  1.00  0.00    -0.361 N 
ATOM      8  C   UNL     1     110.546 114.850 108.891  1.00  0.00     0.056 A 
ATOM      9  C   UNL     1     110.892 113.732 109.674  1.00  0.00     0.116 A 
ATOM     10  H   UNL     1     106.717 113.183 107.192  1.00  0.00     0.166 HD
ENDROOT
BRANCH   9  11
ATOM     11  O   UNL     1     112.061 113.762 110.430  1.00  0.00    -0.508 OA
ATOM     12  H   UNL     1     112.713 114.534 110.365  1.00  0.00     0.293 HD
ENDBRANCH   9  11
TORSDOF 1
ENDMDL
MODEL 9
REMARK VINA RESULT:    -2.787      0.819      2.313
REMARK INTER + INTRA:          -2.869
REMARK INTER:                  -2.869
REMARK INTRA:                   0.000
REMARK UNBOUND:                 0.000
REMARK SMILES Oc1ccc2[nH]ccc2c1
REMARK SMILES IDX 3 1 4 2 5 3 9 4 8 5 7 6 6 7 10 8 2 9 1 11
REMARK H PARENT 6 10 1 12
REMARK Flexibility Score: inf
ROOT
ATOM      1  C   UNL     1     110.156 113.033 109.712  1.00  0.00     0.048 A 
ATOM      2  C   UNL     1     109.403 112.661 108.583  1.00  0.00     0.030 A 
ATOM      3  C   UNL     1     110.052 112.626 107.350  1.00  0.00     0.046 A 
ATOM      4  C   UNL     1     111.378 112.942 107.225  1.00  0.00     0.003 A 
ATOM      5  C   UNL     1     111.710 112.812 105.894  1.00  0.00     0.028 A 
ATOM      6  C   UNL     1     110.534 112.413 105.265  1.00  0.00     0.083 A 
ATOM      7  N   UNL     1     109.524 112.301 106.158  1.00  0.00    -0.361 N 
ATOM      8  C   UNL     1     112.152 113.314 108.322  1.00  0.00     0.056 A 
ATOM      9  C   UNL     1     111.529 113.360 109.584  1.00  0.00     0.116 A 
ATOM     10  H   UNL     1     108.539 112.019 105.958  1.00  0.00     0.166 HD
ENDROOT
BRANCH   9  11
ATOM     11  O   UNL     1     112.274 113.728 110.701  1.00  0.00    -0.508 OA
ATOM     12  H   UNL     1     111.830 113.943 111.586  1.00  0.00     0.293 HD
ENDBRANCH   9  11
TORSDOF 1
ENDMDL
