MODEL 1
REMARK VINA RESULT:    -3.779      0.000      0.000
REMARK INTER + INTRA:          -6.132
REMARK INTER:                  -4.774
REMARK INTRA:                  -1.359
REMARK UNBOUND:                -1.359
REMARK SMILES O=C(C=Cc1ccc(O)cc1)c1ccc(O)cc1O
REMARK SMILES IDX 4 1 3 2 5 3 6 4 7 5 8 6 11 7 10 8 9 9 2 11 1 12 12 13 18 14
REMARK SMILES IDX 13 15 17 16 14 17 15 18 19 19 16 21
REMARK H PARENT 9 10 19 20 16 22
REMARK Flexibility Score: inf
ROOT
ATOM      1  C   UNL     1     -22.998  13.909   3.109  1.00  0.00     0.012 C 
ATOM      2  C   UNL     1     -22.783  12.615   2.820  1.00  0.00     0.053 C 
ENDROOT
BRANCH   1   3
ATOM      3  C   UNL     1     -22.905  14.513   4.454  1.00  0.00    -0.025 A 
ATOM      4  C   UNL     1     -21.755  15.214   4.855  1.00  0.00     0.012 A 
ATOM      5  C   UNL     1     -21.664  15.734   6.151  1.00  0.00     0.047 A 
ATOM      6  C   UNL     1     -22.706  15.537   7.063  1.00  0.00     0.115 A 
ATOM      7  C   UNL     1     -23.935  14.291   5.381  1.00  0.00     0.012 A 
ATOM      8  C   UNL     1     -23.840  14.811   6.675  1.00  0.00     0.047 A 
BRANCH   6   9
ATOM      9  O   UNL     1     -22.603  16.060   8.350  1.00  0.00    -0.508 OA
ATOM     10  H   UNL     1     -21.723  16.412   8.710  1.00  0.00     0.293 HD
ENDBRANCH   6   9
ENDBRANCH   1   3
BRANCH   2  11
ATOM     11  C   UNL     1     -22.242  11.597   3.755  1.00  0.00     0.189 C 
ATOM     12  O   UNL     1     -22.992  10.713   4.250  1.00  0.00    -0.289 OA
BRANCH  11  13
ATOM     13  C   UNL     1     -20.812  11.600   4.130  1.00  0.00     0.064 A 
ATOM     14  C   UNL     1     -20.389  11.857   5.451  1.00  0.00     0.130 A 
ATOM     15  C   UNL     1     -19.851  11.310   3.146  1.00  0.00     0.020 A 
ATOM     16  C   UNL     1     -19.020  11.862   5.756  1.00  0.00     0.093 A 
ATOM     17  C   UNL     1     -18.491  11.311   3.461  1.00  0.00     0.047 A 
ATOM     18  C   UNL     1     -18.071  11.591   4.763  1.00  0.00     0.119 A 
BRANCH  14  19
ATOM     19  O   UNL     1     -21.323  12.078   6.463  1.00  0.00    -0.507 OA
ATOM     20  H   UNL     1     -21.186  11.720   7.401  1.00  0.00     0.293 HD
ENDBRANCH  14  19
BRANCH  18  21
ATOM     21  O   UNL     1     -16.710  11.593   5.062  1.00  0.00    -0.508 OA
ATOM     22  H   UNL     1     -16.295  10.878   5.648  1.00  0.00     0.293 HD
ENDBRANCH  18  21
ENDBRANCH  11  13
ENDBRANCH   2  11
TORSDOF 6
ENDMDL
MODEL 2
REMARK VINA RESULT:    -3.642      1.869      4.651
REMARK INTER + INTRA:          -5.959
REMARK INTER:                  -4.877
REMARK INTRA:                  -1.081
REMARK UNBOUND:                -1.359
REMARK SMILES O=C(C=Cc1ccc(O)cc1)c1ccc(O)cc1O
REMARK SMILES IDX 4 1 3 2 5 3 6 4 7 5 8 6 11 7 10 8 9 9 2 11 1 12 12 13 18 14
REMARK SMILES IDX 13 15 17 16 14 17 15 18 19 19 16 21
REMARK H PARENT 9 10 19 20 16 22
REMARK Flexibility Score: inf
ROOT
ATOM      1  C   UNL     1     -20.325  10.199   3.783  1.00  0.00     0.012 C 
ATOM      2  C   UNL     1     -19.440  10.363   4.780  1.00  0.00     0.053 C 
ENDROOT
BRANCH   1   3
ATOM      3  C   UNL     1     -21.234  11.241   3.265  1.00  0.00    -0.025 A 
ATOM      4  C   UNL     1     -20.796  12.179   2.314  1.00  0.00     0.012 A 
ATOM      5  C   UNL     1     -21.656  13.191   1.875  1.00  0.00     0.047 A 
ATOM      6  C   UNL     1     -22.948  13.292   2.398  1.00  0.00     0.115 A 
ATOM      7  C   UNL     1     -22.521  11.364   3.810  1.00  0.00     0.012 A 
ATOM      8  C   UNL     1     -23.378  12.377   3.370  1.00  0.00     0.047 A 
BRANCH   6   9
ATOM      9  O   UNL     1     -23.795  14.304   1.952  1.00  0.00    -0.508 OA
ATOM     10  H   UNL     1     -23.448  15.236   1.753  1.00  0.00     0.293 HD
ENDBRANCH   6   9
ENDBRANCH   1   3
BRANCH   2  11
ATOM     11  C   UNL     1     -19.087  11.654   5.422  1.00  0.00     0.189 C 
ATOM     12  O   UNL     1     -17.881  11.977   5.600  1.00  0.00    -0.289 OA
BRANCH  11  13
ATOM     13  C   UNL     1     -20.142  12.587   5.870  1.00  0.00     0.064 A 
ATOM     14  C   UNL     1     -20.209  13.916   5.400  1.00  0.00     0.130 A 
ATOM     15  C   UNL     1     -21.122  12.126   6.766  1.00  0.00     0.020 A 
ATOM     16  C   UNL     1     -21.222  14.769   5.865  1.00  0.00     0.093 A 
ATOM     17  C   UNL     1     -22.130  12.980   7.217  1.00  0.00     0.047 A 
ATOM     18  C   UNL     1     -22.180  14.303   6.773  1.00  0.00     0.119 A 
BRANCH  14  19
ATOM     19  O   UNL     1     -19.294  14.380   4.457  1.00  0.00    -0.507 OA
ATOM     20  H   UNL     1     -19.580  14.640   3.520  1.00  0.00     0.293 HD
ENDBRANCH  14  19
BRANCH  18  21
ATOM     21  O   UNL     1     -23.189  15.146   7.236  1.00  0.00    -0.508 OA
ATOM     22  H   UNL     1     -24.126  15.112   6.851  1.00  0.00     0.293 HD
ENDBRANCH  18  21
ENDBRANCH  11  13
ENDBRANCH   2  11
TORSDOF 6
ENDMDL
MODEL 3
REMARK VINA RESULT:    -3.603      1.493      4.972
REMARK INTER + INTRA:          -5.909
REMARK INTER:                  -4.654
REMARK INTRA:                  -1.255
REMARK UNBOUND:                -1.359
REMARK SMILES O=C(C=Cc1ccc(O)cc1)c1ccc(O)cc1O
REMARK SMILES IDX 4 1 3 2 5 3 6 4 7 5 8 6 11 7 10 8 9 9 2 11 1 12 12 13 18 14
REMARK SMILES IDX 13 15 17 16 14 17 15 18 19 19 16 21
REMARK H PARENT 9 10 19 20 16 22
REMARK Flexibility Score: inf
ROOT
ATOM      1  C   UNL     1     -22.265  11.381   3.431  1.00  0.00     0.012 C 
ATOM      2  C   UNL     1     -22.987  12.375   2.887  1.00  0.00     0.053 C 
ENDROOT
BRANCH   1   3
ATOM      3  C   UNL     1     -20.983  11.547   4.145  1.00  0.00    -0.025 A 
ATOM      4  C   UNL     1     -19.760  11.531   3.452  1.00  0.00     0.012 A 
ATOM      5  C   UNL     1     -18.553  11.636   4.151  1.00  0.00     0.047 A 
ATOM      6  C   UNL     1     -18.554  11.732   5.546  1.00  0.00     0.115 A 
ATOM      7  C   UNL     1     -20.978  11.613   5.546  1.00  0.00     0.012 A 
ATOM      8  C   UNL     1     -19.771  11.717   6.242  1.00  0.00     0.047 A 
BRANCH   6   9
ATOM      9  O   UNL     1     -17.345  11.837   6.230  1.00  0.00    -0.508 OA
ATOM     10  H   UNL     1     -16.969  12.736   6.506  1.00  0.00     0.293 HD
ENDBRANCH   6   9
ENDBRANCH   1   3
BRANCH   2  11
ATOM     11  C   UNL     1     -22.727  13.826   3.053  1.00  0.00     0.189 C 
ATOM     12  O   UNL     1     -22.550  14.569   2.049  1.00  0.00    -0.289 OA
BRANCH  11  13
ATOM     13  C   UNL     1     -22.664  14.433   4.400  1.00  0.00     0.064 A 
ATOM     14  C   UNL     1     -21.538  15.165   4.834  1.00  0.00     0.130 A 
ATOM     15  C   UNL     1     -23.769  14.301   5.257  1.00  0.00     0.020 A 
ATOM     16  C   UNL     1     -21.518  15.711   6.126  1.00  0.00     0.093 A 
ATOM     17  C   UNL     1     -23.743  14.854   6.538  1.00  0.00     0.047 A 
ATOM     18  C   UNL     1     -22.618  15.555   6.979  1.00  0.00     0.119 A 
BRANCH  14  19
ATOM     19  O   UNL     1     -20.456  15.372   3.980  1.00  0.00    -0.507 OA
ATOM     20  H   UNL     1     -19.703  14.698   3.901  1.00  0.00     0.293 HD
ENDBRANCH  14  19
BRANCH  18  21
ATOM     21  O   UNL     1     -22.605  16.098   8.262  1.00  0.00    -0.508 OA
ATOM     22  H   UNL     1     -22.384  15.533   9.074  1.00  0.00     0.293 HD
ENDBRANCH  18  21
ENDBRANCH  11  13
ENDBRANCH   2  11
TORSDOF 6
ENDMDL
MODEL 4
REMARK VINA RESULT:    -3.545      1.435      2.149
REMARK INTER + INTRA:          -5.836
REMARK INTER:                  -4.898
REMARK INTRA:                  -0.937
REMARK UNBOUND:                -1.359
REMARK SMILES O=C(C=Cc1ccc(O)cc1)c1ccc(O)cc1O
REMARK SMILES IDX 4 1 3 2 5 3 6 4 7 5 8 6 11 7 10 8 9 9 2 11 1 12 12 13 18 14
REMARK SMILES IDX 13 15 17 16 14 17 15 18 19 19 16 21
REMARK H PARENT 9 10 19 20 16 22
REMARK Flexibility Score: inf
ROOT
ATOM      1  C   UNL     1     -21.687  13.212   2.183  1.00  0.00     0.012 C 
ATOM      2  C   UNL     1     -21.371  11.944   1.875  1.00  0.00     0.053 C 
ENDROOT
BRANCH   1   3
ATOM      3  C   UNL     1     -21.846  13.747   3.551  1.00  0.00    -0.025 A 
ATOM      4  C   UNL     1     -20.833  14.513   4.153  1.00  0.00     0.012 A 
ATOM      5  C   UNL     1     -20.980  14.966   5.468  1.00  0.00     0.047 A 
ATOM      6  C   UNL     1     -22.125  14.639   6.201  1.00  0.00     0.115 A 
ATOM      7  C   UNL     1     -22.980  13.396   4.299  1.00  0.00     0.012 A 
ATOM      8  C   UNL     1     -23.124  13.849   5.614  1.00  0.00     0.047 A 
BRANCH   6   9
ATOM      9  O   UNL     1     -22.259  15.097   7.509  1.00  0.00    -0.508 OA
ATOM     10  H   UNL     1     -21.475  15.489   8.017  1.00  0.00     0.293 HD
ENDBRANCH   6   9
ENDBRANCH   1   3
BRANCH   2  11
ATOM     11  C   UNL     1     -20.953  10.897   2.840  1.00  0.00     0.189 C 
ATOM     12  O   UNL     1     -21.525   9.773   2.860  1.00  0.00    -0.289 OA
BRANCH  11  13
ATOM     13  C   UNL     1     -19.859  11.150   3.802  1.00  0.00     0.064 A 
ATOM     14  C   UNL     1     -18.537  11.399   3.376  1.00  0.00     0.130 A 
ATOM     15  C   UNL     1     -20.154  11.173   5.175  1.00  0.00     0.020 A 
ATOM     16  C   UNL     1     -17.529  11.621   4.327  1.00  0.00     0.093 A 
ATOM     17  C   UNL     1     -19.146  11.401   6.114  1.00  0.00     0.047 A 
ATOM     18  C   UNL     1     -17.832  11.621   5.694  1.00  0.00     0.119 A 
BRANCH  14  19
ATOM     19  O   UNL     1     -18.229  11.453   2.017  1.00  0.00    -0.507 OA
ATOM     20  H   UNL     1     -17.311  11.733   1.690  1.00  0.00     0.293 HD
ENDBRANCH  14  19
BRANCH  18  21
ATOM     21  O   UNL     1     -16.835  11.843   6.642  1.00  0.00    -0.508 OA
ATOM     22  H   UNL     1     -15.992  11.281   6.666  1.00  0.00     0.293 HD
ENDBRANCH  18  21
ENDBRANCH  11  13
ENDBRANCH   2  11
TORSDOF 6
ENDMDL
MODEL 5
REMARK VINA RESULT:    -3.461      1.995      4.862
REMARK INTER + INTRA:          -5.730
REMARK INTER:                  -4.592
REMARK INTRA:                  -1.138
REMARK UNBOUND:                -1.359
REMARK SMILES O=C(C=Cc1ccc(O)cc1)c1ccc(O)cc1O
REMARK SMILES IDX 4 1 3 2 5 3 6 4 7 5 8 6 11 7 10 8 9 9 2 11 1 12 12 13 18 14
REMARK SMILES IDX 13 15 17 16 14 17 15 18 19 19 16 21
REMARK H PARENT 9 10 19 20 16 22
REMARK Flexibility Score: inf
ROOT
ATOM      1  C   UNL     1     -22.503  11.110   3.922  1.00  0.00     0.012 C 
ATOM      2  C   UNL     1     -23.330  12.097   3.544  1.00  0.00     0.053 C 
ENDROOT
BRANCH   1   3
ATOM      3  C   UNL     1     -21.027  11.185   3.929  1.00  0.00    -0.025 A 
ATOM      4  C   UNL     1     -20.283  10.948   2.760  1.00  0.00     0.012 A 
ATOM      5  C   UNL     1     -18.885  10.972   2.798  1.00  0.00     0.047 A 
ATOM      6  C   UNL     1     -18.218  11.206   4.005  1.00  0.00     0.115 A 
ATOM      7  C   UNL     1     -20.354  11.389   5.143  1.00  0.00     0.012 A 
ATOM      8  C   UNL     1     -18.957  11.411   5.178  1.00  0.00     0.047 A 
BRANCH   6   9
ATOM      9  O   UNL     1     -16.826  11.227   4.029  1.00  0.00    -0.508 OA
ATOM     10  H   UNL     1     -16.276  10.590   3.464  1.00  0.00     0.293 HD
ENDBRANCH   6   9
ENDBRANCH   1   3
BRANCH   2  11
ATOM     11  C   UNL     1     -22.930  13.493   3.236  1.00  0.00     0.189 C 
ATOM     12  O   UNL     1     -23.455  14.117   2.274  1.00  0.00    -0.289 OA
BRANCH  11  13
ATOM     13  C   UNL     1     -21.904  14.181   4.049  1.00  0.00     0.064 A 
ATOM     14  C   UNL     1     -20.666  14.579   3.502  1.00  0.00     0.130 A 
ATOM     15  C   UNL     1     -22.186  14.471   5.394  1.00  0.00     0.020 A 
ATOM     16  C   UNL     1     -19.718  15.217   4.316  1.00  0.00     0.093 A 
ATOM     17  C   UNL     1     -21.239  15.113   6.195  1.00  0.00     0.047 A 
ATOM     18  C   UNL     1     -20.002  15.483   5.660  1.00  0.00     0.119 A 
BRANCH  14  19
ATOM     19  O   UNL     1     -20.388  14.368   2.152  1.00  0.00    -0.507 OA
ATOM     20  H   UNL     1     -19.714  14.937   1.652  1.00  0.00     0.293 HD
ENDBRANCH  14  19
BRANCH  18  21
ATOM     21  O   UNL     1     -19.065  16.119   6.472  1.00  0.00    -0.508 OA
ATOM     22  H   UNL     1     -18.795  17.083   6.315  1.00  0.00     0.293 HD
ENDBRANCH  18  21
ENDBRANCH  11  13
ENDBRANCH   2  11
TORSDOF 6
ENDMDL
MODEL 6
REMARK VINA RESULT:    -3.336      2.424      4.965
REMARK INTER + INTRA:          -5.572
REMARK INTER:                  -4.358
REMARK INTRA:                  -1.214
REMARK UNBOUND:                -1.359
REMARK SMILES O=C(C=Cc1ccc(O)cc1)c1ccc(O)cc1O
REMARK SMILES IDX 4 1 3 2 5 3 6 4 7 5 8 6 11 7 10 8 9 9 2 11 1 12 12 13 18 14
REMARK SMILES IDX 13 15 17 16 14 17 15 18 19 19 16 21
REMARK H PARENT 9 10 19 20 16 22
REMARK Flexibility Score: inf
ROOT
ATOM      1  C   UNL     1     -21.351  12.606   6.446  1.00  0.00     0.012 C 
ATOM      2  C   UNL     1     -22.302  13.459   6.032  1.00  0.00     0.053 C 
ENDROOT
BRANCH   1   3
ATOM      3  C   UNL     1     -20.317  11.995   5.586  1.00  0.00    -0.025 A 
ATOM      4  C   UNL     1     -18.993  12.467   5.595  1.00  0.00     0.012 A 
ATOM      5  C   UNL     1     -18.041  11.910   4.736  1.00  0.00     0.047 A 
ATOM      6  C   UNL     1     -18.405  10.896   3.844  1.00  0.00     0.115 A 
ATOM      7  C   UNL     1     -20.685  10.999   4.669  1.00  0.00     0.012 A 
ATOM      8  C   UNL     1     -19.731  10.444   3.811  1.00  0.00     0.047 A 
BRANCH   6   9
ATOM      9  O   UNL     1     -17.446  10.350   2.994  1.00  0.00    -0.508 OA
ATOM     10  H   UNL     1     -16.462  10.346   3.237  1.00  0.00     0.293 HD
ENDBRANCH   6   9
ENDBRANCH   1   3
BRANCH   2  11
ATOM     11  C   UNL     1     -22.384  14.079   4.686  1.00  0.00     0.189 C 
ATOM     12  O   UNL     1     -23.490  14.176   4.087  1.00  0.00    -0.289 OA
BRANCH  11  13
ATOM     13  C   UNL     1     -21.170  14.591   4.015  1.00  0.00     0.064 A 
ATOM     14  C   UNL     1     -20.758  14.112   2.754  1.00  0.00     0.130 A 
ATOM     15  C   UNL     1     -20.426  15.606   4.641  1.00  0.00     0.020 A 
ATOM     16  C   UNL     1     -19.591  14.619   2.163  1.00  0.00     0.093 A 
ATOM     17  C   UNL     1     -19.270  16.110   4.041  1.00  0.00     0.047 A 
ATOM     18  C   UNL     1     -18.847  15.616   2.805  1.00  0.00     0.119 A 
BRANCH  14  19
ATOM     19  O   UNL     1     -21.516  13.157   2.078  1.00  0.00    -0.507 OA
ATOM     20  H   UNL     1     -22.485  13.324   1.829  1.00  0.00     0.293 HD
ENDBRANCH  14  19
BRANCH  18  21
ATOM     21  O   UNL     1     -17.689  16.125   2.221  1.00  0.00    -0.508 OA
ATOM     22  H   UNL     1     -16.801  15.641   2.296  1.00  0.00     0.293 HD
ENDBRANCH  18  21
ENDBRANCH  11  13
ENDBRANCH   2  11
TORSDOF 6
ENDMDL
MODEL 7
REMARK VINA RESULT:    -3.232      2.156      4.556
REMARK INTER + INTRA:          -5.441
REMARK INTER:                  -4.224
REMARK INTRA:                  -1.216
REMARK UNBOUND:                -1.359
REMARK SMILES O=C(C=Cc1ccc(O)cc1)c1ccc(O)cc1O
REMARK SMILES IDX 4 1 3 2 5 3 6 4 7 5 8 6 11 7 10 8 9 9 2 11 1 12 12 13 18 14
REMARK SMILES IDX 13 15 17 16 14 17 15 18 19 19 16 21
REMARK H PARENT 9 10 19 20 16 22
REMARK Flexibility Score: inf
ROOT
ATOM      1  C   UNL     1     -22.271  11.221   4.080  1.00  0.00     0.012 C 
ATOM      2  C   UNL     1     -23.090  12.281   3.982  1.00  0.00     0.053 C 
ENDROOT
BRANCH   1   3
ATOM      3  C   UNL     1     -20.830  11.279   4.399  1.00  0.00    -0.025 A 
ATOM      4  C   UNL     1     -20.385  11.424   5.724  1.00  0.00     0.012 A 
ATOM      5  C   UNL     1     -19.018  11.530   6.000  1.00  0.00     0.047 A 
ATOM      6  C   UNL     1     -18.087  11.518   4.958  1.00  0.00     0.115 A 
ATOM      7  C   UNL     1     -19.895  11.297   3.353  1.00  0.00     0.012 A 
ATOM      8  C   UNL     1     -18.529  11.404   3.632  1.00  0.00     0.047 A 
BRANCH   6   9
ATOM      9  O   UNL     1     -16.728  11.624   5.246  1.00  0.00    -0.508 OA
ATOM     10  H   UNL     1     -16.027  11.176   4.668  1.00  0.00     0.293 HD
ENDBRANCH   6   9
ENDBRANCH   1   3
BRANCH   2  11
ATOM     11  C   UNL     1     -22.746  13.678   4.345  1.00  0.00     0.189 C 
ATOM     12  O   UNL     1     -23.489  14.346   5.114  1.00  0.00    -0.289 OA
BRANCH  11  13
ATOM     13  C   UNL     1     -21.526  14.319   3.809  1.00  0.00     0.064 A 
ATOM     14  C   UNL     1     -20.544  14.874   4.656  1.00  0.00     0.130 A 
ATOM     15  C   UNL     1     -21.328  14.346   2.418  1.00  0.00     0.020 A 
ATOM     16  C   UNL     1     -19.409  15.484   4.101  1.00  0.00     0.093 A 
ATOM     17  C   UNL     1     -20.192  14.949   1.875  1.00  0.00     0.047 A 
ATOM     18  C   UNL     1     -19.232  15.523   2.712  1.00  0.00     0.119 A 
BRANCH  14  19
ATOM     19  O   UNL     1     -20.679  14.798   6.042  1.00  0.00    -0.507 OA
ATOM     20  H   UNL     1     -21.480  15.193   6.521  1.00  0.00     0.293 HD
ENDBRANCH  14  19
BRANCH  18  21
ATOM     21  O   UNL     1     -18.106  16.125   2.156  1.00  0.00    -0.508 OA
ATOM     22  H   UNL     1     -17.935  16.108   1.157  1.00  0.00     0.293 HD
ENDBRANCH  18  21
ENDBRANCH  11  13
ENDBRANCH   2  11
TORSDOF 6
ENDMDL
MODEL 8
REMARK VINA RESULT:    -3.228      2.055      2.913
REMARK INTER + INTRA:          -5.436
REMARK INTER:                  -5.049
REMARK INTRA:                  -0.387
REMARK UNBOUND:                -1.359
REMARK SMILES O=C(C=Cc1ccc(O)cc1)c1ccc(O)cc1O
REMARK SMILES IDX 4 1 3 2 5 3 6 4 7 5 8 6 11 7 10 8 9 9 2 11 1 12 12 13 18 14
REMARK SMILES IDX 13 15 17 16 14 17 15 18 19 19 16 21
REMARK H PARENT 9 10 19 20 16 22
REMARK Flexibility Score: inf
ROOT
ATOM      1  C   UNL     1     -22.500  11.612   3.401  1.00  0.00     0.012 C 
ATOM      2  C   UNL     1     -21.489  10.805   3.040  1.00  0.00     0.053 C 
ENDROOT
BRANCH   1   3
ATOM      3  C   UNL     1     -22.488  12.536   4.554  1.00  0.00    -0.025 A 
ATOM      4  C   UNL     1     -21.831  12.197   5.749  1.00  0.00     0.012 A 
ATOM      5  C   UNL     1     -21.875  13.062   6.847  1.00  0.00     0.047 A 
ATOM      6  C   UNL     1     -22.595  14.258   6.772  1.00  0.00     0.115 A 
ATOM      7  C   UNL     1     -23.234  13.723   4.492  1.00  0.00     0.012 A 
ATOM      8  C   UNL     1     -23.277  14.585   5.592  1.00  0.00     0.047 A 
BRANCH   6   9
ATOM      9  O   UNL     1     -22.631  15.111   7.873  1.00  0.00    -0.508 OA
ATOM     10  H   UNL     1     -21.921  15.074   8.595  1.00  0.00     0.293 HD
ENDBRANCH   6   9
ENDBRANCH   1   3
BRANCH   2  11
ATOM     11  C   UNL     1     -20.122  10.818   3.617  1.00  0.00     0.189 C 
ATOM     12  O   UNL     1     -19.789   9.990   4.508  1.00  0.00    -0.289 OA
BRANCH  11  13
ATOM     13  C   UNL     1     -19.120  11.806   3.161  1.00  0.00     0.064 A 
ATOM     14  C   UNL     1     -17.773  11.451   2.939  1.00  0.00     0.130 A 
ATOM     15  C   UNL     1     -19.532  13.127   2.915  1.00  0.00     0.020 A 
ATOM     16  C   UNL     1     -16.856  12.426   2.519  1.00  0.00     0.093 A 
ATOM     17  C   UNL     1     -18.613  14.089   2.491  1.00  0.00     0.047 A 
ATOM     18  C   UNL     1     -17.274  13.744   2.297  1.00  0.00     0.119 A 
BRANCH  14  19
ATOM     19  O   UNL     1     -17.351  10.132   3.106  1.00  0.00    -0.507 OA
ATOM     20  H   UNL     1     -17.001   9.794   3.995  1.00  0.00     0.293 HD
ENDBRANCH  14  19
BRANCH  18  21
ATOM     21  O   UNL     1     -16.367  14.716   1.878  1.00  0.00    -0.508 OA
ATOM     22  H   UNL     1     -16.511  15.240   1.023  1.00  0.00     0.293 HD
ENDBRANCH  18  21
ENDBRANCH  11  13
ENDBRANCH   2  11
TORSDOF 6
ENDMDL
MODEL 9
REMARK VINA RESULT:    -3.159      1.625      4.951
REMARK INTER + INTRA:          -5.348
REMARK INTER:                  -3.979
REMARK INTRA:                  -1.369
REMARK UNBOUND:                -1.359
REMARK SMILES O=C(C=Cc1ccc(O)cc1)c1ccc(O)cc1O
REMARK SMILES IDX 4 1 3 2 5 3 6 4 7 5 8 6 11 7 10 8 9 9 2 11 1 12 12 13 18 14
REMARK SMILES IDX 13 15 17 16 14 17 15 18 19 19 16 21
REMARK H PARENT 9 10 19 20 16 22
REMARK Flexibility Score: inf
ROOT
ATOM      1  C   UNL     1     -19.746  13.218   2.121  1.00  0.00     0.012 C 
ATOM      2  C   UNL     1     -20.872  13.911   1.888  1.00  0.00     0.053 C 
ENDROOT
BRANCH   1   3
ATOM      3  C   UNL     1     -19.506  12.339   3.285  1.00  0.00    -0.025 A 
ATOM      4  C   UNL     1     -19.887  10.987   3.263  1.00  0.00     0.012 A 
ATOM      5  C   UNL     1     -19.699  10.184   4.393  1.00  0.00     0.047 A 
ATOM      6  C   UNL     1     -19.155  10.729   5.560  1.00  0.00     0.115 A 
ATOM      7  C   UNL     1     -18.988  12.889   4.467  1.00  0.00     0.012 A 
ATOM      8  C   UNL     1     -18.803  12.085   5.595  1.00  0.00     0.047 A 
BRANCH   6   9
ATOM      9  O   UNL     1     -18.974   9.919   6.678  1.00  0.00    -0.508 OA
ATOM     10  H   UNL     1     -19.307  10.196   7.594  1.00  0.00     0.293 HD
ENDBRANCH   6   9
ENDBRANCH   1   3
BRANCH   2  11
ATOM     11  C   UNL     1     -22.139  13.787   2.652  1.00  0.00     0.189 C 
ATOM     12  O   UNL     1     -23.162  13.272   2.125  1.00  0.00    -0.289 OA
BRANCH  11  13
ATOM     13  C   UNL     1     -22.230  14.270   4.046  1.00  0.00     0.064 A 
ATOM     14  C   UNL     1     -22.507  13.397   5.119  1.00  0.00     0.130 A 
ATOM     15  C   UNL     1     -22.003  15.631   4.310  1.00  0.00     0.020 A 
ATOM     16  C   UNL     1     -22.597  13.903   6.425  1.00  0.00     0.093 A 
ATOM     17  C   UNL     1     -22.088  16.125   5.613  1.00  0.00     0.047 A 
ATOM     18  C   UNL     1     -22.389  15.265   6.673  1.00  0.00     0.119 A 
BRANCH  14  19
ATOM     19  O   UNL     1     -22.666  12.029   4.896  1.00  0.00    -0.507 OA
ATOM     20  H   UNL     1     -22.396  11.598   4.019  1.00  0.00     0.293 HD
ENDBRANCH  14  19
BRANCH  18  21
ATOM     21  O   UNL     1     -22.475  15.773   7.967  1.00  0.00    -0.508 OA
ATOM     22  H   UNL     1     -21.675  16.196   8.425  1.00  0.00     0.293 HD
ENDBRANCH  18  21
ENDBRANCH  11  13
ENDBRANCH   2  11
TORSDOF 6
ENDMDL
