MODEL 1
REMARK VINA RESULT:     2.499      0.000      0.000
REMARK INTER + INTRA:           2.601
REMARK INTER:                   2.718
REMARK INTRA:                  -0.117
REMARK UNBOUND:                -0.117
REMARK SMILES Cc1ccc(C(C)C)c(O)c1
REMARK SMILES IDX 1 1 2 2 11 3 9 4 5 5 4 6 3 7 10 8 6 10 7 11 8 12
REMARK H PARENT 10 9
REMARK Flexibility Score: inf
ROOT
ATOM      1  C   UNL     1     136.124 128.633 129.618  1.00  0.00     0.044 C 
ATOM      2  C   UNL     1     137.339 129.252 128.994  1.00  0.00    -0.047 A 
ATOM      3  C   UNL     1     138.047 128.570 127.996  1.00  0.00     0.049 A 
ATOM      4  C   UNL     1     139.207 129.125 127.434  1.00  0.00     0.119 A 
ATOM      5  C   UNL     1     139.679 130.382 127.882  1.00  0.00    -0.004 A 
ATOM      6  C   UNL     1     138.970 131.047 128.899  1.00  0.00     0.008 A 
ATOM      7  C   UNL     1     137.817 130.486 129.453  1.00  0.00     0.004 A 
ENDROOT
BRANCH   4   8
ATOM      8  O   UNL     1     139.882 128.425 126.435  1.00  0.00    -0.508 OA
ATOM      9  H   UNL     1     139.644 128.528 125.456  1.00  0.00     0.293 HD
ENDBRANCH   4   8
BRANCH   5  10
ATOM     10  C   UNL     1     140.930 131.035 127.309  1.00  0.00     0.017 C 
ATOM     11  C   UNL     1     140.687 131.595 125.902  1.00  0.00     0.012 C 
ATOM     12  C   UNL     1     141.498 132.103 128.251  1.00  0.00     0.012 C 
ENDBRANCH   5  10
TORSDOF 2
ENDMDL
MODEL 2
REMARK VINA RESULT:     3.747      1.685      4.325
REMARK INTER + INTRA:           3.959
REMARK INTER:                   3.248
REMARK INTRA:                   0.712
REMARK UNBOUND:                -0.117
REMARK SMILES Cc1ccc(C(C)C)c(O)c1
REMARK SMILES IDX 1 1 2 2 11 3 9 4 5 5 4 6 3 7 10 8 6 10 7 11 8 12
REMARK H PARENT 10 9
REMARK Flexibility Score: inf
ROOT
ATOM      1  C   UNL     1     142.124 133.455 128.873  1.00  0.00     0.044 C 
ATOM      2  C   UNL     1     141.183 132.351 128.491  1.00  0.00    -0.047 A 
ATOM      3  C   UNL     1     140.043 132.095 129.265  1.00  0.00     0.049 A 
ATOM      4  C   UNL     1     139.177 131.041 128.937  1.00  0.00     0.119 A 
ATOM      5  C   UNL     1     139.457 130.215 127.821  1.00  0.00    -0.004 A 
ATOM      6  C   UNL     1     140.616 130.471 127.066  1.00  0.00     0.008 A 
ATOM      7  C   UNL     1     141.472 131.522 127.400  1.00  0.00     0.004 A 
ENDROOT
BRANCH   4   8
ATOM      8  O   UNL     1     138.046 130.820 129.721  1.00  0.00    -0.508 OA
ATOM      9  H   UNL     1     137.191 131.348 129.586  1.00  0.00     0.293 HD
ENDBRANCH   4   8
BRANCH   5  10
ATOM     10  C   UNL     1     138.555 129.058 127.416  1.00  0.00     0.017 C 
ATOM     11  C   UNL     1     139.338 127.946 126.708  1.00  0.00     0.012 C 
ATOM     12  C   UNL     1     137.755 128.514 128.606  1.00  0.00     0.012 C 
ENDBRANCH   5  10
TORSDOF 2
ENDMDL
MODEL 3
REMARK VINA RESULT:     3.762      1.486      2.081
REMARK INTER + INTRA:           3.975
REMARK INTER:                   3.144
REMARK INTRA:                   0.832
REMARK UNBOUND:                -0.117
REMARK SMILES Cc1ccc(C(C)C)c(O)c1
REMARK SMILES IDX 1 1 2 2 11 3 9 4 5 5 4 6 3 7 10 8 6 10 7 11 8 12
REMARK H PARENT 10 9
REMARK Flexibility Score: inf
ROOT
ATOM      1  C   UNL     1     136.166 128.245 129.296  1.00  0.00     0.044 C 
ATOM      2  C   UNL     1     137.396 128.967 128.830  1.00  0.00    -0.047 A 
ATOM      3  C   UNL     1     137.745 130.203 129.391  1.00  0.00     0.049 A 
ATOM      4  C   UNL     1     138.872 130.903 128.935  1.00  0.00     0.119 A 
ATOM      5  C   UNL     1     139.663 130.368 127.890  1.00  0.00    -0.004 A 
ATOM      6  C   UNL     1     139.290 129.136 127.323  1.00  0.00     0.008 A 
ATOM      7  C   UNL     1     138.166 128.447 127.783  1.00  0.00     0.004 A 
ENDROOT
BRANCH   4   8
ATOM      8  O   UNL     1     139.198 132.125 129.521  1.00  0.00    -0.508 OA
ATOM      9  H   UNL     1     138.487 132.750 129.884  1.00  0.00     0.293 HD
ENDBRANCH   4   8
BRANCH   5  10
ATOM     10  C   UNL     1     140.898 131.080 127.355  1.00  0.00     0.017 C 
ATOM     11  C   UNL     1     140.664 131.647 125.949  1.00  0.00     0.012 C 
ATOM     12  C   UNL     1     141.398 132.160 128.322  1.00  0.00     0.012 C 
ENDBRANCH   5  10
TORSDOF 2
ENDMDL
MODEL 4
REMARK VINA RESULT:     4.076      0.988      4.088
REMARK INTER + INTRA:           4.316
REMARK INTER:                   4.508
REMARK INTRA:                  -0.191
REMARK UNBOUND:                -0.117
REMARK SMILES Cc1ccc(C(C)C)c(O)c1
REMARK SMILES IDX 1 1 2 2 11 3 9 4 5 5 4 6 3 7 10 8 6 10 7 11 8 12
REMARK H PARENT 10 9
REMARK Flexibility Score: inf
ROOT
ATOM      1  C   UNL     1     142.125 132.439 127.920  1.00  0.00     0.044 C 
ATOM      2  C   UNL     1     140.886 131.616 128.114  1.00  0.00    -0.047 A 
ATOM      3  C   UNL     1     140.664 130.478 127.326  1.00  0.00     0.049 A 
ATOM      4  C   UNL     1     139.490 129.723 127.474  1.00  0.00     0.119 A 
ATOM      5  C   UNL     1     138.511 130.115 128.418  1.00  0.00    -0.004 A 
ATOM      6  C   UNL     1     138.738 131.271 129.188  1.00  0.00     0.008 A 
ATOM      7  C   UNL     1     139.909 132.016 129.032  1.00  0.00     0.004 A 
ENDROOT
BRANCH   4   8
ATOM      8  O   UNL     1     139.304 128.591 126.683  1.00  0.00    -0.508 OA
ATOM      9  H   UNL     1     139.354 128.631 125.671  1.00  0.00     0.293 HD
ENDBRANCH   4   8
BRANCH   5  10
ATOM     10  C   UNL     1     137.219 129.336 128.624  1.00  0.00     0.017 C 
ATOM     11  C   UNL     1     136.740 129.401 130.079  1.00  0.00     0.012 C 
ATOM     12  C   UNL     1     136.122 129.781 127.649  1.00  0.00     0.012 C 
ENDBRANCH   5  10
TORSDOF 2
ENDMDL
MODEL 5
REMARK VINA RESULT:     4.446      1.782      3.965
REMARK INTER + INTRA:           4.719
REMARK INTER:                   4.833
REMARK INTRA:                  -0.114
REMARK UNBOUND:                -0.117
REMARK SMILES Cc1ccc(C(C)C)c(O)c1
REMARK SMILES IDX 1 1 2 2 11 3 9 4 5 5 4 6 3 7 10 8 6 10 7 11 8 12
REMARK H PARENT 10 9
REMARK Flexibility Score: inf
ROOT
ATOM      1  C   UNL     1     140.492 127.873 125.343  1.00  0.00     0.044 C 
ATOM      2  C   UNL     1     139.818 128.541 126.505  1.00  0.00    -0.047 A 
ATOM      3  C   UNL     1     140.298 129.764 126.992  1.00  0.00     0.049 A 
ATOM      4  C   UNL     1     139.697 130.378 128.102  1.00  0.00     0.119 A 
ATOM      5  C   UNL     1     138.602 129.755 128.749  1.00  0.00    -0.004 A 
ATOM      6  C   UNL     1     138.144 128.517 128.261  1.00  0.00     0.008 A 
ATOM      7  C   UNL     1     138.749 127.914 127.157  1.00  0.00     0.004 A 
ENDROOT
BRANCH   4   8
ATOM      8  O   UNL     1     140.191 131.600 128.555  1.00  0.00    -0.508 OA
ATOM      9  H   UNL     1     140.193 132.426 127.968  1.00  0.00     0.293 HD
ENDBRANCH   4   8
BRANCH   5  10
ATOM     10  C   UNL     1     137.910 130.373 129.956  1.00  0.00     0.017 C 
ATOM     11  C   UNL     1     136.507 129.790 130.168  1.00  0.00     0.012 C 
ATOM     12  C   UNL     1     138.764 130.261 131.224  1.00  0.00     0.012 C 
ENDBRANCH   5  10
TORSDOF 2
ENDMDL
MODEL 6
REMARK VINA RESULT:     4.855      1.802      3.480
REMARK INTER + INTRA:           5.163
REMARK INTER:                   4.922
REMARK INTRA:                   0.241
REMARK UNBOUND:                -0.117
REMARK SMILES Cc1ccc(C(C)C)c(O)c1
REMARK SMILES IDX 1 1 2 2 11 3 9 4 5 5 4 6 3 7 10 8 6 10 7 11 8 12
REMARK H PARENT 10 9
REMARK Flexibility Score: inf
ROOT
ATOM      1  C   UNL     1     140.132 127.251 125.205  1.00  0.00     0.044 C 
ATOM      2  C   UNL     1     139.766 128.217 126.293  1.00  0.00    -0.047 A 
ATOM      3  C   UNL     1     138.686 127.946 127.144  1.00  0.00     0.049 A 
ATOM      4  C   UNL     1     138.313 128.862 128.141  1.00  0.00     0.119 A 
ATOM      5  C   UNL     1     139.022 130.078 128.285  1.00  0.00    -0.004 A 
ATOM      6  C   UNL     1     140.091 130.346 127.411  1.00  0.00     0.008 A 
ATOM      7  C   UNL     1     140.454 129.429 126.422  1.00  0.00     0.004 A 
ENDROOT
BRANCH   4   8
ATOM      8  O   UNL     1     137.240 128.557 128.978  1.00  0.00    -0.508 OA
ATOM      9  H   UNL     1     136.340 129.010 128.879  1.00  0.00     0.293 HD
ENDBRANCH   4   8
BRANCH   5  10
ATOM     10  C   UNL     1     138.664 131.109 129.348  1.00  0.00     0.017 C 
ATOM     11  C   UNL     1     138.528 130.473 130.736  1.00  0.00     0.012 C 
ATOM     12  C   UNL     1     139.650 132.283 129.359  1.00  0.00     0.012 C 
ENDBRANCH   5  10
TORSDOF 2
ENDMDL
MODEL 7
REMARK VINA RESULT:     5.328      1.820      2.805
REMARK INTER + INTRA:           5.678
REMARK INTER:                   4.759
REMARK INTRA:                   0.919
REMARK UNBOUND:                -0.117
REMARK SMILES Cc1ccc(C(C)C)c(O)c1
REMARK SMILES IDX 1 1 2 2 11 3 9 4 5 5 4 6 3 7 10 8 6 10 7 11 8 12
REMARK H PARENT 10 9
REMARK Flexibility Score: inf
ROOT
ATOM      1  C   UNL     1     137.054 130.353 132.357  1.00  0.00     0.044 C 
ATOM      2  C   UNL     1     137.626 130.215 130.978  1.00  0.00    -0.047 A 
ATOM      3  C   UNL     1     138.796 130.901 130.627  1.00  0.00     0.049 A 
ATOM      4  C   UNL     1     139.318 130.808 129.327  1.00  0.00     0.119 A 
ATOM      5  C   UNL     1     138.655 130.025 128.352  1.00  0.00    -0.004 A 
ATOM      6  C   UNL     1     137.470 129.358 128.713  1.00  0.00     0.008 A 
ATOM      7  C   UNL     1     136.958 129.457 130.009  1.00  0.00     0.004 A 
ENDROOT
BRANCH   4   8
ATOM      8  O   UNL     1     140.490 131.495 129.014  1.00  0.00    -0.508 OA
ATOM      9  H   UNL     1     140.829 131.566 128.061  1.00  0.00     0.293 HD
ENDBRANCH   4   8
BRANCH   5  10
ATOM     10  C   UNL     1     139.173 129.885 126.928  1.00  0.00     0.017 C 
ATOM     11  C   UNL     1     140.341 130.840 126.650  1.00  0.00     0.012 C 
ATOM     12  C   UNL     1     139.540 128.435 126.593  1.00  0.00     0.012 C 
ENDBRANCH   5  10
TORSDOF 2
ENDMDL
