MODEL 1
REMARK VINA RESULT:    -4.766      0.000      0.000
REMARK INTER + INTRA:          -6.072
REMARK INTER:                  -5.881
REMARK INTRA:                  -0.191
REMARK UNBOUND:                -0.191
REMARK SMILES COc1cc(-c2oc3cc(O)cc(O)c3c(=O)c2O)ccc1O
REMARK SMILES IDX 6 1 18 2 16 3 17 4 15 5 13 6 12 7 10 8 9 9 8 10 7 11 5 12
REMARK SMILES IDX 3 13 22 14 4 15 21 16 20 17 2 18 1 19 23 20 19 22 14 24
REMARK SMILES IDX 11 26
REMARK H PARENT 23 21 19 23 14 25 11 27
REMARK Flexibility Score: inf
ROOT
ATOM      1  C   UNL     1     -26.267  51.150  41.911  1.00  0.00     0.180 A 
ATOM      2  C   UNL     1     -25.404  51.910  41.105  1.00  0.00     0.208 A 
ATOM      3  C   UNL     1     -25.024  53.192  41.534  1.00  0.00     0.238 A 
ATOM      4  O   UNL     1     -24.208  53.846  40.834  1.00  0.00    -0.285 OA
ATOM      5  C   UNL     1     -25.526  53.704  42.755  1.00  0.00     0.111 A 
ATOM      6  C   UNL     1     -25.240  55.005  43.266  1.00  0.00     0.134 A 
ATOM      7  C   UNL     1     -25.685  55.357  44.547  1.00  0.00     0.093 A 
ATOM      8  C   UNL     1     -26.461  54.478  45.307  1.00  0.00     0.123 A 
ATOM      9  C   UNL     1     -26.796  53.228  44.790  1.00  0.00     0.094 A 
ATOM     10  C   UNL     1     -26.335  52.835  43.532  1.00  0.00     0.146 A 
ATOM     11  O   UNL     1     -26.669  51.631  43.082  1.00  0.00    -0.452 OA
ENDROOT
BRANCH   1  12
ATOM     12  C   UNL     1     -26.732  49.799  41.515  1.00  0.00     0.025 A 
ATOM     13  C   UNL     1     -26.991  47.428  42.049  1.00  0.00     0.161 A 
ATOM     14  C   UNL     1     -27.651  47.232  40.828  1.00  0.00     0.157 A 
ATOM     15  C   UNL     1     -26.539  48.718  42.390  1.00  0.00     0.062 A 
ATOM     16  C   UNL     1     -27.863  48.313  39.962  1.00  0.00     0.051 A 
ATOM     17  C   UNL     1     -27.413  49.589  40.305  1.00  0.00     0.016 A 
BRANCH  13  18
ATOM     18  O   UNL     1     -26.805  46.322  42.892  1.00  0.00    -0.493 OA
ATOM     19  C   UNL     1     -27.538  46.090  44.091  1.00  0.00     0.278 C 
ENDBRANCH  13  18
BRANCH  14  20
ATOM     20  O   UNL     1     -28.100  45.958  40.483  1.00  0.00    -0.504 OA
ATOM     21  H   UNL     1     -27.660  45.123  40.852  1.00  0.00     0.293 HD
ENDBRANCH  14  20
ENDBRANCH   1  12
BRANCH   2  22
ATOM     22  O   UNL     1     -24.903  51.377  39.914  1.00  0.00    -0.502 OA
ATOM     23  H   UNL     1     -25.157  51.744  39.005  1.00  0.00     0.293 HD
ENDBRANCH   2  22
BRANCH   6  24
ATOM     24  O   UNL     1     -24.552  55.991  42.552  1.00  0.00    -0.507 OA
ATOM     25  H   UNL     1     -24.149  56.820  42.962  1.00  0.00     0.293 HD
ENDBRANCH   6  24
BRANCH   8  26
ATOM     26  O   UNL     1     -26.913  54.842  46.573  1.00  0.00    -0.508 OA
ATOM     27  H   UNL     1     -27.830  55.251  46.712  1.00  0.00     0.293 HD
ENDBRANCH   8  26
TORSDOF 6
ENDMDL
MODEL 2
REMARK VINA RESULT:    -4.723      0.855      2.019
REMARK INTER + INTRA:          -6.019
REMARK INTER:                  -5.797
REMARK INTRA:                  -0.222
REMARK UNBOUND:                -0.191
REMARK SMILES COc1cc(-c2oc3cc(O)cc(O)c3c(=O)c2O)ccc1O
REMARK SMILES IDX 6 1 18 2 16 3 17 4 15 5 13 6 12 7 10 8 9 9 8 10 7 11 5 12
REMARK SMILES IDX 3 13 22 14 4 15 21 16 20 17 2 18 1 19 23 20 19 22 14 24
REMARK SMILES IDX 11 26
REMARK H PARENT 23 21 19 23 14 25 11 27
REMARK Flexibility Score: inf
ROOT
ATOM      1  C   UNL     1     -26.064  51.315  42.185  1.00  0.00     0.180 A 
ATOM      2  C   UNL     1     -25.065  51.992  41.467  1.00  0.00     0.208 A 
ATOM      3  C   UNL     1     -24.690  53.282  41.874  1.00  0.00     0.238 A 
ATOM      4  O   UNL     1     -23.756  53.862  41.261  1.00  0.00    -0.285 OA
ATOM      5  C   UNL     1     -25.331  53.886  42.983  1.00  0.00     0.111 A 
ATOM      6  C   UNL     1     -25.060  55.204  43.457  1.00  0.00     0.134 A 
ATOM      7  C   UNL     1     -25.661  55.649  44.641  1.00  0.00     0.093 A 
ATOM      8  C   UNL     1     -26.573  54.847  45.332  1.00  0.00     0.123 A 
ATOM      9  C   UNL     1     -26.889  53.582  44.843  1.00  0.00     0.094 A 
ATOM     10  C   UNL     1     -26.279  53.096  43.685  1.00  0.00     0.146 A 
ATOM     11  O   UNL     1     -26.601  51.880  43.260  1.00  0.00    -0.452 OA
ENDROOT
BRANCH   1  12
ATOM     12  C   UNL     1     -26.530  49.961  41.802  1.00  0.00     0.025 A 
ATOM     13  C   UNL     1     -27.580  48.489  40.155  1.00  0.00     0.161 A 
ATOM     14  C   UNL     1     -27.375  47.398  41.011  1.00  0.00     0.157 A 
ATOM     15  C   UNL     1     -27.148  49.770  40.555  1.00  0.00     0.062 A 
ATOM     16  C   UNL     1     -26.741  47.582  42.246  1.00  0.00     0.051 A 
ATOM     17  C   UNL     1     -26.315  48.853  42.637  1.00  0.00     0.016 A 
BRANCH  13  18
ATOM     18  O   UNL     1     -28.211  48.263  38.923  1.00  0.00    -0.493 OA
ATOM     19  C   UNL     1     -27.527  48.089  37.686  1.00  0.00     0.278 C 
ENDBRANCH  13  18
BRANCH  14  20
ATOM     20  O   UNL     1     -27.801  46.129  40.623  1.00  0.00    -0.504 OA
ATOM     21  H   UNL     1     -27.436  45.290  41.058  1.00  0.00     0.293 HD
ENDBRANCH  14  20
ENDBRANCH   1  12
BRANCH   2  22
ATOM     22  O   UNL     1     -24.429  51.369  40.389  1.00  0.00    -0.502 OA
ATOM     23  H   UNL     1     -24.727  51.505  39.430  1.00  0.00     0.293 HD
ENDBRANCH   2  22
BRANCH   6  24
ATOM     24  O   UNL     1     -24.236  56.118  42.793  1.00  0.00    -0.507 OA
ATOM     25  H   UNL     1     -23.418  55.871  42.257  1.00  0.00     0.293 HD
ENDBRANCH   6  24
BRANCH   8  26
ATOM     26  O   UNL     1     -27.178  55.304  46.500  1.00  0.00    -0.508 OA
ATOM     27  H   UNL     1     -28.143  55.083  46.720  1.00  0.00     0.293 HD
ENDBRANCH   8  26
TORSDOF 6
ENDMDL
MODEL 3
REMARK VINA RESULT:    -4.293      7.989      9.222
REMARK INTER + INTRA:          -5.489
REMARK INTER:                  -5.137
REMARK INTRA:                  -0.352
REMARK UNBOUND:                -0.191
REMARK SMILES COc1cc(-c2oc3cc(O)cc(O)c3c(=O)c2O)ccc1O
REMARK SMILES IDX 6 1 18 2 16 3 17 4 15 5 13 6 12 7 10 8 9 9 8 10 7 11 5 12
REMARK SMILES IDX 3 13 22 14 4 15 21 16 20 17 2 18 1 19 23 20 19 22 14 24
REMARK SMILES IDX 11 26
REMARK H PARENT 23 21 19 23 14 25 11 27
REMARK Flexibility Score: inf
ROOT
ATOM      1  C   UNL     1     -27.136  55.196  34.300  1.00  0.00     0.180 A 
ATOM      2  C   UNL     1     -27.370  55.958  33.144  1.00  0.00     0.208 A 
ATOM      3  C   UNL     1     -27.708  57.313  33.278  1.00  0.00     0.238 A 
ATOM      4  O   UNL     1     -27.862  58.004  32.237  1.00  0.00    -0.285 OA
ATOM      5  C   UNL     1     -27.824  57.886  34.568  1.00  0.00     0.111 A 
ATOM      6  C   UNL     1     -28.200  59.239  34.823  1.00  0.00     0.134 A 
ATOM      7  C   UNL     1     -28.156  59.733  36.133  1.00  0.00     0.093 A 
ATOM      8  C   UNL     1     -27.813  58.903  37.204  1.00  0.00     0.123 A 
ATOM      9  C   UNL     1     -27.502  57.566  36.971  1.00  0.00     0.094 A 
ATOM     10  C   UNL     1     -27.502  57.055  35.672  1.00  0.00     0.146 A 
ATOM     11  O   UNL     1     -27.189  55.776  35.493  1.00  0.00    -0.452 OA
ENDROOT
BRANCH   1  12
ATOM     12  C   UNL     1     -26.800  53.753  34.240  1.00  0.00     0.025 A 
ATOM     13  C   UNL     1     -27.522  51.441  33.911  1.00  0.00     0.161 A 
ATOM     14  C   UNL     1     -26.195  51.013  34.058  1.00  0.00     0.157 A 
ATOM     15  C   UNL     1     -27.817  52.816  33.996  1.00  0.00     0.062 A 
ATOM     16  C   UNL     1     -25.176  51.947  34.281  1.00  0.00     0.051 A 
ATOM     17  C   UNL     1     -25.474  53.309  34.364  1.00  0.00     0.016 A 
BRANCH  13  18
ATOM     18  O   UNL     1     -28.514  50.475  33.681  1.00  0.00    -0.493 OA
ATOM     19  C   UNL     1     -29.910  50.752  33.617  1.00  0.00     0.278 C 
ENDBRANCH  13  18
BRANCH  14  20
ATOM     20  O   UNL     1     -25.896  49.654  33.976  1.00  0.00    -0.504 OA
ATOM     21  H   UNL     1     -26.209  49.088  33.196  1.00  0.00     0.293 HD
ENDBRANCH  14  20
ENDBRANCH   1  12
BRANCH   2  22
ATOM     22  O   UNL     1     -27.228  55.378  31.880  1.00  0.00    -0.502 OA
ATOM     23  H   UNL     1     -27.133  55.930  31.035  1.00  0.00     0.293 HD
ENDBRANCH   2  22
BRANCH   6  24
ATOM     24  O   UNL     1     -28.647  60.124  33.837  1.00  0.00    -0.507 OA
ATOM     25  H   UNL     1     -28.222  61.015  33.630  1.00  0.00     0.293 HD
ENDBRANCH   6  24
BRANCH   8  26
ATOM     26  O   UNL     1     -27.787  59.399  38.506  1.00  0.00    -0.508 OA
ATOM     27  H   UNL     1     -26.920  59.681  38.949  1.00  0.00     0.293 HD
ENDBRANCH   8  26
TORSDOF 6
ENDMDL
MODEL 4
REMARK VINA RESULT:    -4.134      1.738      7.466
REMARK INTER + INTRA:          -5.292
REMARK INTER:                  -4.973
REMARK INTRA:                  -0.319
REMARK UNBOUND:                -0.191
REMARK SMILES COc1cc(-c2oc3cc(O)cc(O)c3c(=O)c2O)ccc1O
REMARK SMILES IDX 6 1 18 2 16 3 17 4 15 5 13 6 12 7 10 8 9 9 8 10 7 11 5 12
REMARK SMILES IDX 3 13 22 14 4 15 21 16 20 17 2 18 1 19 23 20 19 22 14 24
REMARK SMILES IDX 11 26
REMARK H PARENT 23 21 19 23 14 25 11 27
REMARK Flexibility Score: inf
ROOT
ATOM      1  C   UNL     1     -25.943  51.706  43.759  1.00  0.00     0.180 A 
ATOM      2  C   UNL     1     -25.633  50.601  44.570  1.00  0.00     0.208 A 
ATOM      3  C   UNL     1     -25.762  49.309  44.040  1.00  0.00     0.238 A 
ATOM      4  O   UNL     1     -25.431  48.326  44.753  1.00  0.00    -0.285 OA
ATOM      5  C   UNL     1     -26.216  49.135  42.710  1.00  0.00     0.111 A 
ATOM      6  C   UNL     1     -26.423  47.870  42.083  1.00  0.00     0.134 A 
ATOM      7  C   UNL     1     -26.748  47.819  40.722  1.00  0.00     0.093 A 
ATOM      8  C   UNL     1     -26.939  48.989  39.982  1.00  0.00     0.123 A 
ATOM      9  C   UNL     1     -26.797  50.228  40.601  1.00  0.00     0.094 A 
ATOM     10  C   UNL     1     -26.437  50.311  41.947  1.00  0.00     0.146 A 
ATOM     11  O   UNL     1     -26.303  51.514  42.495  1.00  0.00    -0.452 OA
ENDROOT
BRANCH   1  12
ATOM     12  C   UNL     1     -25.854  53.099  44.256  1.00  0.00     0.025 A 
ATOM     13  C   UNL     1     -24.791  55.299  44.160  1.00  0.00     0.161 A 
ATOM     14  C   UNL     1     -25.692  55.768  45.127  1.00  0.00     0.157 A 
ATOM     15  C   UNL     1     -24.883  53.962  43.723  1.00  0.00     0.062 A 
ATOM     16  C   UNL     1     -26.674  54.916  45.645  1.00  0.00     0.051 A 
ATOM     17  C   UNL     1     -26.760  53.592  45.208  1.00  0.00     0.016 A 
BRANCH  13  18
ATOM     18  O   UNL     1     -23.826  56.186  43.659  1.00  0.00    -0.493 OA
ATOM     19  C   UNL     1     -23.837  56.730  42.343  1.00  0.00     0.278 C 
ENDBRANCH  13  18
BRANCH  14  20
ATOM     20  O   UNL     1     -25.605  57.089  45.565  1.00  0.00    -0.504 OA
ATOM     21  H   UNL     1     -26.350  57.520  46.100  1.00  0.00     0.293 HD
ENDBRANCH  14  20
ENDBRANCH   1  12
BRANCH   2  22
ATOM     22  O   UNL     1     -25.166  50.796  45.874  1.00  0.00    -0.502 OA
ATOM     23  H   UNL     1     -25.719  51.256  46.587  1.00  0.00     0.293 HD
ENDBRANCH   2  22
BRANCH   6  24
ATOM     24  O   UNL     1     -26.348  46.645  42.753  1.00  0.00    -0.507 OA
ATOM     25  H   UNL     1     -27.030  46.311  43.416  1.00  0.00     0.293 HD
ENDBRANCH   6  24
BRANCH   8  26
ATOM     26  O   UNL     1     -27.278  48.929  38.632  1.00  0.00    -0.508 OA
ATOM     27  H   UNL     1     -26.686  49.336  37.917  1.00  0.00     0.293 HD
ENDBRANCH   8  26
TORSDOF 6
ENDMDL
MODEL 5
REMARK VINA RESULT:    -4.109      1.839      7.351
REMARK INTER + INTRA:          -5.261
REMARK INTER:                  -5.222
REMARK INTRA:                  -0.039
REMARK UNBOUND:                -0.191
REMARK SMILES COc1cc(-c2oc3cc(O)cc(O)c3c(=O)c2O)ccc1O
REMARK SMILES IDX 6 1 18 2 16 3 17 4 15 5 13 6 12 7 10 8 9 9 8 10 7 11 5 12
REMARK SMILES IDX 3 13 22 14 4 15 21 16 20 17 2 18 1 19 23 20 19 22 14 24
REMARK SMILES IDX 11 26
REMARK H PARENT 23 21 19 23 14 25 11 27
REMARK Flexibility Score: inf
ROOT
ATOM      1  C   UNL     1     -25.893  51.902  43.887  1.00  0.00     0.180 A 
ATOM      2  C   UNL     1     -25.567  50.825  44.727  1.00  0.00     0.208 A 
ATOM      3  C   UNL     1     -25.694  49.516  44.236  1.00  0.00     0.238 A 
ATOM      4  O   UNL     1     -25.348  48.557  44.974  1.00  0.00    -0.285 OA
ATOM      5  C   UNL     1     -26.161  49.300  42.917  1.00  0.00     0.111 A 
ATOM      6  C   UNL     1     -26.366  48.016  42.330  1.00  0.00     0.134 A 
ATOM      7  C   UNL     1     -26.707  47.922  40.975  1.00  0.00     0.093 A 
ATOM      8  C   UNL     1     -26.913  49.069  40.203  1.00  0.00     0.123 A 
ATOM      9  C   UNL     1     -26.773  50.327  40.783  1.00  0.00     0.094 A 
ATOM     10  C   UNL     1     -26.398  50.452  42.123  1.00  0.00     0.146 A 
ATOM     11  O   UNL     1     -26.266  51.671  42.633  1.00  0.00    -0.452 OA
ENDROOT
BRANCH   1  12
ATOM     12  C   UNL     1     -25.809  53.311  44.341  1.00  0.00     0.025 A 
ATOM     13  C   UNL     1     -26.302  55.003  46.035  1.00  0.00     0.161 A 
ATOM     14  C   UNL     1     -25.618  55.958  45.269  1.00  0.00     0.157 A 
ATOM     15  C   UNL     1     -26.387  53.677  45.567  1.00  0.00     0.062 A 
ATOM     16  C   UNL     1     -25.023  55.592  44.055  1.00  0.00     0.051 A 
ATOM     17  C   UNL     1     -25.111  54.275  43.597  1.00  0.00     0.016 A 
BRANCH  13  18
ATOM     18  O   UNL     1     -26.878  55.408  47.249  1.00  0.00    -0.493 OA
ATOM     19  C   UNL     1     -26.432  54.986  48.533  1.00  0.00     0.278 C 
ENDBRANCH  13  18
BRANCH  14  20
ATOM     20  O   UNL     1     -25.532  57.273  45.724  1.00  0.00    -0.504 OA
ATOM     21  H   UNL     1     -26.185  57.985  45.418  1.00  0.00     0.293 HD
ENDBRANCH  14  20
ENDBRANCH   1  12
BRANCH   2  22
ATOM     22  O   UNL     1     -25.087  51.061  46.018  1.00  0.00    -0.502 OA
ATOM     23  H   UNL     1     -25.250  51.932  46.508  1.00  0.00     0.293 HD
ENDBRANCH   2  22
BRANCH   6  24
ATOM     24  O   UNL     1     -26.276  46.811  43.035  1.00  0.00    -0.507 OA
ATOM     25  H   UNL     1     -25.496  46.543  43.616  1.00  0.00     0.293 HD
ENDBRANCH   6  24
BRANCH   8  26
ATOM     26  O   UNL     1     -27.267  48.966  38.859  1.00  0.00    -0.508 OA
ATOM     27  H   UNL     1     -27.897  49.630  38.425  1.00  0.00     0.293 HD
ENDBRANCH   8  26
TORSDOF 6
ENDMDL
MODEL 6
REMARK VINA RESULT:    -4.091      2.370      7.186
REMARK INTER + INTRA:          -5.238
REMARK INTER:                  -4.854
REMARK INTRA:                  -0.385
REMARK UNBOUND:                -0.191
REMARK SMILES COc1cc(-c2oc3cc(O)cc(O)c3c(=O)c2O)ccc1O
REMARK SMILES IDX 6 1 18 2 16 3 17 4 15 5 13 6 12 7 10 8 9 9 8 10 7 11 5 12
REMARK SMILES IDX 3 13 22 14 4 15 21 16 20 17 2 18 1 19 23 20 19 22 14 24
REMARK SMILES IDX 11 26
REMARK H PARENT 23 21 19 23 14 25 11 27
REMARK Flexibility Score: inf
ROOT
ATOM      1  C   UNL     1     -26.699  48.891  41.880  1.00  0.00     0.180 A 
ATOM      2  C   UNL     1     -27.181  49.278  40.619  1.00  0.00     0.208 A 
ATOM      3  C   UNL     1     -28.169  48.498  39.998  1.00  0.00     0.238 A 
ATOM      4  O   UNL     1     -28.636  48.879  38.893  1.00  0.00    -0.285 OA
ATOM      5  C   UNL     1     -28.651  47.331  40.639  1.00  0.00     0.111 A 
ATOM      6  C   UNL     1     -29.621  46.444  40.084  1.00  0.00     0.134 A 
ATOM      7  C   UNL     1     -30.120  45.391  40.862  1.00  0.00     0.093 A 
ATOM      8  C   UNL     1     -29.634  45.156  42.152  1.00  0.00     0.123 A 
ATOM      9  C   UNL     1     -28.644  45.981  42.679  1.00  0.00     0.094 A 
ATOM     10  C   UNL     1     -28.154  47.060  41.941  1.00  0.00     0.146 A 
ATOM     11  O   UNL     1     -27.217  47.828  42.485  1.00  0.00    -0.452 OA
ENDROOT
BRANCH   1  12
ATOM     12  C   UNL     1     -25.640  49.650  42.587  1.00  0.00     0.025 A 
ATOM     13  C   UNL     1     -25.013  51.453  44.115  1.00  0.00     0.161 A 
ATOM     14  C   UNL     1     -23.668  51.077  43.994  1.00  0.00     0.157 A 
ATOM     15  C   UNL     1     -25.997  50.728  43.412  1.00  0.00     0.062 A 
ATOM     16  C   UNL     1     -23.311  49.989  43.187  1.00  0.00     0.051 A 
ATOM     17  C   UNL     1     -24.290  49.275  42.494  1.00  0.00     0.016 A 
BRANCH  13  18
ATOM     18  O   UNL     1     -25.331  52.544  44.938  1.00  0.00    -0.493 OA
ATOM     19  C   UNL     1     -26.566  53.252  44.897  1.00  0.00     0.278 C 
ENDBRANCH  13  18
BRANCH  14  20
ATOM     20  O   UNL     1     -22.689  51.791  44.684  1.00  0.00    -0.504 OA
ATOM     21  H   UNL     1     -22.789  52.781  44.875  1.00  0.00     0.293 HD
ENDBRANCH  14  20
ENDBRANCH   1  12
BRANCH   2  22
ATOM     22  O   UNL     1     -26.707  50.446  40.014  1.00  0.00    -0.502 OA
ATOM     23  H   UNL     1     -27.009  51.369  40.303  1.00  0.00     0.293 HD
ENDBRANCH   2  22
BRANCH   6  24
ATOM     24  O   UNL     1     -30.104  46.534  38.775  1.00  0.00    -0.507 OA
ATOM     25  H   UNL     1     -30.267  45.746  38.168  1.00  0.00     0.293 HD
ENDBRANCH   6  24
BRANCH   8  26
ATOM     26  O   UNL     1     -30.125  44.097  42.913  1.00  0.00    -0.508 OA
ATOM     27  H   UNL     1     -31.116  43.990  43.096  1.00  0.00     0.293 HD
ENDBRANCH   8  26
TORSDOF 6
ENDMDL
MODEL 7
REMARK VINA RESULT:    -4.066      7.789      9.124
REMARK INTER + INTRA:          -5.208
REMARK INTER:                  -4.816
REMARK INTRA:                  -0.392
REMARK UNBOUND:                -0.191
REMARK SMILES COc1cc(-c2oc3cc(O)cc(O)c3c(=O)c2O)ccc1O
REMARK SMILES IDX 6 1 18 2 16 3 17 4 15 5 13 6 12 7 10 8 9 9 8 10 7 11 5 12
REMARK SMILES IDX 3 13 22 14 4 15 21 16 20 17 2 18 1 19 23 20 19 22 14 24
REMARK SMILES IDX 11 26
REMARK H PARENT 23 21 19 23 14 25 11 27
REMARK Flexibility Score: inf
ROOT
ATOM      1  C   UNL     1     -27.226  53.704  33.809  1.00  0.00     0.180 A 
ATOM      2  C   UNL     1     -27.343  54.263  32.526  1.00  0.00     0.208 A 
ATOM      3  C   UNL     1     -27.494  55.653  32.399  1.00  0.00     0.238 A 
ATOM      4  O   UNL     1     -27.543  56.153  31.245  1.00  0.00    -0.285 OA
ATOM      5  C   UNL     1     -27.542  56.465  33.558  1.00  0.00     0.111 A 
ATOM      6  C   UNL     1     -27.733  57.879  33.549  1.00  0.00     0.134 A 
ATOM      7  C   UNL     1     -27.633  58.597  34.748  1.00  0.00     0.093 A 
ATOM      8  C   UNL     1     -27.416  57.942  35.964  1.00  0.00     0.123 A 
ATOM      9  C   UNL     1     -27.289  56.556  35.989  1.00  0.00     0.094 A 
ATOM     10  C   UNL     1     -27.346  55.817  34.806  1.00  0.00     0.146 A 
ATOM     11  O   UNL     1     -27.210  54.498  34.874  1.00  0.00    -0.452 OA
ENDROOT
BRANCH   1  12
ATOM     12  C   UNL     1     -27.089  52.244  34.024  1.00  0.00     0.025 A 
ATOM     13  C   UNL     1     -25.657  50.313  34.471  1.00  0.00     0.161 A 
ATOM     14  C   UNL     1     -26.790  49.488  34.497  1.00  0.00     0.157 A 
ATOM     15  C   UNL     1     -25.815  51.695  34.241  1.00  0.00     0.062 A 
ATOM     16  C   UNL     1     -28.064  50.037  34.301  1.00  0.00     0.051 A 
ATOM     17  C   UNL     1     -28.214  51.406  34.074  1.00  0.00     0.016 A 
BRANCH  13  18
ATOM     18  O   UNL     1     -24.399  49.728  34.679  1.00  0.00    -0.493 OA
ATOM     19  C   UNL     1     -23.170  50.447  34.711  1.00  0.00     0.278 C 
ENDBRANCH  13  18
BRANCH  14  20
ATOM     20  O   UNL     1     -26.642  48.121  34.722  1.00  0.00    -0.504 OA
ATOM     21  H   UNL     1     -25.744  47.661  34.623  1.00  0.00     0.293 HD
ENDBRANCH  14  20
ENDBRANCH   1  12
BRANCH   2  22
ATOM     22  O   UNL     1     -27.271  53.446  31.394  1.00  0.00    -0.502 OA
ATOM     23  H   UNL     1     -27.347  53.812  30.453  1.00  0.00     0.293 HD
ENDBRANCH   2  22
BRANCH   6  24
ATOM     24  O   UNL     1     -28.046  58.618  32.404  1.00  0.00    -0.507 OA
ATOM     25  H   UNL     1     -27.439  58.723  31.605  1.00  0.00     0.293 HD
ENDBRANCH   6  24
BRANCH   8  26
ATOM     26  O   UNL     1     -27.334  58.663  37.154  1.00  0.00    -0.508 OA
ATOM     27  H   UNL     1     -26.609  58.478  37.837  1.00  0.00     0.293 HD
ENDBRANCH   8  26
TORSDOF 6
ENDMDL
MODEL 8
REMARK VINA RESULT:    -4.049      1.765      7.149
REMARK INTER + INTRA:          -5.187
REMARK INTER:                  -4.979
REMARK INTRA:                  -0.208
REMARK UNBOUND:                -0.191
REMARK SMILES COc1cc(-c2oc3cc(O)cc(O)c3c(=O)c2O)ccc1O
REMARK SMILES IDX 6 1 18 2 16 3 17 4 15 5 13 6 12 7 10 8 9 9 8 10 7 11 5 12
REMARK SMILES IDX 3 13 22 14 4 15 21 16 20 17 2 18 1 19 23 20 19 22 14 24
REMARK SMILES IDX 11 26
REMARK H PARENT 23 21 19 23 14 25 11 27
REMARK Flexibility Score: inf
ROOT
ATOM      1  C   UNL     1     -25.878  51.988  43.463  1.00  0.00     0.180 A 
ATOM      2  C   UNL     1     -26.087  51.819  42.085  1.00  0.00     0.208 A 
ATOM      3  C   UNL     1     -26.124  50.520  41.555  1.00  0.00     0.238 A 
ATOM      4  O   UNL     1     -26.366  50.373  40.329  1.00  0.00    -0.285 OA
ATOM      5  C   UNL     1     -25.935  49.406  42.409  1.00  0.00     0.111 A 
ATOM      6  C   UNL     1     -25.913  48.047  41.974  1.00  0.00     0.134 A 
ATOM      7  C   UNL     1     -25.849  47.019  42.924  1.00  0.00     0.093 A 
ATOM      8  C   UNL     1     -25.741  47.304  44.288  1.00  0.00     0.123 A 
ATOM      9  C   UNL     1     -25.702  48.628  44.716  1.00  0.00     0.094 A 
ATOM     10  C   UNL     1     -25.801  49.674  43.796  1.00  0.00     0.146 A 
ATOM     11  O   UNL     1     -25.769  50.923  44.248  1.00  0.00    -0.452 OA
ENDROOT
BRANCH   1  12
ATOM     12  C   UNL     1     -25.802  53.329  44.091  1.00  0.00     0.025 A 
ATOM     13  C   UNL     1     -24.709  55.509  44.260  1.00  0.00     0.161 A 
ATOM     14  C   UNL     1     -25.658  55.903  45.213  1.00  0.00     0.157 A 
ATOM     15  C   UNL     1     -24.791  54.220  43.696  1.00  0.00     0.062 A 
ATOM     16  C   UNL     1     -26.679  55.024  45.595  1.00  0.00     0.051 A 
ATOM     17  C   UNL     1     -26.755  53.748  45.033  1.00  0.00     0.016 A 
BRANCH  13  18
ATOM     18  O   UNL     1     -23.706  56.422  43.898  1.00  0.00    -0.493 OA
ATOM     19  C   UNL     1     -23.610  57.052  42.625  1.00  0.00     0.278 C 
ENDBRANCH  13  18
BRANCH  14  20
ATOM     20  O   UNL     1     -25.582  57.176  45.776  1.00  0.00    -0.504 OA
ATOM     21  H   UNL     1     -25.417  57.999  45.208  1.00  0.00     0.293 HD
ENDBRANCH  14  20
ENDBRANCH   1  12
BRANCH   2  22
ATOM     22  O   UNL     1     -26.293  52.932  41.263  1.00  0.00    -0.502 OA
ATOM     23  H   UNL     1     -25.543  53.561  41.002  1.00  0.00     0.293 HD
ENDBRANCH   2  22
BRANCH   6  24
ATOM     24  O   UNL     1     -25.923  47.656  40.632  1.00  0.00    -0.507 OA
ATOM     25  H   UNL     1     -25.637  48.241  39.861  1.00  0.00     0.293 HD
ENDBRANCH   6  24
BRANCH   8  26
ATOM     26  O   UNL     1     -25.663  46.276  45.224  1.00  0.00    -0.508 OA
ATOM     27  H   UNL     1     -26.315  45.500  45.216  1.00  0.00     0.293 HD
ENDBRANCH   8  26
TORSDOF 6
ENDMDL
MODEL 9
REMARK VINA RESULT:    -3.938      2.173      2.869
REMARK INTER + INTRA:          -5.050
REMARK INTER:                  -4.727
REMARK INTRA:                  -0.323
REMARK UNBOUND:                -0.191
REMARK SMILES COc1cc(-c2oc3cc(O)cc(O)c3c(=O)c2O)ccc1O
REMARK SMILES IDX 6 1 18 2 16 3 17 4 15 5 13 6 12 7 10 8 9 9 8 10 7 11 5 12
REMARK SMILES IDX 3 13 22 14 4 15 21 16 20 17 2 18 1 19 23 20 19 22 14 24
REMARK SMILES IDX 11 26
REMARK H PARENT 23 21 19 23 14 25 11 27
REMARK Flexibility Score: inf
ROOT
ATOM      1  C   UNL     1     -25.842  50.062  43.192  1.00  0.00     0.180 A 
ATOM      2  C   UNL     1     -24.757  49.670  43.993  1.00  0.00     0.208 A 
ATOM      3  C   UNL     1     -24.324  50.523  45.019  1.00  0.00     0.238 A 
ATOM      4  O   UNL     1     -23.387  50.142  45.768  1.00  0.00    -0.285 OA
ATOM      5  C   UNL     1     -24.972  51.766  45.222  1.00  0.00     0.111 A 
ATOM      6  C   UNL     1     -24.591  52.727  46.206  1.00  0.00     0.134 A 
ATOM      7  C   UNL     1     -25.384  53.864  46.404  1.00  0.00     0.093 A 
ATOM      8  C   UNL     1     -26.507  54.107  45.607  1.00  0.00     0.123 A 
ATOM      9  C   UNL     1     -26.851  53.204  44.605  1.00  0.00     0.094 A 
ATOM     10  C   UNL     1     -26.101  52.043  44.408  1.00  0.00     0.146 A 
ATOM     11  O   UNL     1     -26.471  51.204  43.448  1.00  0.00    -0.452 OA
ENDROOT
BRANCH   1  12
ATOM     12  C   UNL     1     -26.341  49.226  42.074  1.00  0.00     0.025 A 
ATOM     13  C   UNL     1     -27.610  47.280  41.311  1.00  0.00     0.161 A 
ATOM     14  C   UNL     1     -27.357  47.646  39.981  1.00  0.00     0.157 A 
ATOM     15  C   UNL     1     -27.104  48.081  42.355  1.00  0.00     0.062 A 
ATOM     16  C   UNL     1     -26.613  48.799  39.698  1.00  0.00     0.051 A 
ATOM     17  C   UNL     1     -26.115  49.588  40.737  1.00  0.00     0.016 A 
BRANCH  13  18
ATOM     18  O   UNL     1     -28.365  46.123  41.553  1.00  0.00    -0.493 OA
ATOM     19  C   UNL     1     -29.746  46.119  41.902  1.00  0.00     0.278 C 
ENDBRANCH  13  18
BRANCH  14  20
ATOM     20  O   UNL     1     -27.853  46.858  38.944  1.00  0.00    -0.504 OA
ATOM     21  H   UNL     1     -28.847  46.789  38.758  1.00  0.00     0.293 HD
ENDBRANCH  14  20
ENDBRANCH   1  12
BRANCH   2  22
ATOM     22  O   UNL     1     -24.146  48.429  43.789  1.00  0.00    -0.502 OA
ATOM     23  H   UNL     1     -24.526  47.732  43.160  1.00  0.00     0.293 HD
ENDBRANCH   2  22
BRANCH   6  24
ATOM     24  O   UNL     1     -23.438  52.627  46.991  1.00  0.00    -0.507 OA
ATOM     25  H   UNL     1     -23.299  53.100  47.870  1.00  0.00     0.293 HD
ENDBRANCH   6  24
BRANCH   8  26
ATOM     26  O   UNL     1     -27.281  55.249  45.800  1.00  0.00    -0.508 OA
ATOM     27  H   UNL     1     -27.616  55.513  46.720  1.00  0.00     0.293 HD
ENDBRANCH   8  26
TORSDOF 6
ENDMDL
