MODEL 1
REMARK VINA RESULT:    19.021      0.000      0.000
REMARK INTER + INTRA:          33.452
REMARK INTER:                  29.029
REMARK INTRA:                   4.423
REMARK UNBOUND:                 4.423
REMARK SMILES COc1cc(C=CC(=O)CC(=O)C=Cc2ccc(O)c(OC)c2)ccc1O
REMARK SMILES IDX 10 1 8 2 9 3 7 4 6 5 5 6 3 7 26 8 4 9 25 10 24 11 2 12 1 13
REMARK SMILES IDX 27 14 11 16 12 17 13 18 14 19 15 20 23 21 16 22 20 23 17 24
REMARK SMILES IDX 18 25 21 26 22 27 19 28
REMARK H PARENT 27 15 19 29
REMARK Flexibility Score: inf
ROOT
ATOM      1  C   UNL     1     -39.588  24.283   6.480  1.00  0.00     0.160 C 
ENDROOT
BRANCH   1   2
ATOM      2  C   UNL     1     -38.340  24.686   7.206  1.00  0.00     0.163 C 
ATOM      3  O   UNL     1     -38.037  25.910   7.269  1.00  0.00    -0.294 OA
BRANCH   2   4
ATOM      4  C   UNL     1     -37.513  23.658   7.878  1.00  0.00     0.048 C 
ATOM      5  C   UNL     1     -36.188  23.503   7.722  1.00  0.00     0.012 C 
BRANCH   5   6
ATOM      6  C   UNL     1     -35.358  24.196   6.711  1.00  0.00    -0.022 A 
ATOM      7  C   UNL     1     -33.945  26.099   6.111  1.00  0.00     0.161 A 
ATOM      8  C   UNL     1     -33.659  25.489   4.877  1.00  0.00     0.157 A 
ATOM      9  C   UNL     1     -34.789  25.439   7.030  1.00  0.00     0.058 A 
ATOM     10  C   UNL     1     -34.208  24.237   4.565  1.00  0.00     0.051 A 
ATOM     11  C   UNL     1     -35.044  23.588   5.480  1.00  0.00     0.012 A 
BRANCH   7  12
ATOM     12  O   UNL     1     -33.377  27.355   6.386  1.00  0.00    -0.493 OA
ATOM     13  C   UNL     1     -32.886  28.255   5.393  1.00  0.00     0.278 C 
ENDBRANCH   7  12
BRANCH   8  14
ATOM     14  O   UNL     1     -32.823  26.133   3.962  1.00  0.00    -0.504 OA
ATOM     15  H   UNL     1     -32.609  27.123   4.041  1.00  0.00     0.293 HD
ENDBRANCH   8  14
ENDBRANCH   5   6
ENDBRANCH   2   4
ENDBRANCH   1   2
BRANCH   1  16
ATOM     16  C   UNL     1     -39.614  22.797   6.287  1.00  0.00     0.163 C 
ATOM     17  O   UNL     1     -40.107  22.069   7.195  1.00  0.00    -0.294 OA
BRANCH  16  18
ATOM     18  C   UNL     1     -39.114  22.206   5.024  1.00  0.00     0.048 C 
ATOM     19  C   UNL     1     -38.792  22.896   3.919  1.00  0.00     0.012 C 
BRANCH  19  20
ATOM     20  C   UNL     1     -39.065  24.335   3.694  1.00  0.00    -0.022 A 
ATOM     21  C   UNL     1     -38.669  24.924   2.483  1.00  0.00     0.058 A 
ATOM     22  C   UNL     1     -39.808  25.090   4.619  1.00  0.00     0.012 A 
ATOM     23  C   UNL     1     -38.976  26.274   2.208  1.00  0.00     0.161 A 
ATOM     24  C   UNL     1     -40.122  26.427   4.347  1.00  0.00     0.051 A 
ATOM     25  C   UNL     1     -39.705  27.020   3.148  1.00  0.00     0.157 A 
BRANCH  23  26
ATOM     26  O   UNL     1     -38.587  26.901   1.012  1.00  0.00    -0.493 OA
ATOM     27  C   UNL     1     -37.310  26.742   0.401  1.00  0.00     0.278 C 
ENDBRANCH  23  26
BRANCH  25  28
ATOM     28  O   UNL     1     -40.015  28.355   2.882  1.00  0.00    -0.504 OA
ATOM     29  H   UNL     1     -40.817  28.614   2.316  1.00  0.00     0.293 HD
ENDBRANCH  25  28
ENDBRANCH  19  20
ENDBRANCH  16  18
ENDBRANCH   1  16
TORSDOF 10
ENDMDL
MODEL 2
REMARK VINA RESULT:    20.956      1.610      5.776
REMARK INTER + INTRA:          36.405
REMARK INTER:                  34.611
REMARK INTRA:                   1.794
REMARK UNBOUND:                 4.423
REMARK SMILES COc1cc(C=CC(=O)CC(=O)C=Cc2ccc(O)c(OC)c2)ccc1O
REMARK SMILES IDX 10 1 8 2 9 3 7 4 6 5 5 6 3 7 26 8 4 9 25 10 24 11 2 12 1 13
REMARK SMILES IDX 27 14 11 16 12 17 13 18 14 19 15 20 23 21 16 22 20 23 17 24
REMARK SMILES IDX 18 25 21 26 22 27 19 28
REMARK H PARENT 27 15 19 29
REMARK Flexibility Score: inf
ROOT
ATOM      1  C   UNL     1     -37.513  23.838   6.038  1.00  0.00     0.160 C 
ENDROOT
BRANCH   1   2
ATOM      2  C   UNL     1     -38.246  22.794   6.826  1.00  0.00     0.163 C 
ATOM      3  O   UNL     1     -37.991  22.664   8.055  1.00  0.00    -0.294 OA
BRANCH   2   4
ATOM      4  C   UNL     1     -39.289  21.972   6.171  1.00  0.00     0.048 C 
ATOM      5  C   UNL     1     -40.052  22.364   5.138  1.00  0.00     0.012 C 
BRANCH   5   6
ATOM      6  C   UNL     1     -40.123  23.742   4.599  1.00  0.00    -0.022 A 
ATOM      7  C   UNL     1     -40.116  26.152   5.009  1.00  0.00     0.161 A 
ATOM      8  C   UNL     1     -40.117  26.380   3.622  1.00  0.00     0.157 A 
ATOM      9  C   UNL     1     -40.107  24.825   5.492  1.00  0.00     0.058 A 
ATOM     10  C   UNL     1     -40.111  25.299   2.729  1.00  0.00     0.051 A 
ATOM     11  C   UNL     1     -40.102  23.987   3.213  1.00  0.00     0.012 A 
BRANCH   7  12
ATOM     12  O   UNL     1     -40.125  27.261   5.871  1.00  0.00    -0.493 OA
ATOM     13  C   UNL     1     -39.229  27.438   6.969  1.00  0.00     0.278 C 
ENDBRANCH   7  12
BRANCH   8  14
ATOM     14  O   UNL     1     -40.123  27.689   3.135  1.00  0.00    -0.504 OA
ATOM     15  H   UNL     1     -40.878  28.038   2.552  1.00  0.00     0.293 HD
ENDBRANCH   8  14
ENDBRANCH   5   6
ENDBRANCH   2   4
ENDBRANCH   1   2
BRANCH   1  16
ATOM     16  C   UNL     1     -36.682  24.685   6.956  1.00  0.00     0.163 C 
ATOM     17  O   UNL     1     -36.998  25.897   7.124  1.00  0.00    -0.294 OA
BRANCH  16  18
ATOM     18  C   UNL     1     -35.544  24.084   7.688  1.00  0.00     0.048 C 
ATOM     19  C   UNL     1     -34.321  24.626   7.799  1.00  0.00     0.012 C 
BRANCH  19  20
ATOM     20  C   UNL     1     -33.834  25.808   7.051  1.00  0.00    -0.022 A 
ATOM     21  C   UNL     1     -33.509  25.669   5.692  1.00  0.00     0.058 A 
ATOM     22  C   UNL     1     -33.796  27.083   7.643  1.00  0.00     0.012 A 
ATOM     23  C   UNL     1     -33.110  26.789   4.932  1.00  0.00     0.161 A 
ATOM     24  C   UNL     1     -33.409  28.198   6.891  1.00  0.00     0.051 A 
ATOM     25  C   UNL     1     -33.062  28.054   5.541  1.00  0.00     0.157 A 
BRANCH  23  26
ATOM     26  O   UNL     1     -32.767  26.688   3.573  1.00  0.00    -0.493 OA
ATOM     27  C   UNL     1     -33.469  27.338   2.517  1.00  0.00     0.278 C 
ENDBRANCH  23  26
BRANCH  25  28
ATOM     28  O   UNL     1     -32.671  29.167   4.795  1.00  0.00    -0.504 OA
ATOM     29  H   UNL     1     -31.730  29.544   4.853  1.00  0.00     0.293 HD
ENDBRANCH  25  28
ENDBRANCH  19  20
ENDBRANCH  16  18
ENDBRANCH   1  16
TORSDOF 10
ENDMDL
