MODEL 1
REMARK VINA RESULT:    -3.457      0.000      0.000
REMARK INTER + INTRA:          -4.690
REMARK INTER:                  -4.467
REMARK INTRA:                  -0.222
REMARK UNBOUND:                -0.222
REMARK SMILES CCCCCCC(=O)[O-]
REMARK SMILES IDX 5 1 6 2 7 3 8 4 9 5 4 6 3 7 2 8 1 9
REMARK H PARENT
REMARK Flexibility Score: inf
ROOT
ATOM      1  C   UNL     1      -0.471  14.827  -3.997  1.00  0.00     0.006 C 
ENDROOT
BRANCH   1   2
ATOM      2  C   UNL     1      -0.171  16.073  -3.146  1.00  0.00     0.053 C 
BRANCH   2   3
ATOM      3  C   UNL     1      -0.648  15.933  -1.732  1.00  0.00     0.041 C 
ATOM      4  O   UNL     1      -1.878  15.982  -1.471  1.00  0.00    -0.550 OA
ATOM      5  O   UNL     1       0.267  15.783  -0.698  1.00  0.00    -0.550 OA
ENDBRANCH   2   3
ENDBRANCH   1   2
BRANCH   1   6
ATOM      6  C   UNL     1      -1.626  15.016  -4.996  1.00  0.00     0.000 C 
BRANCH   6   7
ATOM      7  C   UNL     1      -2.882  14.209  -4.625  1.00  0.00    -0.000 C 
BRANCH   7   8
ATOM      8  C   UNL     1      -2.998  12.901  -5.423  1.00  0.00    -0.003 C 
ATOM      9  C   UNL     1      -2.440  11.697  -4.664  1.00  0.00     0.004 C 
ENDBRANCH   7   8
ENDBRANCH   6   7
ENDBRANCH   1   6
TORSDOF 5
ENDMDL
MODEL 2
REMARK VINA RESULT:    -3.412      2.651      4.316
REMARK INTER + INTRA:          -4.632
REMARK INTER:                  -4.301
REMARK INTRA:                  -0.330
REMARK UNBOUND:                -0.222
REMARK SMILES CCCCCCC(=O)[O-]
REMARK SMILES IDX 5 1 6 2 7 3 8 4 9 5 4 6 3 7 2 8 1 9
REMARK H PARENT
REMARK Flexibility Score: inf
ROOT
ATOM      1  C   UNL     1      -3.390  14.233  -5.037  1.00  0.00     0.006 C 
ENDROOT
BRANCH   1   2
ATOM      2  C   UNL     1      -2.967  12.907  -5.692  1.00  0.00     0.053 C 
BRANCH   2   3
ATOM      3  C   UNL     1      -2.153  12.046  -4.774  1.00  0.00     0.041 C 
ATOM      4  O   UNL     1      -2.642  10.986  -4.302  1.00  0.00    -0.550 OA
ATOM      5  O   UNL     1      -0.869  12.431  -4.411  1.00  0.00    -0.550 OA
ENDBRANCH   2   3
ENDBRANCH   1   2
BRANCH   1   6
ATOM      6  C   UNL     1      -2.857  15.484  -5.759  1.00  0.00     0.000 C 
BRANCH   6   7
ATOM      7  C   UNL     1      -1.776  16.228  -4.956  1.00  0.00    -0.000 C 
BRANCH   7   8
ATOM      8  C   UNL     1      -1.766  15.829  -3.472  1.00  0.00    -0.003 C 
ATOM      9  C   UNL     1      -0.371  15.901  -2.853  1.00  0.00     0.004 C 
ENDBRANCH   7   8
ENDBRANCH   6   7
ENDBRANCH   1   6
TORSDOF 5
ENDMDL
MODEL 3
REMARK VINA RESULT:    -3.404      2.616      4.472
REMARK INTER + INTRA:          -4.622
REMARK INTER:                  -4.402
REMARK INTRA:                  -0.220
REMARK UNBOUND:                -0.222
REMARK SMILES CCCCCCC(=O)[O-]
REMARK SMILES IDX 5 1 6 2 7 3 8 4 9 5 4 6 3 7 2 8 1 9
REMARK H PARENT
REMARK Flexibility Score: inf
ROOT
ATOM      1  C   UNL     1      -2.539  15.026  -5.508  1.00  0.00     0.006 C 
ENDROOT
BRANCH   1   2
ATOM      2  C   UNL     1      -3.240  13.969  -4.638  1.00  0.00     0.053 C 
BRANCH   2   3
ATOM      3  C   UNL     1      -2.519  12.655  -4.637  1.00  0.00     0.041 C 
ATOM      4  O   UNL     1      -1.261  12.623  -4.660  1.00  0.00    -0.550 OA
ATOM      5  O   UNL     1      -3.236  11.465  -4.647  1.00  0.00    -0.550 OA
ENDBRANCH   2   3
ENDBRANCH   1   2
BRANCH   1   6
ATOM      6  C   UNL     1      -1.902  16.174  -4.704  1.00  0.00     0.000 C 
BRANCH   6   7
ATOM      7  C   UNL     1      -1.859  15.897  -3.191  1.00  0.00    -0.000 C 
BRANCH   7   8
ATOM      8  C   UNL     1      -0.430  15.937  -2.626  1.00  0.00    -0.003 C 
ATOM      9  C   UNL     1      -0.403  15.975  -1.098  1.00  0.00     0.004 C 
ENDBRANCH   7   8
ENDBRANCH   6   7
ENDBRANCH   1   6
TORSDOF 5
ENDMDL
MODEL 4
REMARK VINA RESULT:    -3.361      1.379      1.610
REMARK INTER + INTRA:          -4.566
REMARK INTER:                  -4.342
REMARK INTRA:                  -0.224
REMARK UNBOUND:                -0.222
REMARK SMILES CCCCCCC(=O)[O-]
REMARK SMILES IDX 5 1 6 2 7 3 8 4 9 5 4 6 3 7 2 8 1 9
REMARK H PARENT
REMARK Flexibility Score: inf
ROOT
ATOM      1  C   UNL     1      -1.965  16.196  -4.933  1.00  0.00     0.006 C 
ENDROOT
BRANCH   1   2
ATOM      2  C   UNL     1      -1.783  15.687  -3.493  1.00  0.00     0.053 C 
BRANCH   2   3
ATOM      3  C   UNL     1      -0.442  16.043  -2.923  1.00  0.00     0.041 C 
ATOM      4  O   UNL     1       0.472  16.471  -3.674  1.00  0.00    -0.550 OA
ATOM      5  O   UNL     1      -0.191  15.867  -1.568  1.00  0.00    -0.550 OA
ENDBRANCH   2   3
ENDBRANCH   1   2
BRANCH   1   6
ATOM      6  C   UNL     1      -2.534  15.143  -5.900  1.00  0.00     0.000 C 
BRANCH   6   7
ATOM      7  C   UNL     1      -3.370  14.063  -5.191  1.00  0.00    -0.000 C 
BRANCH   7   8
ATOM      8  C   UNL     1      -3.078  12.651  -5.721  1.00  0.00    -0.003 C 
ATOM      9  C   UNL     1      -2.576  11.705  -4.630  1.00  0.00     0.004 C 
ENDBRANCH   7   8
ENDBRANCH   6   7
ENDBRANCH   1   6
TORSDOF 5
ENDMDL
MODEL 5
REMARK VINA RESULT:    -3.344      7.390      8.349
REMARK INTER + INTRA:          -4.544
REMARK INTER:                  -4.288
REMARK INTRA:                  -0.256
REMARK UNBOUND:                -0.222
REMARK SMILES CCCCCCC(=O)[O-]
REMARK SMILES IDX 5 1 6 2 7 3 8 4 9 5 4 6 3 7 2 8 1 9
REMARK H PARENT
REMARK Flexibility Score: inf
ROOT
ATOM      1  C   UNL     1       1.396   9.741  -0.986  1.00  0.00     0.006 C 
ENDROOT
BRANCH   1   2
ATOM      2  C   UNL     1       2.804   9.398  -1.502  1.00  0.00     0.053 C 
BRANCH   2   3
ATOM      3  C   UNL     1       2.966   9.681  -2.965  1.00  0.00     0.041 C 
ATOM      4  O   UNL     1       2.293  10.594  -3.511  1.00  0.00    -0.550 OA
ATOM      5  O   UNL     1       3.833   8.914  -3.733  1.00  0.00    -0.550 OA
ENDBRANCH   2   3
ENDBRANCH   1   2
BRANCH   1   6
ATOM      6  C   UNL     1       0.958   8.913   0.235  1.00  0.00     0.000 C 
BRANCH   6   7
ATOM      7  C   UNL     1       1.365   7.432   0.135  1.00  0.00    -0.000 C 
BRANCH   7   8
ATOM      8  C   UNL     1       2.062   6.926   1.407  1.00  0.00    -0.003 C 
ATOM      9  C   UNL     1       3.580   7.095   1.353  1.00  0.00     0.004 C 
ENDBRANCH   7   8
ENDBRANCH   6   7
ENDBRANCH   1   6
TORSDOF 5
ENDMDL
MODEL 6
REMARK VINA RESULT:    -3.301      2.462      4.270
REMARK INTER + INTRA:          -4.488
REMARK INTER:                  -4.239
REMARK INTRA:                  -0.249
REMARK UNBOUND:                -0.222
REMARK SMILES CCCCCCC(=O)[O-]
REMARK SMILES IDX 5 1 6 2 7 3 8 4 9 5 4 6 3 7 2 8 1 9
REMARK H PARENT
REMARK Flexibility Score: inf
ROOT
ATOM      1  C   UNL     1      -2.017  16.308  -4.759  1.00  0.00     0.006 C 
ENDROOT
BRANCH   1   2
ATOM      2  C   UNL     1      -2.495  15.138  -5.637  1.00  0.00     0.053 C 
BRANCH   2   3
ATOM      3  C   UNL     1      -2.857  13.926  -4.833  1.00  0.00     0.041 C 
ATOM      4  O   UNL     1      -3.723  14.005  -3.924  1.00  0.00    -0.550 OA
ATOM      5  O   UNL     1      -2.212  12.717  -5.064  1.00  0.00    -0.550 OA
ENDBRANCH   2   3
ENDBRANCH   1   2
BRANCH   1   6
ATOM      6  C   UNL     1      -0.500  16.562  -4.829  1.00  0.00     0.000 C 
BRANCH   6   7
ATOM      7  C   UNL     1       0.207  16.360  -3.478  1.00  0.00    -0.000 C 
BRANCH   7   8
ATOM      8  C   UNL     1      -0.765  15.951  -2.360  1.00  0.00    -0.003 C 
ATOM      9  C   UNL     1      -0.109  15.952  -0.979  1.00  0.00     0.004 C 
ENDBRANCH   7   8
ENDBRANCH   6   7
ENDBRANCH   1   6
TORSDOF 5
ENDMDL
MODEL 7
REMARK VINA RESULT:    -3.285      8.324      9.114
REMARK INTER + INTRA:          -4.467
REMARK INTER:                  -4.248
REMARK INTRA:                  -0.219
REMARK UNBOUND:                -0.222
REMARK SMILES CCCCCCC(=O)[O-]
REMARK SMILES IDX 5 1 6 2 7 3 8 4 9 5 4 6 3 7 2 8 1 9
REMARK H PARENT
REMARK Flexibility Score: inf
ROOT
ATOM      1  C   UNL     1       3.948   7.888  -0.639  1.00  0.00     0.006 C 
ENDROOT
BRANCH   1   2
ATOM      2  C   UNL     1       4.125   7.746   0.883  1.00  0.00     0.053 C 
BRANCH   2   3
ATOM      3  C   UNL     1       3.303   6.631   1.456  1.00  0.00     0.041 C 
ATOM      4  O   UNL     1       3.866   5.633   1.977  1.00  0.00    -0.550 OA
ATOM      5  O   UNL     1       1.916   6.677   1.383  1.00  0.00    -0.550 OA
ENDBRANCH   2   3
ENDBRANCH   1   2
BRANCH   1   6
ATOM      6  C   UNL     1       3.675   9.330  -1.104  1.00  0.00     0.000 C 
BRANCH   6   7
ATOM      7  C   UNL     1       2.443   9.444  -2.018  1.00  0.00    -0.000 C 
BRANCH   7   8
ATOM      8  C   UNL     1       1.277  10.184  -1.343  1.00  0.00    -0.003 C 
ATOM      9  C   UNL     1       0.642   9.375  -0.212  1.00  0.00     0.004 C 
ENDBRANCH   7   8
ENDBRANCH   6   7
ENDBRANCH   1   6
TORSDOF 5
ENDMDL
MODEL 8
REMARK VINA RESULT:    -3.105      2.444      2.960
REMARK INTER + INTRA:          -4.235
REMARK INTER:                  -3.955
REMARK INTRA:                  -0.279
REMARK UNBOUND:                -0.222
REMARK SMILES CCCCCCC(=O)[O-]
REMARK SMILES IDX 5 1 6 2 7 3 8 4 9 5 4 6 3 7 2 8 1 9
REMARK H PARENT
REMARK Flexibility Score: inf
ROOT
ATOM      1  C   UNL     1      -1.264  15.449  -4.062  1.00  0.00     0.006 C 
ENDROOT
BRANCH   1   2
ATOM      2  C   UNL     1      -0.778  16.264  -5.273  1.00  0.00     0.053 C 
BRANCH   2   3
ATOM      3  C   UNL     1      -1.028  17.733  -5.116  1.00  0.00     0.041 C 
ATOM      4  O   UNL     1      -0.141  18.476  -4.621  1.00  0.00    -0.550 OA
ATOM      5  O   UNL     1      -2.253  18.277  -5.482  1.00  0.00    -0.550 OA
ENDBRANCH   2   3
ENDBRANCH   1   2
BRANCH   1   6
ATOM      6  C   UNL     1      -2.636  14.783  -4.267  1.00  0.00     0.000 C 
BRANCH   6   7
ATOM      7  C   UNL     1      -2.931  14.451  -5.740  1.00  0.00    -0.000 C 
BRANCH   7   8
ATOM      8  C   UNL     1      -3.212  12.956  -5.962  1.00  0.00    -0.003 C 
ATOM      9  C   UNL     1      -2.610  12.076  -4.867  1.00  0.00     0.004 C 
ENDBRANCH   7   8
ENDBRANCH   6   7
ENDBRANCH   1   6
TORSDOF 5
ENDMDL
MODEL 9
REMARK VINA RESULT:    -0.876      7.831      8.826
REMARK INTER + INTRA:          -1.354
REMARK INTER:                  -1.097
REMARK INTRA:                  -0.257
REMARK UNBOUND:                -0.222
REMARK SMILES CCCCCCC(=O)[O-]
REMARK SMILES IDX 5 1 6 2 7 3 8 4 9 5 4 6 3 7 2 8 1 9
REMARK H PARENT
REMARK Flexibility Score: inf
ROOT
ATOM      1  C   UNL     1       1.473   7.670  -0.207  1.00  0.00     0.006 C 
ENDROOT
BRANCH   1   2
ATOM      2  C   UNL     1       1.963   7.223   1.181  1.00  0.00     0.053 C 
BRANCH   2   3
ATOM      3  C   UNL     1       3.458   7.163   1.272  1.00  0.00     0.041 C 
ATOM      4  O   UNL     1       4.125   8.218   1.437  1.00  0.00    -0.550 OA
ATOM      5  O   UNL     1       4.118   5.948   1.138  1.00  0.00    -0.550 OA
ENDBRANCH   2   3
ENDBRANCH   1   2
BRANCH   1   6
ATOM      6  C   UNL     1       1.018   9.139  -0.266  1.00  0.00     0.000 C 
BRANCH   6   7
ATOM      7  C   UNL     1       1.492   9.866  -1.536  1.00  0.00    -0.000 C 
BRANCH   7   8
ATOM      8  C   UNL     1       2.911   9.451  -1.956  1.00  0.00    -0.003 C 
ATOM      9  C   UNL     1       3.242   9.859  -3.391  1.00  0.00     0.004 C 
ENDBRANCH   7   8
ENDBRANCH   6   7
ENDBRANCH   1   6
TORSDOF 5
ENDMDL
