MODEL 1
REMARK VINA RESULT:    -4.481      0.000      0.000
REMARK INTER + INTRA:          -4.837
REMARK INTER:                  -4.743
REMARK INTRA:                  -0.094
REMARK UNBOUND:                -0.094
REMARK SMILES C=C(C)[C@@H]1CC=C(C)C(=O)C1
REMARK SMILES IDX 8 1 7 2 6 3 5 4 4 5 11 6 9 7 10 8 2 9 1 10 3 11
REMARK H PARENT
REMARK Flexibility Score: inf
ROOT
ATOM      1  C   UNL     1      21.924 -15.877   1.541  1.00  0.00     0.048 C 
ATOM      2  C   UNL     1      23.041 -16.884   1.489  1.00  0.00    -0.012 C 
ATOM      3  C   UNL     1      23.662 -17.135   0.323  1.00  0.00    -0.019 C 
ATOM      4  C   UNL     1      24.797 -18.118   0.219  1.00  0.00     0.036 C 
ATOM      5  C   UNL     1      24.622 -19.275   1.221  1.00  0.00     0.025 C 
ATOM      6  C   UNL     1      24.458 -18.724   2.649  1.00  0.00     0.089 C 
ATOM      7  C   UNL     1      23.371 -17.686   2.693  1.00  0.00     0.158 C 
ATOM      8  O   UNL     1      22.765 -17.478   3.779  1.00  0.00    -0.295 OA
ENDROOT
BRANCH   5   9
ATOM      9  C   UNL     1      25.769 -20.273   1.133  1.00  0.00    -0.077 C 
ATOM     10  C   UNL     1      27.049 -19.866   1.076  1.00  0.00     0.008 C 
ATOM     11  C   UNL     1      25.483 -21.753   1.106  1.00  0.00     0.039 C 
ENDBRANCH   5   9
TORSDOF 1
ENDMDL
MODEL 2
REMARK VINA RESULT:    -4.088     16.688     17.889
REMARK INTER + INTRA:          -4.421
REMARK INTER:                  -4.324
REMARK INTRA:                  -0.097
REMARK UNBOUND:                -0.094
REMARK SMILES C=C(C)[C@@H]1CC=C(C)C(=O)C1
REMARK SMILES IDX 8 1 7 2 6 3 5 4 4 5 11 6 9 7 10 8 2 9 1 10 3 11
REMARK H PARENT
REMARK Flexibility Score: inf
ROOT
ATOM      1  C   UNL     1      11.003 -16.363 -12.425  1.00  0.00     0.048 C 
ATOM      2  C   UNL     1      12.446 -16.356 -12.852  1.00  0.00    -0.012 C 
ATOM      3  C   UNL     1      12.769 -16.667 -14.119  1.00  0.00    -0.019 C 
ATOM      4  C   UNL     1      14.194 -16.658 -14.605  1.00  0.00     0.036 C 
ATOM      5  C   UNL     1      15.165 -17.062 -13.480  1.00  0.00     0.025 C 
ATOM      6  C   UNL     1      14.963 -16.160 -12.249  1.00  0.00     0.089 C 
ATOM      7  C   UNL     1      13.514 -16.131 -11.847  1.00  0.00     0.158 C 
ATOM      8  O   UNL     1      13.215 -15.875 -10.649  1.00  0.00    -0.295 OA
ENDROOT
BRANCH   5   9
ATOM      9  C   UNL     1      16.612 -17.049 -13.955  1.00  0.00    -0.077 C 
ATOM     10  C   UNL     1      17.554 -16.341 -13.308  1.00  0.00     0.008 C 
ATOM     11  C   UNL     1      17.015 -17.840 -15.173  1.00  0.00     0.039 C 
ENDBRANCH   5   9
TORSDOF 1
ENDMDL
MODEL 3
REMARK VINA RESULT:    -3.821     17.604     18.860
REMARK INTER + INTRA:          -4.138
REMARK INTER:                  -4.042
REMARK INTRA:                  -0.096
REMARK UNBOUND:                -0.094
REMARK SMILES C=C(C)[C@@H]1CC=C(C)C(=O)C1
REMARK SMILES IDX 8 1 7 2 6 3 5 4 4 5 11 6 9 7 10 8 2 9 1 10 3 11
REMARK H PARENT
REMARK Flexibility Score: inf
ROOT
ATOM      1  C   UNL     1      10.508 -15.875 -12.005  1.00  0.00     0.048 C 
ATOM      2  C   UNL     1      11.791 -16.365 -12.620  1.00  0.00    -0.012 C 
ATOM      3  C   UNL     1      12.815 -16.731 -11.828  1.00  0.00    -0.019 C 
ATOM      4  C   UNL     1      14.113 -17.245 -12.390  1.00  0.00     0.036 C 
ATOM      5  C   UNL     1      14.433 -16.584 -13.744  1.00  0.00     0.025 C 
ATOM      6  C   UNL     1      13.258 -16.774 -14.721  1.00  0.00     0.089 C 
ATOM      7  C   UNL     1      11.969 -16.325 -14.092  1.00  0.00     0.158 C 
ATOM      8  O   UNL     1      11.022 -15.948 -14.835  1.00  0.00    -0.295 OA
ENDROOT
BRANCH   5   9
ATOM      9  C   UNL     1      15.740 -17.102 -14.328  1.00  0.00    -0.077 C 
ATOM     10  C   UNL     1      15.770 -17.764 -15.497  1.00  0.00     0.008 C 
ATOM     11  C   UNL     1      17.038 -16.877 -13.595  1.00  0.00     0.039 C 
ENDBRANCH   5   9
TORSDOF 1
ENDMDL
MODEL 4
REMARK VINA RESULT:    -3.636     18.372     19.715
REMARK INTER + INTRA:          -3.942
REMARK INTER:                  -3.845
REMARK INTRA:                  -0.097
REMARK UNBOUND:                -0.094
REMARK SMILES C=C(C)[C@@H]1CC=C(C)C(=O)C1
REMARK SMILES IDX 8 1 7 2 6 3 5 4 4 5 11 6 9 7 10 8 2 9 1 10 3 11
REMARK H PARENT
REMARK Flexibility Score: inf
ROOT
ATOM      1  C   UNL     1       7.916 -17.015 -14.250  1.00  0.00     0.048 C 
ATOM      2  C   UNL     1       9.297 -16.749 -13.714  1.00  0.00    -0.012 C 
ATOM      3  C   UNL     1      10.324 -16.582 -14.566  1.00  0.00    -0.019 C 
ATOM      4  C   UNL     1      11.721 -16.295 -14.086  1.00  0.00     0.036 C 
ATOM      5  C   UNL     1      11.994 -16.981 -12.733  1.00  0.00     0.025 C 
ATOM      6  C   UNL     1      10.926 -16.571 -11.702  1.00  0.00     0.089 C 
ATOM      7  C   UNL     1       9.545 -16.796 -12.252  1.00  0.00     0.158 C 
ATOM      8  O   UNL     1       8.590 -16.988 -11.452  1.00  0.00    -0.295 OA
ENDROOT
BRANCH   5   9
ATOM      9  C   UNL     1      13.402 -16.692 -12.230  1.00  0.00    -0.077 C 
ATOM     10  C   UNL     1      13.620 -16.238 -10.984  1.00  0.00     0.008 C 
ATOM     11  C   UNL     1      14.588 -16.913 -13.134  1.00  0.00     0.039 C 
ENDBRANCH   5   9
TORSDOF 1
ENDMDL
MODEL 5
REMARK VINA RESULT:    -3.634     17.418     18.973
REMARK INTER + INTRA:          -3.940
REMARK INTER:                  -3.843
REMARK INTRA:                  -0.097
REMARK UNBOUND:                -0.094
REMARK SMILES C=C(C)[C@@H]1CC=C(C)C(=O)C1
REMARK SMILES IDX 8 1 7 2 6 3 5 4 4 5 11 6 9 7 10 8 2 9 1 10 3 11
REMARK H PARENT
REMARK Flexibility Score: inf
ROOT
ATOM      1  C   UNL     1      17.617 -16.987 -13.521  1.00  0.00     0.048 C 
ATOM      2  C   UNL     1      16.141 -16.702 -13.589  1.00  0.00    -0.012 C 
ATOM      3  C   UNL     1      15.508 -16.197 -12.516  1.00  0.00    -0.019 C 
ATOM      4  C   UNL     1      14.037 -15.876 -12.535  1.00  0.00     0.036 C 
ATOM      5  C   UNL     1      13.269 -16.849 -13.449  1.00  0.00     0.025 C 
ATOM      6  C   UNL     1      13.884 -16.854 -14.861  1.00  0.00     0.089 C 
ATOM      7  C   UNL     1      15.366 -17.095 -14.792  1.00  0.00     0.158 C 
ATOM      8  O   UNL     1      15.952 -17.603 -15.786  1.00  0.00    -0.295 OA
ENDROOT
BRANCH   5   9
ATOM      9  C   UNL     1      11.780 -16.531 -13.486  1.00  0.00    -0.077 C 
ATOM     10  C   UNL     1      11.148 -16.273 -14.643  1.00  0.00     0.008 C 
ATOM     11  C   UNL     1      10.983 -16.499 -12.207  1.00  0.00     0.039 C 
ENDBRANCH   5   9
TORSDOF 1
ENDMDL
MODEL 6
REMARK VINA RESULT:    -3.572     17.638     19.092
REMARK INTER + INTRA:          -3.875
REMARK INTER:                  -3.776
REMARK INTRA:                  -0.098
REMARK UNBOUND:                -0.094
REMARK SMILES C=C(C)[C@@H]1CC=C(C)C(=O)C1
REMARK SMILES IDX 8 1 7 2 6 3 5 4 4 5 11 6 9 7 10 8 2 9 1 10 3 11
REMARK H PARENT
REMARK Flexibility Score: inf
ROOT
ATOM      1  C   UNL     1      16.782 -16.889 -16.124  1.00  0.00     0.048 C 
ATOM      2  C   UNL     1      15.553 -16.840 -15.257  1.00  0.00    -0.012 C 
ATOM      3  C   UNL     1      14.346 -16.654 -15.819  1.00  0.00    -0.019 C 
ATOM      4  C   UNL     1      13.083 -16.616 -15.001  1.00  0.00     0.036 C 
ATOM      5  C   UNL     1      13.343 -16.016 -13.607  1.00  0.00     0.025 C 
ATOM      6  C   UNL     1      14.474 -16.783 -12.897  1.00  0.00     0.089 C 
ATOM      7  C   UNL     1      15.688 -16.870 -13.780  1.00  0.00     0.158 C 
ATOM      8  O   UNL     1      16.824 -17.008 -13.249  1.00  0.00    -0.295 OA
ENDROOT
BRANCH   5   9
ATOM      9  C   UNL     1      12.074 -15.979 -12.765  1.00  0.00    -0.077 C 
ATOM     10  C   UNL     1      12.126 -15.876 -11.426  1.00  0.00     0.008 C 
ATOM     11  C   UNL     1      10.724 -16.060 -13.429  1.00  0.00     0.039 C 
ENDBRANCH   5   9
TORSDOF 1
ENDMDL
MODEL 7
REMARK VINA RESULT:    -3.531     19.130     19.995
REMARK INTER + INTRA:          -3.831
REMARK INTER:                  -3.743
REMARK INTRA:                  -0.088
REMARK UNBOUND:                -0.094
REMARK SMILES C=C(C)[C@@H]1CC=C(C)C(=O)C1
REMARK SMILES IDX 8 1 7 2 6 3 5 4 4 5 11 6 9 7 10 8 2 9 1 10 3 11
REMARK H PARENT
REMARK Flexibility Score: inf
ROOT
ATOM      1  C   UNL     1       7.035 -16.566  -6.064  1.00  0.00     0.048 C 
ATOM      2  C   UNL     1       7.478 -16.878  -7.468  1.00  0.00    -0.012 C 
ATOM      3  C   UNL     1       7.726 -15.875  -8.328  1.00  0.00    -0.019 C 
ATOM      4  C   UNL     1       8.189 -16.130  -9.738  1.00  0.00     0.036 C 
ATOM      5  C   UNL     1       7.594 -17.439 -10.289  1.00  0.00     0.025 C 
ATOM      6  C   UNL     1       7.921 -18.613  -9.347  1.00  0.00     0.089 C 
ATOM      7  C   UNL     1       7.518 -18.285  -7.936  1.00  0.00     0.158 C 
ATOM      8  O   UNL     1       7.251 -19.226  -7.140  1.00  0.00    -0.295 OA
ENDROOT
BRANCH   5   9
ATOM      9  C   UNL     1       8.061 -17.714 -11.712  1.00  0.00    -0.077 C 
ATOM     10  C   UNL     1       7.202 -17.705 -12.745  1.00  0.00     0.008 C 
ATOM     11  C   UNL     1       9.515 -18.006 -11.987  1.00  0.00     0.039 C 
ENDBRANCH   5   9
TORSDOF 1
ENDMDL
MODEL 8
REMARK VINA RESULT:    -3.502     17.976     19.500
REMARK INTER + INTRA:          -3.800
REMARK INTER:                  -3.706
REMARK INTRA:                  -0.094
REMARK UNBOUND:                -0.094
REMARK SMILES C=C(C)[C@@H]1CC=C(C)C(=O)C1
REMARK SMILES IDX 8 1 7 2 6 3 5 4 4 5 11 6 9 7 10 8 2 9 1 10 3 11
REMARK H PARENT
REMARK Flexibility Score: inf
ROOT
ATOM      1  C   UNL     1      15.829 -15.875 -12.826  1.00  0.00     0.048 C 
ATOM      2  C   UNL     1      14.415 -16.253 -13.172  1.00  0.00    -0.012 C 
ATOM      3  C   UNL     1      13.998 -16.186 -14.448  1.00  0.00    -0.019 C 
ATOM      4  C   UNL     1      12.599 -16.570 -14.852  1.00  0.00     0.036 C 
ATOM      5  C   UNL     1      11.591 -16.249 -13.733  1.00  0.00     0.025 C 
ATOM      6  C   UNL     1      12.023 -16.920 -12.416  1.00  0.00     0.089 C 
ATOM      7  C   UNL     1      13.450 -16.578 -12.092  1.00  0.00     0.158 C 
ATOM      8  O   UNL     1      13.830 -16.606 -10.889  1.00  0.00    -0.295 OA
ENDROOT
BRANCH   5   9
ATOM      9  C   UNL     1      10.172 -16.641 -14.124  1.00  0.00    -0.077 C 
ATOM     10  C   UNL     1       9.657 -16.302 -15.318  1.00  0.00     0.008 C 
ATOM     11  C   UNL     1       9.313 -17.425 -13.165  1.00  0.00     0.039 C 
ENDBRANCH   5   9
TORSDOF 1
ENDMDL
