MODEL 1
REMARK VINA RESULT:    -4.550      0.000      0.000
REMARK INTER + INTRA:          -5.146
REMARK INTER:                  -4.949
REMARK INTRA:                  -0.196
REMARK UNBOUND:                -0.196
REMARK SMILES Cc1ccc(C(C)C)c(O)c1
REMARK SMILES IDX 1 1 2 2 11 3 9 4 5 5 4 6 3 7 10 8 6 10 7 11 8 12
REMARK H PARENT 10 9
REMARK Flexibility Score: inf
ROOT
ATOM      1  C   UNL     1      -3.755   5.622  -3.872  1.00  0.00     0.044 C 
ATOM      2  C   UNL     1      -4.998   6.346  -3.445  1.00  0.00    -0.047 A 
ATOM      3  C   UNL     1      -4.934   7.693  -3.068  1.00  0.00     0.049 A 
ATOM      4  C   UNL     1      -6.097   8.389  -2.701  1.00  0.00     0.119 A 
ATOM      5  C   UNL     1      -7.350   7.733  -2.724  1.00  0.00    -0.004 A 
ATOM      6  C   UNL     1      -7.401   6.385  -3.125  1.00  0.00     0.008 A 
ATOM      7  C   UNL     1      -6.239   5.702  -3.487  1.00  0.00     0.004 A 
ENDROOT
BRANCH   4   8
ATOM      8  O   UNL     1      -5.999   9.727  -2.321  1.00  0.00    -0.508 OA
ATOM      9  H   UNL     1      -5.917  10.001  -1.349  1.00  0.00     0.293 HD
ENDBRANCH   4   8
BRANCH   5  10
ATOM     10  C   UNL     1      -8.646   8.434  -2.337  1.00  0.00     0.017 C 
ATOM     11  C   UNL     1      -9.573   7.514  -1.532  1.00  0.00     0.012 C 
ATOM     12  C   UNL     1      -9.361   9.026  -3.558  1.00  0.00     0.012 C 
ENDBRANCH   5  10
TORSDOF 2
ENDMDL
MODEL 2
REMARK VINA RESULT:    -4.419      1.974      2.601
REMARK INTER + INTRA:          -5.003
REMARK INTER:                  -4.811
REMARK INTRA:                  -0.193
REMARK UNBOUND:                -0.196
REMARK SMILES Cc1ccc(C(C)C)c(O)c1
REMARK SMILES IDX 1 1 2 2 11 3 9 4 5 5 4 6 3 7 10 8 6 10 7 11 8 12
REMARK H PARENT 10 9
REMARK Flexibility Score: inf
ROOT
ATOM      1  C   UNL     1      -3.455   5.254  -3.494  1.00  0.00     0.044 C 
ATOM      2  C   UNL     1      -4.654   6.136  -3.685  1.00  0.00    -0.047 A 
ATOM      3  C   UNL     1      -5.931   5.673  -3.344  1.00  0.00     0.049 A 
ATOM      4  C   UNL     1      -7.054   6.503  -3.485  1.00  0.00     0.119 A 
ATOM      5  C   UNL     1      -6.900   7.826  -3.963  1.00  0.00    -0.004 A 
ATOM      6  C   UNL     1      -5.608   8.284  -4.282  1.00  0.00     0.008 A 
ATOM      7  C   UNL     1      -4.497   7.450  -4.139  1.00  0.00     0.004 A 
ENDROOT
BRANCH   4   8
ATOM      8  O   UNL     1      -8.313   6.010  -3.146  1.00  0.00    -0.508 OA
ATOM      9  H   UNL     1      -8.510   5.016  -3.130  1.00  0.00     0.293 HD
ENDBRANCH   4   8
BRANCH   5  10
ATOM     10  C   UNL     1      -8.079   8.774  -4.137  1.00  0.00     0.017 C 
ATOM     11  C   UNL     1      -8.431   8.979  -5.616  1.00  0.00     0.012 C 
ATOM     12  C   UNL     1      -7.848  10.111  -3.423  1.00  0.00     0.012 C 
ENDBRANCH   5  10
TORSDOF 2
ENDMDL
MODEL 3
REMARK VINA RESULT:    -4.273     17.543     19.467
REMARK INTER + INTRA:          -4.844
REMARK INTER:                  -4.677
REMARK INTRA:                  -0.167
REMARK UNBOUND:                -0.196
REMARK SMILES Cc1ccc(C(C)C)c(O)c1
REMARK SMILES IDX 1 1 2 2 11 3 9 4 5 5 4 6 3 7 10 8 6 10 7 11 8 12
REMARK H PARENT 10 9
REMARK Flexibility Score: inf
ROOT
ATOM      1  C   UNL     1       4.656 -10.012   3.088  1.00  0.00     0.044 C 
ATOM      2  C   UNL     1       3.605  -9.116   3.674  1.00  0.00    -0.047 A 
ATOM      3  C   UNL     1       2.252  -9.461   3.579  1.00  0.00     0.049 A 
ATOM      4  C   UNL     1       1.264  -8.646   4.156  1.00  0.00     0.119 A 
ATOM      5  C   UNL     1       1.634  -7.472   4.853  1.00  0.00    -0.004 A 
ATOM      6  C   UNL     1       2.999  -7.149   4.957  1.00  0.00     0.008 A 
ATOM      7  C   UNL     1       3.974  -7.965   4.380  1.00  0.00     0.004 A 
ENDROOT
BRANCH   4   8
ATOM      8  O   UNL     1      -0.076  -9.012   4.035  1.00  0.00    -0.508 OA
ATOM      9  H   UNL     1      -0.796  -8.602   4.619  1.00  0.00     0.293 HD
ENDBRANCH   4   8
BRANCH   5  10
ATOM     10  C   UNL     1       0.609  -6.549   5.499  1.00  0.00     0.017 C 
ATOM     11  C   UNL     1       1.125  -5.107   5.600  1.00  0.00     0.012 C 
ATOM     12  C   UNL     1       0.143  -7.077   6.861  1.00  0.00     0.012 C 
ENDBRANCH   5  10
TORSDOF 2
ENDMDL
MODEL 4
REMARK VINA RESULT:    -4.258     16.735     18.432
REMARK INTER + INTRA:          -4.828
REMARK INTER:                  -4.633
REMARK INTRA:                  -0.195
REMARK UNBOUND:                -0.196
REMARK SMILES Cc1ccc(C(C)C)c(O)c1
REMARK SMILES IDX 1 1 2 2 11 3 9 4 5 5 4 6 3 7 10 8 6 10 7 11 8 12
REMARK H PARENT 10 9
REMARK Flexibility Score: inf
ROOT
ATOM      1  C   UNL     1       2.353  -9.888   3.544  1.00  0.00     0.044 C 
ATOM      2  C   UNL     1       1.859  -8.612   4.159  1.00  0.00    -0.047 A 
ATOM      3  C   UNL     1       0.485  -8.385   4.302  1.00  0.00     0.049 A 
ATOM      4  C   UNL     1       0.013  -7.210   4.908  1.00  0.00     0.119 A 
ATOM      5  C   UNL     1       0.930  -6.248   5.395  1.00  0.00    -0.004 A 
ATOM      6  C   UNL     1       2.308  -6.500   5.263  1.00  0.00     0.008 A 
ATOM      7  C   UNL     1       2.767  -7.672   4.657  1.00  0.00     0.004 A 
ENDROOT
BRANCH   4   8
ATOM      8  O   UNL     1      -1.361  -7.008   5.026  1.00  0.00    -0.508 OA
ATOM      9  H   UNL     1      -1.942  -6.803   4.222  1.00  0.00     0.293 HD
ENDBRANCH   4   8
BRANCH   5  10
ATOM     10  C   UNL     1       0.480  -4.955   6.062  1.00  0.00     0.017 C 
ATOM     11  C   UNL     1       1.431  -3.792   5.748  1.00  0.00     0.012 C 
ATOM     12  C   UNL     1       0.284  -5.130   7.573  1.00  0.00     0.012 C 
ENDBRANCH   5  10
TORSDOF 2
ENDMDL
MODEL 5
REMARK VINA RESULT:    -4.240      1.008      4.025
REMARK INTER + INTRA:          -4.808
REMARK INTER:                  -4.649
REMARK INTRA:                  -0.159
REMARK UNBOUND:                -0.196
REMARK SMILES Cc1ccc(C(C)C)c(O)c1
REMARK SMILES IDX 1 1 2 2 11 3 9 4 5 5 4 6 3 7 10 8 6 10 7 11 8 12
REMARK H PARENT 10 9
REMARK Flexibility Score: inf
ROOT
ATOM      1  C   UNL     1      -9.964   7.508  -1.528  1.00  0.00     0.044 C 
ATOM      2  C   UNL     1      -8.581   7.483  -2.109  1.00  0.00    -0.047 A 
ATOM      3  C   UNL     1      -7.736   8.590  -1.966  1.00  0.00     0.049 A 
ATOM      4  C   UNL     1      -6.428   8.562  -2.475  1.00  0.00     0.119 A 
ATOM      5  C   UNL     1      -5.948   7.402  -3.128  1.00  0.00    -0.004 A 
ATOM      6  C   UNL     1      -6.802   6.290  -3.246  1.00  0.00     0.008 A 
ATOM      7  C   UNL     1      -8.101   6.328  -2.737  1.00  0.00     0.004 A 
ENDROOT
BRANCH   4   8
ATOM      8  O   UNL     1      -5.615   9.684  -2.325  1.00  0.00    -0.508 OA
ATOM      9  H   UNL     1      -5.634  10.450  -2.988  1.00  0.00     0.293 HD
ENDBRANCH   4   8
BRANCH   5  10
ATOM     10  C   UNL     1      -4.540   7.312  -3.701  1.00  0.00     0.017 C 
ATOM     11  C   UNL     1      -4.429   8.022  -5.056  1.00  0.00     0.012 C 
ATOM     12  C   UNL     1      -4.050   5.861  -3.785  1.00  0.00     0.012 C 
ENDBRANCH   5  10
TORSDOF 2
ENDMDL
MODEL 6
REMARK VINA RESULT:    -4.154     19.649     20.864
REMARK INTER + INTRA:          -4.714
REMARK INTER:                  -4.518
REMARK INTRA:                  -0.196
REMARK UNBOUND:                -0.196
REMARK SMILES Cc1ccc(C(C)C)c(O)c1
REMARK SMILES IDX 1 1 2 2 11 3 9 4 5 5 4 6 3 7 10 8 6 10 7 11 8 12
REMARK H PARENT 10 9
REMARK Flexibility Score: inf
ROOT
ATOM      1  C   UNL     1       1.095  -8.767   4.040  1.00  0.00     0.044 C 
ATOM      2  C   UNL     1       2.538  -8.391   4.206  1.00  0.00    -0.047 A 
ATOM      3  C   UNL     1       3.545  -9.216   3.688  1.00  0.00     0.049 A 
ATOM      4  C   UNL     1       4.896  -8.854   3.808  1.00  0.00     0.119 A 
ATOM      5  C   UNL     1       5.250  -7.640   4.442  1.00  0.00    -0.004 A 
ATOM      6  C   UNL     1       4.226  -6.813   4.939  1.00  0.00     0.008 A 
ATOM      7  C   UNL     1       2.885  -7.181   4.816  1.00  0.00     0.004 A 
ENDROOT
BRANCH   4   8
ATOM      8  O   UNL     1       5.875  -9.701   3.291  1.00  0.00    -0.508 OA
ATOM      9  H   UNL     1       6.699  -9.342   2.823  1.00  0.00     0.293 HD
ENDBRANCH   4   8
BRANCH   5  10
ATOM     10  C   UNL     1       6.698  -7.194   4.602  1.00  0.00     0.017 C 
ATOM     11  C   UNL     1       6.935  -6.502   5.950  1.00  0.00     0.012 C 
ATOM     12  C   UNL     1       7.158  -6.318   3.430  1.00  0.00     0.012 C 
ENDBRANCH   5  10
TORSDOF 2
ENDMDL
MODEL 7
REMARK VINA RESULT:    -4.149     18.365     20.368
REMARK INTER + INTRA:          -4.709
REMARK INTER:                  -4.536
REMARK INTRA:                  -0.173
REMARK UNBOUND:                -0.196
REMARK SMILES Cc1ccc(C(C)C)c(O)c1
REMARK SMILES IDX 1 1 2 2 11 3 9 4 5 5 4 6 3 7 10 8 6 10 7 11 8 12
REMARK H PARENT 10 9
REMARK Flexibility Score: inf
ROOT
ATOM      1  C   UNL     1      -0.488  -7.450   5.121  1.00  0.00     0.044 C 
ATOM      2  C   UNL     1       0.904  -7.830   4.708  1.00  0.00    -0.047 A 
ATOM      3  C   UNL     1       1.989  -7.016   5.055  1.00  0.00     0.049 A 
ATOM      4  C   UNL     1       3.298  -7.381   4.703  1.00  0.00     0.119 A 
ATOM      5  C   UNL     1       3.532  -8.589   4.004  1.00  0.00    -0.004 A 
ATOM      6  C   UNL     1       2.433  -9.407   3.680  1.00  0.00     0.008 A 
ATOM      7  C   UNL     1       1.135  -9.034   4.034  1.00  0.00     0.004 A 
ENDROOT
BRANCH   4   8
ATOM      8  O   UNL     1       4.356  -6.545   5.054  1.00  0.00    -0.508 OA
ATOM      9  H   UNL     1       5.142  -6.877   5.601  1.00  0.00     0.293 HD
ENDBRANCH   4   8
BRANCH   5  10
ATOM     10  C   UNL     1       4.928  -9.039   3.596  1.00  0.00     0.017 C 
ATOM     11  C   UNL     1       4.897  -9.929   2.347  1.00  0.00     0.012 C 
ATOM     12  C   UNL     1       5.671  -9.719   4.753  1.00  0.00     0.012 C 
ENDBRANCH   5  10
TORSDOF 2
ENDMDL
MODEL 8
REMARK VINA RESULT:    -4.113     18.128     19.473
REMARK INTER + INTRA:          -4.670
REMARK INTER:                  -4.509
REMARK INTRA:                  -0.161
REMARK UNBOUND:                -0.196
REMARK SMILES Cc1ccc(C(C)C)c(O)c1
REMARK SMILES IDX 1 1 2 2 11 3 9 4 5 5 4 6 3 7 10 8 6 10 7 11 8 12
REMARK H PARENT 10 9
REMARK Flexibility Score: inf
ROOT
ATOM      1  C   UNL     1       5.182  -9.658   3.218  1.00  0.00     0.044 C 
ATOM      2  C   UNL     1       3.886  -9.092   3.717  1.00  0.00    -0.047 A 
ATOM      3  C   UNL     1       3.861  -7.850   4.362  1.00  0.00     0.049 A 
ATOM      4  C   UNL     1       2.648  -7.295   4.800  1.00  0.00     0.119 A 
ATOM      5  C   UNL     1       1.433  -7.986   4.577  1.00  0.00    -0.004 A 
ATOM      6  C   UNL     1       1.472  -9.224   3.909  1.00  0.00     0.008 A 
ATOM      7  C   UNL     1       2.683  -9.767   3.478  1.00  0.00     0.004 A 
ENDROOT
BRANCH   4   8
ATOM      8  O   UNL     1       2.658  -6.061   5.449  1.00  0.00    -0.508 OA
ATOM      9  H   UNL     1       2.157  -5.910   6.317  1.00  0.00     0.293 HD
ENDBRANCH   4   8
BRANCH   5  10
ATOM     10  C   UNL     1       0.087  -7.436   5.029  1.00  0.00     0.017 C 
ATOM     11  C   UNL     1      -0.152  -7.672   6.526  1.00  0.00     0.012 C 
ATOM     12  C   UNL     1      -1.068  -7.985   4.181  1.00  0.00     0.012 C 
ENDBRANCH   5  10
TORSDOF 2
ENDMDL
MODEL 9
REMARK VINA RESULT:    -4.002      1.779      4.445
REMARK INTER + INTRA:          -4.549
REMARK INTER:                  -4.357
REMARK INTRA:                  -0.192
REMARK UNBOUND:                -0.196
REMARK SMILES Cc1ccc(C(C)C)c(O)c1
REMARK SMILES IDX 1 1 2 2 11 3 9 4 5 5 4 6 3 7 10 8 6 10 7 11 8 12
REMARK H PARENT 10 9
REMARK Flexibility Score: inf
ROOT
ATOM      1  C   UNL     1      -8.798   9.812  -0.883  1.00  0.00     0.044 C 
ATOM      2  C   UNL     1      -7.830   8.959  -1.648  1.00  0.00    -0.047 A 
ATOM      3  C   UNL     1      -8.292   7.882  -2.415  1.00  0.00     0.049 A 
ATOM      4  C   UNL     1      -7.397   7.101  -3.162  1.00  0.00     0.119 A 
ATOM      5  C   UNL     1      -6.015   7.407  -3.157  1.00  0.00    -0.004 A 
ATOM      6  C   UNL     1      -5.569   8.504  -2.398  1.00  0.00     0.008 A 
ATOM      7  C   UNL     1      -6.466   9.275  -1.657  1.00  0.00     0.004 A 
ENDROOT
BRANCH   4   8
ATOM      8  O   UNL     1      -7.886   6.030  -3.908  1.00  0.00    -0.508 OA
ATOM      9  H   UNL     1      -7.848   6.022  -4.920  1.00  0.00     0.293 HD
ENDBRANCH   4   8
BRANCH   5  10
ATOM     10  C   UNL     1      -4.996   6.597  -3.947  1.00  0.00     0.017 C 
ATOM     11  C   UNL     1      -4.108   5.747  -3.029  1.00  0.00     0.012 C 
ATOM     12  C   UNL     1      -4.159   7.484  -4.877  1.00  0.00     0.012 C 
ENDBRANCH   5  10
TORSDOF 2
ENDMDL
