MODEL 1
REMARK VINA RESULT:    -5.600      0.000      0.000
REMARK INTER + INTRA:          -7.062
REMARK INTER:                  -6.746
REMARK INTRA:                  -0.316
REMARK UNBOUND:                -0.316
REMARK SMILES O=c1c(O)c(-c2ccc(O)cc2O)oc2cc(O)cc(O)c12
REMARK SMILES IDX 5 1 3 2 2 3 1 4 22 5 20 6 19 7 17 8 16 9 15 10 14 11 6 12
REMARK SMILES IDX 8 13 7 14 9 15 11 16 12 17 10 18 13 20 4 22 21 24 18 26
REMARK H PARENT 10 19 13 21 4 23 21 25 18 27
REMARK Flexibility Score: inf
ROOT
ATOM      1  C   UNL     1     -33.911  10.148 -36.328  1.00  0.00     0.184 A 
ATOM      2  C   UNL     1     -32.638   9.552 -36.269  1.00  0.00     0.208 A 
ATOM      3  C   UNL     1     -31.908   9.627 -35.073  1.00  0.00     0.238 A 
ATOM      4  O   UNL     1     -30.762   9.103 -35.010  1.00  0.00    -0.285 OA
ATOM      5  C   UNL     1     -32.467  10.281 -33.956  1.00  0.00     0.111 A 
ATOM      6  C   UNL     1     -31.800  10.397 -32.712  1.00  0.00     0.134 A 
ATOM      7  C   UNL     1     -32.428  11.057 -31.645  1.00  0.00     0.093 A 
ATOM      8  C   UNL     1     -33.706  11.601 -31.795  1.00  0.00     0.123 A 
ATOM      9  C   UNL     1     -34.369  11.489 -33.022  1.00  0.00     0.094 A 
ATOM     10  C   UNL     1     -33.760  10.837 -34.098  1.00  0.00     0.146 A 
ATOM     11  O   UNL     1     -34.411  10.748 -35.252  1.00  0.00    -0.451 OA
ENDROOT
BRANCH   1  12
ATOM     12  C   UNL     1     -34.727  10.123 -37.563  1.00  0.00     0.063 A 
ATOM     13  C   UNL     1     -35.817   8.877 -39.348  1.00  0.00     0.047 A 
ATOM     14  C   UNL     1     -35.070   8.901 -38.168  1.00  0.00     0.020 A 
ATOM     15  C   UNL     1     -36.222  10.072 -39.947  1.00  0.00     0.119 A 
ATOM     16  C   UNL     1     -35.875  11.295 -39.363  1.00  0.00     0.093 A 
ATOM     17  C   UNL     1     -35.127  11.328 -38.177  1.00  0.00     0.130 A 
BRANCH  15  18
ATOM     18  O   UNL     1     -36.966  10.032 -41.125  1.00  0.00    -0.508 OA
ATOM     19  H   UNL     1     -37.919   9.687 -41.139  1.00  0.00     0.293 HD
ENDBRANCH  15  18
BRANCH  17  20
ATOM     20  O   UNL     1     -34.793  12.555 -37.601  1.00  0.00    -0.507 OA
ATOM     21  H   UNL     1     -34.341  12.611 -36.696  1.00  0.00     0.293 HD
ENDBRANCH  17  20
ENDBRANCH   1  12
BRANCH   2  22
ATOM     22  O   UNL     1     -32.125   8.875 -37.378  1.00  0.00    -0.502 OA
ATOM     23  H   UNL     1     -32.501   8.998 -38.311  1.00  0.00     0.293 HD
ENDBRANCH   2  22
BRANCH   6  24
ATOM     24  O   UNL     1     -30.523   9.864 -32.529  1.00  0.00    -0.507 OA
ATOM     25  H   UNL     1     -29.699  10.307 -32.921  1.00  0.00     0.293 HD
ENDBRANCH   6  24
BRANCH   8  26
ATOM     26  O   UNL     1     -34.306  12.250 -30.720  1.00  0.00    -0.508 OA
ATOM     27  H   UNL     1     -33.772  12.837 -30.089  1.00  0.00     0.293 HD
ENDBRANCH   8  26
TORSDOF 6
ENDMDL
MODEL 2
REMARK VINA RESULT:    -4.631      1.497      6.415
REMARK INTER + INTRA:          -5.894
REMARK INTER:                  -5.563
REMARK INTRA:                  -0.332
REMARK UNBOUND:                -0.316
REMARK SMILES O=c1c(O)c(-c2ccc(O)cc2O)oc2cc(O)cc(O)c12
REMARK SMILES IDX 5 1 3 2 2 3 1 4 22 5 20 6 19 7 17 8 16 9 15 10 14 11 6 12
REMARK SMILES IDX 8 13 7 14 9 15 11 16 12 17 10 18 13 20 4 22 21 24 18 26
REMARK H PARENT 10 19 13 21 4 23 21 25 18 27
REMARK Flexibility Score: inf
ROOT
ATOM      1  C   UNL     1     -33.595   9.946 -36.122  1.00  0.00     0.184 A 
ATOM      2  C   UNL     1     -32.617   9.479 -37.019  1.00  0.00     0.208 A 
ATOM      3  C   UNL     1     -32.961   9.304 -38.369  1.00  0.00     0.238 A 
ATOM      4  O   UNL     1     -32.096   8.878 -39.180  1.00  0.00    -0.285 OA
ATOM      5  C   UNL     1     -34.268   9.612 -38.799  1.00  0.00     0.111 A 
ATOM      6  C   UNL     1     -34.697   9.468 -40.140  1.00  0.00     0.134 A 
ATOM      7  C   UNL     1     -36.013   9.803 -40.492  1.00  0.00     0.093 A 
ATOM      8  C   UNL     1     -36.907  10.279 -39.530  1.00  0.00     0.123 A 
ATOM      9  C   UNL     1     -36.490  10.424 -38.203  1.00  0.00     0.094 A 
ATOM     10  C   UNL     1     -35.183  10.093 -37.833  1.00  0.00     0.146 A 
ATOM     11  O   UNL     1     -34.815  10.236 -36.565  1.00  0.00    -0.451 OA
ENDROOT
BRANCH   1  12
ATOM     12  C   UNL     1     -33.305  10.136 -34.682  1.00  0.00     0.063 A 
ATOM     13  C   UNL     1     -32.569   9.240 -32.541  1.00  0.00     0.047 A 
ATOM     14  C   UNL     1     -32.816   9.070 -33.906  1.00  0.00     0.020 A 
ATOM     15  C   UNL     1     -32.816  10.472 -31.931  1.00  0.00     0.119 A 
ATOM     16  C   UNL     1     -33.316  11.536 -32.690  1.00  0.00     0.093 A 
ATOM     17  C   UNL     1     -33.565  11.375 -34.061  1.00  0.00     0.130 A 
BRANCH  15  18
ATOM     18  O   UNL     1     -32.565  10.627 -30.569  1.00  0.00    -0.508 OA
ATOM     19  H   UNL     1     -31.663  10.400 -30.168  1.00  0.00     0.293 HD
ENDBRANCH  15  18
BRANCH  17  20
ATOM     20  O   UNL     1     -34.057  12.446 -34.808  1.00  0.00    -0.507 OA
ATOM     21  H   UNL     1     -34.995  12.440 -35.191  1.00  0.00     0.293 HD
ENDBRANCH  17  20
ENDBRANCH   1  12
BRANCH   2  22
ATOM     22  O   UNL     1     -31.318   9.220 -36.574  1.00  0.00    -0.502 OA
ATOM     23  H   UNL     1     -30.868   8.322 -36.704  1.00  0.00     0.293 HD
ENDBRANCH   2  22
BRANCH   6  24
ATOM     24  O   UNL     1     -33.827   8.995 -41.125  1.00  0.00    -0.507 OA
ATOM     25  H   UNL     1     -34.034   8.163 -41.665  1.00  0.00     0.293 HD
ENDBRANCH   6  24
BRANCH   8  26
ATOM     26  O   UNL     1     -38.208  10.606 -39.905  1.00  0.00    -0.508 OA
ATOM     27  H   UNL     1     -39.008  10.109 -39.530  1.00  0.00     0.293 HD
ENDBRANCH   8  26
TORSDOF 6
ENDMDL
MODEL 3
REMARK VINA RESULT:    -3.728      1.603      6.758
REMARK INTER + INTRA:          -4.806
REMARK INTER:                  -4.649
REMARK INTRA:                  -0.157
REMARK UNBOUND:                -0.316
REMARK SMILES O=c1c(O)c(-c2ccc(O)cc2O)oc2cc(O)cc(O)c12
REMARK SMILES IDX 5 1 3 2 2 3 1 4 22 5 20 6 19 7 17 8 16 9 15 10 14 11 6 12
REMARK SMILES IDX 8 13 7 14 9 15 11 16 12 17 10 18 13 20 4 22 21 24 18 26
REMARK H PARENT 10 19 13 21 4 23 21 25 18 27
REMARK Flexibility Score: inf
ROOT
ATOM      1  C   UNL     1     -32.790  11.243 -33.207  1.00  0.00     0.184 A 
ATOM      2  C   UNL     1     -31.871  10.252 -33.598  1.00  0.00     0.208 A 
ATOM      3  C   UNL     1     -31.913   9.769 -34.915  1.00  0.00     0.238 A 
ATOM      4  O   UNL     1     -31.100   8.875 -35.275  1.00  0.00    -0.285 OA
ATOM      5  C   UNL     1     -32.858  10.295 -35.820  1.00  0.00     0.111 A 
ATOM      6  C   UNL     1     -32.965   9.867 -37.165  1.00  0.00     0.134 A 
ATOM      7  C   UNL     1     -33.927  10.445 -38.006  1.00  0.00     0.093 A 
ATOM      8  C   UNL     1     -34.784  11.440 -37.530  1.00  0.00     0.123 A 
ATOM      9  C   UNL     1     -34.684  11.867 -36.201  1.00  0.00     0.094 A 
ATOM     10  C   UNL     1     -33.732  11.302 -35.347  1.00  0.00     0.146 A 
ATOM     11  O   UNL     1     -33.662  11.722 -34.090  1.00  0.00    -0.451 OA
ENDROOT
BRANCH   1  12
ATOM     12  C   UNL     1     -32.815  11.783 -31.829  1.00  0.00     0.063 A 
ATOM     13  C   UNL     1     -31.640  12.641 -29.876  1.00  0.00     0.047 A 
ATOM     14  C   UNL     1     -31.621  12.157 -31.187  1.00  0.00     0.020 A 
ATOM     15  C   UNL     1     -32.849  12.749 -29.185  1.00  0.00     0.119 A 
ATOM     16  C   UNL     1     -34.043  12.367 -29.808  1.00  0.00     0.093 A 
ATOM     17  C   UNL     1     -34.033  11.881 -31.124  1.00  0.00     0.130 A 
BRANCH  15  18
ATOM     18  O   UNL     1     -32.853  13.233 -27.878  1.00  0.00    -0.508 OA
ATOM     19  H   UNL     1     -32.001  13.542 -27.425  1.00  0.00     0.293 HD
ENDBRANCH  15  18
BRANCH  17  20
ATOM     20  O   UNL     1     -35.230  11.510 -31.736  1.00  0.00    -0.507 OA
ATOM     21  H   UNL     1     -35.456  10.539 -31.917  1.00  0.00     0.293 HD
ENDBRANCH  17  20
ENDBRANCH   1  12
BRANCH   2  22
ATOM     22  O   UNL     1     -30.919   9.778 -32.693  1.00  0.00    -0.502 OA
ATOM     23  H   UNL     1     -30.047  10.264 -32.518  1.00  0.00     0.293 HD
ENDBRANCH   2  22
BRANCH   6  24
ATOM     24  O   UNL     1     -32.123   8.875 -37.672  1.00  0.00    -0.507 OA
ATOM     25  H   UNL     1     -31.301   9.102 -38.221  1.00  0.00     0.293 HD
ENDBRANCH   6  24
BRANCH   8  26
ATOM     26  O   UNL     1     -35.731  11.998 -38.385  1.00  0.00    -0.508 OA
ATOM     27  H   UNL     1     -35.482  12.720 -39.052  1.00  0.00     0.293 HD
ENDBRANCH   8  26
TORSDOF 6
ENDMDL
