MODEL 1
REMARK VINA RESULT:    -8.740      0.000      0.000
REMARK INTER + INTRA:         -10.246
REMARK INTER:                 -10.273
REMARK INTRA:                   0.028
REMARK UNBOUND:                 0.028
REMARK SMILES O=c1c(O)c(-c2ccc(O)c(O)c2)oc2cc(O)ccc12
REMARK SMILES IDX 5 1 3 2 2 3 1 4 21 5 15 6 14 7 16 8 17 9 19 10 20 11 6 12
REMARK SMILES IDX 7 13 8 14 9 15 13 16 11 17 10 18 12 20 4 22 18 24
REMARK H PARENT 10 19 12 21 4 23 18 25
REMARK Flexibility Score: inf
ROOT
ATOM      1  C   UNL     1      16.598  22.683  40.869  1.00  0.00     0.180 A 
ATOM      2  C   UNL     1      16.162  23.694  39.988  1.00  0.00     0.208 A 
ATOM      3  C   UNL     1      15.047  24.467  40.344  1.00  0.00     0.235 A 
ATOM      4  O   UNL     1      14.631  25.369  39.568  1.00  0.00    -0.285 OA
ATOM      5  C   UNL     1      14.407  24.232  41.572  1.00  0.00     0.069 A 
ATOM      6  C   UNL     1      14.919  23.217  42.410  1.00  0.00     0.142 A 
ATOM      7  O   UNL     1      15.973  22.502  42.031  1.00  0.00    -0.452 OA
ATOM      8  C   UNL     1      14.317  22.959  43.645  1.00  0.00     0.094 A 
ATOM      9  C   UNL     1      13.204  23.701  44.056  1.00  0.00     0.119 A 
ATOM     10  C   UNL     1      12.691  24.707  43.227  1.00  0.00     0.047 A 
ATOM     11  C   UNL     1      13.288  24.974  41.990  1.00  0.00     0.020 A 
ENDROOT
BRANCH   1  12
ATOM     12  C   UNL     1      17.756  21.813  40.558  1.00  0.00     0.025 A 
ATOM     13  C   UNL     1      17.674  20.415  40.683  1.00  0.00     0.016 A 
ATOM     14  C   UNL     1      18.787  19.615  40.407  1.00  0.00     0.051 A 
ATOM     15  C   UNL     1      19.998  20.199  40.015  1.00  0.00     0.157 A 
ATOM     16  C   UNL     1      18.977  22.395  40.186  1.00  0.00     0.062 A 
ATOM     17  C   UNL     1      20.093  21.597  39.907  1.00  0.00     0.158 A 
BRANCH  15  18
ATOM     18  O   UNL     1      21.105  19.399  39.738  1.00  0.00    -0.504 OA
ATOM     19  H   UNL     1      21.501  18.782  40.437  1.00  0.00     0.293 HD
ENDBRANCH  15  18
BRANCH  17  20
ATOM     20  O   UNL     1      21.287  22.210  39.527  1.00  0.00    -0.504 OA
ATOM     21  H   UNL     1      22.188  21.774  39.678  1.00  0.00     0.293 HD
ENDBRANCH  17  20
ENDBRANCH   1  12
BRANCH   2  22
ATOM     22  O   UNL     1      16.848  23.938  38.796  1.00  0.00    -0.502 OA
ATOM     23  H   UNL     1      17.513  24.696  38.699  1.00  0.00     0.293 HD
ENDBRANCH   2  22
BRANCH   9  24
ATOM     24  O   UNL     1      12.616  23.430  45.290  1.00  0.00    -0.508 OA
ATOM     25  H   UNL     1      12.622  22.497  45.686  1.00  0.00     0.293 HD
ENDBRANCH   9  24
TORSDOF 5
ENDMDL
MODEL 2
REMARK VINA RESULT:    -8.441      0.896      1.604
REMARK INTER + INTRA:          -9.894
REMARK INTER:                  -9.722
REMARK INTRA:                  -0.172
REMARK UNBOUND:                 0.028
REMARK SMILES O=c1c(O)c(-c2ccc(O)c(O)c2)oc2cc(O)ccc12
REMARK SMILES IDX 5 1 3 2 2 3 1 4 21 5 15 6 14 7 16 8 17 9 19 10 20 11 6 12
REMARK SMILES IDX 7 13 8 14 9 15 13 16 11 17 10 18 12 20 4 22 18 24
REMARK H PARENT 10 19 12 21 4 23 18 25
REMARK Flexibility Score: inf
ROOT
ATOM      1  C   UNL     1      16.301  22.787  41.167  1.00  0.00     0.180 A 
ATOM      2  C   UNL     1      15.646  23.749  40.369  1.00  0.00     0.208 A 
ATOM      3  C   UNL     1      14.515  24.399  40.886  1.00  0.00     0.235 A 
ATOM      4  O   UNL     1      13.906  25.255  40.188  1.00  0.00    -0.285 OA
ATOM      5  C   UNL     1      14.075  24.094  42.183  1.00  0.00     0.069 A 
ATOM      6  C   UNL     1      14.799  23.136  42.927  1.00  0.00     0.142 A 
ATOM      7  O   UNL     1      15.860  22.537  42.398  1.00  0.00    -0.452 OA
ATOM      8  C   UNL     1      14.399  22.812  44.228  1.00  0.00     0.094 A 
ATOM      9  C   UNL     1      13.280  23.430  44.797  1.00  0.00     0.119 A 
ATOM     10  C   UNL     1      12.559  24.380  44.062  1.00  0.00     0.047 A 
ATOM     11  C   UNL     1      12.952  24.712  42.761  1.00  0.00     0.020 A 
ENDROOT
BRANCH   1  12
ATOM     12  C   UNL     1      17.490  22.045  40.688  1.00  0.00     0.025 A 
ATOM     13  C   UNL     1      18.705  22.702  40.427  1.00  0.00     0.016 A 
ATOM     14  C   UNL     1      19.807  21.986  39.952  1.00  0.00     0.051 A 
ATOM     15  C   UNL     1      19.708  20.607  39.719  1.00  0.00     0.157 A 
ATOM     16  C   UNL     1      17.389  20.669  40.433  1.00  0.00     0.062 A 
ATOM     17  C   UNL     1      18.491  19.948  39.959  1.00  0.00     0.158 A 
BRANCH  15  18
ATOM     18  O   UNL     1      20.810  19.896  39.248  1.00  0.00    -0.504 OA
ATOM     19  H   UNL     1      21.757  20.160  39.492  1.00  0.00     0.293 HD
ENDBRANCH  15  18
BRANCH  17  20
ATOM     20  O   UNL     1      18.358  18.578  39.730  1.00  0.00    -0.504 OA
ATOM     21  H   UNL     1      17.984  18.211  38.864  1.00  0.00     0.293 HD
ENDBRANCH  17  20
ENDBRANCH   1  12
BRANCH   2  22
ATOM     22  O   UNL     1      16.136  24.068  39.101  1.00  0.00    -0.502 OA
ATOM     23  H   UNL     1      15.535  24.130  38.288  1.00  0.00     0.293 HD
ENDBRANCH   2  22
BRANCH   9  24
ATOM     24  O   UNL     1      12.896  23.095  46.093  1.00  0.00    -0.508 OA
ATOM     25  H   UNL     1      13.472  22.501  46.679  1.00  0.00     0.293 HD
ENDBRANCH   9  24
TORSDOF 5
ENDMDL
MODEL 3
REMARK VINA RESULT:    -7.860      1.941      7.481
REMARK INTER + INTRA:          -9.211
REMARK INTER:                  -9.715
REMARK INTRA:                   0.504
REMARK UNBOUND:                 0.028
REMARK SMILES O=c1c(O)c(-c2ccc(O)c(O)c2)oc2cc(O)ccc12
REMARK SMILES IDX 5 1 3 2 2 3 1 4 21 5 15 6 14 7 16 8 17 9 19 10 20 11 6 12
REMARK SMILES IDX 7 13 8 14 9 15 13 16 11 17 10 18 12 20 4 22 18 24
REMARK H PARENT 10 19 12 21 4 23 18 25
REMARK Flexibility Score: inf
ROOT
ATOM      1  C   UNL     1      18.011  22.172  39.950  1.00  0.00     0.180 A 
ATOM      2  C   UNL     1      17.956  20.969  40.686  1.00  0.00     0.208 A 
ATOM      3  C   UNL     1      19.010  20.051  40.560  1.00  0.00     0.235 A 
ATOM      4  O   UNL     1      18.978  18.964  41.199  1.00  0.00    -0.285 OA
ATOM      5  C   UNL     1      20.096  20.356  39.725  1.00  0.00     0.069 A 
ATOM      6  C   UNL     1      20.087  21.590  39.040  1.00  0.00     0.142 A 
ATOM      7  O   UNL     1      19.067  22.429  39.180  1.00  0.00    -0.452 OA
ATOM      8  C   UNL     1      21.156  21.936  38.206  1.00  0.00     0.094 A 
ATOM      9  C   UNL     1      22.236  21.061  38.044  1.00  0.00     0.119 A 
ATOM     10  C   UNL     1      22.248  19.835  38.721  1.00  0.00     0.047 A 
ATOM     11  C   UNL     1      21.184  19.481  39.558  1.00  0.00     0.020 A 
ENDROOT
BRANCH   1  12
ATOM     12  C   UNL     1      16.932  23.184  40.015  1.00  0.00     0.025 A 
ATOM     13  C   UNL     1      16.893  24.269  39.123  1.00  0.00     0.016 A 
ATOM     14  C   UNL     1      15.879  25.226  39.219  1.00  0.00     0.051 A 
ATOM     15  C   UNL     1      14.897  25.120  40.213  1.00  0.00     0.157 A 
ATOM     16  C   UNL     1      15.960  23.093  41.023  1.00  0.00     0.062 A 
ATOM     17  C   UNL     1      14.941  24.049  41.121  1.00  0.00     0.158 A 
BRANCH  15  18
ATOM     18  O   UNL     1      13.886  26.074  40.304  1.00  0.00    -0.504 OA
ATOM     19  H   UNL     1      13.882  26.774  41.036  1.00  0.00     0.293 HD
ENDBRANCH  15  18
BRANCH  17  20
ATOM     20  O   UNL     1      13.984  23.919  42.127  1.00  0.00    -0.504 OA
ATOM     21  H   UNL     1      14.237  23.829  43.103  1.00  0.00     0.293 HD
ENDBRANCH  17  20
ENDBRANCH   1  12
BRANCH   2  22
ATOM     22  O   UNL     1      16.887  20.715  41.548  1.00  0.00    -0.502 OA
ATOM     23  H   UNL     1      15.923  20.852  41.269  1.00  0.00     0.293 HD
ENDBRANCH   2  22
BRANCH   9  24
ATOM     24  O   UNL     1      23.292  21.421  37.209  1.00  0.00    -0.508 OA
ATOM     25  H   UNL     1      24.189  21.708  37.584  1.00  0.00     0.293 HD
ENDBRANCH   9  24
TORSDOF 5
ENDMDL
MODEL 4
REMARK VINA RESULT:    -7.838      1.296      6.650
REMARK INTER + INTRA:          -9.185
REMARK INTER:                  -9.576
REMARK INTRA:                   0.391
REMARK UNBOUND:                 0.028
REMARK SMILES O=c1c(O)c(-c2ccc(O)c(O)c2)oc2cc(O)ccc12
REMARK SMILES IDX 5 1 3 2 2 3 1 4 21 5 15 6 14 7 16 8 17 9 19 10 20 11 6 12
REMARK SMILES IDX 7 13 8 14 9 15 13 16 11 17 10 18 12 20 4 22 18 24
REMARK H PARENT 10 19 12 21 4 23 18 25
REMARK Flexibility Score: inf
ROOT
ATOM      1  C   UNL     1      14.930  23.724  41.658  1.00  0.00     0.180 A 
ATOM      2  C   UNL     1      15.000  24.688  40.630  1.00  0.00     0.208 A 
ATOM      3  C   UNL     1      15.979  24.545  39.635  1.00  0.00     0.235 A 
ATOM      4  O   UNL     1      16.069  25.400  38.712  1.00  0.00    -0.285 OA
ATOM      5  C   UNL     1      16.848  23.443  39.674  1.00  0.00     0.069 A 
ATOM      6  C   UNL     1      16.699  22.510  40.723  1.00  0.00     0.142 A 
ATOM      7  O   UNL     1      15.763  22.686  41.650  1.00  0.00    -0.452 OA
ATOM      8  C   UNL     1      17.538  21.393  40.792  1.00  0.00     0.094 A 
ATOM      9  C   UNL     1      18.530  21.197  39.825  1.00  0.00     0.119 A 
ATOM     10  C   UNL     1      18.683  22.121  38.784  1.00  0.00     0.047 A 
ATOM     11  C   UNL     1      17.848  23.240  38.706  1.00  0.00     0.020 A 
ENDROOT
BRANCH   1  12
ATOM     12  C   UNL     1      13.937  23.813  42.754  1.00  0.00     0.025 A 
ATOM     13  C   UNL     1      12.786  24.612  42.634  1.00  0.00     0.016 A 
ATOM     14  C   UNL     1      11.875  24.700  43.691  1.00  0.00     0.051 A 
ATOM     15  C   UNL     1      12.105  24.002  44.883  1.00  0.00     0.157 A 
ATOM     16  C   UNL     1      14.174  23.133  43.958  1.00  0.00     0.062 A 
ATOM     17  C   UNL     1      13.263  23.217  45.017  1.00  0.00     0.158 A 
BRANCH  15  18
ATOM     18  O   UNL     1      11.194  24.090  45.933  1.00  0.00    -0.504 OA
ATOM     19  H   UNL     1      11.458  23.866  46.886  1.00  0.00     0.293 HD
ENDBRANCH  15  18
BRANCH  17  20
ATOM     20  O   UNL     1      13.525  22.516  46.194  1.00  0.00    -0.504 OA
ATOM     21  H   UNL     1      12.911  22.564  46.997  1.00  0.00     0.293 HD
ENDBRANCH  17  20
ENDBRANCH   1  12
BRANCH   2  22
ATOM     22  O   UNL     1      14.089  25.746  40.590  1.00  0.00    -0.502 OA
ATOM     23  H   UNL     1      13.379  25.823  39.872  1.00  0.00     0.293 HD
ENDBRANCH   2  22
BRANCH   9  24
ATOM     24  O   UNL     1      19.358  20.079  39.909  1.00  0.00    -0.508 OA
ATOM     25  H   UNL     1      19.925  19.780  39.124  1.00  0.00     0.293 HD
ENDBRANCH   9  24
TORSDOF 5
ENDMDL
MODEL 5
REMARK VINA RESULT:    -7.678      1.982      2.653
REMARK INTER + INTRA:          -8.998
REMARK INTER:                  -9.520
REMARK INTRA:                   0.523
REMARK UNBOUND:                 0.028
REMARK SMILES O=c1c(O)c(-c2ccc(O)c(O)c2)oc2cc(O)ccc12
REMARK SMILES IDX 5 1 3 2 2 3 1 4 21 5 15 6 14 7 16 8 17 9 19 10 20 11 6 12
REMARK SMILES IDX 7 13 8 14 9 15 13 16 11 17 10 18 12 20 4 22 18 24
REMARK H PARENT 10 19 12 21 4 23 18 25
REMARK Flexibility Score: inf
ROOT
ATOM      1  C   UNL     1      18.481  22.961  39.331  1.00  0.00     0.180 A 
ATOM      2  C   UNL     1      18.509  24.141  38.558  1.00  0.00     0.208 A 
ATOM      3  C   UNL     1      17.439  25.042  38.661  1.00  0.00     0.235 A 
ATOM      4  O   UNL     1      17.436  26.099  37.973  1.00  0.00    -0.285 OA
ATOM      5  C   UNL     1      16.380  24.761  39.540  1.00  0.00     0.069 A 
ATOM      6  C   UNL     1      16.438  23.570  40.297  1.00  0.00     0.142 A 
ATOM      7  O   UNL     1      17.466  22.739  40.163  1.00  0.00    -0.452 OA
ATOM      8  C   UNL     1      15.408  23.258  41.191  1.00  0.00     0.094 A 
ATOM      9  C   UNL     1      14.317  24.122  41.338  1.00  0.00     0.119 A 
ATOM     10  C   UNL     1      14.256  25.303  40.589  1.00  0.00     0.047 A 
ATOM     11  C   UNL     1      15.281  25.625  39.693  1.00  0.00     0.020 A 
ENDROOT
BRANCH   1  12
ATOM     12  C   UNL     1      19.563  21.951  39.266  1.00  0.00     0.025 A 
ATOM     13  C   UNL     1      19.631  20.893  40.188  1.00  0.00     0.016 A 
ATOM     14  C   UNL     1      20.675  19.966  40.123  1.00  0.00     0.051 A 
ATOM     15  C   UNL     1      21.671  20.089  39.145  1.00  0.00     0.157 A 
ATOM     16  C   UNL     1      20.574  22.084  38.302  1.00  0.00     0.062 A 
ATOM     17  C   UNL     1      21.620  21.157  38.232  1.00  0.00     0.158 A 
BRANCH  15  18
ATOM     18  O   UNL     1      22.709  19.162  39.081  1.00  0.00    -0.504 OA
ATOM     19  H   UNL     1      23.327  19.112  38.280  1.00  0.00     0.293 HD
ENDBRANCH  15  18
BRANCH  17  20
ATOM     20  O   UNL     1      22.601  21.312  37.252  1.00  0.00    -0.504 OA
ATOM     21  H   UNL     1      23.118  20.527  36.879  1.00  0.00     0.293 HD
ENDBRANCH  17  20
ENDBRANCH   1  12
BRANCH   2  22
ATOM     22  O   UNL     1      19.599  24.418  37.730  1.00  0.00    -0.502 OA
ATOM     23  H   UNL     1      19.779  25.345  37.364  1.00  0.00     0.293 HD
ENDBRANCH   2  22
BRANCH   9  24
ATOM     24  O   UNL     1      13.300  23.795  42.233  1.00  0.00    -0.508 OA
ATOM     25  H   UNL     1      12.368  23.561  41.913  1.00  0.00     0.293 HD
ENDBRANCH   9  24
TORSDOF 5
ENDMDL
MODEL 6
REMARK VINA RESULT:    -7.675      1.343      6.631
REMARK INTER + INTRA:          -8.993
REMARK INTER:                  -9.376
REMARK INTRA:                   0.383
REMARK UNBOUND:                 0.028
REMARK SMILES O=c1c(O)c(-c2ccc(O)c(O)c2)oc2cc(O)ccc12
REMARK SMILES IDX 5 1 3 2 2 3 1 4 21 5 15 6 14 7 16 8 17 9 19 10 20 11 6 12
REMARK SMILES IDX 7 13 8 14 9 15 13 16 11 17 10 18 12 20 4 22 18 24
REMARK H PARENT 10 19 12 21 4 23 18 25
REMARK Flexibility Score: inf
ROOT
ATOM      1  C   UNL     1      16.744  23.304  40.480  1.00  0.00     0.180 A 
ATOM      2  C   UNL     1      17.188  24.206  39.491  1.00  0.00     0.208 A 
ATOM      3  C   UNL     1      18.366  23.912  38.787  1.00  0.00     0.235 A 
ATOM      4  O   UNL     1      18.789  24.709  37.905  1.00  0.00    -0.285 OA
ATOM      5  C   UNL     1      19.060  22.725  39.068  1.00  0.00     0.069 A 
ATOM      6  C   UNL     1      18.538  21.861  40.056  1.00  0.00     0.142 A 
ATOM      7  O   UNL     1      17.424  22.181  40.705  1.00  0.00    -0.452 OA
ATOM      8  C   UNL     1      19.195  20.664  40.357  1.00  0.00     0.094 A 
ATOM      9  C   UNL     1      20.371  20.316  39.685  1.00  0.00     0.119 A 
ATOM     10  C   UNL     1      20.894  21.170  38.705  1.00  0.00     0.047 A 
ATOM     11  C   UNL     1      20.244  22.370  38.395  1.00  0.00     0.020 A 
ENDROOT
BRANCH   1  12
ATOM     12  C   UNL     1      15.521  23.550  41.278  1.00  0.00     0.025 A 
ATOM     13  C   UNL     1      14.530  24.445  40.839  1.00  0.00     0.016 A 
ATOM     14  C   UNL     1      13.395  24.681  41.620  1.00  0.00     0.051 A 
ATOM     15  C   UNL     1      13.240  24.037  42.855  1.00  0.00     0.157 A 
ATOM     16  C   UNL     1      15.372  22.924  42.525  1.00  0.00     0.062 A 
ATOM     17  C   UNL     1      14.236  23.156  43.309  1.00  0.00     0.158 A 
BRANCH  15  18
ATOM     18  O   UNL     1      12.106  24.272  43.630  1.00  0.00    -0.504 OA
ATOM     19  H   UNL     1      11.302  23.657  43.594  1.00  0.00     0.293 HD
ENDBRANCH  15  18
BRANCH  17  20
ATOM     20  O   UNL     1      14.115  22.505  44.537  1.00  0.00    -0.504 OA
ATOM     21  H   UNL     1      14.321  21.520  44.647  1.00  0.00     0.293 HD
ENDBRANCH  17  20
ENDBRANCH   1  12
BRANCH   2  22
ATOM     22  O   UNL     1      16.449  25.355  39.198  1.00  0.00    -0.502 OA
ATOM     23  H   UNL     1      16.489  26.186  39.776  1.00  0.00     0.293 HD
ENDBRANCH   2  22
BRANCH   9  24
ATOM     24  O   UNL     1      21.013  19.120  39.999  1.00  0.00    -0.508 OA
ATOM     25  H   UNL     1      21.605  18.645  39.328  1.00  0.00     0.293 HD
ENDBRANCH   9  24
TORSDOF 5
ENDMDL
MODEL 7
REMARK VINA RESULT:    -7.154      1.717      6.974
REMARK INTER + INTRA:          -8.382
REMARK INTER:                  -8.130
REMARK INTRA:                  -0.252
REMARK UNBOUND:                 0.028
REMARK SMILES O=c1c(O)c(-c2ccc(O)c(O)c2)oc2cc(O)ccc12
REMARK SMILES IDX 5 1 3 2 2 3 1 4 21 5 15 6 14 7 16 8 17 9 19 10 20 11 6 12
REMARK SMILES IDX 7 13 8 14 9 15 13 16 11 17 10 18 12 20 4 22 18 24
REMARK H PARENT 10 19 12 21 4 23 18 25
REMARK Flexibility Score: inf
ROOT
ATOM      1  C   UNL     1      16.882  22.473  40.632  1.00  0.00     0.180 A 
ATOM      2  C   UNL     1      16.911  21.139  40.173  1.00  0.00     0.208 A 
ATOM      3  C   UNL     1      18.079  20.660  39.561  1.00  0.00     0.235 A 
ATOM      4  O   UNL     1      18.125  19.475  39.132  1.00  0.00    -0.285 OA
ATOM      5  C   UNL     1      19.192  21.507  39.438  1.00  0.00     0.069 A 
ATOM      6  C   UNL     1      19.091  22.822  39.944  1.00  0.00     0.142 A 
ATOM      7  O   UNL     1      17.964  23.239  40.510  1.00  0.00    -0.452 OA
ATOM      8  C   UNL     1      20.181  23.693  39.850  1.00  0.00     0.094 A 
ATOM      9  C   UNL     1      21.374  23.270  39.253  1.00  0.00     0.119 A 
ATOM     10  C   UNL     1      21.477  21.967  38.748  1.00  0.00     0.047 A 
ATOM     11  C   UNL     1      20.393  21.087  38.839  1.00  0.00     0.020 A 
ENDROOT
BRANCH   1  12
ATOM     12  C   UNL     1      15.682  23.058  41.273  1.00  0.00     0.025 A 
ATOM     13  C   UNL     1      14.879  23.997  40.602  1.00  0.00     0.016 A 
ATOM     14  C   UNL     1      13.765  24.555  41.235  1.00  0.00     0.051 A 
ATOM     15  C   UNL     1      13.444  24.194  42.550  1.00  0.00     0.157 A 
ATOM     16  C   UNL     1      15.369  22.716  42.598  1.00  0.00     0.062 A 
ATOM     17  C   UNL     1      14.254  23.271  43.235  1.00  0.00     0.158 A 
BRANCH  15  18
ATOM     18  O   UNL     1      12.332  24.750  43.178  1.00  0.00    -0.504 OA
ATOM     19  H   UNL     1      11.390  24.450  42.954  1.00  0.00     0.293 HD
ENDBRANCH  15  18
BRANCH  17  20
ATOM     20  O   UNL     1      13.966  22.897  44.547  1.00  0.00    -0.504 OA
ATOM     21  H   UNL     1      14.689  22.624  45.200  1.00  0.00     0.293 HD
ENDBRANCH  17  20
ENDBRANCH   1  12
BRANCH   2  22
ATOM     22  O   UNL     1      15.805  20.305  40.354  1.00  0.00    -0.502 OA
ATOM     23  H   UNL     1      15.727  19.674  41.142  1.00  0.00     0.293 HD
ENDBRANCH   2  22
BRANCH   9  24
ATOM     24  O   UNL     1      22.449  24.151  39.168  1.00  0.00    -0.508 OA
ATOM     25  H   UNL     1      22.544  24.797  38.392  1.00  0.00     0.293 HD
ENDBRANCH   9  24
TORSDOF 5
ENDMDL
MODEL 8
REMARK VINA RESULT:    -5.826      1.850      6.900
REMARK INTER + INTRA:          -6.820
REMARK INTER:                  -7.362
REMARK INTRA:                   0.542
REMARK UNBOUND:                 0.028
REMARK SMILES O=c1c(O)c(-c2ccc(O)c(O)c2)oc2cc(O)ccc12
REMARK SMILES IDX 5 1 3 2 2 3 1 4 21 5 15 6 14 7 16 8 17 9 19 10 20 11 6 12
REMARK SMILES IDX 7 13 8 14 9 15 13 16 11 17 10 18 12 20 4 22 18 24
REMARK H PARENT 10 19 12 21 4 23 18 25
REMARK Flexibility Score: inf
ROOT
ATOM      1  C   UNL     1      17.804  23.298  39.730  1.00  0.00     0.180 A 
ATOM      2  C   UNL     1      18.297  24.157  38.725  1.00  0.00     0.208 A 
ATOM      3  C   UNL     1      19.494  23.822  38.075  1.00  0.00     0.235 A 
ATOM      4  O   UNL     1      19.959  24.579  37.181  1.00  0.00    -0.285 OA
ATOM      5  C   UNL     1      20.160  22.636  38.423  1.00  0.00     0.069 A 
ATOM      6  C   UNL     1      19.590  21.817  39.422  1.00  0.00     0.142 A 
ATOM      7  O   UNL     1      18.459  22.175  40.019  1.00  0.00    -0.452 OA
ATOM      8  C   UNL     1      20.217  20.622  39.790  1.00  0.00     0.094 A 
ATOM      9  C   UNL     1      21.411  20.234  39.173  1.00  0.00     0.119 A 
ATOM     10  C   UNL     1      21.981  21.044  38.182  1.00  0.00     0.047 A 
ATOM     11  C   UNL     1      21.360  22.240  37.806  1.00  0.00     0.020 A 
ENDROOT
BRANCH   1  12
ATOM     12  C   UNL     1      16.558  23.591  40.475  1.00  0.00     0.025 A 
ATOM     13  C   UNL     1      16.101  22.741  41.497  1.00  0.00     0.016 A 
ATOM     14  C   UNL     1      14.909  23.024  42.170  1.00  0.00     0.051 A 
ATOM     15  C   UNL     1      14.151  24.150  41.824  1.00  0.00     0.157 A 
ATOM     16  C   UNL     1      15.785  24.705  40.116  1.00  0.00     0.062 A 
ATOM     17  C   UNL     1      14.591  24.993  40.789  1.00  0.00     0.158 A 
BRANCH  15  18
ATOM     18  O   UNL     1      12.964  24.431  42.498  1.00  0.00    -0.504 OA
ATOM     19  H   UNL     1      12.188  24.891  42.038  1.00  0.00     0.293 HD
ENDBRANCH  15  18
BRANCH  17  20
ATOM     20  O   UNL     1      13.856  26.118  40.415  1.00  0.00    -0.504 OA
ATOM     21  H   UNL     1      13.390  26.183  39.519  1.00  0.00     0.293 HD
ENDBRANCH  17  20
ENDBRANCH   1  12
BRANCH   2  22
ATOM     22  O   UNL     1      17.586  25.305  38.366  1.00  0.00    -0.502 OA
ATOM     23  H   UNL     1      18.047  26.178  38.138  1.00  0.00     0.293 HD
ENDBRANCH   2  22
BRANCH   9  24
ATOM     24  O   UNL     1      22.023  19.040  39.552  1.00  0.00    -0.508 OA
ATOM     25  H   UNL     1      22.304  18.348  38.866  1.00  0.00     0.293 HD
ENDBRANCH   9  24
TORSDOF 5
ENDMDL
