MODEL 1
REMARK VINA RESULT:    -3.997      0.000      0.000
REMARK INTER + INTRA:         -10.650
REMARK INTER:                  -7.735
REMARK INTRA:                  -2.915
REMARK UNBOUND:                -2.915
REMARK SMILES CCCCCCCCCCCCCCCCCC(=O)[O-]
REMARK SMILES IDX 10 1 11 2 12 3 13 4 14 5 15 6 16 7 17 8 18 9 19 10 20 11
REMARK SMILES IDX 9 12 8 13 7 14 6 15 5 16 4 17 3 18 2 19 1 20
REMARK H PARENT
REMARK Flexibility Score: inf
ROOT
ATOM      1  C   UNL     1      30.829   6.623  30.633  1.00  0.00     0.000 C 
ENDROOT
BRANCH   1   2
ATOM      2  C   UNL     1      31.580   7.003  31.922  1.00  0.00     0.000 C 
BRANCH   2   3
ATOM      3  C   UNL     1      31.008   8.262  32.597  1.00  0.00     0.000 C 
BRANCH   3   4
ATOM      4  C   UNL     1      32.016   9.424  32.646  1.00  0.00     0.000 C 
BRANCH   4   5
ATOM      5  C   UNL     1      31.514  10.760  32.061  1.00  0.00     0.000 C 
BRANCH   5   6
ATOM      6  C   UNL     1      30.142  11.227  32.579  1.00  0.00     0.000 C 
BRANCH   6   7
ATOM      7  C   UNL     1      29.150  11.540  31.446  1.00  0.00     0.006 C 
BRANCH   7   8
ATOM      8  C   UNL     1      29.839  11.608  30.076  1.00  0.00     0.053 C 
BRANCH   8   9
ATOM      9  C   UNL     1      28.862  11.446  28.952  1.00  0.00     0.041 C 
ATOM     10  O   UNL     1      27.639  11.277  29.196  1.00  0.00    -0.550 OA
ATOM     11  O   UNL     1      29.306  11.453  27.635  1.00  0.00    -0.550 OA
ENDBRANCH   8   9
ENDBRANCH   7   8
ENDBRANCH   6   7
ENDBRANCH   5   6
ENDBRANCH   4   5
ENDBRANCH   3   4
ENDBRANCH   2   3
ENDBRANCH   1   2
BRANCH   1  12
ATOM     12  C   UNL     1      29.907   7.721  30.064  1.00  0.00     0.000 C 
BRANCH  12  13
ATOM     13  C   UNL     1      30.284   8.232  28.659  1.00  0.00    -0.000 C 
BRANCH  13  14
ATOM     14  C   UNL     1      31.766   8.060  28.282  1.00  0.00    -0.000 C 
BRANCH  14  15
ATOM     15  C   UNL     1      32.672   9.121  28.923  1.00  0.00    -0.000 C 
BRANCH  15  16
ATOM     16  C   UNL     1      33.975   8.495  29.434  1.00  0.00    -0.000 C 
BRANCH  16  17
ATOM     17  C   UNL     1      34.755   9.484  30.310  1.00  0.00    -0.000 C 
BRANCH  17  18
ATOM     18  C   UNL     1      35.951   8.796  30.983  1.00  0.00    -0.000 C 
BRANCH  18  19
ATOM     19  C   UNL     1      35.670   7.325  31.324  1.00  0.00    -0.003 C 
ATOM     20  C   UNL     1      35.148   7.138  32.750  1.00  0.00     0.004 C 
ENDBRANCH  18  19
ENDBRANCH  17  18
ENDBRANCH  16  17
ENDBRANCH  15  16
ENDBRANCH  14  15
ENDBRANCH  13  14
ENDBRANCH  12  13
ENDBRANCH   1  12
TORSDOF 16
ENDMDL
MODEL 2
REMARK VINA RESULT:    -3.904      3.390      5.972
REMARK INTER + INTRA:         -10.471
REMARK INTER:                  -7.656
REMARK INTRA:                  -2.815
REMARK UNBOUND:                -2.915
REMARK SMILES CCCCCCCCCCCCCCCCCC(=O)[O-]
REMARK SMILES IDX 10 1 11 2 12 3 13 4 14 5 15 6 16 7 17 8 18 9 19 10 20 11
REMARK SMILES IDX 9 12 8 13 7 14 6 15 5 16 4 17 3 18 2 19 1 20
REMARK H PARENT
REMARK Flexibility Score: inf
ROOT
ATOM      1  C   UNL     1      31.376   7.202  31.167  1.00  0.00     0.000 C 
ENDROOT
BRANCH   1   2
ATOM      2  C   UNL     1      31.117   8.492  31.968  1.00  0.00     0.000 C 
BRANCH   2   3
ATOM      3  C   UNL     1      32.411   9.250  32.312  1.00  0.00     0.000 C 
BRANCH   3   4
ATOM      4  C   UNL     1      32.860  10.204  31.190  1.00  0.00     0.000 C 
BRANCH   4   5
ATOM      5  C   UNL     1      34.338  10.076  30.768  1.00  0.00     0.000 C 
BRANCH   5   6
ATOM      6  C   UNL     1      34.708   8.757  30.067  1.00  0.00     0.000 C 
BRANCH   6   7
ATOM      7  C   UNL     1      35.949   8.084  30.678  1.00  0.00     0.006 C 
BRANCH   7   8
ATOM      8  C   UNL     1      35.581   7.071  31.771  1.00  0.00     0.053 C 
BRANCH   8   9
ATOM      9  C   UNL     1      36.222   7.407  33.082  1.00  0.00     0.041 C 
ATOM     10  O   UNL     1      35.702   8.267  33.840  1.00  0.00    -0.550 OA
ATOM     11  O   UNL     1      37.410   6.791  33.455  1.00  0.00    -0.550 OA
ENDBRANCH   8   9
ENDBRANCH   7   8
ENDBRANCH   6   7
ENDBRANCH   5   6
ENDBRANCH   4   5
ENDBRANCH   3   4
ENDBRANCH   2   3
ENDBRANCH   1   2
BRANCH   1  12
ATOM     12  C   UNL     1      30.216   6.756  30.253  1.00  0.00     0.000 C 
BRANCH  12  13
ATOM     13  C   UNL     1      30.237   7.348  28.830  1.00  0.00    -0.000 C 
BRANCH  13  14
ATOM     14  C   UNL     1      31.535   8.082  28.451  1.00  0.00    -0.000 C 
BRANCH  14  15
ATOM     15  C   UNL     1      31.299   9.546  28.055  1.00  0.00    -0.000 C 
BRANCH  15  16
ATOM     16  C   UNL     1      29.836   9.780  27.663  1.00  0.00    -0.000 C 
BRANCH  16  17
ATOM     17  C   UNL     1      29.273  11.029  28.352  1.00  0.00    -0.000 C 
BRANCH  17  18
ATOM     18  C   UNL     1      28.717  10.686  29.742  1.00  0.00    -0.000 C 
BRANCH  18  19
ATOM     19  C   UNL     1      29.335  11.549  30.853  1.00  0.00    -0.003 C 
ATOM     20  C   UNL     1      30.167  12.710  30.307  1.00  0.00     0.004 C 
ENDBRANCH  18  19
ENDBRANCH  17  18
ENDBRANCH  16  17
ENDBRANCH  15  16
ENDBRANCH  14  15
ENDBRANCH  13  14
ENDBRANCH  12  13
ENDBRANCH   1  12
TORSDOF 16
ENDMDL
MODEL 3
REMARK VINA RESULT:    -3.885      2.789      5.913
REMARK INTER + INTRA:         -10.433
REMARK INTER:                  -7.533
REMARK INTRA:                  -2.900
REMARK UNBOUND:                -2.915
REMARK SMILES CCCCCCCCCCCCCCCCCC(=O)[O-]
REMARK SMILES IDX 10 1 11 2 12 3 13 4 14 5 15 6 16 7 17 8 18 9 19 10 20 11
REMARK SMILES IDX 9 12 8 13 7 14 6 15 5 16 4 17 3 18 2 19 1 20
REMARK H PARENT
REMARK Flexibility Score: inf
ROOT
ATOM      1  C   UNL     1      31.790   7.255  32.357  1.00  0.00     0.000 C 
ENDROOT
BRANCH   1   2
ATOM      2  C   UNL     1      30.820   6.720  31.288  1.00  0.00     0.000 C 
BRANCH   2   3
ATOM      3  C   UNL     1      30.241   7.831  30.396  1.00  0.00     0.000 C 
BRANCH   3   4
ATOM      4  C   UNL     1      30.719   7.735  28.936  1.00  0.00     0.000 C 
BRANCH   4   5
ATOM      5  C   UNL     1      31.955   8.589  28.588  1.00  0.00     0.000 C 
BRANCH   5   6
ATOM      6  C   UNL     1      32.129   9.864  29.432  1.00  0.00     0.000 C 
BRANCH   6   7
ATOM      7  C   UNL     1      33.358   9.806  30.356  1.00  0.00     0.006 C 
BRANCH   7   8
ATOM      8  C   UNL     1      34.396   8.784  29.875  1.00  0.00     0.053 C 
BRANCH   8   9
ATOM      9  C   UNL     1      35.782   9.147  30.317  1.00  0.00     0.041 C 
ATOM     10  O   UNL     1      36.131  10.354  30.377  1.00  0.00    -0.550 OA
ATOM     11  O   UNL     1      36.695   8.149  30.636  1.00  0.00    -0.550 OA
ENDBRANCH   8   9
ENDBRANCH   7   8
ENDBRANCH   6   7
ENDBRANCH   5   6
ENDBRANCH   4   5
ENDBRANCH   3   4
ENDBRANCH   2   3
ENDBRANCH   1   2
BRANCH   1  12
ATOM     12  C   UNL     1      31.145   7.588  33.718  1.00  0.00     0.000 C 
BRANCH  12  13
ATOM     13  C   UNL     1      30.613   9.029  33.859  1.00  0.00    -0.000 C 
BRANCH  13  14
ATOM     14  C   UNL     1      31.649  10.132  33.578  1.00  0.00    -0.000 C 
BRANCH  14  15
ATOM     15  C   UNL     1      31.037  11.367  32.901  1.00  0.00    -0.000 C 
BRANCH  15  16
ATOM     16  C   UNL     1      29.660  11.044  32.310  1.00  0.00    -0.000 C 
BRANCH  16  17
ATOM     17  C   UNL     1      29.436  11.793  30.991  1.00  0.00    -0.000 C 
BRANCH  17  18
ATOM     18  C   UNL     1      28.562  10.972  30.034  1.00  0.00    -0.000 C 
BRANCH  18  19
ATOM     19  C   UNL     1      28.395  11.645  28.662  1.00  0.00    -0.003 C 
ATOM     20  C   UNL     1      29.105  10.885  27.541  1.00  0.00     0.004 C 
ENDBRANCH  18  19
ENDBRANCH  17  18
ENDBRANCH  16  17
ENDBRANCH  15  16
ENDBRANCH  14  15
ENDBRANCH  13  14
ENDBRANCH  12  13
ENDBRANCH   1  12
TORSDOF 16
ENDMDL
MODEL 4
REMARK VINA RESULT:    -3.797      1.145      3.408
REMARK INTER + INTRA:         -10.263
REMARK INTER:                  -7.576
REMARK INTRA:                  -2.687
REMARK UNBOUND:                -2.915
REMARK SMILES CCCCCCCCCCCCCCCCCC(=O)[O-]
REMARK SMILES IDX 10 1 11 2 12 3 13 4 14 5 15 6 16 7 17 8 18 9 19 10 20 11
REMARK SMILES IDX 9 12 8 13 7 14 6 15 5 16 4 17 3 18 2 19 1 20
REMARK H PARENT
REMARK Flexibility Score: inf
ROOT
ATOM      1  C   UNL     1      33.390   8.399  33.239  1.00  0.00     0.000 C 
ENDROOT
BRANCH   1   2
ATOM      2  C   UNL     1      31.900   8.062  33.433  1.00  0.00     0.000 C 
BRANCH   2   3
ATOM      3  C   UNL     1      30.981   9.276  33.218  1.00  0.00     0.000 C 
BRANCH   3   4
ATOM      4  C   UNL     1      31.758  10.599  33.092  1.00  0.00     0.000 C 
BRANCH   4   5
ATOM      5  C   UNL     1      31.443  11.434  31.834  1.00  0.00     0.000 C 
BRANCH   5   6
ATOM      6  C   UNL     1      29.961  11.808  31.652  1.00  0.00     0.000 C 
BRANCH   6   7
ATOM      7  C   UNL     1      29.695  12.573  30.343  1.00  0.00     0.006 C 
BRANCH   7   8
ATOM      8  C   UNL     1      30.309  11.868  29.126  1.00  0.00     0.053 C 
BRANCH   8   9
ATOM      9  C   UNL     1      29.274  11.144  28.320  1.00  0.00     0.041 C 
ATOM     10  O   UNL     1      29.595  10.568  27.248  1.00  0.00    -0.550 OA
ATOM     11  O   UNL     1      27.949  11.131  28.738  1.00  0.00    -0.550 OA
ENDBRANCH   8   9
ENDBRANCH   7   8
ENDBRANCH   6   7
ENDBRANCH   5   6
ENDBRANCH   4   5
ENDBRANCH   3   4
ENDBRANCH   2   3
ENDBRANCH   1   2
BRANCH   1  12
ATOM     12  C   UNL     1      34.129   7.527  32.202  1.00  0.00     0.000 C 
BRANCH  12  13
ATOM     13  C   UNL     1      34.638   8.278  30.956  1.00  0.00    -0.000 C 
BRANCH  13  14
ATOM     14  C   UNL     1      33.563   9.074  30.193  1.00  0.00    -0.000 C 
BRANCH  14  15
ATOM     15  C   UNL     1      33.327   8.545  28.771  1.00  0.00    -0.000 C 
BRANCH  15  16
ATOM     16  C   UNL     1      31.854   8.175  28.560  1.00  0.00    -0.000 C 
BRANCH  16  17
ATOM     17  C   UNL     1      31.036   8.419  29.834  1.00  0.00    -0.000 C 
BRANCH  17  18
ATOM     18  C   UNL     1      29.890   7.405  29.954  1.00  0.00    -0.000 C 
BRANCH  18  19
ATOM     19  C   UNL     1      30.377   6.012  30.382  1.00  0.00    -0.003 C 
ATOM     20  C   UNL     1      29.496   4.886  29.841  1.00  0.00     0.004 C 
ENDBRANCH  18  19
ENDBRANCH  17  18
ENDBRANCH  16  17
ENDBRANCH  15  16
ENDBRANCH  14  15
ENDBRANCH  13  14
ENDBRANCH  12  13
ENDBRANCH   1  12
TORSDOF 16
ENDMDL
MODEL 5
REMARK VINA RESULT:    -3.773      3.274      6.230
REMARK INTER + INTRA:         -10.218
REMARK INTER:                  -7.301
REMARK INTRA:                  -2.917
REMARK UNBOUND:                -2.915
REMARK SMILES CCCCCCCCCCCCCCCCCC(=O)[O-]
REMARK SMILES IDX 10 1 11 2 12 3 13 4 14 5 15 6 16 7 17 8 18 9 19 10 20 11
REMARK SMILES IDX 9 12 8 13 7 14 6 15 5 16 4 17 3 18 2 19 1 20
REMARK H PARENT
REMARK Flexibility Score: inf
ROOT
ATOM      1  C   UNL     1      30.629   6.608  30.793  1.00  0.00     0.000 C 
ENDROOT
BRANCH   1   2
ATOM      2  C   UNL     1      30.075   7.808  30.003  1.00  0.00     0.000 C 
BRANCH   2   3
ATOM      3  C   UNL     1      30.735   7.970  28.623  1.00  0.00     0.000 C 
BRANCH   3   4
ATOM      4  C   UNL     1      31.840   9.042  28.612  1.00  0.00     0.000 C 
BRANCH   4   5
ATOM      5  C   UNL     1      33.277   8.510  28.797  1.00  0.00     0.000 C 
BRANCH   5   6
ATOM      6  C   UNL     1      33.977   8.954  30.094  1.00  0.00     0.000 C 
BRANCH   6   7
ATOM      7  C   UNL     1      35.231   8.121  30.410  1.00  0.00     0.006 C 
BRANCH   7   8
ATOM      8  C   UNL     1      35.110   7.376  31.747  1.00  0.00     0.053 C 
BRANCH   8   9
ATOM      9  C   UNL     1      36.249   7.694  32.667  1.00  0.00     0.041 C 
ATOM     10  O   UNL     1      36.287   7.197  33.823  1.00  0.00    -0.550 OA
ATOM     11  O   UNL     1      37.254   8.562  32.258  1.00  0.00    -0.550 OA
ENDBRANCH   8   9
ENDBRANCH   7   8
ENDBRANCH   6   7
ENDBRANCH   5   6
ENDBRANCH   4   5
ENDBRANCH   3   4
ENDBRANCH   2   3
ENDBRANCH   1   2
BRANCH   1  12
ATOM     12  C   UNL     1      31.395   6.971  32.081  1.00  0.00     0.000 C 
BRANCH  12  13
ATOM     13  C   UNL     1      31.017   8.327  32.711  1.00  0.00    -0.000 C 
BRANCH  13  14
ATOM     14  C   UNL     1      32.207   9.159  33.222  1.00  0.00    -0.000 C 
BRANCH  14  15
ATOM     15  C   UNL     1      32.101  10.644  32.847  1.00  0.00    -0.000 C 
BRANCH  15  16
ATOM     16  C   UNL     1      30.858  10.907  31.989  1.00  0.00    -0.000 C 
BRANCH  16  17
ATOM     17  C   UNL     1      31.197  11.791  30.783  1.00  0.00    -0.000 C 
BRANCH  17  18
ATOM     18  C   UNL     1      29.962  12.009  29.897  1.00  0.00    -0.000 C 
BRANCH  18  19
ATOM     19  C   UNL     1      28.719  11.280  30.428  1.00  0.00    -0.003 C 
ATOM     20  C   UNL     1      27.631  12.241  30.911  1.00  0.00     0.004 C 
ENDBRANCH  18  19
ENDBRANCH  17  18
ENDBRANCH  16  17
ENDBRANCH  15  16
ENDBRANCH  14  15
ENDBRANCH  13  14
ENDBRANCH  12  13
ENDBRANCH   1  12
TORSDOF 16
ENDMDL
MODEL 6
REMARK VINA RESULT:    -3.758      1.378      3.622
REMARK INTER + INTRA:         -10.189
REMARK INTER:                  -7.595
REMARK INTRA:                  -2.594
REMARK UNBOUND:                -2.915
REMARK SMILES CCCCCCCCCCCCCCCCCC(=O)[O-]
REMARK SMILES IDX 10 1 11 2 12 3 13 4 14 5 15 6 16 7 17 8 18 9 19 10 20 11
REMARK SMILES IDX 9 12 8 13 7 14 6 15 5 16 4 17 3 18 2 19 1 20
REMARK H PARENT
REMARK Flexibility Score: inf
ROOT
ATOM      1  C   UNL     1      31.138   7.032  31.123  1.00  0.00     0.000 C 
ENDROOT
BRANCH   1   2
ATOM      2  C   UNL     1      29.915   6.935  30.193  1.00  0.00     0.000 C 
BRANCH   2   3
ATOM      3  C   UNL     1      30.263   7.204  28.719  1.00  0.00     0.000 C 
BRANCH   3   4
ATOM      4  C   UNL     1      31.571   7.998  28.550  1.00  0.00     0.000 C 
BRANCH   4   5
ATOM      5  C   UNL     1      31.438   9.337  27.795  1.00  0.00     0.000 C 
BRANCH   5   6
ATOM      6  C   UNL     1      30.001   9.872  27.659  1.00  0.00     0.000 C 
BRANCH   6   7
ATOM      7  C   UNL     1      29.718  11.065  28.588  1.00  0.00     0.006 C 
BRANCH   7   8
ATOM      8  C   UNL     1      29.731  10.662  30.069  1.00  0.00     0.053 C 
BRANCH   8   9
ATOM      9  C   UNL     1      28.788  11.497  30.882  1.00  0.00     0.041 C 
ATOM     10  O   UNL     1      27.901  12.185  30.313  1.00  0.00    -0.550 OA
ATOM     11  O   UNL     1      28.909  11.537  32.265  1.00  0.00    -0.550 OA
ENDBRANCH   8   9
ENDBRANCH   7   8
ENDBRANCH   6   7
ENDBRANCH   5   6
ENDBRANCH   4   5
ENDBRANCH   3   4
ENDBRANCH   2   3
ENDBRANCH   1   2
BRANCH   1  12
ATOM     12  C   UNL     1      31.021   8.078  32.251  1.00  0.00     0.000 C 
BRANCH  12  13
ATOM     13  C   UNL     1      31.438   7.583  33.650  1.00  0.00    -0.000 C 
BRANCH  13  14
ATOM     14  C   UNL     1      32.763   6.801  33.694  1.00  0.00    -0.000 C 
BRANCH  14  15
ATOM     15  C   UNL     1      33.993   7.697  33.489  1.00  0.00    -0.000 C 
BRANCH  15  16
ATOM     16  C   UNL     1      35.153   6.905  32.874  1.00  0.00    -0.000 C 
BRANCH  16  17
ATOM     17  C   UNL     1      35.734   7.635  31.657  1.00  0.00    -0.000 C 
BRANCH  17  18
ATOM     18  C   UNL     1      34.629   8.006  30.658  1.00  0.00    -0.000 C 
BRANCH  18  19
ATOM     19  C   UNL     1      34.690   9.481  30.232  1.00  0.00    -0.003 C 
ATOM     20  C   UNL     1      33.542  10.310  30.809  1.00  0.00     0.004 C 
ENDBRANCH  18  19
ENDBRANCH  17  18
ENDBRANCH  16  17
ENDBRANCH  15  16
ENDBRANCH  14  15
ENDBRANCH  13  14
ENDBRANCH  12  13
ENDBRANCH   1  12
TORSDOF 16
ENDMDL
MODEL 7
REMARK VINA RESULT:    -3.735      1.701      3.802
REMARK INTER + INTRA:         -10.143
REMARK INTER:                  -7.300
REMARK INTRA:                  -2.843
REMARK UNBOUND:                -2.915
REMARK SMILES CCCCCCCCCCCCCCCCCC(=O)[O-]
REMARK SMILES IDX 10 1 11 2 12 3 13 4 14 5 15 6 16 7 17 8 18 9 19 10 20 11
REMARK SMILES IDX 9 12 8 13 7 14 6 15 5 16 4 17 3 18 2 19 1 20
REMARK H PARENT
REMARK Flexibility Score: inf
ROOT
ATOM      1  C   UNL     1      33.020   9.237  31.583  1.00  0.00     0.000 C 
ENDROOT
BRANCH   1   2
ATOM      2  C   UNL     1      33.353   9.684  30.148  1.00  0.00     0.000 C 
BRANCH   2   3
ATOM      3  C   UNL     1      33.601   8.501  29.197  1.00  0.00     0.000 C 
BRANCH   3   4
ATOM      4  C   UNL     1      32.523   8.376  28.105  1.00  0.00     0.000 C 
BRANCH   4   5
ATOM      5  C   UNL     1      31.377   9.405  28.188  1.00  0.00     0.000 C 
BRANCH   5   6
ATOM      6  C   UNL     1      30.049   8.864  28.746  1.00  0.00     0.000 C 
BRANCH   6   7
ATOM      7  C   UNL     1      29.580   9.613  30.005  1.00  0.00     0.006 C 
BRANCH   7   8
ATOM      8  C   UNL     1      29.977  11.095  29.979  1.00  0.00     0.053 C 
BRANCH   8   9
ATOM      9  C   UNL     1      28.849  11.966  29.516  1.00  0.00     0.041 C 
ATOM     10  O   UNL     1      28.355  11.806  28.370  1.00  0.00    -0.550 OA
ATOM     11  O   UNL     1      28.363  12.973  30.341  1.00  0.00    -0.550 OA
ENDBRANCH   8   9
ENDBRANCH   7   8
ENDBRANCH   6   7
ENDBRANCH   5   6
ENDBRANCH   4   5
ENDBRANCH   3   4
ENDBRANCH   2   3
ENDBRANCH   1   2
BRANCH   1  12
ATOM     12  C   UNL     1      33.308   7.753  31.890  1.00  0.00     0.000 C 
BRANCH  12  13
ATOM     13  C   UNL     1      34.644   7.479  32.608  1.00  0.00    -0.000 C 
BRANCH  13  14
ATOM     14  C   UNL     1      35.792   7.022  31.690  1.00  0.00    -0.000 C 
BRANCH  14  15
ATOM     15  C   UNL     1      37.013   7.950  31.754  1.00  0.00    -0.000 C 
BRANCH  15  16
ATOM     16  C   UNL     1      37.296   8.582  30.386  1.00  0.00    -0.000 C 
BRANCH  16  17
ATOM     17  C   UNL     1      36.934  10.072  30.382  1.00  0.00    -0.000 C 
BRANCH  17  18
ATOM     18  C   UNL     1      37.053  10.670  31.791  1.00  0.00    -0.000 C 
BRANCH  18  19
ATOM     19  C   UNL     1      35.867  11.579  32.148  1.00  0.00    -0.003 C 
ATOM     20  C   UNL     1      35.337  11.332  33.561  1.00  0.00     0.004 C 
ENDBRANCH  18  19
ENDBRANCH  17  18
ENDBRANCH  16  17
ENDBRANCH  15  16
ENDBRANCH  14  15
ENDBRANCH  13  14
ENDBRANCH  12  13
ENDBRANCH   1  12
TORSDOF 16
ENDMDL
MODEL 8
REMARK VINA RESULT:    -3.718      3.152      5.558
REMARK INTER + INTRA:         -10.110
REMARK INTER:                  -7.524
REMARK INTRA:                  -2.586
REMARK UNBOUND:                -2.915
REMARK SMILES CCCCCCCCCCCCCCCCCC(=O)[O-]
REMARK SMILES IDX 10 1 11 2 12 3 13 4 14 5 15 6 16 7 17 8 18 9 19 10 20 11
REMARK SMILES IDX 9 12 8 13 7 14 6 15 5 16 4 17 3 18 2 19 1 20
REMARK H PARENT
REMARK Flexibility Score: inf
ROOT
ATOM      1  C   UNL     1      31.669   8.143  28.854  1.00  0.00     0.000 C 
ENDROOT
BRANCH   1   2
ATOM      2  C   UNL     1      30.447   7.570  29.595  1.00  0.00     0.000 C 
BRANCH   2   3
ATOM      3  C   UNL     1      30.829   6.812  30.878  1.00  0.00     0.000 C 
BRANCH   3   4
ATOM      4  C   UNL     1      31.483   7.720  31.936  1.00  0.00     0.000 C 
BRANCH   4   5
ATOM      5  C   UNL     1      32.919   7.330  32.343  1.00  0.00     0.000 C 
BRANCH   5   6
ATOM      6  C   UNL     1      33.976   8.432  32.151  1.00  0.00     0.000 C 
BRANCH   6   7
ATOM      7  C   UNL     1      34.277   8.720  30.670  1.00  0.00     0.006 C 
BRANCH   7   8
ATOM      8  C   UNL     1      35.199   9.934  30.491  1.00  0.00     0.053 C 
BRANCH   8   9
ATOM      9  C   UNL     1      36.634   9.527  30.346  1.00  0.00     0.041 C 
ATOM     10  O   UNL     1      37.518  10.395  30.122  1.00  0.00    -0.550 OA
ATOM     11  O   UNL     1      36.991   8.187  30.428  1.00  0.00    -0.550 OA
ENDBRANCH   8   9
ENDBRANCH   7   8
ENDBRANCH   6   7
ENDBRANCH   5   6
ENDBRANCH   4   5
ENDBRANCH   3   4
ENDBRANCH   2   3
ENDBRANCH   1   2
BRANCH   1  12
ATOM     12  C   UNL     1      31.361   9.302  27.883  1.00  0.00     0.000 C 
BRANCH  12  13
ATOM     13  C   UNL     1      29.871   9.680  27.764  1.00  0.00    -0.000 C 
BRANCH  13  14
ATOM     14  C   UNL     1      29.586  11.192  27.743  1.00  0.00    -0.000 C 
BRANCH  14  15
ATOM     15  C   UNL     1      28.423  11.593  28.662  1.00  0.00    -0.000 C 
BRANCH  15  16
ATOM     16  C   UNL     1      28.387  10.712  29.917  1.00  0.00    -0.000 C 
BRANCH  16  17
ATOM     17  C   UNL     1      28.885  11.483  31.146  1.00  0.00    -0.000 C 
BRANCH  17  18
ATOM     18  C   UNL     1      30.140  10.825  31.736  1.00  0.00    -0.000 C 
BRANCH  18  19
ATOM     19  C   UNL     1      31.434  11.334  31.083  1.00  0.00    -0.003 C 
ATOM     20  C   UNL     1      31.397  12.833  30.785  1.00  0.00     0.004 C 
ENDBRANCH  18  19
ENDBRANCH  17  18
ENDBRANCH  16  17
ENDBRANCH  15  16
ENDBRANCH  14  15
ENDBRANCH  13  14
ENDBRANCH  12  13
ENDBRANCH   1  12
TORSDOF 16
ENDMDL
MODEL 9
REMARK VINA RESULT:    -3.701      1.565      3.826
REMARK INTER + INTRA:         -10.078
REMARK INTER:                  -7.659
REMARK INTRA:                  -2.419
REMARK UNBOUND:                -2.915
REMARK SMILES CCCCCCCCCCCCCCCCCC(=O)[O-]
REMARK SMILES IDX 10 1 11 2 12 3 13 4 14 5 15 6 16 7 17 8 18 9 19 10 20 11
REMARK SMILES IDX 9 12 8 13 7 14 6 15 5 16 4 17 3 18 2 19 1 20
REMARK H PARENT
REMARK Flexibility Score: inf
ROOT
ATOM      1  C   UNL     1      32.906   7.081  33.650  1.00  0.00     0.000 C 
ENDROOT
BRANCH   1   2
ATOM      2  C   UNL     1      32.696   7.320  32.144  1.00  0.00     0.000 C 
BRANCH   2   3
ATOM      3  C   UNL     1      31.245   7.692  31.795  1.00  0.00     0.000 C 
BRANCH   3   4
ATOM      4  C   UNL     1      30.647   6.797  30.694  1.00  0.00     0.000 C 
BRANCH   4   5
ATOM      5  C   UNL     1      30.297   7.516  29.375  1.00  0.00     0.000 C 
BRANCH   5   6
ATOM      6  C   UNL     1      31.491   8.144  28.634  1.00  0.00     0.000 C 
BRANCH   6   7
ATOM      7  C   UNL     1      31.266   9.625  28.285  1.00  0.00     0.006 C 
BRANCH   7   8
ATOM      8  C   UNL     1      30.157  10.258  29.135  1.00  0.00     0.053 C 
BRANCH   8   9
ATOM      9  C   UNL     1      29.226  11.091  28.307  1.00  0.00     0.041 C 
ATOM     10  O   UNL     1      28.499  11.961  28.853  1.00  0.00    -0.550 OA
ATOM     11  O   UNL     1      29.142  10.886  26.935  1.00  0.00    -0.550 OA
ENDBRANCH   8   9
ENDBRANCH   7   8
ENDBRANCH   6   7
ENDBRANCH   5   6
ENDBRANCH   4   5
ENDBRANCH   3   4
ENDBRANCH   2   3
ENDBRANCH   1   2
BRANCH   1  12
ATOM     12  C   UNL     1      34.349   6.723  34.061  1.00  0.00     0.000 C 
BRANCH  12  13
ATOM     13  C   UNL     1      35.437   7.683  33.542  1.00  0.00    -0.000 C 
BRANCH  13  14
ATOM     14  C   UNL     1      36.494   7.035  32.629  1.00  0.00    -0.000 C 
BRANCH  14  15
ATOM     15  C   UNL     1      36.271   7.348  31.143  1.00  0.00    -0.000 C 
BRANCH  15  16
ATOM     16  C   UNL     1      37.147   8.522  30.691  1.00  0.00    -0.000 C 
BRANCH  16  17
ATOM     17  C   UNL     1      36.288   9.724  30.279  1.00  0.00    -0.000 C 
BRANCH  17  18
ATOM     18  C   UNL     1      34.814   9.321  30.128  1.00  0.00    -0.000 C 
BRANCH  18  19
ATOM     19  C   UNL     1      33.855  10.353  30.741  1.00  0.00    -0.003 C 
ATOM     20  C   UNL     1      34.268  10.780  32.150  1.00  0.00     0.004 C 
ENDBRANCH  18  19
ENDBRANCH  17  18
ENDBRANCH  16  17
ENDBRANCH  15  16
ENDBRANCH  14  15
ENDBRANCH  13  14
ENDBRANCH  12  13
ENDBRANCH   1  12
TORSDOF 16
ENDMDL
