MODEL 1
REMARK VINA RESULT:    -5.573      0.000      0.000
REMARK INTER + INTRA:          -5.997
REMARK INTER:                  -5.899
REMARK INTRA:                  -0.097
REMARK UNBOUND:                -0.097
REMARK SMILES C=C(C)[C@H]1CC=C(C)C(=O)C1
REMARK SMILES IDX 8 1 7 2 6 3 5 4 4 5 11 6 9 7 10 8 2 9 1 10 3 11
REMARK H PARENT
REMARK Flexibility Score: inf
ROOT
ATOM      1  C   UNL     1     -12.531 -38.342  31.981  1.00  0.00     0.048 C 
ATOM      2  C   UNL     1     -12.877 -37.212  31.051  1.00  0.00    -0.012 C 
ATOM      3  C   UNL     1     -12.810 -35.942  31.486  1.00  0.00    -0.019 C 
ATOM      4  C   UNL     1     -13.163 -34.776  30.602  1.00  0.00     0.036 C 
ATOM      5  C   UNL     1     -12.808 -35.067  29.132  1.00  0.00     0.025 C 
ATOM      6  C   UNL     1     -13.478 -36.374  28.669  1.00  0.00     0.089 C 
ATOM      7  C   UNL     1     -13.169 -37.495  29.623  1.00  0.00     0.158 C 
ATOM      8  O   UNL     1     -13.196 -38.683  29.204  1.00  0.00    -0.295 OA
ENDROOT
BRANCH   5   9
ATOM      9  C   UNL     1     -13.179 -33.900  28.227  1.00  0.00    -0.077 C 
ATOM     10  C   UNL     1     -13.275 -32.661  28.732  1.00  0.00     0.008 C 
ATOM     11  C   UNL     1     -13.442 -34.099  26.754  1.00  0.00     0.039 C 
ENDBRANCH   5   9
TORSDOF 1
ENDMDL
MODEL 2
REMARK VINA RESULT:    -5.485      1.770      2.271
REMARK INTER + INTRA:          -5.903
REMARK INTER:                  -5.816
REMARK INTRA:                  -0.087
REMARK UNBOUND:                -0.097
REMARK SMILES C=C(C)[C@H]1CC=C(C)C(=O)C1
REMARK SMILES IDX 8 1 7 2 6 3 5 4 4 5 11 6 9 7 10 8 2 9 1 10 3 11
REMARK H PARENT
REMARK Flexibility Score: inf
ROOT
ATOM      1  C   UNL     1     -12.525 -38.112  32.129  1.00  0.00     0.048 C 
ATOM      2  C   UNL     1     -12.457 -37.388  30.813  1.00  0.00    -0.012 C 
ATOM      3  C   UNL     1     -13.398 -37.608  29.878  1.00  0.00    -0.019 C 
ATOM      4  C   UNL     1     -13.366 -36.924  28.537  1.00  0.00     0.036 C 
ATOM      5  C   UNL     1     -12.758 -35.513  28.648  1.00  0.00     0.025 C 
ATOM      6  C   UNL     1     -11.365 -35.582  29.301  1.00  0.00     0.089 C 
ATOM      7  C   UNL     1     -11.424 -36.343  30.597  1.00  0.00     0.158 C 
ATOM      8  O   UNL     1     -10.562 -36.110  31.486  1.00  0.00    -0.295 OA
ENDROOT
BRANCH   5   9
ATOM      9  C   UNL     1     -12.705 -34.821  27.293  1.00  0.00    -0.077 C 
ATOM     10  C   UNL     1     -13.691 -33.989  26.923  1.00  0.00     0.008 C 
ATOM     11  C   UNL     1     -11.556 -35.045  26.340  1.00  0.00     0.039 C 
ENDBRANCH   5   9
TORSDOF 1
ENDMDL
MODEL 3
REMARK VINA RESULT:    -5.415      2.500      3.162
REMARK INTER + INTRA:          -5.829
REMARK INTER:                  -5.731
REMARK INTRA:                  -0.098
REMARK UNBOUND:                -0.097
REMARK SMILES C=C(C)[C@H]1CC=C(C)C(=O)C1
REMARK SMILES IDX 8 1 7 2 6 3 5 4 4 5 11 6 9 7 10 8 2 9 1 10 3 11
REMARK H PARENT
REMARK Flexibility Score: inf
ROOT
ATOM      1  C   UNL     1     -11.021 -33.892  32.793  1.00  0.00     0.048 C 
ATOM      2  C   UNL     1     -11.439 -33.906  31.349  1.00  0.00    -0.012 C 
ATOM      3  C   UNL     1     -10.567 -33.534  30.396  1.00  0.00    -0.019 C 
ATOM      4  C   UNL     1     -10.940 -33.512  28.937  1.00  0.00     0.036 C 
ATOM      5  C   UNL     1     -11.957 -34.622  28.608  1.00  0.00     0.025 C 
ATOM      6  C   UNL     1     -13.188 -34.508  29.527  1.00  0.00     0.089 C 
ATOM      7  C   UNL     1     -12.768 -34.449  30.970  1.00  0.00     0.158 C 
ATOM      8  O   UNL     1     -13.574 -34.833  31.860  1.00  0.00    -0.295 OA
ENDROOT
BRANCH   5   9
ATOM      9  C   UNL     1     -12.354 -34.596  27.139  1.00  0.00    -0.077 C 
ATOM     10  C   UNL     1     -13.573 -34.165  26.778  1.00  0.00     0.008 C 
ATOM     11  C   UNL     1     -11.401 -35.044  26.058  1.00  0.00     0.039 C 
ENDBRANCH   5   9
TORSDOF 1
ENDMDL
MODEL 4
REMARK VINA RESULT:    -5.318      2.710      4.182
REMARK INTER + INTRA:          -5.726
REMARK INTER:                  -5.628
REMARK INTRA:                  -0.098
REMARK UNBOUND:                -0.097
REMARK SMILES C=C(C)[C@H]1CC=C(C)C(=O)C1
REMARK SMILES IDX 8 1 7 2 6 3 5 4 4 5 11 6 9 7 10 8 2 9 1 10 3 11
REMARK H PARENT
REMARK Flexibility Score: inf
ROOT
ATOM      1  C   UNL     1     -11.449 -34.953  26.322  1.00  0.00     0.048 C 
ATOM      2  C   UNL     1     -11.905 -34.450  27.664  1.00  0.00    -0.012 C 
ATOM      3  C   UNL     1     -13.106 -33.858  27.784  1.00  0.00    -0.019 C 
ATOM      4  C   UNL     1     -13.603 -33.320  29.099  1.00  0.00     0.036 C 
ATOM      5  C   UNL     1     -13.080 -34.164  30.277  1.00  0.00     0.025 C 
ATOM      6  C   UNL     1     -11.544 -34.257  30.228  1.00  0.00     0.089 C 
ATOM      7  C   UNL     1     -11.085 -34.719  28.872  1.00  0.00     0.158 C 
ATOM      8  O   UNL     1      -9.974 -35.306  28.767  1.00  0.00    -0.295 OA
ENDROOT
BRANCH   5   9
ATOM      9  C   UNL     1     -13.563 -33.617  31.613  1.00  0.00    -0.077 C 
ATOM     10  C   UNL     1     -12.861 -33.856  32.732  1.00  0.00     0.008 C 
ATOM     11  C   UNL     1     -14.826 -32.797  31.717  1.00  0.00     0.039 C 
ENDBRANCH   5   9
TORSDOF 1
ENDMDL
MODEL 5
REMARK VINA RESULT:    -5.286      1.947      3.869
REMARK INTER + INTRA:          -5.693
REMARK INTER:                  -5.594
REMARK INTRA:                  -0.099
REMARK UNBOUND:                -0.097
REMARK SMILES C=C(C)[C@H]1CC=C(C)C(=O)C1
REMARK SMILES IDX 8 1 7 2 6 3 5 4 4 5 11 6 9 7 10 8 2 9 1 10 3 11
REMARK H PARENT
REMARK Flexibility Score: inf
ROOT
ATOM      1  C   UNL     1     -11.746 -35.003  26.474  1.00  0.00     0.048 C 
ATOM      2  C   UNL     1     -11.961 -34.826  27.951  1.00  0.00    -0.012 C 
ATOM      3  C   UNL     1     -11.338 -33.830  28.604  1.00  0.00    -0.019 C 
ATOM      4  C   UNL     1     -11.504 -33.619  30.085  1.00  0.00     0.036 C 
ATOM      5  C   UNL     1     -12.913 -34.033  30.550  1.00  0.00     0.025 C 
ATOM      6  C   UNL     1     -13.210 -35.484  30.130  1.00  0.00     0.089 C 
ATOM      7  C   UNL     1     -12.954 -35.673  28.660  1.00  0.00     0.158 C 
ATOM      8  O   UNL     1     -13.565 -36.585  28.042  1.00  0.00    -0.295 OA
ENDROOT
BRANCH   5   9
ATOM      9  C   UNL     1     -13.084 -33.842  32.051  1.00  0.00    -0.077 C 
ATOM     10  C   UNL     1     -12.010 -33.839  32.856  1.00  0.00     0.008 C 
ATOM     11  C   UNL     1     -14.447 -33.648  32.669  1.00  0.00     0.039 C 
ENDBRANCH   5   9
TORSDOF 1
ENDMDL
MODEL 6
REMARK VINA RESULT:    -5.236      2.737      3.821
REMARK INTER + INTRA:          -5.639
REMARK INTER:                  -5.541
REMARK INTRA:                  -0.098
REMARK UNBOUND:                -0.097
REMARK SMILES C=C(C)[C@H]1CC=C(C)C(=O)C1
REMARK SMILES IDX 8 1 7 2 6 3 5 4 4 5 11 6 9 7 10 8 2 9 1 10 3 11
REMARK H PARENT
REMARK Flexibility Score: inf
ROOT
ATOM      1  C   UNL     1     -10.457 -36.191  30.453  1.00  0.00     0.048 C 
ATOM      2  C   UNL     1     -11.734 -35.466  30.772  1.00  0.00    -0.012 C 
ATOM      3  C   UNL     1     -12.486 -35.861  31.813  1.00  0.00    -0.019 C 
ATOM      4  C   UNL     1     -13.783 -35.182  32.166  1.00  0.00     0.036 C 
ATOM      5  C   UNL     1     -13.732 -33.680  31.825  1.00  0.00     0.025 C 
ATOM      6  C   UNL     1     -13.352 -33.480  30.347  1.00  0.00     0.089 C 
ATOM      7  C   UNL     1     -12.097 -34.241  30.015  1.00  0.00     0.158 C 
ATOM      8  O   UNL     1     -11.375 -33.847  29.061  1.00  0.00    -0.295 OA
ENDROOT
BRANCH   5   9
ATOM      9  C   UNL     1     -15.046 -32.988  32.161  1.00  0.00    -0.077 C 
ATOM     10  C   UNL     1     -15.467 -31.948  31.425  1.00  0.00     0.008 C 
ATOM     11  C   UNL     1     -15.905 -33.448  33.314  1.00  0.00     0.039 C 
ENDBRANCH   5   9
TORSDOF 1
ENDMDL
MODEL 7
REMARK VINA RESULT:    -5.224      3.040      4.652
REMARK INTER + INTRA:          -5.627
REMARK INTER:                  -5.529
REMARK INTRA:                  -0.098
REMARK UNBOUND:                -0.097
REMARK SMILES C=C(C)[C@H]1CC=C(C)C(=O)C1
REMARK SMILES IDX 8 1 7 2 6 3 5 4 4 5 11 6 9 7 10 8 2 9 1 10 3 11
REMARK H PARENT
REMARK Flexibility Score: inf
ROOT
ATOM      1  C   UNL     1     -11.104 -34.711  28.885  1.00  0.00     0.048 C 
ATOM      2  C   UNL     1     -11.938 -34.177  30.016  1.00  0.00    -0.012 C 
ATOM      3  C   UNL     1     -13.149 -33.651  29.766  1.00  0.00    -0.019 C 
ATOM      4  C   UNL     1     -14.017 -33.086  30.859  1.00  0.00     0.036 C 
ATOM      5  C   UNL     1     -13.806 -33.847  32.182  1.00  0.00     0.025 C 
ATOM      6  C   UNL     1     -12.315 -33.852  32.564  1.00  0.00     0.089 C 
ATOM      7  C   UNL     1     -11.476 -34.345  31.417  1.00  0.00     0.158 C 
ATOM      8  O   UNL     1     -10.356 -34.870  31.657  1.00  0.00    -0.295 OA
ENDROOT
BRANCH   5   9
ATOM      9  C   UNL     1     -14.666 -33.271  33.299  1.00  0.00    -0.077 C 
ATOM     10  C   UNL     1     -14.091 -32.632  34.329  1.00  0.00     0.008 C 
ATOM     11  C   UNL     1     -16.170 -33.397  33.279  1.00  0.00     0.039 C 
ENDBRANCH   5   9
TORSDOF 1
ENDMDL
MODEL 8
REMARK VINA RESULT:    -5.162      1.829      3.411
REMARK INTER + INTRA:          -5.561
REMARK INTER:                  -5.474
REMARK INTRA:                  -0.087
REMARK UNBOUND:                -0.097
REMARK SMILES C=C(C)[C@H]1CC=C(C)C(=O)C1
REMARK SMILES IDX 8 1 7 2 6 3 5 4 4 5 11 6 9 7 10 8 2 9 1 10 3 11
REMARK H PARENT
REMARK Flexibility Score: inf
ROOT
ATOM      1  C   UNL     1     -13.765 -38.418  28.644  1.00  0.00     0.048 C 
ATOM      2  C   UNL     1     -13.536 -37.297  29.618  1.00  0.00    -0.012 C 
ATOM      3  C   UNL     1     -13.461 -37.558  30.935  1.00  0.00    -0.019 C 
ATOM      4  C   UNL     1     -13.252 -36.470  31.954  1.00  0.00     0.036 C 
ATOM      5  C   UNL     1     -12.384 -35.333  31.381  1.00  0.00     0.025 C 
ATOM      6  C   UNL     1     -12.999 -34.798  30.075  1.00  0.00     0.089 C 
ATOM      7  C   UNL     1     -13.269 -35.925  29.116  1.00  0.00     0.158 C 
ATOM      8  O   UNL     1     -13.303 -35.684  27.880  1.00  0.00    -0.295 OA
ENDROOT
BRANCH   5   9
ATOM      9  C   UNL     1     -12.182 -34.219  32.400  1.00  0.00    -0.077 C 
ATOM     10  C   UNL     1     -10.942 -33.851  32.757  1.00  0.00     0.008 C 
ATOM     11  C   UNL     1     -13.354 -33.505  33.026  1.00  0.00     0.039 C 
ENDBRANCH   5   9
TORSDOF 1
ENDMDL
MODEL 9
REMARK VINA RESULT:    -5.072      1.914      3.121
REMARK INTER + INTRA:          -5.466
REMARK INTER:                  -5.370
REMARK INTRA:                  -0.096
REMARK UNBOUND:                -0.097
REMARK SMILES C=C(C)[C@H]1CC=C(C)C(=O)C1
REMARK SMILES IDX 8 1 7 2 6 3 5 4 4 5 11 6 9 7 10 8 2 9 1 10 3 11
REMARK H PARENT
REMARK Flexibility Score: inf
ROOT
ATOM      1  C   UNL     1     -14.361 -38.020  28.629  1.00  0.00     0.048 C 
ATOM      2  C   UNL     1     -13.317 -37.087  29.177  1.00  0.00    -0.012 C 
ATOM      3  C   UNL     1     -12.923 -36.024  28.455  1.00  0.00    -0.019 C 
ATOM      4  C   UNL     1     -11.868 -35.070  28.948  1.00  0.00     0.036 C 
ATOM      5  C   UNL     1     -11.913 -34.939  30.482  1.00  0.00     0.025 C 
ATOM      6  C   UNL     1     -11.799 -36.326  31.140  1.00  0.00     0.089 C 
ATOM      7  C   UNL     1     -12.815 -37.272  30.562  1.00  0.00     0.158 C 
ATOM      8  O   UNL     1     -13.209 -38.248  31.255  1.00  0.00    -0.295 OA
ENDROOT
BRANCH   5   9
ATOM      9  C   UNL     1     -10.838 -33.990  30.992  1.00  0.00    -0.077 C 
ATOM     10  C   UNL     1     -10.618 -33.867  32.310  1.00  0.00     0.008 C 
ATOM     11  C   UNL     1      -9.996 -33.172  30.043  1.00  0.00     0.039 C 
ENDBRANCH   5   9
TORSDOF 1
ENDMDL
