MODEL 1
REMARK VINA RESULT:    -6.967      0.000      0.000
REMARK INTER + INTRA:          -8.372
REMARK INTER:                  -8.393
REMARK INTRA:                   0.021
REMARK UNBOUND:                 0.021
REMARK SMILES O=c1c(O)c(-c2ccc(O)c(O)c2)oc2cc(O)cc(O)c12
REMARK SMILES IDX 5 1 3 2 2 3 1 4 22 5 20 6 19 7 17 8 16 9 15 10 14 11 6 12
REMARK SMILES IDX 7 13 8 14 9 15 13 16 11 17 10 18 12 20 4 22 21 24 18 26
REMARK H PARENT 10 19 12 21 4 23 21 25 18 27
REMARK Flexibility Score: inf
ROOT
ATOM      1  C   UNL     1     101.140 116.028 122.851  1.00  0.00     0.180 A 
ATOM      2  C   UNL     1     100.375 117.188 123.059  1.00  0.00     0.208 A 
ATOM      3  C   UNL     1      99.864 117.876 121.947  1.00  0.00     0.238 A 
ATOM      4  O   UNL     1      99.136 118.884 122.141  1.00  0.00    -0.285 OA
ATOM      5  C   UNL     1     100.138 117.405 120.640  1.00  0.00     0.111 A 
ATOM      6  C   UNL     1      99.706 118.046 119.441  1.00  0.00     0.134 A 
ATOM      7  C   UNL     1      99.923 117.419 118.206  1.00  0.00     0.093 A 
ATOM      8  C   UNL     1     100.615 116.208 118.126  1.00  0.00     0.123 A 
ATOM      9  C   UNL     1     101.093 115.606 119.287  1.00  0.00     0.094 A 
ATOM     10  C   UNL     1     100.860 116.187 120.534  1.00  0.00     0.146 A 
ATOM     11  O   UNL     1     101.324 115.574 121.617  1.00  0.00    -0.452 OA
ENDROOT
BRANCH   1  12
ATOM     12  C   UNL     1     101.733 115.263 123.972  1.00  0.00     0.025 A 
ATOM     13  C   UNL     1     101.519 113.881 124.108  1.00  0.00     0.016 A 
ATOM     14  C   UNL     1     102.070 113.184 125.188  1.00  0.00     0.051 A 
ATOM     15  C   UNL     1     102.827 113.858 126.153  1.00  0.00     0.157 A 
ATOM     16  C   UNL     1     102.475 115.939 124.955  1.00  0.00     0.062 A 
ATOM     17  C   UNL     1     103.028 115.244 126.037  1.00  0.00     0.158 A 
BRANCH  15  18
ATOM     18  O   UNL     1     103.376 113.160 127.228  1.00  0.00    -0.504 OA
ATOM     19  H   UNL     1     102.994 112.273 127.535  1.00  0.00     0.293 HD
ENDBRANCH  15  18
BRANCH  17  20
ATOM     20  O   UNL     1     103.772 115.947 126.984  1.00  0.00    -0.504 OA
ATOM     21  H   UNL     1     104.426 115.485 127.605  1.00  0.00     0.293 HD
ENDBRANCH  17  20
ENDBRANCH   1  12
BRANCH   2  22
ATOM     22  O   UNL     1     100.098 117.624 124.358  1.00  0.00    -0.502 OA
ATOM     23  H   UNL     1     100.451 118.500 124.725  1.00  0.00     0.293 HD
ENDBRANCH   2  22
BRANCH   6  24
ATOM     24  O   UNL     1      99.088 119.298 119.404  1.00  0.00    -0.507 OA
ATOM     25  H   UNL     1      98.439 119.598 118.691  1.00  0.00     0.293 HD
ENDBRANCH   6  24
BRANCH   8  26
ATOM     26  O   UNL     1     100.841 115.600 116.892  1.00  0.00    -0.508 OA
ATOM     27  H   UNL     1     101.469 116.007 116.208  1.00  0.00     0.293 HD
ENDBRANCH   8  26
TORSDOF 6
ENDMDL
MODEL 2
REMARK VINA RESULT:    -6.857      9.056     12.609
REMARK INTER + INTRA:          -8.239
REMARK INTER:                  -8.023
REMARK INTRA:                  -0.216
REMARK UNBOUND:                 0.021
REMARK SMILES O=c1c(O)c(-c2ccc(O)c(O)c2)oc2cc(O)cc(O)c12
REMARK SMILES IDX 5 1 3 2 2 3 1 4 22 5 20 6 19 7 17 8 16 9 15 10 14 11 6 12
REMARK SMILES IDX 7 13 8 14 9 15 13 16 11 17 10 18 12 20 4 22 21 24 18 26
REMARK H PARENT 10 19 12 21 4 23 21 25 18 27
REMARK Flexibility Score: inf
ROOT
ATOM      1  C   UNL     1     100.224 107.935 115.869  1.00  0.00     0.180 A 
ATOM      2  C   UNL     1     100.243 108.925 116.866  1.00  0.00     0.208 A 
ATOM      3  C   UNL     1     100.722 108.595 118.145  1.00  0.00     0.238 A 
ATOM      4  O   UNL     1     100.786 109.499 119.018  1.00  0.00    -0.285 OA
ATOM      5  C   UNL     1     101.159 107.276 118.415  1.00  0.00     0.111 A 
ATOM      6  C   UNL     1     101.625 106.821 119.684  1.00  0.00     0.134 A 
ATOM      7  C   UNL     1     102.157 105.530 119.802  1.00  0.00     0.093 A 
ATOM      8  C   UNL     1     102.178 104.657 118.711  1.00  0.00     0.123 A 
ATOM      9  C   UNL     1     101.669 105.073 117.483  1.00  0.00     0.094 A 
ATOM     10  C   UNL     1     101.167 106.366 117.325  1.00  0.00     0.146 A 
ATOM     11  O   UNL     1     100.703 106.725 116.134  1.00  0.00    -0.452 OA
ENDROOT
BRANCH   1  12
ATOM     12  C   UNL     1      99.711 108.200 114.506  1.00  0.00     0.025 A 
ATOM     13  C   UNL     1      98.351 108.469 114.275  1.00  0.00     0.016 A 
ATOM     14  C   UNL     1      97.885 108.693 112.976  1.00  0.00     0.051 A 
ATOM     15  C   UNL     1      98.766 108.637 111.889  1.00  0.00     0.157 A 
ATOM     16  C   UNL     1     100.587 108.123 113.410  1.00  0.00     0.062 A 
ATOM     17  C   UNL     1     100.124 108.347 112.108  1.00  0.00     0.158 A 
BRANCH  15  18
ATOM     18  O   UNL     1      98.299 108.862 110.595  1.00  0.00    -0.504 OA
ATOM     19  H   UNL     1      97.406 109.310 110.424  1.00  0.00     0.293 HD
ENDBRANCH  15  18
BRANCH  17  20
ATOM     20  O   UNL     1     101.026 108.277 111.047  1.00  0.00    -0.504 OA
ATOM     21  H   UNL     1     100.792 108.608 110.119  1.00  0.00     0.293 HD
ENDBRANCH  17  20
ENDBRANCH   1  12
BRANCH   2  22
ATOM     22  O   UNL     1      99.827 110.227 116.573  1.00  0.00    -0.502 OA
ATOM     23  H   UNL     1      98.869 110.450 116.330  1.00  0.00     0.293 HD
ENDBRANCH   2  22
BRANCH   6  24
ATOM     24  O   UNL     1     101.565 107.580 120.856  1.00  0.00    -0.507 OA
ATOM     25  H   UNL     1     101.926 107.285 121.751  1.00  0.00     0.293 HD
ENDBRANCH   6  24
BRANCH   8  26
ATOM     26  O   UNL     1     102.693 103.369 118.842  1.00  0.00    -0.508 OA
ATOM     27  H   UNL     1     103.686 103.186 118.766  1.00  0.00     0.293 HD
ENDBRANCH   8  26
TORSDOF 6
ENDMDL
MODEL 3
REMARK VINA RESULT:    -6.816      1.576      6.633
REMARK INTER + INTRA:          -8.190
REMARK INTER:                  -8.174
REMARK INTRA:                  -0.016
REMARK UNBOUND:                 0.021
REMARK SMILES O=c1c(O)c(-c2ccc(O)c(O)c2)oc2cc(O)cc(O)c12
REMARK SMILES IDX 5 1 3 2 2 3 1 4 22 5 20 6 19 7 17 8 16 9 15 10 14 11 6 12
REMARK SMILES IDX 7 13 8 14 9 15 13 16 11 17 10 18 12 20 4 22 21 24 18 26
REMARK H PARENT 10 19 12 21 4 23 21 25 18 27
REMARK Flexibility Score: inf
ROOT
ATOM      1  C   UNL     1     100.687 117.554 121.664  1.00  0.00     0.180 A 
ATOM      2  C   UNL     1      99.875 118.511 122.296  1.00  0.00     0.208 A 
ATOM      3  C   UNL     1      99.915 118.622 123.695  1.00  0.00     0.238 A 
ATOM      4  O   UNL     1      99.226 119.516 124.251  1.00  0.00    -0.285 OA
ATOM      5  C   UNL     1     100.754 117.764 124.446  1.00  0.00     0.111 A 
ATOM      6  C   UNL     1     100.844 117.761 125.870  1.00  0.00     0.134 A 
ATOM      7  C   UNL     1     101.805 116.959 126.500  1.00  0.00     0.093 A 
ATOM      8  C   UNL     1     102.634 116.112 125.759  1.00  0.00     0.123 A 
ATOM      9  C   UNL     1     102.511 116.064 124.373  1.00  0.00     0.094 A 
ATOM     10  C   UNL     1     101.589 116.878 123.714  1.00  0.00     0.146 A 
ATOM     11  O   UNL     1     101.513 116.809 122.390  1.00  0.00    -0.452 OA
ENDROOT
BRANCH   1  12
ATOM     12  C   UNL     1     100.681 117.361 120.196  1.00  0.00     0.025 A 
ATOM     13  C   UNL     1      99.480 117.204 119.483  1.00  0.00     0.016 A 
ATOM     14  C   UNL     1      99.500 117.000 118.101  1.00  0.00     0.051 A 
ATOM     15  C   UNL     1     100.718 116.934 117.413  1.00  0.00     0.157 A 
ATOM     16  C   UNL     1     101.901 117.272 119.505  1.00  0.00     0.062 A 
ATOM     17  C   UNL     1     101.925 117.067 118.120  1.00  0.00     0.158 A 
BRANCH  15  18
ATOM     18  O   UNL     1     100.734 116.731 116.034  1.00  0.00    -0.504 OA
ATOM     19  H   UNL     1     100.258 115.944 115.607  1.00  0.00     0.293 HD
ENDBRANCH  15  18
BRANCH  17  20
ATOM     20  O   UNL     1     103.155 117.000 117.467  1.00  0.00    -0.504 OA
ATOM     21  H   UNL     1     103.254 117.219 116.482  1.00  0.00     0.293 HD
ENDBRANCH  17  20
ENDBRANCH   1  12
BRANCH   2  22
ATOM     22  O   UNL     1      99.070 119.362 121.534  1.00  0.00    -0.502 OA
ATOM     23  H   UNL     1      98.251 119.035 121.036  1.00  0.00     0.293 HD
ENDBRANCH   2  22
BRANCH   6  24
ATOM     24  O   UNL     1     100.003 118.500 126.707  1.00  0.00    -0.507 OA
ATOM     25  H   UNL     1     100.175 119.451 126.999  1.00  0.00     0.293 HD
ENDBRANCH   6  24
BRANCH   8  26
ATOM     26  O   UNL     1     103.575 115.306 126.395  1.00  0.00    -0.508 OA
ATOM     27  H   UNL     1     104.356 114.902 125.890  1.00  0.00     0.293 HD
ENDBRANCH   8  26
TORSDOF 6
ENDMDL
MODEL 4
REMARK VINA RESULT:    -6.814      9.128     12.673
REMARK INTER + INTRA:          -8.188
REMARK INTER:                  -8.053
REMARK INTRA:                  -0.135
REMARK UNBOUND:                 0.021
REMARK SMILES O=c1c(O)c(-c2ccc(O)c(O)c2)oc2cc(O)cc(O)c12
REMARK SMILES IDX 5 1 3 2 2 3 1 4 22 5 20 6 19 7 17 8 16 9 15 10 14 11 6 12
REMARK SMILES IDX 7 13 8 14 9 15 13 16 11 17 10 18 12 20 4 22 21 24 18 26
REMARK H PARENT 10 19 12 21 4 23 21 25 18 27
REMARK Flexibility Score: inf
ROOT
ATOM      1  C   UNL     1     100.300 107.789 115.789  1.00  0.00     0.180 A 
ATOM      2  C   UNL     1     100.264 108.800 116.764  1.00  0.00     0.208 A 
ATOM      3  C   UNL     1     100.704 108.507 118.066  1.00  0.00     0.238 A 
ATOM      4  O   UNL     1     100.719 109.430 118.920  1.00  0.00    -0.285 OA
ATOM      5  C   UNL     1     101.158 107.204 118.379  1.00  0.00     0.111 A 
ATOM      6  C   UNL     1     101.588 106.785 119.674  1.00  0.00     0.134 A 
ATOM      7  C   UNL     1     102.141 105.508 119.839  1.00  0.00     0.093 A 
ATOM      8  C   UNL     1     102.218 104.613 118.768  1.00  0.00     0.123 A 
ATOM      9  C   UNL     1     101.745 104.992 117.514  1.00  0.00     0.094 A 
ATOM     10  C   UNL     1     101.222 106.271 117.311  1.00  0.00     0.146 A 
ATOM     11  O   UNL     1     100.794 106.595 116.096  1.00  0.00    -0.452 OA
ENDROOT
BRANCH   1  12
ATOM     12  C   UNL     1      99.830 108.014 114.403  1.00  0.00     0.025 A 
ATOM     13  C   UNL     1     100.712 107.944 113.311  1.00  0.00     0.016 A 
ATOM     14  C   UNL     1     100.251 108.183 112.013  1.00  0.00     0.051 A 
ATOM     15  C   UNL     1      98.908 108.511 111.789  1.00  0.00     0.157 A 
ATOM     16  C   UNL     1      98.488 108.364 114.175  1.00  0.00     0.062 A 
ATOM     17  C   UNL     1      98.023 108.604 112.877  1.00  0.00     0.158 A 
BRANCH  15  18
ATOM     18  O   UNL     1      98.451 108.748 110.494  1.00  0.00    -0.504 OA
ATOM     19  H   UNL     1      98.219 109.682 110.175  1.00  0.00     0.293 HD
ENDBRANCH  15  18
BRANCH  17  20
ATOM     20  O   UNL     1      96.681 108.935 112.689  1.00  0.00    -0.504 OA
ATOM     21  H   UNL     1      96.367 109.474 111.891  1.00  0.00     0.293 HD
ENDBRANCH  17  20
ENDBRANCH   1  12
BRANCH   2  22
ATOM     22  O   UNL     1      99.832 110.086 116.428  1.00  0.00    -0.502 OA
ATOM     23  H   UNL     1      99.721 110.389 115.468  1.00  0.00     0.293 HD
ENDBRANCH   2  22
BRANCH   6  24
ATOM     24  O   UNL     1     101.471 107.567 120.826  1.00  0.00    -0.507 OA
ATOM     25  H   UNL     1     102.238 107.813 121.434  1.00  0.00     0.293 HD
ENDBRANCH   6  24
BRANCH   8  26
ATOM     26  O   UNL     1     102.754 103.339 118.945  1.00  0.00    -0.508 OA
ATOM     27  H   UNL     1     103.071 102.784 118.159  1.00  0.00     0.293 HD
ENDBRANCH   8  26
TORSDOF 6
ENDMDL
MODEL 5
REMARK VINA RESULT:    -6.781      3.936      6.647
REMARK INTER + INTRA:          -8.148
REMARK INTER:                  -8.213
REMARK INTRA:                   0.066
REMARK UNBOUND:                 0.021
REMARK SMILES O=c1c(O)c(-c2ccc(O)c(O)c2)oc2cc(O)cc(O)c12
REMARK SMILES IDX 5 1 3 2 2 3 1 4 22 5 20 6 19 7 17 8 16 9 15 10 14 11 6 12
REMARK SMILES IDX 7 13 8 14 9 15 13 16 11 17 10 18 12 20 4 22 21 24 18 26
REMARK H PARENT 10 19 12 21 4 23 21 25 18 27
REMARK Flexibility Score: inf
ROOT
ATOM      1  C   UNL     1     102.072 112.334 122.299  1.00  0.00     0.180 A 
ATOM      2  C   UNL     1     101.730 113.432 121.491  1.00  0.00     0.208 A 
ATOM      3  C   UNL     1     101.718 114.717 122.057  1.00  0.00     0.238 A 
ATOM      4  O   UNL     1     101.463 115.702 121.317  1.00  0.00    -0.285 OA
ATOM      5  C   UNL     1     102.031 114.886 123.427  1.00  0.00     0.111 A 
ATOM      6  C   UNL     1     102.010 116.137 124.115  1.00  0.00     0.134 A 
ATOM      7  C   UNL     1     102.466 116.205 125.438  1.00  0.00     0.093 A 
ATOM      8  C   UNL     1     102.880 115.056 126.117  1.00  0.00     0.123 A 
ATOM      9  C   UNL     1     102.846 113.822 125.473  1.00  0.00     0.094 A 
ATOM     10  C   UNL     1     102.432 113.728 124.143  1.00  0.00     0.146 A 
ATOM     11  O   UNL     1     102.427 112.533 123.564  1.00  0.00    -0.452 OA
ENDROOT
BRANCH   1  12
ATOM     12  C   UNL     1     102.084 110.948 121.780  1.00  0.00     0.025 A 
ATOM     13  C   UNL     1     103.182 110.097 121.990  1.00  0.00     0.016 A 
ATOM     14  C   UNL     1     103.180 108.799 121.471  1.00  0.00     0.051 A 
ATOM     15  C   UNL     1     102.090 108.337 120.724  1.00  0.00     0.157 A 
ATOM     16  C   UNL     1     101.001 110.487 121.012  1.00  0.00     0.062 A 
ATOM     17  C   UNL     1     100.996 109.188 120.491  1.00  0.00     0.158 A 
BRANCH  15  18
ATOM     18  O   UNL     1     102.090 107.042 120.209  1.00  0.00    -0.504 OA
ATOM     19  H   UNL     1     102.938 106.609 119.860  1.00  0.00     0.293 HD
ENDBRANCH  15  18
BRANCH  17  20
ATOM     20  O   UNL     1      99.897 108.762 119.746  1.00  0.00    -0.504 OA
ATOM     21  H   UNL     1      99.901 107.889 119.232  1.00  0.00     0.293 HD
ENDBRANCH  17  20
ENDBRANCH   1  12
BRANCH   2  22
ATOM     22  O   UNL     1     101.445 113.245 120.136  1.00  0.00    -0.502 OA
ATOM     23  H   UNL     1     100.579 112.829 119.814  1.00  0.00     0.293 HD
ENDBRANCH   2  22
BRANCH   6  24
ATOM     24  O   UNL     1     101.531 117.326 123.558  1.00  0.00    -0.507 OA
ATOM     25  H   UNL     1     101.320 117.458 122.580  1.00  0.00     0.293 HD
ENDBRANCH   6  24
BRANCH   8  26
ATOM     26  O   UNL     1     103.316 115.131 127.439  1.00  0.00    -0.508 OA
ATOM     27  H   UNL     1     103.235 115.986 127.975  1.00  0.00     0.293 HD
ENDBRANCH   8  26
TORSDOF 6
ENDMDL
MODEL 6
REMARK VINA RESULT:    -6.695      2.775      4.231
REMARK INTER + INTRA:          -8.045
REMARK INTER:                  -7.726
REMARK INTRA:                  -0.319
REMARK UNBOUND:                 0.021
REMARK SMILES O=c1c(O)c(-c2ccc(O)c(O)c2)oc2cc(O)cc(O)c12
REMARK SMILES IDX 5 1 3 2 2 3 1 4 22 5 20 6 19 7 17 8 16 9 15 10 14 11 6 12
REMARK SMILES IDX 7 13 8 14 9 15 13 16 11 17 10 18 12 20 4 22 21 24 18 26
REMARK H PARENT 10 19 12 21 4 23 21 25 18 27
REMARK Flexibility Score: inf
ROOT
ATOM      1  C   UNL     1     101.514 116.238 123.874  1.00  0.00     0.180 A 
ATOM      2  C   UNL     1     101.737 116.848 125.120  1.00  0.00     0.208 A 
ATOM      3  C   UNL     1     101.203 118.124 125.360  1.00  0.00     0.238 A 
ATOM      4  O   UNL     1     101.361 118.642 126.496  1.00  0.00    -0.285 OA
ATOM      5  C   UNL     1     100.468 118.782 124.346  1.00  0.00     0.111 A 
ATOM      6  C   UNL     1      99.917 120.094 124.465  1.00  0.00     0.134 A 
ATOM      7  C   UNL     1      99.095 120.593 123.446  1.00  0.00     0.093 A 
ATOM      8  C   UNL     1      98.860 119.853 122.283  1.00  0.00     0.123 A 
ATOM      9  C   UNL     1      99.443 118.598 122.132  1.00  0.00     0.094 A 
ATOM     10  C   UNL     1     100.236 118.058 123.146  1.00  0.00     0.146 A 
ATOM     11  O   UNL     1     100.763 116.853 122.966  1.00  0.00    -0.452 OA
ENDROOT
BRANCH   1  12
ATOM     12  C   UNL     1     102.064 114.906 123.538  1.00  0.00     0.025 A 
ATOM     13  C   UNL     1     101.380 113.725 123.875  1.00  0.00     0.016 A 
ATOM     14  C   UNL     1     101.931 112.478 123.568  1.00  0.00     0.051 A 
ATOM     15  C   UNL     1     103.178 112.390 122.936  1.00  0.00     0.157 A 
ATOM     16  C   UNL     1     103.325 114.813 122.924  1.00  0.00     0.062 A 
ATOM     17  C   UNL     1     103.879 113.565 122.615  1.00  0.00     0.158 A 
BRANCH  15  18
ATOM     18  O   UNL     1     103.723 111.145 122.631  1.00  0.00    -0.504 OA
ATOM     19  H   UNL     1     104.548 111.054 122.048  1.00  0.00     0.293 HD
ENDBRANCH  15  18
BRANCH  17  20
ATOM     20  O   UNL     1     105.125 113.513 121.992  1.00  0.00    -0.504 OA
ATOM     21  H   UNL     1     105.949 113.163 122.466  1.00  0.00     0.293 HD
ENDBRANCH  17  20
ENDBRANCH   1  12
BRANCH   2  22
ATOM     22  O   UNL     1     102.448 116.171 126.116  1.00  0.00    -0.502 OA
ATOM     23  H   UNL     1     102.584 116.555 127.043  1.00  0.00     0.293 HD
ENDBRANCH   2  22
BRANCH   6  24
ATOM     24  O   UNL     1     100.164 120.949 125.541  1.00  0.00    -0.507 OA
ATOM     25  H   UNL     1     100.289 121.948 125.465  1.00  0.00     0.293 HD
ENDBRANCH   6  24
BRANCH   8  26
ATOM     26  O   UNL     1      98.055 120.365 121.267  1.00  0.00    -0.508 OA
ATOM     27  H   UNL     1      97.644 119.763 120.563  1.00  0.00     0.293 HD
ENDBRANCH   8  26
TORSDOF 6
ENDMDL
MODEL 7
REMARK VINA RESULT:    -6.626      7.052      8.583
REMARK INTER + INTRA:          -7.962
REMARK INTER:                  -8.292
REMARK INTRA:                   0.330
REMARK UNBOUND:                 0.021
REMARK SMILES O=c1c(O)c(-c2ccc(O)c(O)c2)oc2cc(O)cc(O)c12
REMARK SMILES IDX 5 1 3 2 2 3 1 4 22 5 20 6 19 7 17 8 16 9 15 10 14 11 6 12
REMARK SMILES IDX 7 13 8 14 9 15 13 16 11 17 10 18 12 20 4 22 21 24 18 26
REMARK H PARENT 10 19 12 21 4 23 21 25 18 27
REMARK Flexibility Score: inf
ROOT
ATOM      1  C   UNL     1     102.036 108.994 120.438  1.00  0.00     0.180 A 
ATOM      2  C   UNL     1     101.181 109.827 119.696  1.00  0.00     0.208 A 
ATOM      3  C   UNL     1     100.616 109.339 118.508  1.00  0.00     0.238 A 
ATOM      4  O   UNL     1      99.809 110.070 117.877  1.00  0.00    -0.285 OA
ATOM      5  C   UNL     1     100.925 108.030 118.067  1.00  0.00     0.111 A 
ATOM      6  C   UNL     1     100.441 107.446 116.857  1.00  0.00     0.134 A 
ATOM      7  C   UNL     1     100.706 106.097 116.587  1.00  0.00     0.093 A 
ATOM      8  C   UNL     1     101.492 105.331 117.451  1.00  0.00     0.123 A 
ATOM      9  C   UNL     1     102.019 105.909 118.603  1.00  0.00     0.094 A 
ATOM     10  C   UNL     1     101.742 107.240 118.918  1.00  0.00     0.146 A 
ATOM     11  O   UNL     1     102.254 107.748 120.033  1.00  0.00    -0.452 OA
ENDROOT
BRANCH   1  12
ATOM     12  C   UNL     1     102.690 109.447 121.687  1.00  0.00     0.025 A 
ATOM     13  C   UNL     1     102.876 110.813 121.962  1.00  0.00     0.016 A 
ATOM     14  C   UNL     1     103.516 111.216 123.137  1.00  0.00     0.051 A 
ATOM     15  C   UNL     1     103.993 110.263 124.046  1.00  0.00     0.157 A 
ATOM     16  C   UNL     1     103.188 108.494 122.591  1.00  0.00     0.062 A 
ATOM     17  C   UNL     1     103.830 108.895 123.769  1.00  0.00     0.158 A 
BRANCH  15  18
ATOM     18  O   UNL     1     104.630 110.668 125.217  1.00  0.00    -0.504 OA
ATOM     19  H   UNL     1     105.049 111.587 125.303  1.00  0.00     0.293 HD
ENDBRANCH  15  18
BRANCH  17  20
ATOM     20  O   UNL     1     104.299 107.920 124.650  1.00  0.00    -0.504 OA
ATOM     21  H   UNL     1     103.977 107.862 125.609  1.00  0.00     0.293 HD
ENDBRANCH  17  20
ENDBRANCH   1  12
BRANCH   2  22
ATOM     22  O   UNL     1     100.872 111.109 120.161  1.00  0.00    -0.502 OA
ATOM     23  H   UNL     1     101.585 111.784 120.410  1.00  0.00     0.293 HD
ENDBRANCH   2  22
BRANCH   6  24
ATOM     24  O   UNL     1      99.725 108.149 115.884  1.00  0.00    -0.507 OA
ATOM     25  H   UNL     1     100.052 108.326 114.946  1.00  0.00     0.293 HD
ENDBRANCH   6  24
BRANCH   8  26
ATOM     26  O   UNL     1     101.765 103.995 117.165  1.00  0.00    -0.508 OA
ATOM     27  H   UNL     1     102.251 103.400 117.826  1.00  0.00     0.293 HD
ENDBRANCH   8  26
TORSDOF 6
ENDMDL
MODEL 8
REMARK VINA RESULT:    -6.581     10.129     12.938
REMARK INTER + INTRA:          -7.907
REMARK INTER:                  -7.599
REMARK INTRA:                  -0.308
REMARK UNBOUND:                 0.021
REMARK SMILES O=c1c(O)c(-c2ccc(O)c(O)c2)oc2cc(O)cc(O)c12
REMARK SMILES IDX 5 1 3 2 2 3 1 4 22 5 20 6 19 7 17 8 16 9 15 10 14 11 6 12
REMARK SMILES IDX 7 13 8 14 9 15 13 16 11 17 10 18 12 20 4 22 21 24 18 26
REMARK H PARENT 10 19 12 21 4 23 21 25 18 27
REMARK Flexibility Score: inf
ROOT
ATOM      1  C   UNL     1     100.516 107.736 115.153  1.00  0.00     0.180 A 
ATOM      2  C   UNL     1     101.545 108.670 115.361  1.00  0.00     0.208 A 
ATOM      3  C   UNL     1     102.489 108.432 116.373  1.00  0.00     0.238 A 
ATOM      4  O   UNL     1     103.438 109.245 116.518  1.00  0.00    -0.285 OA
ATOM      5  C   UNL     1     102.383 107.270 117.175  1.00  0.00     0.111 A 
ATOM      6  C   UNL     1     103.260 106.948 118.254  1.00  0.00     0.134 A 
ATOM      7  C   UNL     1     103.140 105.708 118.895  1.00  0.00     0.093 A 
ATOM      8  C   UNL     1     102.133 104.807 118.537  1.00  0.00     0.123 A 
ATOM      9  C   UNL     1     101.235 105.139 117.526  1.00  0.00     0.094 A 
ATOM     10  C   UNL     1     101.352 106.352 116.844  1.00  0.00     0.146 A 
ATOM     11  O   UNL     1     100.482 106.623 115.878  1.00  0.00    -0.452 OA
ENDROOT
BRANCH   1  12
ATOM     12  C   UNL     1      99.471 107.930 114.124  1.00  0.00     0.025 A 
ATOM     13  C   UNL     1      99.583 107.351 112.848  1.00  0.00     0.016 A 
ATOM     14  C   UNL     1      98.595 107.567 111.884  1.00  0.00     0.051 A 
ATOM     15  C   UNL     1      97.489 108.376 112.173  1.00  0.00     0.157 A 
ATOM     16  C   UNL     1      98.370 108.758 114.402  1.00  0.00     0.062 A 
ATOM     17  C   UNL     1      97.378 108.977 113.439  1.00  0.00     0.158 A 
BRANCH  15  18
ATOM     18  O   UNL     1      96.504 108.589 111.210  1.00  0.00    -0.504 OA
ATOM     19  H   UNL     1      96.164 107.836 110.623  1.00  0.00     0.293 HD
ENDBRANCH  15  18
BRANCH  17  20
ATOM     20  O   UNL     1      96.294 109.793 113.758  1.00  0.00    -0.504 OA
ATOM     21  H   UNL     1      95.517 109.928 113.121  1.00  0.00     0.293 HD
ENDBRANCH  17  20
ENDBRANCH   1  12
BRANCH   2  22
ATOM     22  O   UNL     1     101.644 109.800 114.543  1.00  0.00    -0.502 OA
ATOM     23  H   UNL     1     100.951 110.539 114.551  1.00  0.00     0.293 HD
ENDBRANCH   2  22
BRANCH   6  24
ATOM     24  O   UNL     1     104.239 107.814 118.749  1.00  0.00    -0.507 OA
ATOM     25  H   UNL     1     105.076 108.079 118.252  1.00  0.00     0.293 HD
ENDBRANCH   6  24
BRANCH   8  26
ATOM     26  O   UNL     1     102.011 103.583 119.192  1.00  0.00    -0.508 OA
ATOM     27  H   UNL     1     102.233 102.710 118.728  1.00  0.00     0.293 HD
ENDBRANCH   8  26
TORSDOF 6
ENDMDL
MODEL 9
REMARK VINA RESULT:    -6.575      2.409      4.553
REMARK INTER + INTRA:          -7.899
REMARK INTER:                  -8.271
REMARK INTRA:                   0.372
REMARK UNBOUND:                 0.021
REMARK SMILES O=c1c(O)c(-c2ccc(O)c(O)c2)oc2cc(O)cc(O)c12
REMARK SMILES IDX 5 1 3 2 2 3 1 4 22 5 20 6 19 7 17 8 16 9 15 10 14 11 6 12
REMARK SMILES IDX 7 13 8 14 9 15 13 16 11 17 10 18 12 20 4 22 21 24 18 26
REMARK H PARENT 10 19 12 21 4 23 21 25 18 27
REMARK Flexibility Score: inf
ROOT
ATOM      1  C   UNL     1     101.425 114.888 122.775  1.00  0.00     0.180 A 
ATOM      2  C   UNL     1     100.926 115.469 121.597  1.00  0.00     0.208 A 
ATOM      3  C   UNL     1     100.408 116.773 121.647  1.00  0.00     0.238 A 
ATOM      4  O   UNL     1     100.012 117.308 120.579  1.00  0.00    -0.285 OA
ATOM      5  C   UNL     1     100.381 117.474 122.877  1.00  0.00     0.111 A 
ATOM      6  C   UNL     1      99.843 118.784 123.052  1.00  0.00     0.134 A 
ATOM      7  C   UNL     1      99.989 119.432 124.285  1.00  0.00     0.093 A 
ATOM      8  C   UNL     1     100.595 118.790 125.368  1.00  0.00     0.123 A 
ATOM      9  C   UNL     1     101.069 117.488 125.224  1.00  0.00     0.094 A 
ATOM     10  C   UNL     1     100.971 116.831 123.997  1.00  0.00     0.146 A 
ATOM     11  O   UNL     1     101.447 115.595 123.900  1.00  0.00    -0.452 OA
ENDROOT
BRANCH   1  12
ATOM     12  C   UNL     1     101.963 113.509 122.807  1.00  0.00     0.025 A 
ATOM     13  C   UNL     1     101.673 112.586 121.787  1.00  0.00     0.016 A 
ATOM     14  C   UNL     1     102.173 111.283 121.850  1.00  0.00     0.051 A 
ATOM     15  C   UNL     1     102.957 110.877 122.938  1.00  0.00     0.157 A 
ATOM     16  C   UNL     1     102.732 113.092 123.906  1.00  0.00     0.062 A 
ATOM     17  C   UNL     1     103.234 111.787 123.973  1.00  0.00     0.158 A 
BRANCH  15  18
ATOM     18  O   UNL     1     103.455 109.577 122.997  1.00  0.00    -0.504 OA
ATOM     19  H   UNL     1     102.863 108.773 122.822  1.00  0.00     0.293 HD
ENDBRANCH  15  18
BRANCH  17  20
ATOM     20  O   UNL     1     104.006 111.413 125.072  1.00  0.00    -0.504 OA
ATOM     21  H   UNL     1     104.960 111.086 124.974  1.00  0.00     0.293 HD
ENDBRANCH  17  20
ENDBRANCH   1  12
BRANCH   2  22
ATOM     22  O   UNL     1     100.982 114.768 120.389  1.00  0.00    -0.502 OA
ATOM     23  H   UNL     1     100.365 114.973 119.612  1.00  0.00     0.293 HD
ENDBRANCH   2  22
BRANCH   6  24
ATOM     24  O   UNL     1      99.139 119.477 122.063  1.00  0.00    -0.507 OA
ATOM     25  H   UNL     1      98.171 119.315 121.826  1.00  0.00     0.293 HD
ENDBRANCH   6  24
BRANCH   8  26
ATOM     26  O   UNL     1     100.720 119.435 126.597  1.00  0.00    -0.508 OA
ATOM     27  H   UNL     1     100.782 118.916 127.465  1.00  0.00     0.293 HD
ENDBRANCH   8  26
TORSDOF 6
ENDMDL
