MODEL 1
REMARK VINA RESULT:    -6.978      0.000      0.000
REMARK INTER + INTRA:         -13.344
REMARK INTER:                 -11.466
REMARK INTRA:                  -1.878
REMARK UNBOUND:                -1.878
REMARK SMILES COc1ccc([C@@H]2CC(=O)c3c(O)cc(O[C@@H]4O[C@@H](CO[C@H]5O[C@@H](C)[C@H](O)[C@@H](O)[C@H]5O)[C@H](O)[C@@H](O)[C@H]4O)cc3O2)cc1O
REMARK SMILES IDX 19 1 32 2 34 3 36 4 17 5 18 6 20 7 21 8 22 9 25 10 24 11
REMARK SMILES IDX 26 12 23 13 28 14 30 15 27 16 29 18 31 20 33 22 35 24 16 26
REMARK SMILES IDX 15 27 14 28 38 29 12 30 39 31 11 32 40 33 9 34 7 35 10 36
REMARK SMILES IDX 8 37 13 38 6 40 41 41 5 42 42 43 4 44 3 45 43 46 2 48 1 49
REMARK SMILES IDX 37 50
REMARK H PARENT 27 17 29 19 31 21 33 23 35 25 13 39 43 47 37 51
REMARK Flexibility Score: inf
ROOT
ATOM      1  C   UNL     1      -5.675  91.366 -16.998  1.00  0.00     0.180 C 
ATOM      2  C   UNL     1      -4.170  91.167 -16.690  1.00  0.00     0.177 C 
ATOM      3  C   UNL     1      -3.985  90.761 -15.219  1.00  0.00     0.180 C 
ATOM      4  C   UNL     1      -4.760  91.704 -14.279  1.00  0.00     0.214 C 
ATOM      5  C   UNL     1      -6.218  91.886 -14.769  1.00  0.00     0.339 C 
ATOM      6  O   UNL     1      -6.248  92.322 -16.119  1.00  0.00    -0.332 OA
ENDROOT
BRANCH   1   7
ATOM      7  C   UNL     1      -5.888  91.869 -18.436  1.00  0.00     0.198 C 
BRANCH   7   8
ATOM      8  O   UNL     1      -4.706  92.458 -18.949  1.00  0.00    -0.347 OA
BRANCH   8   9
ATOM      9  C   UNL     1      -4.654  92.370 -20.364  1.00  0.00     0.281 C 
ATOM     10  C   UNL     1      -4.086  95.279 -19.367  1.00  0.00     0.041 C 
ATOM     11  C   UNL     1      -3.966  94.629 -20.755  1.00  0.00     0.150 C 
ATOM     12  C   UNL     1      -2.525  94.191 -21.118  1.00  0.00     0.174 C 
ATOM     13  O   UNL     1      -4.949  93.620 -20.974  1.00  0.00    -0.344 OA
ATOM     14  C   UNL     1      -2.171  92.814 -20.525  1.00  0.00     0.179 C 
ATOM     15  C   UNL     1      -3.296  91.816 -20.821  1.00  0.00     0.202 C 
BRANCH  12  16
ATOM     16  O   UNL     1      -2.408  94.145 -22.515  1.00  0.00    -0.388 OA
ATOM     17  H   UNL     1      -1.765  93.417 -22.731  1.00  0.00     0.211 HD
ENDBRANCH  12  16
BRANCH  14  18
ATOM     18  O   UNL     1      -1.958  92.907 -19.142  1.00  0.00    -0.387 OA
ATOM     19  H   UNL     1      -1.213  93.551 -19.009  1.00  0.00     0.211 HD
ENDBRANCH  14  18
BRANCH  15  20
ATOM     20  O   UNL     1      -3.044  90.589 -20.184  1.00  0.00    -0.385 OA
ATOM     21  H   UNL     1      -3.919  90.255 -19.850  1.00  0.00     0.211 HD
ENDBRANCH  15  20
ENDBRANCH   8   9
ENDBRANCH   7   8
ENDBRANCH   1   7
BRANCH   2  22
ATOM     22  O   UNL     1      -3.645  90.156 -17.513  1.00  0.00    -0.387 OA
ATOM     23  H   UNL     1      -3.309  90.597 -18.340  1.00  0.00     0.211 HD
ENDBRANCH   2  22
BRANCH   3  24
ATOM     24  O   UNL     1      -2.618  90.768 -14.895  1.00  0.00    -0.387 OA
ATOM     25  H   UNL     1      -2.515  91.350 -14.098  1.00  0.00     0.211 HD
ENDBRANCH   3  24
BRANCH   5  26
ATOM     26  O   UNL     1      -6.978  90.680 -14.621  1.00  0.00    -0.462 OA
BRANCH  26  27
ATOM     27  C   UNL     1      -7.311  90.058 -13.407  1.00  0.00     0.130 A 
ATOM     28  C   UNL     1      -8.515  90.423 -12.792  1.00  0.00     0.093 A 
ATOM     29  C   UNL     1      -6.491  89.094 -12.790  1.00  0.00     0.094 A 
ATOM     30  C   UNL     1      -8.935  89.807 -11.604  1.00  0.00     0.133 A 
ATOM     31  C   UNL     1      -6.892  88.489 -11.596  1.00  0.00     0.138 A 
ATOM     32  C   UNL     1      -8.129  88.815 -11.010  1.00  0.00     0.102 A 
ATOM     33  O   UNL     1      -6.056  87.539 -10.995  1.00  0.00    -0.484 OA
ATOM     34  C   UNL     1      -8.541  88.053  -9.809  1.00  0.00     0.174 C 
ATOM     35  C   UNL     1      -6.252  87.079  -9.650  1.00  0.00     0.211 C 
ATOM     36  O   UNL     1      -9.564  88.381  -9.146  1.00  0.00    -0.294 OA
ATOM     37  C   UNL     1      -7.754  86.841  -9.401  1.00  0.00     0.131 C 
BRANCH  30  38
ATOM     38  O   UNL     1     -10.153  90.178 -11.028  1.00  0.00    -0.507 OA
ATOM     39  H   UNL     1     -11.000  89.644 -11.183  1.00  0.00     0.293 HD
ENDBRANCH  30  38
BRANCH  35  40
ATOM     40  C   UNL     1      -5.413  85.837  -9.379  1.00  0.00    -0.003 A 
ATOM     41  C   UNL     1      -5.716  84.604  -9.996  1.00  0.00     0.057 A 
ATOM     42  C   UNL     1      -4.252  85.923  -8.585  1.00  0.00     0.011 A 
ATOM     43  C   UNL     1      -4.905  83.481  -9.792  1.00  0.00     0.158 A 
ATOM     44  C   UNL     1      -3.455  84.800  -8.362  1.00  0.00     0.051 A 
ATOM     45  C   UNL     1      -3.771  83.566  -8.964  1.00  0.00     0.160 A 
BRANCH  43  46
ATOM     46  O   UNL     1      -5.244  82.285 -10.428  1.00  0.00    -0.504 OA
ATOM     47  H   UNL     1      -6.156  81.861 -10.326  1.00  0.00     0.293 HD
ENDBRANCH  43  46
BRANCH  45  48
ATOM     48  O   UNL     1      -2.985  82.420  -8.771  1.00  0.00    -0.493 OA
ATOM     49  C   UNL     1      -3.111  81.534  -7.666  1.00  0.00     0.278 C 
ENDBRANCH  45  48
ENDBRANCH  35  40
ENDBRANCH  26  27
ENDBRANCH   5  26
BRANCH   4  50
ATOM     50  O   UNL     1      -4.107  92.945 -14.146  1.00  0.00    -0.384 OA
ATOM     51  H   UNL     1      -4.741  93.662 -14.414  1.00  0.00     0.211 HD
ENDBRANCH   4  50
TORSDOF 15
ENDMDL
MODEL 2
REMARK VINA RESULT:    -6.875      2.525      5.671
REMARK INTER + INTRA:         -13.174
REMARK INTER:                 -11.324
REMARK INTRA:                  -1.850
REMARK UNBOUND:                -1.878
REMARK SMILES COc1ccc([C@@H]2CC(=O)c3c(O)cc(O[C@@H]4O[C@@H](CO[C@H]5O[C@@H](C)[C@H](O)[C@@H](O)[C@H]5O)[C@H](O)[C@@H](O)[C@H]4O)cc3O2)cc1O
REMARK SMILES IDX 19 1 32 2 34 3 36 4 17 5 18 6 20 7 21 8 22 9 25 10 24 11
REMARK SMILES IDX 26 12 23 13 28 14 30 15 27 16 29 18 31 20 33 22 35 24 16 26
REMARK SMILES IDX 15 27 14 28 38 29 12 30 39 31 11 32 40 33 9 34 7 35 10 36
REMARK SMILES IDX 8 37 13 38 6 40 41 41 5 42 42 43 4 44 3 45 43 46 2 48 1 49
REMARK SMILES IDX 37 50
REMARK H PARENT 27 17 29 19 31 21 33 23 35 25 13 39 43 47 37 51
REMARK Flexibility Score: inf
ROOT
ATOM      1  C   UNL     1      -4.951  92.276 -14.163  1.00  0.00     0.180 C 
ATOM      2  C   UNL     1      -4.940  93.094 -15.479  1.00  0.00     0.177 C 
ATOM      3  C   UNL     1      -5.966  92.513 -16.466  1.00  0.00     0.180 C 
ATOM      4  C   UNL     1      -5.804  90.987 -16.604  1.00  0.00     0.214 C 
ATOM      5  C   UNL     1      -5.730  90.318 -15.209  1.00  0.00     0.339 C 
ATOM      6  O   UNL     1      -4.705  90.902 -14.421  1.00  0.00    -0.332 OA
ENDROOT
BRANCH   1   7
ATOM      7  C   UNL     1      -3.866  92.769 -13.191  1.00  0.00     0.198 C 
BRANCH   7   8
ATOM      8  O   UNL     1      -4.420  93.065 -11.920  1.00  0.00    -0.347 OA
BRANCH   8   9
ATOM      9  C   UNL     1      -4.704  94.448 -11.787  1.00  0.00     0.281 C 
ATOM     10  C   UNL     1      -6.901  92.683 -10.432  1.00  0.00     0.041 C 
ATOM     11  C   UNL     1      -6.645  94.198 -10.409  1.00  0.00     0.150 C 
ATOM     12  C   UNL     1      -5.887  94.686  -9.148  1.00  0.00     0.174 C 
ATOM     13  O   UNL     1      -6.098  94.680 -11.634  1.00  0.00    -0.344 OA
ATOM     14  C   UNL     1      -4.364  94.507  -9.282  1.00  0.00     0.179 C 
ATOM     15  C   UNL     1      -3.892  95.058 -10.633  1.00  0.00     0.202 C 
BRANCH  12  16
ATOM     16  O   UNL     1      -6.184  96.042  -8.942  1.00  0.00    -0.388 OA
ATOM     17  H   UNL     1      -5.464  96.569  -9.381  1.00  0.00     0.211 HD
ENDBRANCH  12  16
BRANCH  14  18
ATOM     18  O   UNL     1      -4.008  93.155  -9.161  1.00  0.00    -0.387 OA
ATOM     19  H   UNL     1      -3.123  93.131  -8.710  1.00  0.00     0.211 HD
ENDBRANCH  14  18
BRANCH  15  20
ATOM     20  O   UNL     1      -2.525  94.792 -10.822  1.00  0.00    -0.385 OA
ATOM     21  H   UNL     1      -2.408  93.810 -10.720  1.00  0.00     0.211 HD
ENDBRANCH  15  20
ENDBRANCH   8   9
ENDBRANCH   7   8
ENDBRANCH   1   7
BRANCH   2  22
ATOM     22  O   UNL     1      -5.270  94.433 -15.211  1.00  0.00    -0.387 OA
ATOM     23  H   UNL     1      -5.785  94.442 -14.358  1.00  0.00     0.211 HD
ENDBRANCH   2  22
BRANCH   3  24
ATOM     24  O   UNL     1      -5.819  93.133 -17.718  1.00  0.00    -0.387 OA
ATOM     25  H   UNL     1      -6.658  92.962 -18.222  1.00  0.00     0.211 HD
ENDBRANCH   3  24
BRANCH   5  26
ATOM     26  O   UNL     1      -6.985  90.391 -14.522  1.00  0.00    -0.462 OA
BRANCH  26  27
ATOM     27  C   UNL     1      -7.296  89.768 -13.302  1.00  0.00     0.130 A 
ATOM     28  C   UNL     1      -8.495  90.124 -12.671  1.00  0.00     0.093 A 
ATOM     29  C   UNL     1      -6.461  88.812 -12.696  1.00  0.00     0.094 A 
ATOM     30  C   UNL     1      -8.893  89.507 -11.477  1.00  0.00     0.133 A 
ATOM     31  C   UNL     1      -6.840  88.205 -11.495  1.00  0.00     0.138 A 
ATOM     32  C   UNL     1      -8.071  88.523 -10.893  1.00  0.00     0.102 A 
ATOM     33  O   UNL     1      -5.989  87.263 -10.904  1.00  0.00    -0.484 OA
ATOM     34  C   UNL     1      -8.460  87.759  -9.684  1.00  0.00     0.174 C 
ATOM     35  C   UNL     1      -6.161  86.804  -9.556  1.00  0.00     0.211 C 
ATOM     36  O   UNL     1      -9.477  88.080  -9.008  1.00  0.00    -0.294 OA
ATOM     37  C   UNL     1      -7.658  86.555  -9.286  1.00  0.00     0.131 C 
BRANCH  30  38
ATOM     38  O   UNL     1     -10.106  89.869 -10.885  1.00  0.00    -0.507 OA
ATOM     39  H   UNL     1     -10.507  89.334 -10.123  1.00  0.00     0.293 HD
ENDBRANCH  30  38
BRANCH  35  40
ATOM     40  C   UNL     1      -5.310  85.569  -9.294  1.00  0.00    -0.003 A 
ATOM     41  C   UNL     1      -5.552  84.358  -9.978  1.00  0.00     0.057 A 
ATOM     42  C   UNL     1      -4.193  85.645  -8.439  1.00  0.00     0.011 A 
ATOM     43  C   UNL     1      -4.727  83.244  -9.780  1.00  0.00     0.158 A 
ATOM     44  C   UNL     1      -3.382  84.530  -8.222  1.00  0.00     0.051 A 
ATOM     45  C   UNL     1      -3.639  83.317  -8.892  1.00  0.00     0.160 A 
BRANCH  43  46
ATOM     46  O   UNL     1      -5.005  82.070 -10.483  1.00  0.00    -0.504 OA
ATOM     47  H   UNL     1      -4.647  81.171 -10.190  1.00  0.00     0.293 HD
ENDBRANCH  43  46
BRANCH  45  48
ATOM     48  O   UNL     1      -2.837  82.180  -8.707  1.00  0.00    -0.493 OA
ATOM     49  C   UNL     1      -2.917  81.314  -7.583  1.00  0.00     0.278 C 
ENDBRANCH  45  48
ENDBRANCH  35  40
ENDBRANCH  26  27
ENDBRANCH   5  26
BRANCH   4  50
ATOM     50  O   UNL     1      -4.681  90.659 -17.388  1.00  0.00    -0.384 OA
ATOM     51  H   UNL     1      -4.782  91.095 -18.275  1.00  0.00     0.211 HD
ENDBRANCH   4  50
TORSDOF 15
ENDMDL
MODEL 3
REMARK VINA RESULT:    -6.859      3.561     11.925
REMARK INTER + INTRA:         -13.147
REMARK INTER:                 -11.560
REMARK INTRA:                  -1.587
REMARK UNBOUND:                -1.878
REMARK SMILES COc1ccc([C@@H]2CC(=O)c3c(O)cc(O[C@@H]4O[C@@H](CO[C@H]5O[C@@H](C)[C@H](O)[C@@H](O)[C@H]5O)[C@H](O)[C@@H](O)[C@H]4O)cc3O2)cc1O
REMARK SMILES IDX 19 1 32 2 34 3 36 4 17 5 18 6 20 7 21 8 22 9 25 10 24 11
REMARK SMILES IDX 26 12 23 13 28 14 30 15 27 16 29 18 31 20 33 22 35 24 16 26
REMARK SMILES IDX 15 27 14 28 38 29 12 30 39 31 11 32 40 33 9 34 7 35 10 36
REMARK SMILES IDX 8 37 13 38 6 40 41 41 5 42 42 43 4 44 3 45 43 46 2 48 1 49
REMARK SMILES IDX 37 50
REMARK H PARENT 27 17 29 19 31 21 33 23 35 25 13 39 43 47 37 51
REMARK Flexibility Score: inf
ROOT
ATOM      1  C   UNL     1      -7.220  85.034  -7.755  1.00  0.00     0.180 C 
ATOM      2  C   UNL     1      -5.698  84.938  -7.481  1.00  0.00     0.177 C 
ATOM      3  C   UNL     1      -4.934  85.866  -8.440  1.00  0.00     0.180 C 
ATOM      4  C   UNL     1      -5.385  85.655  -9.898  1.00  0.00     0.214 C 
ATOM      5  C   UNL     1      -6.930  85.676 -10.000  1.00  0.00     0.339 C 
ATOM      6  O   UNL     1      -7.509  84.733  -9.112  1.00  0.00    -0.332 OA
ENDROOT
BRANCH   1   7
ATOM      7  C   UNL     1      -8.007  84.045  -6.879  1.00  0.00     0.198 C 
BRANCH   7   8
ATOM      8  O   UNL     1      -9.238  83.695  -7.489  1.00  0.00    -0.347 OA
BRANCH   8   9
ATOM      9  C   UNL     1      -9.339  82.294  -7.684  1.00  0.00     0.281 C 
ATOM     10  C   UNL     1     -11.825  83.430  -6.164  1.00  0.00     0.041 C 
ATOM     11  C   UNL     1     -11.539  82.048  -6.773  1.00  0.00     0.150 C 
ATOM     12  C   UNL     1     -12.163  81.842  -8.176  1.00  0.00     0.174 C 
ATOM     13  O   UNL     1     -10.162  81.689  -6.695  1.00  0.00    -0.344 OA
ATOM     14  C   UNL     1     -11.284  82.433  -9.294  1.00  0.00     0.179 C 
ATOM     15  C   UNL     1      -9.831  81.981  -9.107  1.00  0.00     0.202 C 
BRANCH  12  16
ATOM     16  O   UNL     1     -12.337  80.467  -8.393  1.00  0.00    -0.388 OA
ATOM     17  H   UNL     1     -13.259  80.238  -8.097  1.00  0.00     0.211 HD
ENDBRANCH  12  16
BRANCH  14  18
ATOM     18  O   UNL     1     -11.358  83.834  -9.299  1.00  0.00    -0.387 OA
ATOM     19  H   UNL     1     -12.164  84.080  -8.772  1.00  0.00     0.211 HD
ENDBRANCH  14  18
BRANCH  15  20
ATOM     20  O   UNL     1      -8.996  82.609 -10.047  1.00  0.00    -0.385 OA
ATOM     21  H   UNL     1      -8.492  81.887 -10.509  1.00  0.00     0.211 HD
ENDBRANCH  15  20
ENDBRANCH   8   9
ENDBRANCH   7   8
ENDBRANCH   1   7
BRANCH   2  22
ATOM     22  O   UNL     1      -5.426  85.324  -6.158  1.00  0.00    -0.387 OA
ATOM     23  H   UNL     1      -5.929  84.705  -5.563  1.00  0.00     0.211 HD
ENDBRANCH   2  22
BRANCH   3  24
ATOM     24  O   UNL     1      -3.553  85.636  -8.320  1.00  0.00    -0.387 OA
ATOM     25  H   UNL     1      -3.417  84.657  -8.417  1.00  0.00     0.211 HD
ENDBRANCH   3  24
BRANCH   5  26
ATOM     26  O   UNL     1      -7.457  86.984  -9.746  1.00  0.00    -0.462 OA
BRANCH  26  27
ATOM     27  C   UNL     1      -6.872  88.200 -10.135  1.00  0.00     0.130 A 
ATOM     28  C   UNL     1      -6.598  89.144  -9.138  1.00  0.00     0.093 A 
ATOM     29  C   UNL     1      -6.557  88.505 -11.472  1.00  0.00     0.094 A 
ATOM     30  C   UNL     1      -5.969  90.359  -9.447  1.00  0.00     0.133 A 
ATOM     31  C   UNL     1      -5.949  89.721 -11.793  1.00  0.00     0.138 A 
ATOM     32  C   UNL     1      -5.621  90.643 -10.782  1.00  0.00     0.102 A 
ATOM     33  O   UNL     1      -5.652  90.008 -13.132  1.00  0.00    -0.484 OA
ATOM     34  C   UNL     1      -4.875  91.860 -11.180  1.00  0.00     0.174 C 
ATOM     35  C   UNL     1      -5.289  91.322 -13.579  1.00  0.00     0.211 C 
ATOM     36  O   UNL     1      -4.670  92.798 -10.360  1.00  0.00    -0.294 OA
ATOM     37  C   UNL     1      -4.314  91.958 -12.569  1.00  0.00     0.131 C 
BRANCH  30  38
ATOM     38  O   UNL     1      -5.689  91.269  -8.425  1.00  0.00    -0.507 OA
ATOM     39  H   UNL     1      -6.410  91.599  -7.793  1.00  0.00     0.293 HD
ENDBRANCH  30  38
BRANCH  35  40
ATOM     40  C   UNL     1      -4.717  91.272 -14.988  1.00  0.00    -0.003 A 
ATOM     41  C   UNL     1      -5.559  91.139 -16.113  1.00  0.00     0.057 A 
ATOM     42  C   UNL     1      -3.338  91.466 -15.202  1.00  0.00     0.011 A 
ATOM     43  C   UNL     1      -5.033  91.156 -17.411  1.00  0.00     0.158 A 
ATOM     44  C   UNL     1      -2.807  91.461 -16.493  1.00  0.00     0.051 A 
ATOM     45  C   UNL     1      -3.649  91.308 -17.612  1.00  0.00     0.160 A 
BRANCH  43  46
ATOM     46  O   UNL     1      -5.908  91.025 -18.491  1.00  0.00    -0.504 OA
ATOM     47  H   UNL     1      -6.066  90.138 -18.950  1.00  0.00     0.293 HD
ENDBRANCH  43  46
BRANCH  45  48
ATOM     48  O   UNL     1      -3.152  91.311 -18.925  1.00  0.00    -0.493 OA
ATOM     49  C   UNL     1      -1.953  90.663 -19.332  1.00  0.00     0.278 C 
ENDBRANCH  45  48
ENDBRANCH  35  40
ENDBRANCH  26  27
ENDBRANCH   5  26
BRANCH   4  50
ATOM     50  O   UNL     1      -4.854  84.464 -10.431  1.00  0.00    -0.384 OA
ATOM     51  H   UNL     1      -5.286  84.295 -11.310  1.00  0.00     0.211 HD
ENDBRANCH   4  50
TORSDOF 15
ENDMDL
MODEL 4
REMARK VINA RESULT:    -6.720      1.718      2.566
REMARK INTER + INTRA:         -12.920
REMARK INTER:                 -10.947
REMARK INTRA:                  -1.973
REMARK UNBOUND:                -1.878
REMARK SMILES COc1ccc([C@@H]2CC(=O)c3c(O)cc(O[C@@H]4O[C@@H](CO[C@H]5O[C@@H](C)[C@H](O)[C@@H](O)[C@H]5O)[C@H](O)[C@@H](O)[C@H]4O)cc3O2)cc1O
REMARK SMILES IDX 19 1 32 2 34 3 36 4 17 5 18 6 20 7 21 8 22 9 25 10 24 11
REMARK SMILES IDX 26 12 23 13 28 14 30 15 27 16 29 18 31 20 33 22 35 24 16 26
REMARK SMILES IDX 15 27 14 28 38 29 12 30 39 31 11 32 40 33 9 34 7 35 10 36
REMARK SMILES IDX 8 37 13 38 6 40 41 41 5 42 42 43 4 44 3 45 43 46 2 48 1 49
REMARK SMILES IDX 37 50
REMARK H PARENT 27 17 29 19 31 21 33 23 35 25 13 39 43 47 37 51
REMARK Flexibility Score: inf
ROOT
ATOM      1  C   UNL     1      -5.825  91.389 -16.894  1.00  0.00     0.180 C 
ATOM      2  C   UNL     1      -4.298  91.218 -16.700  1.00  0.00     0.177 C 
ATOM      3  C   UNL     1      -4.000  90.767 -15.261  1.00  0.00     0.180 C 
ATOM      4  C   UNL     1      -4.728  91.656 -14.235  1.00  0.00     0.214 C 
ATOM      5  C   UNL     1      -6.221  91.816 -14.615  1.00  0.00     0.339 C 
ATOM      6  O   UNL     1      -6.357  92.298 -15.943  1.00  0.00    -0.332 OA
ENDROOT
BRANCH   1   7
ATOM      7  C   UNL     1      -6.152  91.934 -18.295  1.00  0.00     0.198 C 
BRANCH   7   8
ATOM      8  O   UNL     1      -6.754  93.215 -18.213  1.00  0.00    -0.347 OA
BRANCH   8   9
ATOM      9  C   UNL     1      -5.944  94.208 -18.822  1.00  0.00     0.281 C 
ATOM     10  C   UNL     1      -8.988  94.760 -19.279  1.00  0.00     0.041 C 
ATOM     11  C   UNL     1      -7.739  95.609 -19.561  1.00  0.00     0.150 C 
ATOM     12  C   UNL     1      -7.442  96.668 -18.469  1.00  0.00     0.174 C 
ATOM     13  O   UNL     1      -6.608  94.818 -19.921  1.00  0.00    -0.344 OA
ATOM     14  C   UNL     1      -6.673  96.071 -17.276  1.00  0.00     0.179 C 
ATOM     15  C   UNL     1      -5.486  95.244 -17.783  1.00  0.00     0.202 C 
BRANCH  12  16
ATOM     16  O   UNL     1      -6.688  97.704 -19.042  1.00  0.00    -0.388 OA
ATOM     17  H   UNL     1      -6.191  97.314 -19.810  1.00  0.00     0.211 HD
ENDBRANCH  12  16
BRANCH  14  18
ATOM     18  O   UNL     1      -7.518  95.273 -16.489  1.00  0.00    -0.387 OA
ATOM     19  H   UNL     1      -7.270  95.442 -15.542  1.00  0.00     0.211 HD
ENDBRANCH  14  18
BRANCH  15  20
ATOM     20  O   UNL     1      -4.848  94.594 -16.713  1.00  0.00    -0.385 OA
ATOM     21  H   UNL     1      -5.000  93.619 -16.839  1.00  0.00     0.211 HD
ENDBRANCH  15  20
ENDBRANCH   8   9
ENDBRANCH   7   8
ENDBRANCH   1   7
BRANCH   2  22
ATOM     22  O   UNL     1      -3.808  90.251 -17.594  1.00  0.00    -0.387 OA
ATOM     23  H   UNL     1      -4.218  89.381 -17.336  1.00  0.00     0.211 HD
ENDBRANCH   2  22
BRANCH   3  24
ATOM     24  O   UNL     1      -2.613  90.798 -15.034  1.00  0.00    -0.387 OA
ATOM     25  H   UNL     1      -2.272  91.630 -15.457  1.00  0.00     0.211 HD
ENDBRANCH   3  24
BRANCH   5  26
ATOM     26  O   UNL     1      -6.939  90.586 -14.458  1.00  0.00    -0.462 OA
BRANCH  26  27
ATOM     27  C   UNL     1      -7.247  89.959 -13.239  1.00  0.00     0.130 A 
ATOM     28  C   UNL     1      -8.425  90.339 -12.586  1.00  0.00     0.093 A 
ATOM     29  C   UNL     1      -6.425  88.977 -12.655  1.00  0.00     0.094 A 
ATOM     30  C   UNL     1      -8.820  89.720 -11.391  1.00  0.00     0.133 A 
ATOM     31  C   UNL     1      -6.800  88.368 -11.455  1.00  0.00     0.138 A 
ATOM     32  C   UNL     1      -8.013  88.710 -10.830  1.00  0.00     0.102 A 
ATOM     33  O   UNL     1      -5.964  87.399 -10.886  1.00  0.00    -0.484 OA
ATOM     34  C   UNL     1      -8.402  87.945  -9.622  1.00  0.00     0.174 C 
ATOM     35  C   UNL     1      -6.126  86.931  -9.540  1.00  0.00     0.211 C 
ATOM     36  O   UNL     1      -9.400  88.284  -8.927  1.00  0.00    -0.294 OA
ATOM     37  C   UNL     1      -7.625  86.717  -9.248  1.00  0.00     0.131 C 
BRANCH  30  38
ATOM     38  O   UNL     1     -10.014  90.106 -10.776  1.00  0.00    -0.507 OA
ATOM     39  H   UNL     1     -10.020  90.690  -9.947  1.00  0.00     0.293 HD
ENDBRANCH  30  38
BRANCH  35  40
ATOM     40  C   UNL     1      -5.302  85.673  -9.304  1.00  0.00    -0.003 A 
ATOM     41  C   UNL     1      -5.631  84.456  -9.938  1.00  0.00     0.057 A 
ATOM     42  C   UNL     1      -4.127  85.729  -8.528  1.00  0.00     0.011 A 
ATOM     43  C   UNL     1      -4.833  83.318  -9.767  1.00  0.00     0.158 A 
ATOM     44  C   UNL     1      -3.342  84.591  -8.336  1.00  0.00     0.051 A 
ATOM     45  C   UNL     1      -3.685  83.373  -8.956  1.00  0.00     0.160 A 
BRANCH  43  46
ATOM     46  O   UNL     1      -5.199  82.138 -10.418  1.00  0.00    -0.504 OA
ATOM     47  H   UNL     1      -4.682  81.277 -10.299  1.00  0.00     0.293 HD
ENDBRANCH  43  46
BRANCH  45  48
ATOM     48  O   UNL     1      -2.912  82.213  -8.795  1.00  0.00    -0.493 OA
ATOM     49  C   UNL     1      -2.632  81.599  -7.544  1.00  0.00     0.278 C 
ENDBRANCH  45  48
ENDBRANCH  35  40
ENDBRANCH  26  27
ENDBRANCH   5  26
BRANCH   4  50
ATOM     50  O   UNL     1      -4.097  92.908 -14.104  1.00  0.00    -0.384 OA
ATOM     51  H   UNL     1      -3.731  93.169 -14.990  1.00  0.00     0.211 HD
ENDBRANCH   4  50
TORSDOF 15
ENDMDL
MODEL 5
REMARK VINA RESULT:    -6.716      3.271     11.912
REMARK INTER + INTRA:         -12.912
REMARK INTER:                 -11.209
REMARK INTRA:                  -1.703
REMARK UNBOUND:                -1.878
REMARK SMILES COc1ccc([C@@H]2CC(=O)c3c(O)cc(O[C@@H]4O[C@@H](CO[C@H]5O[C@@H](C)[C@H](O)[C@@H](O)[C@H]5O)[C@H](O)[C@@H](O)[C@H]4O)cc3O2)cc1O
REMARK SMILES IDX 19 1 32 2 34 3 36 4 17 5 18 6 20 7 21 8 22 9 25 10 24 11
REMARK SMILES IDX 26 12 23 13 28 14 30 15 27 16 29 18 31 20 33 22 35 24 16 26
REMARK SMILES IDX 15 27 14 28 38 29 12 30 39 31 11 32 40 33 9 34 7 35 10 36
REMARK SMILES IDX 8 37 13 38 6 40 41 41 5 42 42 43 4 44 3 45 43 46 2 48 1 49
REMARK SMILES IDX 37 50
REMARK H PARENT 27 17 29 19 31 21 33 23 35 25 13 39 43 47 37 51
REMARK Flexibility Score: inf
ROOT
ATOM      1  C   UNL     1      -6.890  84.579  -7.752  1.00  0.00     0.180 C 
ATOM      2  C   UNL     1      -5.414  84.142  -7.587  1.00  0.00     0.177 C 
ATOM      3  C   UNL     1      -4.522  84.925  -8.565  1.00  0.00     0.180 C 
ATOM      4  C   UNL     1      -5.095  84.886  -9.994  1.00  0.00     0.214 C 
ATOM      5  C   UNL     1      -6.600  85.248  -9.989  1.00  0.00     0.339 C 
ATOM      6  O   UNL     1      -7.319  84.412  -9.095  1.00  0.00    -0.332 OA
ENDROOT
BRANCH   1   7
ATOM      7  C   UNL     1      -7.822  83.744  -6.857  1.00  0.00     0.198 C 
BRANCH   7   8
ATOM      8  O   UNL     1      -9.062  83.505  -7.500  1.00  0.00    -0.347 OA
BRANCH   8   9
ATOM      9  C   UNL     1      -9.273  82.119  -7.720  1.00  0.00     0.281 C 
ATOM     10  C   UNL     1     -11.623  83.401  -6.102  1.00  0.00     0.041 C 
ATOM     11  C   UNL     1     -11.458  82.016  -6.747  1.00  0.00     0.150 C 
ATOM     12  C   UNL     1     -12.136  81.887  -8.135  1.00  0.00     0.174 C 
ATOM     13  O   UNL     1     -10.109  81.555  -6.718  1.00  0.00    -0.344 OA
ATOM     14  C   UNL     1     -11.248  82.436  -9.267  1.00  0.00     0.179 C 
ATOM     15  C   UNL     1      -9.828  81.874  -9.132  1.00  0.00     0.202 C 
BRANCH  12  16
ATOM     16  O   UNL     1     -12.417  80.533  -8.373  1.00  0.00    -0.388 OA
ATOM     17  H   UNL     1     -11.996  80.013  -7.637  1.00  0.00     0.211 HD
ENDBRANCH  12  16
BRANCH  14  18
ATOM     18  O   UNL     1     -11.218  83.838  -9.242  1.00  0.00    -0.387 OA
ATOM     19  H   UNL     1     -10.989  84.137 -10.161  1.00  0.00     0.211 HD
ENDBRANCH  14  18
BRANCH  15  20
ATOM     20  O   UNL     1      -8.976  82.460 -10.085  1.00  0.00    -0.385 OA
ATOM     21  H   UNL     1      -8.107  81.980 -10.025  1.00  0.00     0.211 HD
ENDBRANCH  15  20
ENDBRANCH   8   9
ENDBRANCH   7   8
ENDBRANCH   1   7
BRANCH   2  22
ATOM     22  O   UNL     1      -4.985  84.396  -6.273  1.00  0.00    -0.387 OA
ATOM     23  H   UNL     1      -4.618  83.543  -5.915  1.00  0.00     0.211 HD
ENDBRANCH   2  22
BRANCH   3  24
ATOM     24  O   UNL     1      -3.222  84.394  -8.547  1.00  0.00    -0.387 OA
ATOM     25  H   UNL     1      -2.836  84.611  -7.657  1.00  0.00     0.211 HD
ENDBRANCH   3  24
BRANCH   5  26
ATOM     26  O   UNL     1      -6.811  86.625  -9.656  1.00  0.00    -0.462 OA
BRANCH  26  27
ATOM     27  C   UNL     1      -7.231  87.633 -10.539  1.00  0.00     0.130 A 
ATOM     28  C   UNL     1      -8.451  88.267 -10.277  1.00  0.00     0.093 A 
ATOM     29  C   UNL     1      -6.483  88.025 -11.665  1.00  0.00     0.094 A 
ATOM     30  C   UNL     1      -8.909  89.316 -11.088  1.00  0.00     0.133 A 
ATOM     31  C   UNL     1      -6.940  89.056 -12.491  1.00  0.00     0.138 A 
ATOM     32  C   UNL     1      -8.138  89.730 -12.193  1.00  0.00     0.102 A 
ATOM     33  O   UNL     1      -6.185  89.424 -13.611  1.00  0.00    -0.484 OA
ATOM     34  C   UNL     1      -8.504  90.887 -13.044  1.00  0.00     0.174 C 
ATOM     35  C   UNL     1      -6.704  90.264 -14.652  1.00  0.00     0.211 C 
ATOM     36  O   UNL     1      -9.628  91.452 -12.930  1.00  0.00    -0.294 OA
ATOM     37  C   UNL     1      -7.503  91.424 -14.025  1.00  0.00     0.131 C 
BRANCH  30  38
ATOM     38  O   UNL     1     -10.121  89.943 -10.786  1.00  0.00    -0.507 OA
ATOM     39  H   UNL     1     -10.727  90.307 -11.512  1.00  0.00     0.293 HD
ENDBRANCH  30  38
BRANCH  35  40
ATOM     40  C   UNL     1      -5.583  90.754 -15.558  1.00  0.00    -0.003 A 
ATOM     41  C   UNL     1      -4.229  90.622 -15.179  1.00  0.00     0.057 A 
ATOM     42  C   UNL     1      -5.874  91.253 -16.842  1.00  0.00     0.011 A 
ATOM     43  C   UNL     1      -3.200  91.017 -16.043  1.00  0.00     0.158 A 
ATOM     44  C   UNL     1      -4.852  91.669 -17.697  1.00  0.00     0.051 A 
ATOM     45  C   UNL     1      -3.503  91.553 -17.308  1.00  0.00     0.160 A 
BRANCH  43  46
ATOM     46  O   UNL     1      -1.877  90.862 -15.625  1.00  0.00    -0.504 OA
ATOM     47  H   UNL     1      -1.576  90.067 -15.077  1.00  0.00     0.293 HD
ENDBRANCH  43  46
BRANCH  45  48
ATOM     48  O   UNL     1      -2.450  91.949 -18.146  1.00  0.00    -0.493 OA
ATOM     49  C   UNL     1      -2.187  91.390 -19.427  1.00  0.00     0.278 C 
ENDBRANCH  45  48
ENDBRANCH  35  40
ENDBRANCH  26  27
ENDBRANCH   5  26
BRANCH   4  50
ATOM     50  O   UNL     1      -4.872  83.635 -10.601  1.00  0.00    -0.384 OA
ATOM     51  H   UNL     1      -4.064  83.706 -11.176  1.00  0.00     0.211 HD
ENDBRANCH   4  50
TORSDOF 15
ENDMDL
MODEL 6
REMARK VINA RESULT:    -6.705      3.620      6.665
REMARK INTER + INTRA:         -12.895
REMARK INTER:                 -10.835
REMARK INTRA:                  -2.059
REMARK UNBOUND:                -1.878
REMARK SMILES COc1ccc([C@@H]2CC(=O)c3c(O)cc(O[C@@H]4O[C@@H](CO[C@H]5O[C@@H](C)[C@H](O)[C@@H](O)[C@H]5O)[C@H](O)[C@@H](O)[C@H]4O)cc3O2)cc1O
REMARK SMILES IDX 19 1 32 2 34 3 36 4 17 5 18 6 20 7 21 8 22 9 25 10 24 11
REMARK SMILES IDX 26 12 23 13 28 14 30 15 27 16 29 18 31 20 33 22 35 24 16 26
REMARK SMILES IDX 15 27 14 28 38 29 12 30 39 31 11 32 40 33 9 34 7 35 10 36
REMARK SMILES IDX 8 37 13 38 6 40 41 41 5 42 42 43 4 44 3 45 43 46 2 48 1 49
REMARK SMILES IDX 37 50
REMARK H PARENT 27 17 29 19 31 21 33 23 35 25 13 39 43 47 37 51
REMARK Flexibility Score: inf
ROOT
ATOM      1  C   UNL     1      -5.769  90.964 -10.316  1.00  0.00     0.180 C 
ATOM      2  C   UNL     1      -5.373  92.447 -10.103  1.00  0.00     0.177 C 
ATOM      3  C   UNL     1      -4.506  92.581  -8.839  1.00  0.00     0.180 C 
ATOM      4  C   UNL     1      -5.154  91.863  -7.640  1.00  0.00     0.214 C 
ATOM      5  C   UNL     1      -5.588  90.429  -8.032  1.00  0.00     0.339 C 
ATOM      6  O   UNL     1      -6.433  90.450  -9.172  1.00  0.00    -0.332 OA
ENDROOT
BRANCH   1   7
ATOM      7  C   UNL     1      -6.718  90.808 -11.516  1.00  0.00     0.198 C 
BRANCH   7   8
ATOM      8  O   UNL     1      -6.098  91.242 -12.714  1.00  0.00    -0.347 OA
BRANCH   8   9
ATOM      9  C   UNL     1      -5.612  90.146 -13.473  1.00  0.00     0.281 C 
ATOM     10  C   UNL     1      -7.268  92.128 -15.237  1.00  0.00     0.041 C 
ATOM     11  C   UNL     1      -6.392  90.918 -15.600  1.00  0.00     0.150 C 
ATOM     12  C   UNL     1      -4.960  91.296 -16.055  1.00  0.00     0.174 C 
ATOM     13  O   UNL     1      -6.431  89.896 -14.607  1.00  0.00    -0.344 OA
ATOM     14  C   UNL     1      -4.014  91.527 -14.862  1.00  0.00     0.179 C 
ATOM     15  C   UNL     1      -4.143  90.369 -13.865  1.00  0.00     0.202 C 
BRANCH  12  16
ATOM     16  O   UNL     1      -4.457  90.263 -16.861  1.00  0.00    -0.388 OA
ATOM     17  H   UNL     1      -4.554  90.556 -17.806  1.00  0.00     0.211 HD
ENDBRANCH  12  16
BRANCH  14  18
ATOM     18  O   UNL     1      -4.299  92.745 -14.229  1.00  0.00    -0.387 OA
ATOM     19  H   UNL     1      -5.284  92.867 -14.270  1.00  0.00     0.211 HD
ENDBRANCH  14  18
BRANCH  15  20
ATOM     20  O   UNL     1      -3.378  90.625 -12.715  1.00  0.00    -0.385 OA
ATOM     21  H   UNL     1      -3.917  91.233 -12.142  1.00  0.00     0.211 HD
ENDBRANCH  15  20
ENDBRANCH   8   9
ENDBRANCH   7   8
ENDBRANCH   1   7
BRANCH   2  22
ATOM     22  O   UNL     1      -4.642  92.909 -11.210  1.00  0.00    -0.387 OA
ATOM     23  H   UNL     1      -4.200  93.758 -10.935  1.00  0.00     0.211 HD
ENDBRANCH   2  22
BRANCH   3  24
ATOM     24  O   UNL     1      -4.309  93.941  -8.545  1.00  0.00    -0.387 OA
ATOM     25  H   UNL     1      -3.884  94.349  -9.344  1.00  0.00     0.211 HD
ENDBRANCH   3  24
BRANCH   5  26
ATOM     26  O   UNL     1      -4.457  89.582  -8.269  1.00  0.00    -0.462 OA
BRANCH  26  27
ATOM     27  C   UNL     1      -4.434  88.183  -8.151  1.00  0.00     0.130 A 
ATOM     28  C   UNL     1      -3.207  87.569  -7.874  1.00  0.00     0.093 A 
ATOM     29  C   UNL     1      -5.583  87.383  -8.301  1.00  0.00     0.094 A 
ATOM     30  C   UNL     1      -3.118  86.180  -7.694  1.00  0.00     0.133 A 
ATOM     31  C   UNL     1      -5.501  85.997  -8.143  1.00  0.00     0.138 A 
ATOM     32  C   UNL     1      -4.278  85.388  -7.808  1.00  0.00     0.102 A 
ATOM     33  O   UNL     1      -6.654  85.219  -8.306  1.00  0.00    -0.484 OA
ATOM     34  C   UNL     1      -4.288  83.930  -7.544  1.00  0.00     0.174 C 
ATOM     35  C   UNL     1      -6.612  83.791  -8.436  1.00  0.00     0.211 C 
ATOM     36  O   UNL     1      -3.213  83.289  -7.378  1.00  0.00    -0.294 OA
ATOM     37  C   UNL     1      -5.601  83.213  -7.426  1.00  0.00     0.131 C 
BRANCH  30  38
ATOM     38  O   UNL     1      -1.883  85.601  -7.397  1.00  0.00    -0.507 OA
ATOM     39  H   UNL     1      -1.764  84.595  -7.346  1.00  0.00     0.293 HD
ENDBRANCH  30  38
BRANCH  35  40
ATOM     40  C   UNL     1      -8.003  83.194  -8.274  1.00  0.00    -0.003 A 
ATOM     41  C   UNL     1      -8.721  82.708  -9.388  1.00  0.00     0.057 A 
ATOM     42  C   UNL     1      -8.556  83.019  -6.990  1.00  0.00     0.011 A 
ATOM     43  C   UNL     1      -9.974  82.103  -9.226  1.00  0.00     0.158 A 
ATOM     44  C   UNL     1      -9.814  82.437  -6.827  1.00  0.00     0.051 A 
ATOM     45  C   UNL     1     -10.536  81.971  -7.943  1.00  0.00     0.160 A 
BRANCH  43  46
ATOM     46  O   UNL     1     -10.643  81.633 -10.357  1.00  0.00    -0.504 OA
ATOM     47  H   UNL     1     -10.152  81.365 -11.200  1.00  0.00     0.293 HD
ENDBRANCH  43  46
BRANCH  45  48
ATOM     48  O   UNL     1     -11.798  81.369  -7.815  1.00  0.00    -0.493 OA
ATOM     49  C   UNL     1     -12.059  80.204  -7.043  1.00  0.00     0.278 C 
ENDBRANCH  45  48
ENDBRANCH  35  40
ENDBRANCH  26  27
ENDBRANCH   5  26
BRANCH   4  50
ATOM     50  O   UNL     1      -6.236  92.602  -7.125  1.00  0.00    -0.384 OA
ATOM     51  H   UNL     1      -6.916  91.963  -6.783  1.00  0.00     0.211 HD
ENDBRANCH   4  50
TORSDOF 15
ENDMDL
MODEL 7
REMARK VINA RESULT:    -6.695      2.105     11.557
REMARK INTER + INTRA:         -12.878
REMARK INTER:                 -11.194
REMARK INTRA:                  -1.684
REMARK UNBOUND:                -1.878
REMARK SMILES COc1ccc([C@@H]2CC(=O)c3c(O)cc(O[C@@H]4O[C@@H](CO[C@H]5O[C@@H](C)[C@H](O)[C@@H](O)[C@H]5O)[C@H](O)[C@@H](O)[C@H]4O)cc3O2)cc1O
REMARK SMILES IDX 19 1 32 2 34 3 36 4 17 5 18 6 20 7 21 8 22 9 25 10 24 11
REMARK SMILES IDX 26 12 23 13 28 14 30 15 27 16 29 18 31 20 33 22 35 24 16 26
REMARK SMILES IDX 15 27 14 28 38 29 12 30 39 31 11 32 40 33 9 34 7 35 10 36
REMARK SMILES IDX 8 37 13 38 6 40 41 41 5 42 42 43 4 44 3 45 43 46 2 48 1 49
REMARK SMILES IDX 37 50
REMARK H PARENT 27 17 29 19 31 21 33 23 35 25 13 39 43 47 37 51
REMARK Flexibility Score: inf
ROOT
ATOM      1  C   UNL     1      -7.076  85.149  -9.569  1.00  0.00     0.180 C 
ATOM      2  C   UNL     1      -8.461  85.010  -8.891  1.00  0.00     0.177 C 
ATOM      3  C   UNL     1      -9.158  86.379  -8.835  1.00  0.00     0.180 C 
ATOM      4  C   UNL     1      -8.219  87.460  -8.265  1.00  0.00     0.214 C 
ATOM      5  C   UNL     1      -6.841  87.412  -8.970  1.00  0.00     0.339 C 
ATOM      6  O   UNL     1      -6.278  86.111  -8.896  1.00  0.00    -0.332 OA
ENDROOT
BRANCH   1   7
ATOM      7  C   UNL     1      -6.310  83.815  -9.553  1.00  0.00     0.198 C 
BRANCH   7   8
ATOM      8  O   UNL     1      -5.056  83.957  -8.908  1.00  0.00    -0.347 OA
BRANCH   8   9
ATOM      9  C   UNL     1      -5.052  83.326  -7.637  1.00  0.00     0.281 C 
ATOM     10  C   UNL     1      -2.905  82.091  -9.546  1.00  0.00     0.041 C 
ATOM     11  C   UNL     1      -3.173  81.901  -8.045  1.00  0.00     0.150 C 
ATOM     12  C   UNL     1      -2.253  82.750  -7.132  1.00  0.00     0.174 C 
ATOM     13  O   UNL     1      -4.557  81.996  -7.719  1.00  0.00    -0.344 OA
ATOM     14  C   UNL     1      -2.774  84.190  -6.965  1.00  0.00     0.179 C 
ATOM     15  C   UNL     1      -4.267  84.167  -6.618  1.00  0.00     0.202 C 
BRANCH  12  16
ATOM     16  O   UNL     1      -2.172  82.132  -5.876  1.00  0.00    -0.388 OA
ATOM     17  H   UNL     1      -3.067  82.216  -5.450  1.00  0.00     0.211 HD
ENDBRANCH  12  16
BRANCH  14  18
ATOM     18  O   UNL     1      -2.559  84.936  -8.133  1.00  0.00    -0.387 OA
ATOM     19  H   UNL     1      -2.411  85.877  -7.850  1.00  0.00     0.211 HD
ENDBRANCH  14  18
BRANCH  15  20
ATOM     20  O   UNL     1      -4.783  85.473  -6.582  1.00  0.00    -0.385 OA
ATOM     21  H   UNL     1      -4.992  85.672  -5.631  1.00  0.00     0.211 HD
ENDBRANCH  15  20
ENDBRANCH   8   9
ENDBRANCH   7   8
ENDBRANCH   1   7
BRANCH   2  22
ATOM     22  O   UNL     1      -9.263  84.118  -9.623  1.00  0.00    -0.387 OA
ATOM     23  H   UNL     1      -9.456  83.343  -9.029  1.00  0.00     0.211 HD
ENDBRANCH   2  22
BRANCH   3  24
ATOM     24  O   UNL     1     -10.322  86.285  -8.055  1.00  0.00    -0.387 OA
ATOM     25  H   UNL     1     -10.274  87.011  -7.379  1.00  0.00     0.211 HD
ENDBRANCH   3  24
BRANCH   5  26
ATOM     26  O   UNL     1      -6.933  87.835 -10.336  1.00  0.00    -0.462 OA
BRANCH  26  27
ATOM     27  C   UNL     1      -6.352  88.990 -10.884  1.00  0.00     0.130 A 
ATOM     28  C   UNL     1      -5.887  89.972 -10.000  1.00  0.00     0.093 A 
ATOM     29  C   UNL     1      -6.221  89.198 -12.270  1.00  0.00     0.094 A 
ATOM     30  C   UNL     1      -5.251  91.128 -10.475  1.00  0.00     0.133 A 
ATOM     31  C   UNL     1      -5.607  90.356 -12.753  1.00  0.00     0.138 A 
ATOM     32  C   UNL     1      -5.089  91.314 -11.862  1.00  0.00     0.102 A 
ATOM     33  O   UNL     1      -5.496  90.547 -14.136  1.00  0.00    -0.484 OA
ATOM     34  C   UNL     1      -4.351  92.460 -12.442  1.00  0.00     0.174 C 
ATOM     35  C   UNL     1      -5.138  91.810 -14.716  1.00  0.00     0.211 C 
ATOM     36  O   UNL     1      -3.981  93.430 -11.722  1.00  0.00    -0.294 OA
ATOM     37  C   UNL     1      -3.994  92.445 -13.900  1.00  0.00     0.131 C 
BRANCH  30  38
ATOM     38  O   UNL     1      -4.779  92.078  -9.566  1.00  0.00    -0.507 OA
ATOM     39  H   UNL     1      -4.763  91.898  -8.568  1.00  0.00     0.293 HD
ENDBRANCH  30  38
BRANCH  35  40
ATOM     40  C   UNL     1      -4.781  91.646 -16.187  1.00  0.00    -0.003 A 
ATOM     41  C   UNL     1      -5.784  91.469 -17.164  1.00  0.00     0.057 A 
ATOM     42  C   UNL     1      -3.444  91.773 -16.612  1.00  0.00     0.011 A 
ATOM     43  C   UNL     1      -5.455  91.381 -18.523  1.00  0.00     0.158 A 
ATOM     44  C   UNL     1      -3.110  91.663 -17.963  1.00  0.00     0.051 A 
ATOM     45  C   UNL     1      -4.112  91.468 -18.933  1.00  0.00     0.160 A 
BRANCH  43  46
ATOM     46  O   UNL     1      -6.483  91.212 -19.452  1.00  0.00    -0.504 OA
ATOM     47  H   UNL     1      -6.574  90.370 -20.005  1.00  0.00     0.293 HD
ENDBRANCH  43  46
BRANCH  45  48
ATOM     48  O   UNL     1      -3.814  91.365 -20.301  1.00  0.00    -0.493 OA
ATOM     49  C   UNL     1      -2.598  91.802 -20.894  1.00  0.00     0.278 C 
ENDBRANCH  45  48
ENDBRANCH  35  40
ENDBRANCH  26  27
ENDBRANCH   5  26
BRANCH   4  50
ATOM     50  O   UNL     1      -8.083  87.335  -6.869  1.00  0.00    -0.384 OA
ATOM     51  H   UNL     1      -7.953  86.374  -6.652  1.00  0.00     0.211 HD
ENDBRANCH   4  50
TORSDOF 15
ENDMDL
MODEL 8
REMARK VINA RESULT:    -6.575      3.152      5.023
REMARK INTER + INTRA:         -12.681
REMARK INTER:                 -10.696
REMARK INTRA:                  -1.985
REMARK UNBOUND:                -1.878
REMARK SMILES COc1ccc([C@@H]2CC(=O)c3c(O)cc(O[C@@H]4O[C@@H](CO[C@H]5O[C@@H](C)[C@H](O)[C@@H](O)[C@H]5O)[C@H](O)[C@@H](O)[C@H]4O)cc3O2)cc1O
REMARK SMILES IDX 19 1 32 2 34 3 36 4 17 5 18 6 20 7 21 8 22 9 25 10 24 11
REMARK SMILES IDX 26 12 23 13 28 14 30 15 27 16 29 18 31 20 33 22 35 24 16 26
REMARK SMILES IDX 15 27 14 28 38 29 12 30 39 31 11 32 40 33 9 34 7 35 10 36
REMARK SMILES IDX 8 37 13 38 6 40 41 41 5 42 42 43 4 44 3 45 43 46 2 48 1 49
REMARK SMILES IDX 37 50
REMARK H PARENT 27 17 29 19 31 21 33 23 35 25 13 39 43 47 37 51
REMARK Flexibility Score: inf
ROOT
ATOM      1  C   UNL     1      -6.449  92.708 -12.770  1.00  0.00     0.180 C 
ATOM      2  C   UNL     1      -6.535  94.224 -13.073  1.00  0.00     0.177 C 
ATOM      3  C   UNL     1      -6.195  95.032 -11.809  1.00  0.00     0.180 C 
ATOM      4  C   UNL     1      -6.996  94.528 -10.593  1.00  0.00     0.214 C 
ATOM      5  C   UNL     1      -6.898  92.987 -10.477  1.00  0.00     0.339 C 
ATOM      6  O   UNL     1      -7.298  92.361 -11.686  1.00  0.00    -0.332 OA
ENDROOT
BRANCH   1   7
ATOM      7  C   UNL     1      -6.879  91.871 -13.986  1.00  0.00     0.198 C 
BRANCH   7   8
ATOM      8  O   UNL     1      -6.029  92.112 -15.094  1.00  0.00    -0.347 OA
BRANCH   8   9
ATOM      9  C   UNL     1      -5.136  91.030 -15.308  1.00  0.00     0.281 C 
ATOM     10  C   UNL     1      -6.366  92.058 -17.993  1.00  0.00     0.041 C 
ATOM     11  C   UNL     1      -5.234  91.061 -17.699  1.00  0.00     0.150 C 
ATOM     12  C   UNL     1      -3.816  91.675 -17.810  1.00  0.00     0.174 C 
ATOM     13  O   UNL     1      -5.452  90.322 -16.499  1.00  0.00    -0.344 OA
ATOM     14  C   UNL     1      -3.400  92.410 -16.522  1.00  0.00     0.179 C 
ATOM     15  C   UNL     1      -3.680  91.523 -15.304  1.00  0.00     0.202 C 
BRANCH  12  16
ATOM     16  O   UNL     1      -2.901  90.645 -18.079  1.00  0.00    -0.388 OA
ATOM     17  H   UNL     1      -2.229  91.011 -18.715  1.00  0.00     0.211 HD
ENDBRANCH  12  16
BRANCH  14  18
ATOM     18  O   UNL     1      -4.084  93.629 -16.401  1.00  0.00    -0.387 OA
ATOM     19  H   UNL     1      -3.442  94.344 -16.654  1.00  0.00     0.211 HD
ENDBRANCH  14  18
BRANCH  15  20
ATOM     20  O   UNL     1      -3.420  92.225 -14.115  1.00  0.00    -0.385 OA
ATOM     21  H   UNL     1      -3.983  91.811 -13.408  1.00  0.00     0.211 HD
ENDBRANCH  15  20
ENDBRANCH   8   9
ENDBRANCH   7   8
ENDBRANCH   1   7
BRANCH   2  22
ATOM     22  O   UNL     1      -5.624  94.560 -14.089  1.00  0.00    -0.387 OA
ATOM     23  H   UNL     1      -4.710  94.407 -13.725  1.00  0.00     0.211 HD
ENDBRANCH   2  22
BRANCH   3  24
ATOM     24  O   UNL     1      -6.458  96.394 -12.034  1.00  0.00    -0.387 OA
ATOM     25  H   UNL     1      -5.602  96.878 -11.898  1.00  0.00     0.211 HD
ENDBRANCH   3  24
BRANCH   5  26
ATOM     26  O   UNL     1      -5.576  92.568 -10.117  1.00  0.00    -0.462 OA
BRANCH  26  27
ATOM     27  C   UNL     1      -5.245  91.414  -9.387  1.00  0.00     0.130 A 
ATOM     28  C   UNL     1      -4.314  91.540  -8.348  1.00  0.00     0.093 A 
ATOM     29  C   UNL     1      -5.804  90.151  -9.657  1.00  0.00     0.094 A 
ATOM     30  C   UNL     1      -3.974  90.441  -7.546  1.00  0.00     0.133 A 
ATOM     31  C   UNL     1      -5.457  89.046  -8.876  1.00  0.00     0.138 A 
ATOM     32  C   UNL     1      -4.565  89.187  -7.796  1.00  0.00     0.102 A 
ATOM     33  O   UNL     1      -6.018  87.796  -9.167  1.00  0.00    -0.484 OA
ATOM     34  C   UNL     1      -4.330  88.000  -6.942  1.00  0.00     0.174 C 
ATOM     35  C   UNL     1      -5.517  86.574  -8.607  1.00  0.00     0.211 C 
ATOM     36  O   UNL     1      -3.441  88.006  -6.045  1.00  0.00    -0.294 OA
ATOM     37  C   UNL     1      -5.197  86.786  -7.114  1.00  0.00     0.131 C 
BRANCH  30  38
ATOM     38  O   UNL     1      -3.059  90.606  -6.504  1.00  0.00    -0.507 OA
ATOM     39  H   UNL     1      -2.564  89.818  -6.100  1.00  0.00     0.293 HD
ENDBRANCH  30  38
BRANCH  35  40
ATOM     40  C   UNL     1      -6.501  85.435  -8.835  1.00  0.00    -0.003 A 
ATOM     41  C   UNL     1      -7.885  85.680  -8.955  1.00  0.00     0.057 A 
ATOM     42  C   UNL     1      -6.032  84.122  -9.037  1.00  0.00     0.011 A 
ATOM     43  C   UNL     1      -8.779  84.637  -9.227  1.00  0.00     0.158 A 
ATOM     44  C   UNL     1      -6.922  83.075  -9.285  1.00  0.00     0.051 A 
ATOM     45  C   UNL     1      -8.305  83.322  -9.385  1.00  0.00     0.160 A 
BRANCH  43  46
ATOM     46  O   UNL     1     -10.139  84.930  -9.340  1.00  0.00    -0.504 OA
ATOM     47  H   UNL     1     -10.823  84.571  -8.688  1.00  0.00     0.293 HD
ENDBRANCH  43  46
BRANCH  45  48
ATOM     48  O   UNL     1      -9.227  82.296  -9.646  1.00  0.00    -0.493 OA
ATOM     49  C   UNL     1      -9.938  81.579  -8.645  1.00  0.00     0.278 C 
ENDBRANCH  45  48
ENDBRANCH  35  40
ENDBRANCH  26  27
ENDBRANCH   5  26
BRANCH   4  50
ATOM     50  O   UNL     1      -8.337  94.952 -10.652  1.00  0.00    -0.384 OA
ATOM     51  H   UNL     1      -8.381  95.773 -11.209  1.00  0.00     0.211 HD
ENDBRANCH   4  50
TORSDOF 15
ENDMDL
MODEL 9
REMARK VINA RESULT:    -6.539      3.107      5.270
REMARK INTER + INTRA:         -12.622
REMARK INTER:                 -10.704
REMARK INTRA:                  -1.918
REMARK UNBOUND:                -1.878
REMARK SMILES COc1ccc([C@@H]2CC(=O)c3c(O)cc(O[C@@H]4O[C@@H](CO[C@H]5O[C@@H](C)[C@H](O)[C@@H](O)[C@H]5O)[C@H](O)[C@@H](O)[C@H]4O)cc3O2)cc1O
REMARK SMILES IDX 19 1 32 2 34 3 36 4 17 5 18 6 20 7 21 8 22 9 25 10 24 11
REMARK SMILES IDX 26 12 23 13 28 14 30 15 27 16 29 18 31 20 33 22 35 24 16 26
REMARK SMILES IDX 15 27 14 28 38 29 12 30 39 31 11 32 40 33 9 34 7 35 10 36
REMARK SMILES IDX 8 37 13 38 6 40 41 41 5 42 42 43 4 44 3 45 43 46 2 48 1 49
REMARK SMILES IDX 37 50
REMARK H PARENT 27 17 29 19 31 21 33 23 35 25 13 39 43 47 37 51
REMARK Flexibility Score: inf
ROOT
ATOM      1  C   UNL     1      -4.988  91.387 -12.240  1.00  0.00     0.180 C 
ATOM      2  C   UNL     1      -4.637  92.834 -12.666  1.00  0.00     0.177 C 
ATOM      3  C   UNL     1      -4.663  93.762 -11.440  1.00  0.00     0.180 C 
ATOM      4  C   UNL     1      -5.961  93.579 -10.630  1.00  0.00     0.214 C 
ATOM      5  C   UNL     1      -6.232  92.077 -10.367  1.00  0.00     0.339 C 
ATOM      6  O   UNL     1      -6.245  91.344 -11.582  1.00  0.00    -0.332 OA
ENDROOT
BRANCH   1   7
ATOM      7  C   UNL     1      -5.067  90.451 -13.458  1.00  0.00     0.198 C 
BRANCH   7   8
ATOM      8  O   UNL     1      -4.965  91.182 -14.668  1.00  0.00    -0.347 OA
BRANCH   8   9
ATOM      9  C   UNL     1      -4.532  90.357 -15.738  1.00  0.00     0.281 C 
ATOM     10  C   UNL     1      -6.709  92.401 -16.665  1.00  0.00     0.041 C 
ATOM     11  C   UNL     1      -5.804  91.439 -17.452  1.00  0.00     0.150 C 
ATOM     12  C   UNL     1      -4.542  92.113 -18.047  1.00  0.00     0.174 C 
ATOM     13  O   UNL     1      -5.534  90.235 -16.739  1.00  0.00    -0.344 OA
ATOM     14  C   UNL     1      -3.403  92.222 -17.017  1.00  0.00     0.179 C 
ATOM     15  C   UNL     1      -3.205  90.874 -16.316  1.00  0.00     0.202 C 
BRANCH  12  16
ATOM     16  O   UNL     1      -4.109  91.360 -19.149  1.00  0.00    -0.388 OA
ATOM     17  H   UNL     1      -3.121  91.464 -19.203  1.00  0.00     0.211 HD
ENDBRANCH  12  16
BRANCH  14  18
ATOM     18  O   UNL     1      -3.679  93.223 -16.073  1.00  0.00    -0.387 OA
ATOM     19  H   UNL     1      -4.348  93.830 -16.486  1.00  0.00     0.211 HD
ENDBRANCH  14  18
BRANCH  15  20
ATOM     20  O   UNL     1      -2.252  90.989 -15.289  1.00  0.00    -0.385 OA
ATOM     21  H   UNL     1      -2.222  91.950 -15.034  1.00  0.00     0.211 HD
ENDBRANCH  15  20
ENDBRANCH   8   9
ENDBRANCH   7   8
ENDBRANCH   1   7
BRANCH   2  22
ATOM     22  O   UNL     1      -3.353  92.866 -13.236  1.00  0.00    -0.387 OA
ATOM     23  H   UNL     1      -3.468  93.060 -14.206  1.00  0.00     0.211 HD
ENDBRANCH   2  22
BRANCH   3  24
ATOM     24  O   UNL     1      -4.533  95.098 -11.856  1.00  0.00    -0.387 OA
ATOM     25  H   UNL     1      -5.375  95.560 -11.602  1.00  0.00     0.211 HD
ENDBRANCH   3  24
BRANCH   5  26
ATOM     26  O   UNL     1      -5.273  91.518  -9.461  1.00  0.00    -0.462 OA
BRANCH  26  27
ATOM     27  C   UNL     1      -5.256  90.196  -8.989  1.00  0.00     0.130 A 
ATOM     28  C   UNL     1      -4.158  89.788  -8.222  1.00  0.00     0.093 A 
ATOM     29  C   UNL     1      -6.286  89.275  -9.254  1.00  0.00     0.094 A 
ATOM     30  C   UNL     1      -4.098  88.498  -7.676  1.00  0.00     0.133 A 
ATOM     31  C   UNL     1      -6.226  87.981  -8.731  1.00  0.00     0.138 A 
ATOM     32  C   UNL     1      -5.150  87.591  -7.913  1.00  0.00     0.102 A 
ATOM     33  O   UNL     1      -7.258  87.077  -9.016  1.00  0.00    -0.484 OA
ATOM     34  C   UNL     1      -5.207  86.243  -7.300  1.00  0.00     0.174 C 
ATOM     35  C   UNL     1      -7.146  85.670  -8.758  1.00  0.00     0.211 C 
ATOM     36  O   UNL     1      -4.220  85.768  -6.672  1.00  0.00    -0.294 OA
ATOM     37  C   UNL     1      -6.478  85.450  -7.387  1.00  0.00     0.131 C 
BRANCH  30  38
ATOM     38  O   UNL     1      -2.998  88.129  -6.896  1.00  0.00    -0.507 OA
ATOM     39  H   UNL     1      -3.048  87.365  -6.232  1.00  0.00     0.293 HD
ENDBRANCH  30  38
BRANCH  35  40
ATOM     40  C   UNL     1      -8.507  84.995  -8.858  1.00  0.00    -0.003 A 
ATOM     41  C   UNL     1      -8.619  83.628  -9.191  1.00  0.00     0.057 A 
ATOM     42  C   UNL     1      -9.677  85.700  -8.515  1.00  0.00     0.011 A 
ATOM     43  C   UNL     1      -9.869  82.996  -9.221  1.00  0.00     0.158 A 
ATOM     44  C   UNL     1     -10.927  85.080  -8.565  1.00  0.00     0.051 A 
ATOM     45  C   UNL     1     -11.036  83.720  -8.917  1.00  0.00     0.160 A 
BRANCH  43  46
ATOM     46  O   UNL     1      -9.928  81.641  -9.552  1.00  0.00    -0.504 OA
ATOM     47  H   UNL     1      -9.859  80.913  -8.853  1.00  0.00     0.293 HD
ENDBRANCH  43  46
BRANCH  45  48
ATOM     48  O   UNL     1     -12.275  83.061  -8.965  1.00  0.00    -0.493 OA
ATOM     49  C   UNL     1     -13.179  83.128 -10.061  1.00  0.00     0.278 C 
ENDBRANCH  45  48
ENDBRANCH  35  40
ENDBRANCH  26  27
ENDBRANCH   5  26
BRANCH   4  50
ATOM     50  O   UNL     1      -7.055  94.192 -11.270  1.00  0.00    -0.384 OA
ATOM     51  H   UNL     1      -6.705  94.800 -11.974  1.00  0.00     0.211 HD
ENDBRANCH   4  50
TORSDOF 15
ENDMDL
