MODEL 1
REMARK VINA RESULT:    -4.641      0.000      0.000
REMARK INTER + INTRA:          -4.982
REMARK INTER:                  -4.912
REMARK INTRA:                  -0.069
REMARK UNBOUND:                -0.069
REMARK SMILES CC(=O)c1ccccc1
REMARK SMILES IDX 4 1 5 2 6 3 7 4 8 5 9 6 2 7 1 8 3 9
REMARK H PARENT
REMARK Flexibility Score: inf
ROOT
ATOM      1  C   UNL     1      49.976  76.966  23.157  1.00  0.00     0.017 A 
ATOM      2  C   UNL     1      51.059  76.472  22.402  1.00  0.00     0.012 A 
ATOM      3  C   UNL     1      52.230  76.041  23.035  1.00  0.00     0.001 A 
ATOM      4  C   UNL     1      52.336  76.099  24.425  1.00  0.00     0.000 A 
ATOM      5  C   UNL     1      51.272  76.586  25.187  1.00  0.00     0.001 A 
ATOM      6  C   UNL     1      50.100  77.017  24.560  1.00  0.00     0.012 A 
ENDROOT
BRANCH   1   7
ATOM      7  C   UNL     1      48.737  77.420  22.471  1.00  0.00     0.159 C 
ATOM      8  C   UNL     1      48.744  77.874  21.041  1.00  0.00     0.093 C 
ATOM      9  O   UNL     1      47.642  77.428  23.096  1.00  0.00    -0.295 OA
ENDBRANCH   1   7
TORSDOF 1
ENDMDL
MODEL 2
REMARK VINA RESULT:    -4.443      2.039      3.189
REMARK INTER + INTRA:          -4.772
REMARK INTER:                  -4.701
REMARK INTRA:                  -0.071
REMARK UNBOUND:                -0.069
REMARK SMILES CC(=O)c1ccccc1
REMARK SMILES IDX 4 1 5 2 6 3 7 4 8 5 9 6 2 7 1 8 3 9
REMARK H PARENT
REMARK Flexibility Score: inf
ROOT
ATOM      1  C   UNL     1      50.521  76.866  24.900  1.00  0.00     0.017 A 
ATOM      2  C   UNL     1      49.786  76.923  23.699  1.00  0.00     0.012 A 
ATOM      3  C   UNL     1      50.379  76.564  22.484  1.00  0.00     0.001 A 
ATOM      4  C   UNL     1      51.711  76.147  22.451  1.00  0.00     0.000 A 
ATOM      5  C   UNL     1      52.452  76.085  23.633  1.00  0.00     0.001 A 
ATOM      6  C   UNL     1      51.864  76.442  24.849  1.00  0.00     0.012 A 
ENDROOT
BRANCH   1   7
ATOM      7  C   UNL     1      49.877  77.250  26.184  1.00  0.00     0.159 C 
ATOM      8  C   UNL     1      48.390  77.406  26.309  1.00  0.00     0.093 C 
ATOM      9  O   UNL     1      50.588  77.454  27.206  1.00  0.00    -0.295 OA
ENDBRANCH   1   7
TORSDOF 1
ENDMDL
MODEL 3
REMARK VINA RESULT:    -4.434      2.040      3.213
REMARK INTER + INTRA:          -4.762
REMARK INTER:                  -4.693
REMARK INTRA:                  -0.069
REMARK UNBOUND:                -0.069
REMARK SMILES CC(=O)c1ccccc1
REMARK SMILES IDX 4 1 5 2 6 3 7 4 8 5 9 6 2 7 1 8 3 9
REMARK H PARENT
REMARK Flexibility Score: inf
ROOT
ATOM      1  C   UNL     1      50.472  76.887  24.917  1.00  0.00     0.017 A 
ATOM      2  C   UNL     1      51.818  76.474  24.883  1.00  0.00     0.012 A 
ATOM      3  C   UNL     1      52.424  76.118  23.674  1.00  0.00     0.001 A 
ATOM      4  C   UNL     1      51.694  76.167  22.484  1.00  0.00     0.000 A 
ATOM      5  C   UNL     1      50.359  76.574  22.501  1.00  0.00     0.001 A 
ATOM      6  C   UNL     1      49.749  76.932  23.707  1.00  0.00     0.012 A 
ENDROOT
BRANCH   1   7
ATOM      7  C   UNL     1      49.842  77.264  26.211  1.00  0.00     0.159 C 
ATOM      8  C   UNL     1      48.362  77.471  26.341  1.00  0.00     0.093 C 
ATOM      9  O   UNL     1      50.560  77.417  27.236  1.00  0.00    -0.295 OA
ENDBRANCH   1   7
TORSDOF 1
ENDMDL
MODEL 4
REMARK VINA RESULT:    -4.391      1.649      2.094
REMARK INTER + INTRA:          -4.717
REMARK INTER:                  -4.651
REMARK INTRA:                  -0.066
REMARK UNBOUND:                -0.069
REMARK SMILES CC(=O)c1ccccc1
REMARK SMILES IDX 4 1 5 2 6 3 7 4 8 5 9 6 2 7 1 8 3 9
REMARK H PARENT
REMARK Flexibility Score: inf
ROOT
ATOM      1  C   UNL     1      49.946  76.920  23.177  1.00  0.00     0.017 A 
ATOM      2  C   UNL     1      51.203  76.728  23.785  1.00  0.00     0.012 A 
ATOM      3  C   UNL     1      51.313  76.624  25.175  1.00  0.00     0.001 A 
ATOM      4  C   UNL     1      50.172  76.712  25.976  1.00  0.00     0.000 A 
ATOM      5  C   UNL     1      48.920  76.902  25.389  1.00  0.00     0.001 A 
ATOM      6  C   UNL     1      48.805  77.006  24.000  1.00  0.00     0.012 A 
ENDROOT
BRANCH   1   7
ATOM      7  C   UNL     1      49.845  77.028  21.697  1.00  0.00     0.159 C 
ATOM      8  C   UNL     1      48.829  77.911  21.035  1.00  0.00     0.093 C 
ATOM      9  O   UNL     1      50.629  76.365  20.965  1.00  0.00    -0.295 OA
ENDBRANCH   1   7
TORSDOF 1
ENDMDL
MODEL 5
REMARK VINA RESULT:    -4.369      2.171      3.723
REMARK INTER + INTRA:          -4.694
REMARK INTER:                  -4.626
REMARK INTRA:                  -0.068
REMARK UNBOUND:                -0.069
REMARK SMILES CC(=O)c1ccccc1
REMARK SMILES IDX 4 1 5 2 6 3 7 4 8 5 9 6 2 7 1 8 3 9
REMARK H PARENT
REMARK Flexibility Score: inf
ROOT
ATOM      1  C   UNL     1      50.919  76.749  24.589  1.00  0.00     0.017 A 
ATOM      2  C   UNL     1      51.369  77.387  25.762  1.00  0.00     0.012 A 
ATOM      3  C   UNL     1      50.456  77.879  26.700  1.00  0.00     0.001 A 
ATOM      4  C   UNL     1      49.084  77.743  26.480  1.00  0.00     0.000 A 
ATOM      5  C   UNL     1      48.622  77.112  25.324  1.00  0.00     0.001 A 
ATOM      6  C   UNL     1      49.531  76.618  24.383  1.00  0.00     0.012 A 
ENDROOT
BRANCH   1   7
ATOM      7  C   UNL     1      51.902  76.230  23.601  1.00  0.00     0.159 C 
ATOM      8  C   UNL     1      53.251  75.722  24.016  1.00  0.00     0.093 C 
ATOM      9  O   UNL     1      51.606  76.210  22.375  1.00  0.00    -0.295 OA
ENDBRANCH   1   7
TORSDOF 1
ENDMDL
MODEL 6
REMARK VINA RESULT:    -4.224      2.188      3.685
REMARK INTER + INTRA:          -4.540
REMARK INTER:                  -4.475
REMARK INTRA:                  -0.065
REMARK UNBOUND:                -0.069
REMARK SMILES CC(=O)c1ccccc1
REMARK SMILES IDX 4 1 5 2 6 3 7 4 8 5 9 6 2 7 1 8 3 9
REMARK H PARENT
REMARK Flexibility Score: inf
ROOT
ATOM      1  C   UNL     1      50.555  77.004  24.933  1.00  0.00     0.017 A 
ATOM      2  C   UNL     1      49.164  76.777  24.957  1.00  0.00     0.012 A 
ATOM      3  C   UNL     1      48.376  77.298  25.988  1.00  0.00     0.001 A 
ATOM      4  C   UNL     1      48.964  78.049  27.008  1.00  0.00     0.000 A 
ATOM      5  C   UNL     1      50.340  78.282  26.998  1.00  0.00     0.001 A 
ATOM      6  C   UNL     1      51.132  77.764  25.969  1.00  0.00     0.012 A 
ENDROOT
BRANCH   1   7
ATOM      7  C   UNL     1      51.380  76.444  23.829  1.00  0.00     0.159 C 
ATOM      8  C   UNL     1      52.760  75.906  24.066  1.00  0.00     0.093 C 
ATOM      9  O   UNL     1      50.919  76.414  22.655  1.00  0.00    -0.295 OA
ENDBRANCH   1   7
TORSDOF 1
ENDMDL
MODEL 7
REMARK VINA RESULT:    -4.101      1.740      2.764
REMARK INTER + INTRA:          -4.411
REMARK INTER:                  -4.345
REMARK INTRA:                  -0.065
REMARK UNBOUND:                -0.069
REMARK SMILES CC(=O)c1ccccc1
REMARK SMILES IDX 4 1 5 2 6 3 7 4 8 5 9 6 2 7 1 8 3 9
REMARK H PARENT
REMARK Flexibility Score: inf
ROOT
ATOM      1  C   UNL     1      49.085  77.605  21.586  1.00  0.00     0.017 A 
ATOM      2  C   UNL     1      48.476  77.520  22.853  1.00  0.00     0.012 A 
ATOM      3  C   UNL     1      49.121  76.871  23.911  1.00  0.00     0.001 A 
ATOM      4  C   UNL     1      50.379  76.297  23.717  1.00  0.00     0.000 A 
ATOM      5  C   UNL     1      50.996  76.373  22.467  1.00  0.00     0.001 A 
ATOM      6  C   UNL     1      50.355  77.021  21.407  1.00  0.00     0.012 A 
ENDROOT
BRANCH   1   7
ATOM      7  C   UNL     1      48.387  78.299  20.470  1.00  0.00     0.159 C 
ATOM      8  C   UNL     1      47.684  79.609  20.669  1.00  0.00     0.093 C 
ATOM      9  O   UNL     1      48.378  77.783  19.319  1.00  0.00    -0.295 OA
ENDBRANCH   1   7
TORSDOF 1
ENDMDL
MODEL 8
REMARK VINA RESULT:    -4.026      3.341      5.068
REMARK INTER + INTRA:          -4.331
REMARK INTER:                  -4.260
REMARK INTRA:                  -0.071
REMARK UNBOUND:                -0.069
REMARK SMILES CC(=O)c1ccccc1
REMARK SMILES IDX 4 1 5 2 6 3 7 4 8 5 9 6 2 7 1 8 3 9
REMARK H PARENT
REMARK Flexibility Score: inf
ROOT
ATOM      1  C   UNL     1      50.690  78.097  26.715  1.00  0.00     0.017 A 
ATOM      2  C   UNL     1      49.289  77.999  26.826  1.00  0.00     0.012 A 
ATOM      3  C   UNL     1      48.549  77.275  25.886  1.00  0.00     0.001 A 
ATOM      4  C   UNL     1      49.196  76.642  24.822  1.00  0.00     0.000 A 
ATOM      5  C   UNL     1      50.584  76.730  24.699  1.00  0.00     0.001 A 
ATOM      6  C   UNL     1      51.328  77.452  25.636  1.00  0.00     0.012 A 
ENDROOT
BRANCH   1   7
ATOM      7  C   UNL     1      51.464  78.870  27.723  1.00  0.00     0.159 C 
ATOM      8  C   UNL     1      50.822  79.418  28.964  1.00  0.00     0.093 C 
ATOM      9  O   UNL     1      52.695  79.078  27.543  1.00  0.00    -0.295 OA
ENDBRANCH   1   7
TORSDOF 1
ENDMDL
MODEL 9
REMARK VINA RESULT:    -3.940      2.496      3.466
REMARK INTER + INTRA:          -4.240
REMARK INTER:                  -4.170
REMARK INTRA:                  -0.070
REMARK UNBOUND:                -0.069
REMARK SMILES CC(=O)c1ccccc1
REMARK SMILES IDX 4 1 5 2 6 3 7 4 8 5 9 6 2 7 1 8 3 9
REMARK H PARENT
REMARK Flexibility Score: inf
ROOT
ATOM      1  C   UNL     1      49.322  77.243  25.753  1.00  0.00     0.017 A 
ATOM      2  C   UNL     1      48.815  77.082  24.448  1.00  0.00     0.012 A 
ATOM      3  C   UNL     1      49.656  76.696  23.400  1.00  0.00     0.001 A 
ATOM      4  C   UNL     1      51.013  76.467  23.638  1.00  0.00     0.000 A 
ATOM      5  C   UNL     1      51.530  76.622  24.926  1.00  0.00     0.001 A 
ATOM      6  C   UNL     1      50.694  77.007  25.977  1.00  0.00     0.012 A 
ENDROOT
BRANCH   1   7
ATOM      7  C   UNL     1      48.415  77.653  26.858  1.00  0.00     0.159 C 
ATOM      8  C   UNL     1      47.075  78.272  26.594  1.00  0.00     0.093 C 
ATOM      9  O   UNL     1      48.770  77.482  28.056  1.00  0.00    -0.295 OA
ENDBRANCH   1   7
TORSDOF 1
ENDMDL
