MODEL 1
REMARK VINA RESULT:    -4.083      0.000      0.000
REMARK INTER + INTRA:          -7.120
REMARK INTER:                  -6.231
REMARK INTRA:                  -0.889
REMARK UNBOUND:                -0.889
REMARK SMILES O=C([O-])CCCCCCCCC(=O)[O-]
REMARK SMILES IDX 7 1 6 2 5 3 4 4 2 5 1 6 3 7 8 8 9 9 10 10 11 11 12 12 13 13
REMARK SMILES IDX 14 14
REMARK H PARENT
REMARK Flexibility Score: inf
ROOT
ATOM      1  C   UNL     1     -12.037  -2.899 -24.779  1.00  0.00     0.000 C 
ENDROOT
BRANCH   1   2
ATOM      2  C   UNL     1     -12.369  -2.844 -26.281  1.00  0.00     0.000 C 
BRANCH   2   3
ATOM      3  C   UNL     1     -11.835  -1.604 -27.027  1.00  0.00     0.006 C 
BRANCH   3   4
ATOM      4  C   UNL     1     -10.513  -1.048 -26.479  1.00  0.00     0.053 C 
BRANCH   4   5
ATOM      5  C   UNL     1     -10.668   0.338 -25.934  1.00  0.00     0.041 C 
ATOM      6  O   UNL     1     -11.809   0.772 -25.622  1.00  0.00    -0.550 OA
ATOM      7  O   UNL     1      -9.559   1.165 -25.803  1.00  0.00    -0.550 OA
ENDBRANCH   4   5
ENDBRANCH   3   4
ENDBRANCH   2   3
ENDBRANCH   1   2
BRANCH   1   8
ATOM      8  C   UNL     1     -13.042  -2.119 -23.914  1.00  0.00     0.000 C 
BRANCH   8   9
ATOM      9  C   UNL     1     -12.787  -2.298 -22.409  1.00  0.00     0.000 C 
BRANCH   9  10
ATOM     10  C   UNL     1     -12.631  -0.956 -21.670  1.00  0.00     0.006 C 
BRANCH  10  11
ATOM     11  C   UNL     1     -11.203  -0.747 -21.149  1.00  0.00     0.053 C 
BRANCH  11  12
ATOM     12  C   UNL     1     -10.296  -0.207 -22.211  1.00  0.00     0.041 C 
ATOM     13  O   UNL     1     -10.222   1.033 -22.410  1.00  0.00    -0.550 OA
ATOM     14  O   UNL     1      -9.504  -1.072 -22.957  1.00  0.00    -0.550 OA
ENDBRANCH  11  12
ENDBRANCH  10  11
ENDBRANCH   9  10
ENDBRANCH   8   9
ENDBRANCH   1   8
TORSDOF 9
ENDMDL
MODEL 2
REMARK VINA RESULT:    -4.078      1.425      4.616
REMARK INTER + INTRA:          -7.112
REMARK INTER:                  -6.500
REMARK INTRA:                  -0.613
REMARK UNBOUND:                -0.889
REMARK SMILES O=C([O-])CCCCCCCCC(=O)[O-]
REMARK SMILES IDX 7 1 6 2 5 3 4 4 2 5 1 6 3 7 8 8 9 9 10 10 11 11 12 12 13 13
REMARK SMILES IDX 14 14
REMARK H PARENT
REMARK Flexibility Score: inf
ROOT
ATOM      1  C   UNL     1     -12.077  -2.744 -23.742  1.00  0.00     0.000 C 
ENDROOT
BRANCH   1   2
ATOM      2  C   UNL     1     -12.561  -1.902 -22.548  1.00  0.00     0.000 C 
BRANCH   2   3
ATOM      3  C   UNL     1     -11.452  -1.154 -21.779  1.00  0.00     0.006 C 
BRANCH   3   4
ATOM      4  C   UNL     1     -11.878  -0.617 -20.404  1.00  0.00     0.053 C 
BRANCH   4   5
ATOM      5  C   UNL     1     -12.139   0.857 -20.433  1.00  0.00     0.041 C 
ATOM      6  O   UNL     1     -11.921   1.518 -21.483  1.00  0.00    -0.550 OA
ATOM      7  O   UNL     1     -12.590   1.508 -19.291  1.00  0.00    -0.550 OA
ENDBRANCH   4   5
ENDBRANCH   3   4
ENDBRANCH   2   3
ENDBRANCH   1   2
BRANCH   1   8
ATOM      8  C   UNL     1     -13.022  -2.662 -24.954  1.00  0.00     0.000 C 
BRANCH   8   9
ATOM      9  C   UNL     1     -12.281  -2.835 -26.290  1.00  0.00     0.000 C 
BRANCH   9  10
ATOM     10  C   UNL     1     -11.906  -1.490 -26.938  1.00  0.00     0.006 C 
BRANCH  10  11
ATOM     11  C   UNL     1     -10.506  -1.019 -26.524  1.00  0.00     0.053 C 
BRANCH  11  12
ATOM     12  C   UNL     1     -10.545   0.315 -25.845  1.00  0.00     0.041 C 
ATOM     13  O   UNL     1      -9.723   1.213 -26.164  1.00  0.00    -0.550 OA
ATOM     14  O   UNL     1     -11.514   0.579 -24.885  1.00  0.00    -0.550 OA
ENDBRANCH  11  12
ENDBRANCH  10  11
ENDBRANCH   9  10
ENDBRANCH   8   9
ENDBRANCH   1   8
TORSDOF 9
ENDMDL
MODEL 3
REMARK VINA RESULT:    -4.077      1.509      1.856
REMARK INTER + INTRA:          -7.111
REMARK INTER:                  -6.466
REMARK INTRA:                  -0.644
REMARK UNBOUND:                -0.889
REMARK SMILES O=C([O-])CCCCCCCCC(=O)[O-]
REMARK SMILES IDX 7 1 6 2 5 3 4 4 2 5 1 6 3 7 8 8 9 9 10 10 11 11 12 12 13 13
REMARK SMILES IDX 14 14
REMARK H PARENT
REMARK Flexibility Score: inf
ROOT
ATOM      1  C   UNL     1     -12.021  -3.020 -24.660  1.00  0.00     0.000 C 
ENDROOT
BRANCH   1   2
ATOM      2  C   UNL     1     -12.476  -2.981 -26.130  1.00  0.00     0.000 C 
BRANCH   2   3
ATOM      3  C   UNL     1     -11.925  -1.801 -26.957  1.00  0.00     0.006 C 
BRANCH   3   4
ATOM      4  C   UNL     1     -10.721  -1.085 -26.327  1.00  0.00     0.053 C 
BRANCH   4   5
ATOM      5  C   UNL     1     -11.070   0.294 -25.859  1.00  0.00     0.041 C 
ATOM      6  O   UNL     1     -12.246   0.561 -25.497  1.00  0.00    -0.550 OA
ATOM      7  O   UNL     1     -10.106   1.294 -25.857  1.00  0.00    -0.550 OA
ENDBRANCH   4   5
ENDBRANCH   3   4
ENDBRANCH   2   3
ENDBRANCH   1   2
BRANCH   1   8
ATOM      8  C   UNL     1     -13.028  -2.359 -23.704  1.00  0.00     0.000 C 
BRANCH   8   9
ATOM      9  C   UNL     1     -12.486  -2.237 -22.270  1.00  0.00     0.000 C 
BRANCH   9  10
ATOM     10  C   UNL     1     -11.513  -1.056 -22.103  1.00  0.00     0.006 C 
BRANCH  10  11
ATOM     11  C   UNL     1     -11.493  -0.522 -20.665  1.00  0.00     0.053 C 
BRANCH  11  12
ATOM     12  C   UNL     1     -12.512   0.556 -20.457  1.00  0.00     0.041 C 
ATOM     13  O   UNL     1     -12.917   0.829 -19.297  1.00  0.00    -0.550 OA
ATOM     14  O   UNL     1     -12.987   1.284 -21.540  1.00  0.00    -0.550 OA
ENDBRANCH  11  12
ENDBRANCH  10  11
ENDBRANCH   9  10
ENDBRANCH   8   9
ENDBRANCH   1   8
TORSDOF 9
ENDMDL
MODEL 4
REMARK VINA RESULT:    -4.020     17.172     18.918
REMARK INTER + INTRA:          -7.024
REMARK INTER:                  -6.304
REMARK INTRA:                  -0.719
REMARK UNBOUND:                -0.889
REMARK SMILES O=C([O-])CCCCCCCCC(=O)[O-]
REMARK SMILES IDX 7 1 6 2 5 3 4 4 2 5 1 6 3 7 8 8 9 9 10 10 11 11 12 12 13 13
REMARK SMILES IDX 14 14
REMARK H PARENT
REMARK Flexibility Score: inf
ROOT
ATOM      1  C   UNL     1       7.058   7.660 -24.162  1.00  0.00     0.000 C 
ENDROOT
BRANCH   1   2
ATOM      2  C   UNL     1       7.013   6.396 -23.285  1.00  0.00     0.000 C 
BRANCH   2   3
ATOM      3  C   UNL     1       5.665   6.132 -22.582  1.00  0.00     0.006 C 
BRANCH   3   4
ATOM      4  C   UNL     1       5.777   5.811 -21.084  1.00  0.00     0.053 C 
BRANCH   4   5
ATOM      5  C   UNL     1       4.435   5.712 -20.429  1.00  0.00     0.041 C 
ATOM      6  O   UNL     1       4.349   5.509 -19.189  1.00  0.00    -0.550 OA
ATOM      7  O   UNL     1       3.278   5.808 -21.192  1.00  0.00    -0.550 OA
ENDBRANCH   4   5
ENDBRANCH   3   4
ENDBRANCH   2   3
ENDBRANCH   1   2
BRANCH   1   8
ATOM      8  C   UNL     1       5.900   7.731 -25.171  1.00  0.00     0.000 C 
BRANCH   8   9
ATOM      9  C   UNL     1       6.377   7.594 -26.626  1.00  0.00     0.000 C 
BRANCH   9  10
ATOM     10  C   UNL     1       5.749   6.387 -27.346  1.00  0.00     0.006 C 
BRANCH  10  11
ATOM     11  C   UNL     1       4.896   5.531 -26.401  1.00  0.00     0.053 C 
BRANCH  11  12
ATOM     12  C   UNL     1       5.446   4.145 -26.255  1.00  0.00     0.041 C 
ATOM     13  O   UNL     1       4.763   3.152 -26.618  1.00  0.00    -0.550 OA
ATOM     14  O   UNL     1       6.727   3.953 -25.753  1.00  0.00    -0.550 OA
ENDBRANCH  11  12
ENDBRANCH  10  11
ENDBRANCH   9  10
ENDBRANCH   8   9
ENDBRANCH   1   8
TORSDOF 9
ENDMDL
MODEL 5
REMARK VINA RESULT:    -4.006      1.145      4.120
REMARK INTER + INTRA:          -7.002
REMARK INTER:                  -6.064
REMARK INTRA:                  -0.938
REMARK UNBOUND:                -0.889
REMARK SMILES O=C([O-])CCCCCCCCC(=O)[O-]
REMARK SMILES IDX 7 1 6 2 5 3 4 4 2 5 1 6 3 7 8 8 9 9 10 10 11 11 12 12 13 13
REMARK SMILES IDX 14 14
REMARK H PARENT
REMARK Flexibility Score: inf
ROOT
ATOM      1  C   UNL     1     -12.217  -2.708 -23.775  1.00  0.00     0.000 C 
ENDROOT
BRANCH   1   2
ATOM      2  C   UNL     1     -12.850  -1.961 -22.586  1.00  0.00     0.000 C 
BRANCH   2   3
ATOM      3  C   UNL     1     -11.850  -1.273 -21.635  1.00  0.00     0.006 C 
BRANCH   3   4
ATOM      4  C   UNL     1     -10.532  -0.841 -22.296  1.00  0.00     0.053 C 
BRANCH   4   5
ATOM      5  C   UNL     1     -10.107   0.527 -21.860  1.00  0.00     0.041 C 
ATOM      6  O   UNL     1      -8.921   0.735 -21.493  1.00  0.00    -0.550 OA
ATOM      7  O   UNL     1     -11.030   1.566 -21.826  1.00  0.00    -0.550 OA
ENDBRANCH   4   5
ENDBRANCH   3   4
ENDBRANCH   2   3
ENDBRANCH   1   2
BRANCH   1   8
ATOM      8  C   UNL     1     -13.111  -2.706 -25.027  1.00  0.00     0.000 C 
BRANCH   8   9
ATOM      9  C   UNL     1     -12.297  -2.754 -26.330  1.00  0.00     0.000 C 
BRANCH   9  10
ATOM     10  C   UNL     1     -11.530  -1.447 -26.599  1.00  0.00     0.006 C 
BRANCH  10  11
ATOM     11  C   UNL     1     -12.437  -0.214 -26.500  1.00  0.00     0.053 C 
BRANCH  11  12
ATOM     12  C   UNL     1     -12.041   0.680 -25.366  1.00  0.00     0.041 C 
ATOM     13  O   UNL     1     -10.871   1.141 -25.302  1.00  0.00    -0.550 OA
ATOM     14  O   UNL     1     -12.973   1.034 -24.399  1.00  0.00    -0.550 OA
ENDBRANCH  11  12
ENDBRANCH  10  11
ENDBRANCH   9  10
ENDBRANCH   8   9
ENDBRANCH   1   8
TORSDOF 9
ENDMDL
MODEL 6
REMARK VINA RESULT:    -3.988      2.172      2.646
REMARK INTER + INTRA:          -6.975
REMARK INTER:                  -6.544
REMARK INTRA:                  -0.431
REMARK UNBOUND:                -0.889
REMARK SMILES O=C([O-])CCCCCCCCC(=O)[O-]
REMARK SMILES IDX 7 1 6 2 5 3 4 4 2 5 1 6 3 7 8 8 9 9 10 10 11 11 12 12 13 13
REMARK SMILES IDX 14 14
REMARK H PARENT
REMARK Flexibility Score: inf
ROOT
ATOM      1  C   UNL     1     -13.088  -2.667 -23.285  1.00  0.00     0.000 C 
ENDROOT
BRANCH   1   2
ATOM      2  C   UNL     1     -12.005  -2.835 -24.366  1.00  0.00     0.000 C 
BRANCH   2   3
ATOM      3  C   UNL     1     -12.530  -2.908 -25.815  1.00  0.00     0.006 C 
BRANCH   3   4
ATOM      4  C   UNL     1     -11.926  -1.866 -26.768  1.00  0.00     0.053 C 
BRANCH   4   5
ATOM      5  C   UNL     1     -11.966  -0.486 -26.188  1.00  0.00     0.041 C 
ATOM      6  O   UNL     1     -13.071   0.070 -25.951  1.00  0.00    -0.550 OA
ATOM      7  O   UNL     1     -10.784   0.203 -25.944  1.00  0.00    -0.550 OA
ENDBRANCH   4   5
ENDBRANCH   3   4
ENDBRANCH   2   3
ENDBRANCH   1   2
BRANCH   1   8
ATOM      8  C   UNL     1     -12.946  -1.354 -22.496  1.00  0.00     0.000 C 
BRANCH   8   9
ATOM      9  C   UNL     1     -11.678  -1.325 -21.626  1.00  0.00     0.000 C 
BRANCH   9  10
ATOM     10  C   UNL     1     -11.887  -0.569 -20.300  1.00  0.00     0.006 C 
BRANCH  10  11
ATOM     11  C   UNL     1     -10.639   0.221 -19.883  1.00  0.00     0.053 C 
BRANCH  11  12
ATOM     12  C   UNL     1     -10.810   0.862 -18.541  1.00  0.00     0.041 C 
ATOM     13  O   UNL     1     -10.819   2.117 -18.435  1.00  0.00    -0.550 OA
ATOM     14  O   UNL     1     -10.995   0.076 -17.411  1.00  0.00    -0.550 OA
ENDBRANCH  11  12
ENDBRANCH  10  11
ENDBRANCH   9  10
ENDBRANCH   8   9
ENDBRANCH   1   8
TORSDOF 9
ENDMDL
MODEL 7
REMARK VINA RESULT:    -3.924     14.663     16.419
REMARK INTER + INTRA:          -6.878
REMARK INTER:                  -6.409
REMARK INTRA:                  -0.469
REMARK UNBOUND:                -0.889
REMARK SMILES O=C([O-])CCCCCCCCC(=O)[O-]
REMARK SMILES IDX 7 1 6 2 5 3 4 4 2 5 1 6 3 7 8 8 9 9 10 10 11 11 12 12 13 13
REMARK SMILES IDX 14 14
REMARK H PARENT
REMARK Flexibility Score: inf
ROOT
ATOM      1  C   UNL     1     -10.635   6.824 -10.668  1.00  0.00     0.000 C 
ENDROOT
BRANCH   1   2
ATOM      2  C   UNL     1      -9.784   8.005 -11.170  1.00  0.00     0.000 C 
BRANCH   2   3
ATOM      3  C   UNL     1      -8.963   8.731 -10.084  1.00  0.00     0.006 C 
BRANCH   3   4
ATOM      4  C   UNL     1      -8.390   7.812  -8.995  1.00  0.00     0.053 C 
BRANCH   4   5
ATOM      5  C   UNL     1      -6.895   7.744  -9.046  1.00  0.00     0.041 C 
ATOM      6  O   UNL     1      -6.243   8.619  -9.675  1.00  0.00    -0.550 OA
ATOM      7  O   UNL     1      -6.223   6.696  -8.430  1.00  0.00    -0.550 OA
ENDBRANCH   4   5
ENDBRANCH   3   4
ENDBRANCH   2   3
ENDBRANCH   1   2
BRANCH   1   8
ATOM      8  C   UNL     1     -12.025   6.766 -11.326  1.00  0.00     0.000 C 
BRANCH   8   9
ATOM      9  C   UNL     1     -13.030   5.941 -10.506  1.00  0.00     0.000 C 
BRANCH   9  10
ATOM     10  C   UNL     1     -12.343   5.004  -9.495  1.00  0.00     0.006 C 
BRANCH  10  11
ATOM     11  C   UNL     1     -12.985   3.610  -9.472  1.00  0.00     0.053 C 
BRANCH  11  12
ATOM     12  C   UNL     1     -12.016   2.545  -9.885  1.00  0.00     0.041 C 
ATOM     13  O   UNL     1     -12.064   1.405  -9.354  1.00  0.00    -0.550 OA
ATOM     14  O   UNL     1     -11.083   2.800 -10.883  1.00  0.00    -0.550 OA
ENDBRANCH  11  12
ENDBRANCH  10  11
ENDBRANCH   9  10
ENDBRANCH   8   9
ENDBRANCH   1   8
TORSDOF 9
ENDMDL
MODEL 8
REMARK VINA RESULT:    -3.847      1.664      4.499
REMARK INTER + INTRA:          -6.760
REMARK INTER:                  -6.193
REMARK INTRA:                  -0.567
REMARK UNBOUND:                -0.889
REMARK SMILES O=C([O-])CCCCCCCCC(=O)[O-]
REMARK SMILES IDX 7 1 6 2 5 3 4 4 2 5 1 6 3 7 8 8 9 9 10 10 11 11 12 12 13 13
REMARK SMILES IDX 14 14
REMARK H PARENT
REMARK Flexibility Score: inf
ROOT
ATOM      1  C   UNL     1     -11.978  -2.626 -24.123  1.00  0.00     0.000 C 
ENDROOT
BRANCH   1   2
ATOM      2  C   UNL     1     -13.125  -2.281 -23.155  1.00  0.00     0.000 C 
BRANCH   2   3
ATOM      3  C   UNL     1     -12.851  -1.094 -22.209  1.00  0.00     0.006 C 
BRANCH   3   4
ATOM      4  C   UNL     1     -11.658  -1.292 -21.262  1.00  0.00     0.053 C 
BRANCH   4   5
ATOM      5  C   UNL     1     -11.498  -0.146 -20.313  1.00  0.00     0.041 C 
ATOM      6  O   UNL     1     -10.349   0.217 -19.946  1.00  0.00    -0.550 OA
ATOM      7  O   UNL     1     -12.618   0.500 -19.804  1.00  0.00    -0.550 OA
ENDBRANCH   4   5
ENDBRANCH   3   4
ENDBRANCH   2   3
ENDBRANCH   1   2
BRANCH   1   8
ATOM      8  C   UNL     1     -12.475  -3.028 -25.521  1.00  0.00     0.000 C 
BRANCH   8   9
ATOM      9  C   UNL     1     -11.996  -2.061 -26.617  1.00  0.00     0.000 C 
BRANCH   9  10
ATOM     10  C   UNL     1     -11.268  -0.831 -26.044  1.00  0.00     0.006 C 
BRANCH  10  11
ATOM     11  C   UNL     1      -9.835  -0.707 -26.578  1.00  0.00     0.053 C 
BRANCH  11  12
ATOM     12  C   UNL     1      -8.839  -0.556 -25.470  1.00  0.00     0.041 C 
ATOM     13  O   UNL     1      -9.230  -0.445 -24.279  1.00  0.00    -0.550 OA
ATOM     14  O   UNL     1      -7.479  -0.573 -25.749  1.00  0.00    -0.550 OA
ENDBRANCH  11  12
ENDBRANCH  10  11
ENDBRANCH   9  10
ENDBRANCH   8   9
ENDBRANCH   1   8
TORSDOF 9
ENDMDL
MODEL 9
REMARK VINA RESULT:    -3.771      1.729      4.286
REMARK INTER + INTRA:          -6.644
REMARK INTER:                  -5.858
REMARK INTRA:                  -0.786
REMARK UNBOUND:                -0.889
REMARK SMILES O=C([O-])CCCCCCCCC(=O)[O-]
REMARK SMILES IDX 7 1 6 2 5 3 4 4 2 5 1 6 3 7 8 8 9 9 10 10 11 11 12 12 13 13
REMARK SMILES IDX 14 14
REMARK H PARENT
REMARK Flexibility Score: inf
ROOT
ATOM      1  C   UNL     1     -12.611  -3.009 -25.856  1.00  0.00     0.000 C 
ENDROOT
BRANCH   1   2
ATOM      2  C   UNL     1     -12.010  -3.036 -24.439  1.00  0.00     0.000 C 
BRANCH   2   3
ATOM      3  C   UNL     1     -12.762  -2.190 -23.390  1.00  0.00     0.006 C 
BRANCH   3   4
ATOM      4  C   UNL     1     -11.941  -1.848 -22.138  1.00  0.00     0.053 C 
BRANCH   4   5
ATOM      5  C   UNL     1     -12.238  -0.470 -21.632  1.00  0.00     0.041 C 
ATOM      6  O   UNL     1     -13.106  -0.298 -20.736  1.00  0.00    -0.550 OA
ATOM      7  O   UNL     1     -11.581   0.628 -22.173  1.00  0.00    -0.550 OA
ENDBRANCH   4   5
ENDBRANCH   3   4
ENDBRANCH   2   3
ENDBRANCH   1   2
BRANCH   1   8
ATOM      8  C   UNL     1     -12.168  -1.782 -26.671  1.00  0.00     0.000 C 
BRANCH   8   9
ATOM      9  C   UNL     1     -10.862  -1.165 -26.142  1.00  0.00     0.000 C 
BRANCH   9  10
ATOM     10  C   UNL     1     -10.973   0.353 -25.917  1.00  0.00     0.006 C 
BRANCH  10  11
ATOM     11  C   UNL     1     -12.427   0.804 -25.720  1.00  0.00     0.053 C 
BRANCH  11  12
ATOM     12  C   UNL     1     -12.528   2.283 -25.511  1.00  0.00     0.041 C 
ATOM     13  O   UNL     1     -12.101   3.077 -26.390  1.00  0.00    -0.550 OA
ATOM     14  O   UNL     1     -13.125   2.785 -24.362  1.00  0.00    -0.550 OA
ENDBRANCH  11  12
ENDBRANCH  10  11
ENDBRANCH   9  10
ENDBRANCH   8   9
ENDBRANCH   1   8
TORSDOF 9
ENDMDL
