MODEL 1
REMARK VINA RESULT:    42.806      0.000      0.000
REMARK INTER + INTRA:          63.934
REMARK INTER:                  56.570
REMARK INTRA:                   7.364
REMARK UNBOUND:                 7.364
REMARK SMILES CC[C@H](C=C[C@@H](C)[C@H]1CC[C@H]2C3=CC[C@H]4C[C@H](O)CC[C@@]4(C)[C@@H]3CC[C@]12C)C(C)C
REMARK SMILES IDX 6 1 7 2 5 3 4 4 3 5 2 6 1 7 28 8 29 9 30 10 8 11 9 12 26 13
REMARK SMILES IDX 10 14 11 15 25 16 27 17 12 18 24 19 23 20 13 21 21 22 14 23
REMARK SMILES IDX 15 24 20 25 22 26 16 27 19 28 17 29 18 30
REMARK H PARENT 18 31
REMARK Flexibility Score: inf
ROOT
ATOM      1  C   UNL     1       0.073  47.708  49.320  1.00  0.00     0.012 C 
ATOM      2  C   UNL     1      -1.124  47.206  48.502  1.00  0.00     0.012 C 
ENDROOT
BRANCH   1   3
ATOM      3  C   UNL     1       1.191  48.045  48.359  1.00  0.00    -0.028 C 
ATOM      4  C   UNL     1       2.455  47.652  48.580  1.00  0.00    -0.027 C 
BRANCH   4   5
ATOM      5  C   UNL     1       3.582  48.004  47.630  1.00  0.00     0.014 C 
BRANCH   5   6
ATOM      6  C   UNL     1       4.920  47.954  48.406  1.00  0.00     0.004 C 
ATOM      7  C   UNL     1       6.148  48.125  47.509  1.00  0.00     0.004 C 
ENDBRANCH   5   6
BRANCH   5   8
ATOM      8  C   UNL     1       3.557  47.107  46.352  1.00  0.00    -0.011 C 
ATOM      9  C   UNL     1       4.946  46.870  45.735  1.00  0.00     0.008 C 
ATOM     10  C   UNL     1       2.871  45.761  46.634  1.00  0.00     0.008 C 
ENDBRANCH   5   8
ENDBRANCH   4   5
ENDBRANCH   1   3
BRANCH   1  11
ATOM     11  C   UNL     1       0.568  46.652  50.356  1.00  0.00     0.002 C 
ATOM     12  C   UNL     1      -0.599  45.816  50.947  1.00  0.00     0.005 C 
ATOM     13  C   UNL     1       1.591  45.584  49.867  1.00  0.00    -0.023 C 
ATOM     14  C   UNL     1      -0.059  44.402  51.207  1.00  0.00     0.009 C 
ATOM     15  C   UNL     1       1.441  44.533  50.980  1.00  0.00     0.021 C 
ATOM     16  C   UNL     1       3.082  46.068  49.807  1.00  0.00     0.008 C 
ATOM     17  C   UNL     1       1.170  45.009  48.475  1.00  0.00     0.012 C 
ATOM     18  C   UNL     1       2.285  43.316  50.677  1.00  0.00    -0.067 C 
ATOM     19  C   UNL     1       4.108  45.072  50.418  1.00  0.00     0.009 C 
ATOM     20  C   UNL     1       3.725  43.571  50.241  1.00  0.00     0.021 C 
ATOM     21  C   UNL     1       1.819  42.054  50.727  1.00  0.00    -0.027 C 
ATOM     22  C   UNL     1       4.771  42.521  50.846  1.00  0.00    -0.023 C 
ATOM     23  C   UNL     1       2.775  40.915  50.518  1.00  0.00     0.031 C 
ATOM     24  C   UNL     1       4.039  41.208  51.346  1.00  0.00     0.002 C 
ATOM     25  C   UNL     1       5.801  42.187  49.716  1.00  0.00     0.010 C 
ATOM     26  C   UNL     1       5.532  43.118  52.061  1.00  0.00     0.012 C 
ATOM     27  C   UNL     1       4.954  39.965  51.484  1.00  0.00     0.036 C 
ATOM     28  C   UNL     1       6.704  40.991  50.022  1.00  0.00     0.032 C 
ATOM     29  C   UNL     1       5.858  39.741  50.272  1.00  0.00     0.114 C 
BRANCH  29  30
ATOM     30  O   UNL     1       6.695  38.643  50.523  1.00  0.00    -0.393 OA
ATOM     31  H   UNL     1       7.431  38.970  51.102  1.00  0.00     0.210 HD
ENDBRANCH  29  30
ENDBRANCH   1  11
TORSDOF 6
ENDMDL
MODEL 2
REMARK VINA RESULT:    45.305      4.592      7.935
REMARK INTER + INTRA:          67.236
REMARK INTER:                  67.238
REMARK INTRA:                  -0.002
REMARK UNBOUND:                 7.364
REMARK SMILES CC[C@H](C=C[C@@H](C)[C@H]1CC[C@H]2C3=CC[C@H]4C[C@H](O)CC[C@@]4(C)[C@@H]3CC[C@]12C)C(C)C
REMARK SMILES IDX 6 1 7 2 5 3 4 4 3 5 2 6 1 7 28 8 29 9 30 10 8 11 9 12 26 13
REMARK SMILES IDX 10 14 11 15 25 16 27 17 12 18 24 19 23 20 13 21 21 22 14 23
REMARK SMILES IDX 15 24 20 25 22 26 16 27 19 28 17 29 18 30
REMARK H PARENT 18 31
REMARK Flexibility Score: inf
ROOT
ATOM      1  C   UNL     1       5.787  44.744  42.852  1.00  0.00     0.012 C 
ATOM      2  C   UNL     1       5.334  43.367  42.347  1.00  0.00     0.012 C 
ENDROOT
BRANCH   1   3
ATOM      3  C   UNL     1       7.210  44.969  42.391  1.00  0.00    -0.028 C 
ATOM      4  C   UNL     1       7.927  43.992  41.812  1.00  0.00    -0.027 C 
BRANCH   4   5
ATOM      5  C   UNL     1       9.359  44.206  41.365  1.00  0.00     0.014 C 
BRANCH   5   6
ATOM      6  C   UNL     1       9.934  42.856  40.876  1.00  0.00     0.004 C 
ATOM      7  C   UNL     1      11.264  42.487  41.537  1.00  0.00     0.004 C 
ENDBRANCH   5   6
BRANCH   5   8
ATOM      8  C   UNL     1       9.468  45.358  40.318  1.00  0.00    -0.011 C 
ATOM      9  C   UNL     1       9.992  44.900  38.946  1.00  0.00     0.008 C 
ATOM     10  C   UNL     1       8.123  46.084  40.151  1.00  0.00     0.008 C 
ENDBRANCH   5   8
ENDBRANCH   4   5
ENDBRANCH   1   3
BRANCH   1  11
ATOM     11  C   UNL     1       5.710  44.861  44.405  1.00  0.00     0.002 C 
ATOM     12  C   UNL     1       6.809  45.797  44.978  1.00  0.00     0.005 C 
ATOM     13  C   UNL     1       4.389  45.404  45.025  1.00  0.00    -0.023 C 
ATOM     14  C   UNL     1       6.211  46.506  46.201  1.00  0.00     0.009 C 
ATOM     15  C   UNL     1       4.885  45.792  46.429  1.00  0.00     0.021 C 
ATOM     16  C   UNL     1       3.232  44.353  45.155  1.00  0.00     0.008 C 
ATOM     17  C   UNL     1       3.876  46.652  44.233  1.00  0.00     0.012 C 
ATOM     18  C   UNL     1       3.778  46.453  47.218  1.00  0.00    -0.067 C 
ATOM     19  C   UNL     1       2.507  44.358  46.530  1.00  0.00     0.009 C 
ATOM     20  C   UNL     1       2.416  45.765  47.199  1.00  0.00     0.021 C 
ATOM     21  C   UNL     1       3.926  47.616  47.880  1.00  0.00    -0.027 C 
ATOM     22  C   UNL     1       1.660  45.804  48.610  1.00  0.00    -0.023 C 
ATOM     23  C   UNL     1       2.793  48.123  48.726  1.00  0.00     0.031 C 
ATOM     24  C   UNL     1       2.255  46.936  49.545  1.00  0.00     0.002 C 
ATOM     25  C   UNL     1       0.145  46.064  48.318  1.00  0.00     0.010 C 
ATOM     26  C   UNL     1       1.804  44.456  49.366  1.00  0.00     0.012 C 
ATOM     27  C   UNL     1       1.319  47.391  50.693  1.00  0.00     0.036 C 
ATOM     28  C   UNL     1      -0.682  46.414  49.555  1.00  0.00     0.032 C 
ATOM     29  C   UNL     1      -0.114  47.662  50.235  1.00  0.00     0.114 C 
BRANCH  29  30
ATOM     30  O   UNL     1      -0.896  47.993  51.352  1.00  0.00    -0.393 OA
ATOM     31  H   UNL     1      -1.820  48.140  51.022  1.00  0.00     0.210 HD
ENDBRANCH  29  30
ENDBRANCH   1  11
TORSDOF 6
ENDMDL
