MODEL 1
REMARK VINA RESULT:    -6.074      0.000      0.000
REMARK INTER + INTRA:          -6.803
REMARK INTER:                  -6.607
REMARK INTRA:                  -0.197
REMARK UNBOUND:                -0.197
REMARK SMILES Cc1ccc(C(C)C)c(O)c1
REMARK SMILES IDX 1 1 2 2 11 3 9 4 5 5 4 6 3 7 10 8 6 10 7 11 8 12
REMARK H PARENT 10 9
REMARK Flexibility Score: inf
ROOT
ATOM      1  C   UNL     1      77.491   0.141  -0.516  1.00  0.00     0.044 C 
ATOM      2  C   UNL     1      78.878   0.647  -0.247  1.00  0.00    -0.047 A 
ATOM      3  C   UNL     1      79.103   2.013  -0.044  1.00  0.00     0.049 A 
ATOM      4  C   UNL     1      80.402   2.500   0.172  1.00  0.00     0.119 A 
ATOM      5  C   UNL     1      81.500   1.609   0.171  1.00  0.00    -0.004 A 
ATOM      6  C   UNL     1      81.261   0.241  -0.054  1.00  0.00     0.008 A 
ATOM      7  C   UNL     1      79.965  -0.234  -0.267  1.00  0.00     0.004 A 
ENDROOT
BRANCH   4   8
ATOM      8  O   UNL     1      80.591   3.866   0.381  1.00  0.00    -0.508 OA
ATOM      9  H   UNL     1      80.176   4.562  -0.228  1.00  0.00     0.293 HD
ENDBRANCH   4   8
BRANCH   5  10
ATOM     10  C   UNL     1      82.931   2.078   0.400  1.00  0.00     0.017 C 
ATOM     11  C   UNL     1      83.735   1.070   1.230  1.00  0.00     0.012 C 
ATOM     12  C   UNL     1      83.639   2.414  -0.919  1.00  0.00     0.012 C 
ENDBRANCH   5  10
TORSDOF 2
ENDMDL
MODEL 2
REMARK VINA RESULT:    -5.670      1.268      4.271
REMARK INTER + INTRA:          -6.363
REMARK INTER:                  -6.171
REMARK INTRA:                  -0.192
REMARK UNBOUND:                -0.197
REMARK SMILES Cc1ccc(C(C)C)c(O)c1
REMARK SMILES IDX 1 1 2 2 11 3 9 4 5 5 4 6 3 7 10 8 6 10 7 11 8 12
REMARK H PARENT 10 9
REMARK Flexibility Score: inf
ROOT
ATOM      1  C   UNL     1      85.664   1.648   0.408  1.00  0.00     0.044 C 
ATOM      2  C   UNL     1      84.184   1.715   0.171  1.00  0.00    -0.047 A 
ATOM      3  C   UNL     1      83.640   2.744  -0.606  1.00  0.00     0.049 A 
ATOM      4  C   UNL     1      82.253   2.836  -0.803  1.00  0.00     0.119 A 
ATOM      5  C   UNL     1      81.389   1.891  -0.202  1.00  0.00    -0.004 A 
ATOM      6  C   UNL     1      81.949   0.873   0.593  1.00  0.00     0.008 A 
ATOM      7  C   UNL     1      83.330   0.790   0.783  1.00  0.00     0.004 A 
ENDROOT
BRANCH   4   8
ATOM      8  O   UNL     1      81.743   3.867  -1.591  1.00  0.00    -0.508 OA
ATOM      9  H   UNL     1      82.022   3.989  -2.557  1.00  0.00     0.293 HD
ENDBRANCH   4   8
BRANCH   5  10
ATOM     10  C   UNL     1      79.878   1.937  -0.379  1.00  0.00     0.017 C 
ATOM     11  C   UNL     1      79.260   0.534  -0.378  1.00  0.00     0.012 C 
ATOM     12  C   UNL     1      79.209   2.848   0.659  1.00  0.00     0.012 C 
ENDBRANCH   5  10
TORSDOF 2
ENDMDL
MODEL 3
REMARK VINA RESULT:    -5.521      1.566      2.057
REMARK INTER + INTRA:          -6.201
REMARK INTER:                  -6.022
REMARK INTRA:                  -0.179
REMARK UNBOUND:                -0.197
REMARK SMILES Cc1ccc(C(C)C)c(O)c1
REMARK SMILES IDX 1 1 2 2 11 3 9 4 5 5 4 6 3 7 10 8 6 10 7 11 8 12
REMARK H PARENT 10 9
REMARK Flexibility Score: inf
ROOT
ATOM      1  C   UNL     1      78.685   2.213   0.199  1.00  0.00     0.044 C 
ATOM      2  C   UNL     1      80.173   2.274   0.025  1.00  0.00    -0.047 A 
ATOM      3  C   UNL     1      80.767   3.383  -0.590  1.00  0.00     0.049 A 
ATOM      4  C   UNL     1      82.155   3.432  -0.791  1.00  0.00     0.119 A 
ATOM      5  C   UNL     1      82.968   2.349  -0.382  1.00  0.00    -0.004 A 
ATOM      6  C   UNL     1      82.355   1.233   0.218  1.00  0.00     0.008 A 
ATOM      7  C   UNL     1      80.973   1.194   0.413  1.00  0.00     0.004 A 
ENDROOT
BRANCH   4   8
ATOM      8  O   UNL     1      82.716   4.555  -1.398  1.00  0.00    -0.508 OA
ATOM      9  H   UNL     1      83.718   4.711  -1.410  1.00  0.00     0.293 HD
ENDBRANCH   4   8
BRANCH   5  10
ATOM     10  C   UNL     1      84.479   2.345  -0.572  1.00  0.00     0.017 C 
ATOM     11  C   UNL     1      85.185   1.505   0.499  1.00  0.00     0.012 C 
ATOM     12  C   UNL     1      84.875   1.904  -1.986  1.00  0.00     0.012 C 
ENDBRANCH   5  10
TORSDOF 2
ENDMDL
MODEL 4
REMARK VINA RESULT:    -5.505     10.043     11.083
REMARK INTER + INTRA:          -6.185
REMARK INTER:                  -5.994
REMARK INTRA:                  -0.191
REMARK UNBOUND:                -0.197
REMARK SMILES Cc1ccc(C(C)C)c(O)c1
REMARK SMILES IDX 1 1 2 2 11 3 9 4 5 5 4 6 3 7 10 8 6 10 7 11 8 12
REMARK H PARENT 10 9
REMARK Flexibility Score: inf
ROOT
ATOM      1  C   UNL     1      70.129  -2.489  -4.527  1.00  0.00     0.044 C 
ATOM      2  C   UNL     1      70.336  -1.147  -3.888  1.00  0.00    -0.047 A 
ATOM      3  C   UNL     1      71.086  -1.034  -2.712  1.00  0.00     0.049 A 
ATOM      4  C   UNL     1      71.254   0.212  -2.087  1.00  0.00     0.119 A 
ATOM      5  C   UNL     1      70.652   1.366  -2.639  1.00  0.00    -0.004 A 
ATOM      6  C   UNL     1      69.885   1.234  -3.811  1.00  0.00     0.008 A 
ATOM      7  C   UNL     1      69.723  -0.010  -4.426  1.00  0.00     0.004 A 
ENDROOT
BRANCH   4   8
ATOM      8  O   UNL     1      72.016   0.292  -0.922  1.00  0.00    -0.508 OA
ATOM      9  H   UNL     1      72.437  -0.528  -0.502  1.00  0.00     0.293 HD
ENDBRANCH   4   8
BRANCH   5  10
ATOM     10  C   UNL     1      70.799   2.744  -2.008  1.00  0.00     0.017 C 
ATOM     11  C   UNL     1      71.526   3.722  -2.939  1.00  0.00     0.012 C 
ATOM     12  C   UNL     1      69.450   3.306  -1.542  1.00  0.00     0.012 C 
ENDBRANCH   5  10
TORSDOF 2
ENDMDL
MODEL 5
REMARK VINA RESULT:    -5.498      1.962      2.824
REMARK INTER + INTRA:          -6.177
REMARK INTER:                  -6.030
REMARK INTRA:                  -0.146
REMARK UNBOUND:                -0.197
REMARK SMILES Cc1ccc(C(C)C)c(O)c1
REMARK SMILES IDX 1 1 2 2 11 3 9 4 5 5 4 6 3 7 10 8 6 10 7 11 8 12
REMARK H PARENT 10 9
REMARK Flexibility Score: inf
ROOT
ATOM      1  C   UNL     1      78.512   3.118   0.268  1.00  0.00     0.044 C 
ATOM      2  C   UNL     1      79.945   2.719   0.074  1.00  0.00    -0.047 A 
ATOM      3  C   UNL     1      80.364   1.419   0.380  1.00  0.00     0.049 A 
ATOM      4  C   UNL     1      81.710   1.048   0.237  1.00  0.00     0.119 A 
ATOM      5  C   UNL     1      82.661   1.995  -0.209  1.00  0.00    -0.004 A 
ATOM      6  C   UNL     1      82.229   3.304  -0.494  1.00  0.00     0.008 A 
ATOM      7  C   UNL     1      80.888   3.663  -0.349  1.00  0.00     0.004 A 
ENDROOT
BRANCH   4   8
ATOM      8  O   UNL     1      82.092  -0.258   0.541  1.00  0.00    -0.508 OA
ATOM      9  H   UNL     1      81.567  -1.059   0.210  1.00  0.00     0.293 HD
ENDBRANCH   4   8
BRANCH   5  10
ATOM     10  C   UNL     1      84.134   1.652  -0.384  1.00  0.00     0.017 C 
ATOM     11  C   UNL     1      84.825   2.596  -1.376  1.00  0.00     0.012 C 
ATOM     12  C   UNL     1      84.874   1.605   0.959  1.00  0.00     0.012 C 
ENDBRANCH   5  10
TORSDOF 2
ENDMDL
MODEL 6
REMARK VINA RESULT:    -5.381      1.640      4.594
REMARK INTER + INTRA:          -6.050
REMARK INTER:                  -5.883
REMARK INTRA:                  -0.167
REMARK UNBOUND:                -0.197
REMARK SMILES Cc1ccc(C(C)C)c(O)c1
REMARK SMILES IDX 1 1 2 2 11 3 9 4 5 5 4 6 3 7 10 8 6 10 7 11 8 12
REMARK H PARENT 10 9
REMARK Flexibility Score: inf
ROOT
ATOM      1  C   UNL     1      85.256   2.774  -1.184  1.00  0.00     0.044 C 
ATOM      2  C   UNL     1      83.851   2.472  -0.751  1.00  0.00    -0.047 A 
ATOM      3  C   UNL     1      83.576   1.324   0.001  1.00  0.00     0.049 A 
ATOM      4  C   UNL     1      82.260   1.015   0.379  1.00  0.00     0.119 A 
ATOM      5  C   UNL     1      81.195   1.860  -0.011  1.00  0.00    -0.004 A 
ATOM      6  C   UNL     1      81.485   3.001  -0.784  1.00  0.00     0.008 A 
ATOM      7  C   UNL     1      82.797   3.300  -1.154  1.00  0.00     0.004 A 
ENDROOT
BRANCH   4   8
ATOM      8  O   UNL     1      82.020  -0.131   1.136  1.00  0.00    -0.508 OA
ATOM      9  H   UNL     1      81.216  -0.208   1.748  1.00  0.00     0.293 HD
ENDBRANCH   4   8
BRANCH   5  10
ATOM     10  C   UNL     1      79.748   1.578   0.369  1.00  0.00     0.017 C 
ATOM     11  C   UNL     1      78.913   2.863   0.426  1.00  0.00     0.012 C 
ATOM     12  C   UNL     1      79.109   0.532  -0.553  1.00  0.00     0.012 C 
ENDBRANCH   5  10
TORSDOF 2
ENDMDL
MODEL 7
REMARK VINA RESULT:    -5.333     10.369     11.455
REMARK INTER + INTRA:          -5.998
REMARK INTER:                  -5.804
REMARK INTRA:                  -0.194
REMARK UNBOUND:                -0.197
REMARK SMILES Cc1ccc(C(C)C)c(O)c1
REMARK SMILES IDX 1 1 2 2 11 3 9 4 5 5 4 6 3 7 10 8 6 10 7 11 8 12
REMARK H PARENT 10 9
REMARK Flexibility Score: inf
ROOT
ATOM      1  C   UNL     1      70.809  -3.159  -4.131  1.00  0.00     0.044 C 
ATOM      2  C   UNL     1      70.631  -1.710  -3.788  1.00  0.00    -0.047 A 
ATOM      3  C   UNL     1      69.798  -0.898  -4.567  1.00  0.00     0.049 A 
ATOM      4  C   UNL     1      69.654   0.468  -4.275  1.00  0.00     0.119 A 
ATOM      5  C   UNL     1      70.364   1.039  -3.193  1.00  0.00    -0.004 A 
ATOM      6  C   UNL     1      71.212   0.214  -2.431  1.00  0.00     0.008 A 
ATOM      7  C   UNL     1      71.349  -1.143  -2.729  1.00  0.00     0.004 A 
ENDROOT
BRANCH   4   8
ATOM      8  O   UNL     1      68.810   1.247  -5.065  1.00  0.00    -0.508 OA
ATOM      9  H   UNL     1      68.104   0.833  -5.663  1.00  0.00     0.293 HD
ENDBRANCH   4   8
BRANCH   5  10
ATOM     10  C   UNL     1      70.248   2.512  -2.828  1.00  0.00     0.017 C 
ATOM     11  C   UNL     1      69.422   2.720  -1.553  1.00  0.00     0.012 C 
ATOM     12  C   UNL     1      71.623   3.184  -2.724  1.00  0.00     0.012 C 
ENDBRANCH   5  10
TORSDOF 2
ENDMDL
MODEL 8
REMARK VINA RESULT:    -5.249      8.062     10.317
REMARK INTER + INTRA:          -5.906
REMARK INTER:                  -5.715
REMARK INTRA:                  -0.191
REMARK UNBOUND:                -0.197
REMARK SMILES Cc1ccc(C(C)C)c(O)c1
REMARK SMILES IDX 1 1 2 2 11 3 9 4 5 5 4 6 3 7 10 8 6 10 7 11 8 12
REMARK H PARENT 10 9
REMARK Flexibility Score: inf
ROOT
ATOM      1  C   UNL     1      69.292   0.569  -5.014  1.00  0.00     0.044 C 
ATOM      2  C   UNL     1      69.936   0.735  -3.669  1.00  0.00    -0.047 A 
ATOM      3  C   UNL     1      69.798   1.936  -2.964  1.00  0.00     0.049 A 
ATOM      4  C   UNL     1      70.428   2.113  -1.722  1.00  0.00     0.119 A 
ATOM      5  C   UNL     1      71.222   1.077  -1.178  1.00  0.00    -0.004 A 
ATOM      6  C   UNL     1      71.368  -0.118  -1.908  1.00  0.00     0.008 A 
ATOM      7  C   UNL     1      70.737  -0.285  -3.142  1.00  0.00     0.004 A 
ENDROOT
BRANCH   4   8
ATOM      8  O   UNL     1      70.263   3.318  -1.040  1.00  0.00    -0.508 OA
ATOM      9  H   UNL     1      69.366   3.788  -0.997  1.00  0.00     0.293 HD
ENDBRANCH   4   8
BRANCH   5  10
ATOM     10  C   UNL     1      71.929   1.209   0.164  1.00  0.00     0.017 C 
ATOM     11  C   UNL     1      71.380   0.218   1.198  1.00  0.00     0.012 C 
ATOM     12  C   UNL     1      73.452   1.090   0.022  1.00  0.00     0.012 C 
ENDBRANCH   5  10
TORSDOF 2
ENDMDL
MODEL 9
REMARK VINA RESULT:    -5.017      8.767     10.375
REMARK INTER + INTRA:          -5.653
REMARK INTER:                  -5.457
REMARK INTRA:                  -0.197
REMARK UNBOUND:                -0.197
REMARK SMILES Cc1ccc(C(C)C)c(O)c1
REMARK SMILES IDX 1 1 2 2 11 3 9 4 5 5 4 6 3 7 10 8 6 10 7 11 8 12
REMARK H PARENT 10 9
REMARK Flexibility Score: inf
ROOT
ATOM      1  C   UNL     1      72.557  -0.207   2.549  1.00  0.00     0.044 C 
ATOM      2  C   UNL     1      72.009   0.457   1.321  1.00  0.00    -0.047 A 
ATOM      3  C   UNL     1      70.627   0.618   1.163  1.00  0.00     0.049 A 
ATOM      4  C   UNL     1      70.103   1.205   0.000  1.00  0.00     0.119 A 
ATOM      5  C   UNL     1      70.973   1.628  -1.031  1.00  0.00    -0.004 A 
ATOM      6  C   UNL     1      72.358   1.443  -0.867  1.00  0.00     0.008 A 
ATOM      7  C   UNL     1      72.870   0.858   0.293  1.00  0.00     0.004 A 
ENDROOT
BRANCH   4   8
ATOM      8  O   UNL     1      68.723   1.359  -0.122  1.00  0.00    -0.508 OA
ATOM      9  H   UNL     1      68.264   1.371  -1.025  1.00  0.00     0.293 HD
ENDBRANCH   4   8
BRANCH   5  10
ATOM     10  C   UNL     1      70.464   2.272  -2.314  1.00  0.00     0.017 C 
ATOM     11  C   UNL     1      71.392   3.394  -2.795  1.00  0.00     0.012 C 
ATOM     12  C   UNL     1      70.218   1.233  -3.415  1.00  0.00     0.012 C 
ENDBRANCH   5  10
TORSDOF 2
ENDMDL
