MODEL 1
REMARK VINA RESULT:    -5.046      0.000      0.000
REMARK INTER + INTRA:          -5.374
REMARK INTER:                  -5.341
REMARK INTRA:                  -0.033
REMARK UNBOUND:                -0.033
REMARK SMILES COc1ccc2ccc(=O)oc2c1
REMARK SMILES IDX 3 1 13 2 12 3 6 4 5 5 4 6 7 7 8 8 9 9 10 10 11 11 2 12 1 13
REMARK H PARENT
REMARK Flexibility Score: inf
ROOT
ATOM      1  C   UNL     1      -6.055 -24.881  35.377  1.00  0.00     0.122 A 
ATOM      2  C   UNL     1      -7.144 -23.995  35.503  1.00  0.00     0.094 A 
ATOM      3  C   UNL     1      -7.627 -23.309  34.383  1.00  0.00     0.142 A 
ATOM      4  C   UNL     1      -7.021 -23.504  33.122  1.00  0.00     0.018 A 
ATOM      5  C   UNL     1      -5.939 -24.385  32.998  1.00  0.00     0.016 A 
ATOM      6  C   UNL     1      -5.462 -25.066  34.121  1.00  0.00     0.047 A 
ATOM      7  C   UNL     1      -7.527 -22.804  32.023  1.00  0.00     0.019 A 
ATOM      8  C   UNL     1      -8.607 -21.940  32.200  1.00  0.00     0.094 A 
ATOM      9  C   UNL     1      -9.157 -21.795  33.479  1.00  0.00     0.336 A 
ATOM     10  O   UNL     1     -10.131 -21.020  33.659  1.00  0.00    -0.246 OA
ATOM     11  O   UNL     1      -8.656 -22.474  34.508  1.00  0.00    -0.423 OA
ENDROOT
BRANCH   1  12
ATOM     12  O   UNL     1      -5.534 -25.591  36.469  1.00  0.00    -0.497 OA
ATOM     13  C   UNL     1      -5.842 -26.951  36.764  1.00  0.00     0.278 C 
ENDBRANCH   1  12
TORSDOF 1
ENDMDL
MODEL 2
REMARK VINA RESULT:    -5.001      2.700      4.778
REMARK INTER + INTRA:          -5.326
REMARK INTER:                  -5.292
REMARK INTRA:                  -0.035
REMARK UNBOUND:                -0.033
REMARK SMILES COc1ccc2ccc(=O)oc2c1
REMARK SMILES IDX 3 1 13 2 12 3 6 4 5 5 4 6 7 7 8 8 9 9 10 10 11 11 2 12 1 13
REMARK H PARENT
REMARK Flexibility Score: inf
ROOT
ATOM      1  C   UNL     1      -5.234 -22.640  34.805  1.00  0.00     0.122 A 
ATOM      2  C   UNL     1      -5.910 -23.578  33.999  1.00  0.00     0.094 A 
ATOM      3  C   UNL     1      -6.187 -24.859  34.490  1.00  0.00     0.142 A 
ATOM      4  C   UNL     1      -5.787 -25.213  35.797  1.00  0.00     0.018 A 
ATOM      5  C   UNL     1      -5.116 -24.280  36.598  1.00  0.00     0.016 A 
ATOM      6  C   UNL     1      -4.843 -23.003  36.100  1.00  0.00     0.047 A 
ATOM      7  C   UNL     1      -6.079 -26.501  36.258  1.00  0.00     0.019 A 
ATOM      8  C   UNL     1      -6.750 -27.391  35.421  1.00  0.00     0.094 A 
ATOM      9  C   UNL     1      -7.115 -26.972  34.137  1.00  0.00     0.336 A 
ATOM     10  O   UNL     1      -7.721 -27.761  33.368  1.00  0.00    -0.246 OA
ATOM     11  O   UNL     1      -6.826 -25.740  33.724  1.00  0.00    -0.423 OA
ENDROOT
BRANCH   1  12
ATOM     12  O   UNL     1      -4.933 -21.344  34.359  1.00  0.00    -0.497 OA
ATOM     13  C   UNL     1      -5.898 -20.420  33.867  1.00  0.00     0.278 C 
ENDBRANCH   1  12
TORSDOF 1
ENDMDL
MODEL 3
REMARK VINA RESULT:    -4.717      1.614      4.727
REMARK INTER + INTRA:          -5.026
REMARK INTER:                  -4.992
REMARK INTRA:                  -0.035
REMARK UNBOUND:                -0.033
REMARK SMILES COc1ccc2ccc(=O)oc2c1
REMARK SMILES IDX 3 1 13 2 12 3 6 4 5 5 4 6 7 7 8 8 9 9 10 10 11 11 2 12 1 13
REMARK H PARENT
REMARK Flexibility Score: inf
ROOT
ATOM      1  C   UNL     1      -8.859 -21.888  32.805  1.00  0.00     0.122 A 
ATOM      2  C   UNL     1      -8.126 -21.971  34.006  1.00  0.00     0.094 A 
ATOM      3  C   UNL     1      -7.006 -22.806  34.092  1.00  0.00     0.142 A 
ATOM      4  C   UNL     1      -6.608 -23.566  32.971  1.00  0.00     0.018 A 
ATOM      5  C   UNL     1      -7.336 -23.483  31.777  1.00  0.00     0.016 A 
ATOM      6  C   UNL     1      -8.454 -22.647  31.700  1.00  0.00     0.047 A 
ATOM      7  C   UNL     1      -5.485 -24.391  33.088  1.00  0.00     0.019 A 
ATOM      8  C   UNL     1      -4.794 -24.437  34.299  1.00  0.00     0.094 A 
ATOM      9  C   UNL     1      -5.246 -23.656  35.368  1.00  0.00     0.336 A 
ATOM     10  O   UNL     1      -4.637 -23.685  36.469  1.00  0.00    -0.246 OA
ATOM     11  O   UNL     1      -6.319 -22.880  35.229  1.00  0.00    -0.423 OA
ENDROOT
BRANCH   1  12
ATOM     12  O   UNL     1      -9.988 -21.067  32.669  1.00  0.00    -0.497 OA
ATOM     13  C   UNL     1     -11.145 -21.147  33.497  1.00  0.00     0.278 C 
ENDBRANCH   1  12
TORSDOF 1
ENDMDL
MODEL 4
REMARK VINA RESULT:    -4.712      3.562      4.506
REMARK INTER + INTRA:          -5.021
REMARK INTER:                  -4.982
REMARK INTRA:                  -0.039
REMARK UNBOUND:                -0.033
REMARK SMILES COc1ccc2ccc(=O)oc2c1
REMARK SMILES IDX 3 1 13 2 12 3 6 4 5 5 4 6 7 7 8 8 9 9 10 10 11 11 2 12 1 13
REMARK H PARENT
REMARK Flexibility Score: inf
ROOT
ATOM      1  C   UNL     1      -5.334 -19.897  35.483  1.00  0.00     0.122 A 
ATOM      2  C   UNL     1      -5.502 -20.622  34.286  1.00  0.00     0.094 A 
ATOM      3  C   UNL     1      -6.783 -20.994  33.861  1.00  0.00     0.142 A 
ATOM      4  C   UNL     1      -7.910 -20.641  34.635  1.00  0.00     0.018 A 
ATOM      5  C   UNL     1      -7.743 -19.921  35.825  1.00  0.00     0.016 A 
ATOM      6  C   UNL     1      -6.460 -19.554  36.242  1.00  0.00     0.047 A 
ATOM      7  C   UNL     1      -9.176 -21.028  34.185  1.00  0.00     0.019 A 
ATOM      8  C   UNL     1      -9.289 -21.743  32.993  1.00  0.00     0.094 A 
ATOM      9  C   UNL     1      -8.128 -22.058  32.278  1.00  0.00     0.336 A 
ATOM     10  O   UNL     1      -8.210 -22.703  31.201  1.00  0.00    -0.246 OA
ATOM     11  O   UNL     1      -6.935 -21.678  32.730  1.00  0.00    -0.423 OA
ENDROOT
BRANCH   1  12
ATOM     12  O   UNL     1      -4.072 -19.502  35.951  1.00  0.00    -0.497 OA
ATOM     13  C   UNL     1      -2.867 -19.607  35.199  1.00  0.00     0.278 C 
ENDBRANCH   1  12
TORSDOF 1
ENDMDL
MODEL 5
REMARK VINA RESULT:    -4.711      2.471      4.132
REMARK INTER + INTRA:          -5.020
REMARK INTER:                  -4.982
REMARK INTRA:                  -0.038
REMARK UNBOUND:                -0.033
REMARK SMILES COc1ccc2ccc(=O)oc2c1
REMARK SMILES IDX 3 1 13 2 12 3 6 4 5 5 4 6 7 7 8 8 9 9 10 10 11 11 2 12 1 13
REMARK H PARENT
REMARK Flexibility Score: inf
ROOT
ATOM      1  C   UNL     1      -5.893 -22.686  34.376  1.00  0.00     0.122 A 
ATOM      2  C   UNL     1      -7.026 -22.939  35.177  1.00  0.00     0.094 A 
ATOM      3  C   UNL     1      -7.452 -24.253  35.399  1.00  0.00     0.142 A 
ATOM      4  C   UNL     1      -6.745 -25.330  34.820  1.00  0.00     0.018 A 
ATOM      5  C   UNL     1      -5.620 -25.078  34.025  1.00  0.00     0.016 A 
ATOM      6  C   UNL     1      -5.200 -23.763  33.807  1.00  0.00     0.047 A 
ATOM      7  C   UNL     1      -7.196 -26.631  35.061  1.00  0.00     0.019 A 
ATOM      8  C   UNL     1      -8.322 -26.828  35.861  1.00  0.00     0.094 A 
ATOM      9  C   UNL     1      -8.973 -25.714  36.402  1.00  0.00     0.336 A 
ATOM     10  O   UNL     1      -9.990 -25.871  37.125  1.00  0.00    -0.246 OA
ATOM     11  O   UNL     1      -8.522 -24.486  36.156  1.00  0.00    -0.423 OA
ENDROOT
BRANCH   1  12
ATOM     12  O   UNL     1      -5.427 -21.388  34.124  1.00  0.00    -0.497 OA
ATOM     13  C   UNL     1      -6.245 -20.222  34.140  1.00  0.00     0.278 C 
ENDBRANCH   1  12
TORSDOF 1
ENDMDL
MODEL 6
REMARK VINA RESULT:    -4.559      4.611      5.934
REMARK INTER + INTRA:          -4.859
REMARK INTER:                  -4.826
REMARK INTRA:                  -0.033
REMARK UNBOUND:                -0.033
REMARK SMILES COc1ccc2ccc(=O)oc2c1
REMARK SMILES IDX 3 1 13 2 12 3 6 4 5 5 4 6 7 7 8 8 9 9 10 10 11 11 2 12 1 13
REMARK H PARENT
REMARK Flexibility Score: inf
ROOT
ATOM      1  C   UNL     1      -7.797 -20.852  34.486  1.00  0.00     0.122 A 
ATOM      2  C   UNL     1      -6.661 -20.620  33.686  1.00  0.00     0.094 A 
ATOM      3  C   UNL     1      -5.686 -19.703  34.096  1.00  0.00     0.142 A 
ATOM      4  C   UNL     1      -5.843 -19.008  35.315  1.00  0.00     0.018 A 
ATOM      5  C   UNL     1      -6.972 -19.240  36.110  1.00  0.00     0.016 A 
ATOM      6  C   UNL     1      -7.941 -20.157  35.694  1.00  0.00     0.047 A 
ATOM      7  C   UNL     1      -4.852 -18.098  35.697  1.00  0.00     0.019 A 
ATOM      8  C   UNL     1      -3.746 -17.904  34.870  1.00  0.00     0.094 A 
ATOM      9  C   UNL     1      -3.657 -18.628  33.675  1.00  0.00     0.336 A 
ATOM     10  O   UNL     1      -2.667 -18.466  32.916  1.00  0.00    -0.246 OA
ATOM     11  O   UNL     1      -4.615 -19.487  33.336  1.00  0.00    -0.423 OA
ENDROOT
BRANCH   1  12
ATOM     12  O   UNL     1      -8.801 -21.761  34.119  1.00  0.00    -0.497 OA
ATOM     13  C   UNL     1      -9.957 -21.419  33.361  1.00  0.00     0.278 C 
ENDBRANCH   1  12
TORSDOF 1
ENDMDL
MODEL 7
REMARK VINA RESULT:    -4.532      2.411      4.665
REMARK INTER + INTRA:          -4.830
REMARK INTER:                  -4.792
REMARK INTRA:                  -0.038
REMARK UNBOUND:                -0.033
REMARK SMILES COc1ccc2ccc(=O)oc2c1
REMARK SMILES IDX 3 1 13 2 12 3 6 4 5 5 4 6 7 7 8 8 9 9 10 10 11 11 2 12 1 13
REMARK H PARENT
REMARK Flexibility Score: inf
ROOT
ATOM      1  C   UNL     1      -6.781 -22.578  35.583  1.00  0.00     0.122 A 
ATOM      2  C   UNL     1      -7.811 -23.536  35.506  1.00  0.00     0.094 A 
ATOM      3  C   UNL     1      -7.509 -24.901  35.559  1.00  0.00     0.142 A 
ATOM      4  C   UNL     1      -6.167 -25.320  35.690  1.00  0.00     0.018 A 
ATOM      5  C   UNL     1      -5.143 -24.367  35.767  1.00  0.00     0.016 A 
ATOM      6  C   UNL     1      -5.453 -23.005  35.713  1.00  0.00     0.047 A 
ATOM      7  C   UNL     1      -5.897 -26.691  35.740  1.00  0.00     0.019 A 
ATOM      8  C   UNL     1      -6.952 -27.599  35.661  1.00  0.00     0.094 A 
ATOM      9  C   UNL     1      -8.258 -27.112  35.532  1.00  0.00     0.336 A 
ATOM     10  O   UNL     1      -9.223 -27.916  35.458  1.00  0.00    -0.246 OA
ATOM     11  O   UNL     1      -8.487 -25.802  35.486  1.00  0.00    -0.423 OA
ENDROOT
BRANCH   1  12
ATOM     12  O   UNL     1      -7.033 -21.198  35.534  1.00  0.00    -0.497 OA
ATOM     13  C   UNL     1      -8.167 -20.610  34.904  1.00  0.00     0.278 C 
ENDBRANCH   1  12
TORSDOF 1
ENDMDL
MODEL 8
REMARK VINA RESULT:    -4.524      1.750      1.886
REMARK INTER + INTRA:          -4.822
REMARK INTER:                  -4.784
REMARK INTRA:                  -0.038
REMARK UNBOUND:                -0.033
REMARK SMILES COc1ccc2ccc(=O)oc2c1
REMARK SMILES IDX 3 1 13 2 12 3 6 4 5 5 4 6 7 7 8 8 9 9 10 10 11 11 2 12 1 13
REMARK H PARENT
REMARK Flexibility Score: inf
ROOT
ATOM      1  C   UNL     1      -6.905 -25.579  34.677  1.00  0.00     0.122 A 
ATOM      2  C   UNL     1      -7.294 -24.551  35.560  1.00  0.00     0.094 A 
ATOM      3  C   UNL     1      -7.335 -23.223  35.120  1.00  0.00     0.142 A 
ATOM      4  C   UNL     1      -6.984 -22.912  33.788  1.00  0.00     0.018 A 
ATOM      5  C   UNL     1      -6.597 -23.934  32.911  1.00  0.00     0.016 A 
ATOM      6  C   UNL     1      -6.559 -25.258  33.358  1.00  0.00     0.047 A 
ATOM      7  C   UNL     1      -7.034 -21.576  33.379  1.00  0.00     0.019 A 
ATOM      8  C   UNL     1      -7.427 -20.596  34.290  1.00  0.00     0.094 A 
ATOM      9  C   UNL     1      -7.760 -20.977  35.595  1.00  0.00     0.336 A 
ATOM     10  O   UNL     1      -8.116 -20.108  36.431  1.00  0.00    -0.246 OA
ATOM     11  O   UNL     1      -7.703 -22.257  35.958  1.00  0.00    -0.423 OA
ENDROOT
BRANCH   1  12
ATOM     12  O   UNL     1      -6.848 -26.925  35.070  1.00  0.00    -0.497 OA
ATOM     13  C   UNL     1      -6.662 -27.363  36.413  1.00  0.00     0.278 C 
ENDBRANCH   1  12
TORSDOF 1
ENDMDL
MODEL 9
REMARK VINA RESULT:    -4.495      3.148      3.745
REMARK INTER + INTRA:          -4.791
REMARK INTER:                  -4.757
REMARK INTRA:                  -0.034
REMARK UNBOUND:                -0.033
REMARK SMILES COc1ccc2ccc(=O)oc2c1
REMARK SMILES IDX 3 1 13 2 12 3 6 4 5 5 4 6 7 7 8 8 9 9 10 10 11 11 2 12 1 13
REMARK H PARENT
REMARK Flexibility Score: inf
ROOT
ATOM      1  C   UNL     1      -8.038 -26.991  35.864  1.00  0.00     0.122 A 
ATOM      2  C   UNL     1      -8.429 -25.679  36.200  1.00  0.00     0.094 A 
ATOM      3  C   UNL     1      -7.474 -24.660  36.289  1.00  0.00     0.142 A 
ATOM      4  C   UNL     1      -6.114 -24.947  36.041  1.00  0.00     0.018 A 
ATOM      5  C   UNL     1      -5.726 -26.251  35.707  1.00  0.00     0.016 A 
ATOM      6  C   UNL     1      -6.686 -27.263  35.621  1.00  0.00     0.047 A 
ATOM      7  C   UNL     1      -5.184 -23.907  36.138  1.00  0.00     0.019 A 
ATOM      8  C   UNL     1      -5.622 -22.627  36.473  1.00  0.00     0.094 A 
ATOM      9  C   UNL     1      -6.986 -22.415  36.705  1.00  0.00     0.336 A 
ATOM     10  O   UNL     1      -7.401 -21.267  37.009  1.00  0.00    -0.246 OA
ATOM     11  O   UNL     1      -7.850 -23.423  36.606  1.00  0.00    -0.423 OA
ENDROOT
BRANCH   1  12
ATOM     12  O   UNL     1      -8.957 -28.046  35.763  1.00  0.00    -0.497 OA
ATOM     13  C   UNL     1     -10.048 -28.077  34.847  1.00  0.00     0.278 C 
ENDBRANCH   1  12
TORSDOF 1
ENDMDL
