MODEL 1
REMARK VINA RESULT:    -5.599      0.000      0.000
REMARK INTER + INTRA:         -10.895
REMARK INTER:                  -9.855
REMARK INTRA:                  -1.041
REMARK UNBOUND:                -1.041
REMARK SMILES CCCCCCCCCCCCCCC(=O)[O-]
REMARK SMILES IDX 9 1 10 2 11 3 12 4 13 5 14 6 15 7 16 8 17 9 8 10 7 11 6 12
REMARK SMILES IDX 5 13 4 14 3 15 2 16 1 17
REMARK H PARENT
REMARK Flexibility Score: inf
ROOT
ATOM      1  C   UNL     1     -12.814  -0.412 -10.726  1.00  0.00     0.000 C 
ENDROOT
BRANCH   1   2
ATOM      2  C   UNL     1     -11.699   0.479 -10.154  1.00  0.00     0.000 C 
BRANCH   2   3
ATOM      3  C   UNL     1     -10.614  -0.330  -9.422  1.00  0.00     0.000 C 
BRANCH   3   4
ATOM      4  C   UNL     1      -9.924  -1.354 -10.338  1.00  0.00     0.000 C 
BRANCH   4   5
ATOM      5  C   UNL     1     -10.224  -2.809  -9.933  1.00  0.00     0.006 C 
BRANCH   5   6
ATOM      6  C   UNL     1     -10.035  -3.039  -8.428  1.00  0.00     0.053 C 
BRANCH   6   7
ATOM      7  C   UNL     1      -9.223  -4.268  -8.152  1.00  0.00     0.041 C 
ATOM      8  O   UNL     1      -9.107  -4.700  -6.975  1.00  0.00    -0.550 OA
ATOM      9  O   UNL     1      -8.623  -4.954  -9.200  1.00  0.00    -0.550 OA
ENDBRANCH   6   7
ENDBRANCH   5   6
ENDBRANCH   4   5
ENDBRANCH   3   4
ENDBRANCH   2   3
ENDBRANCH   1   2
BRANCH   1  10
ATOM     10  C   UNL     1     -14.170   0.311 -10.806  1.00  0.00     0.000 C 
BRANCH  10  11
ATOM     11  C   UNL     1     -15.037   0.079  -9.558  1.00  0.00    -0.000 C 
BRANCH  11  12
ATOM     12  C   UNL     1     -15.104   1.316  -8.649  1.00  0.00    -0.000 C 
BRANCH  12  13
ATOM     13  C   UNL     1     -14.280   2.471  -9.231  1.00  0.00    -0.000 C 
BRANCH  13  14
ATOM     14  C   UNL     1     -13.764   3.394  -8.122  1.00  0.00    -0.000 C 
BRANCH  14  15
ATOM     15  C   UNL     1     -13.022   4.600  -8.709  1.00  0.00    -0.000 C 
BRANCH  15  16
ATOM     16  C   UNL     1     -11.664   4.183  -9.286  1.00  0.00    -0.003 C 
ATOM     17  C   UNL     1     -10.757   3.610  -8.202  1.00  0.00     0.004 C 
ENDBRANCH  15  16
ENDBRANCH  14  15
ENDBRANCH  13  14
ENDBRANCH  12  13
ENDBRANCH  11  12
ENDBRANCH  10  11
ENDBRANCH   1  10
TORSDOF 13
ENDMDL
MODEL 2
REMARK VINA RESULT:    -5.400      1.279      2.175
REMARK INTER + INTRA:         -10.545
REMARK INTER:                  -9.427
REMARK INTRA:                  -1.118
REMARK UNBOUND:                -1.041
REMARK SMILES CCCCCCCCCCCCCCC(=O)[O-]
REMARK SMILES IDX 9 1 10 2 11 3 12 4 13 5 14 6 15 7 16 8 17 9 8 10 7 11 6 12
REMARK SMILES IDX 5 13 4 14 3 15 2 16 1 17
REMARK H PARENT
REMARK Flexibility Score: inf
ROOT
ATOM      1  C   UNL     1     -14.643  -0.638 -10.549  1.00  0.00     0.000 C 
ENDROOT
BRANCH   1   2
ATOM      2  C   UNL     1     -14.295  -2.128 -10.403  1.00  0.00     0.000 C 
BRANCH   2   3
ATOM      3  C   UNL     1     -12.867  -2.449 -10.880  1.00  0.00     0.000 C 
BRANCH   3   4
ATOM      4  C   UNL     1     -11.905  -1.263 -10.702  1.00  0.00     0.000 C 
BRANCH   4   5
ATOM      5  C   UNL     1     -10.595  -1.661  -9.998  1.00  0.00     0.006 C 
BRANCH   5   6
ATOM      6  C   UNL     1     -10.558  -3.155  -9.650  1.00  0.00     0.053 C 
BRANCH   6   7
ATOM      7  C   UNL     1      -9.649  -3.431  -8.491  1.00  0.00     0.041 C 
ATOM      8  O   UNL     1     -10.108  -3.934  -7.432  1.00  0.00    -0.550 OA
ATOM      9  O   UNL     1      -8.290  -3.165  -8.595  1.00  0.00    -0.550 OA
ENDBRANCH   6   7
ENDBRANCH   5   6
ENDBRANCH   4   5
ENDBRANCH   3   4
ENDBRANCH   2   3
ENDBRANCH   1   2
BRANCH   1  10
ATOM     10  C   UNL     1     -15.125  -0.008  -9.230  1.00  0.00     0.000 C 
BRANCH  10  11
ATOM     11  C   UNL     1     -14.918   1.515  -9.192  1.00  0.00    -0.000 C 
BRANCH  11  12
ATOM     12  C   UNL     1     -13.719   1.968 -10.038  1.00  0.00    -0.000 C 
BRANCH  12  13
ATOM     13  C   UNL     1     -12.414   1.867  -9.238  1.00  0.00    -0.000 C 
BRANCH  13  14
ATOM     14  C   UNL     1     -11.457   3.009  -9.597  1.00  0.00    -0.000 C 
BRANCH  14  15
ATOM     15  C   UNL     1     -11.107   3.844  -8.359  1.00  0.00    -0.000 C 
BRANCH  15  16
ATOM     16  C   UNL     1     -12.372   4.243  -7.590  1.00  0.00    -0.003 C 
ATOM     17  C   UNL     1     -13.288   5.111  -8.448  1.00  0.00     0.004 C 
ENDBRANCH  15  16
ENDBRANCH  14  15
ENDBRANCH  13  14
ENDBRANCH  12  13
ENDBRANCH  11  12
ENDBRANCH  10  11
ENDBRANCH   1  10
TORSDOF 13
ENDMDL
MODEL 3
REMARK VINA RESULT:    -5.333      2.813      6.379
REMARK INTER + INTRA:         -10.426
REMARK INTER:                  -9.391
REMARK INTRA:                  -1.035
REMARK UNBOUND:                -1.041
REMARK SMILES CCCCCCCCCCCCCCC(=O)[O-]
REMARK SMILES IDX 9 1 10 2 11 3 12 4 13 5 14 6 15 7 16 8 17 9 8 10 7 11 6 12
REMARK SMILES IDX 5 13 4 14 3 15 2 16 1 17
REMARK H PARENT
REMARK Flexibility Score: inf
ROOT
ATOM      1  C   UNL     1     -14.911  -0.025  -9.634  1.00  0.00     0.000 C 
ENDROOT
BRANCH   1   2
ATOM      2  C   UNL     1     -15.125   1.107  -8.617  1.00  0.00     0.000 C 
BRANCH   2   3
ATOM      3  C   UNL     1     -14.658   2.474  -9.150  1.00  0.00     0.000 C 
BRANCH   3   4
ATOM      4  C   UNL     1     -13.889   3.286  -8.096  1.00  0.00     0.000 C 
BRANCH   4   5
ATOM      5  C   UNL     1     -13.168   4.507  -8.696  1.00  0.00     0.006 C 
BRANCH   5   6
ATOM      6  C   UNL     1     -11.936   4.104  -9.516  1.00  0.00     0.053 C 
BRANCH   6   7
ATOM      7  C   UNL     1     -11.038   3.181  -8.751  1.00  0.00     0.041 C 
ATOM      8  O   UNL     1     -10.261   3.638  -7.872  1.00  0.00    -0.550 OA
ATOM      9  O   UNL     1     -11.085   1.813  -8.984  1.00  0.00    -0.550 OA
ENDBRANCH   6   7
ENDBRANCH   5   6
ENDBRANCH   4   5
ENDBRANCH   3   4
ENDBRANCH   2   3
ENDBRANCH   1   2
BRANCH   1  10
ATOM     10  C   UNL     1     -13.891   0.342 -10.727  1.00  0.00     0.000 C 
BRANCH  10  11
ATOM     11  C   UNL     1     -12.818  -0.741 -10.920  1.00  0.00    -0.000 C 
BRANCH  11  12
ATOM     12  C   UNL     1     -13.386  -2.163 -10.800  1.00  0.00    -0.000 C 
BRANCH  12  13
ATOM     13  C   UNL     1     -12.313  -3.144 -10.311  1.00  0.00    -0.000 C 
BRANCH  13  14
ATOM     14  C   UNL     1     -11.091  -2.396  -9.765  1.00  0.00    -0.000 C 
BRANCH  14  15
ATOM     15  C   UNL     1      -9.820  -3.241  -9.906  1.00  0.00    -0.000 C 
BRANCH  15  16
ATOM     16  C   UNL     1      -9.046  -3.296  -8.584  1.00  0.00    -0.003 C 
ATOM     17  C   UNL     1      -9.857  -4.001  -7.501  1.00  0.00     0.004 C 
ENDBRANCH  15  16
ENDBRANCH  14  15
ENDBRANCH  13  14
ENDBRANCH  12  13
ENDBRANCH  11  12
ENDBRANCH  10  11
ENDBRANCH   1  10
TORSDOF 13
ENDMDL
MODEL 4
REMARK VINA RESULT:    -4.822     15.600     17.836
REMARK INTER + INTRA:          -9.528
REMARK INTER:                  -8.562
REMARK INTRA:                  -0.966
REMARK UNBOUND:                -1.041
REMARK SMILES CCCCCCCCCCCCCCC(=O)[O-]
REMARK SMILES IDX 9 1 10 2 11 3 12 4 13 5 14 6 15 7 16 8 17 9 8 10 7 11 6 12
REMARK SMILES IDX 5 13 4 14 3 15 2 16 1 17
REMARK H PARENT
REMARK Flexibility Score: inf
ROOT
ATOM      1  C   UNL     1      -9.890   5.740   7.877  1.00  0.00     0.000 C 
ENDROOT
BRANCH   1   2
ATOM      2  C   UNL     1      -9.143   5.743   6.534  1.00  0.00     0.000 C 
BRANCH   2   3
ATOM      3  C   UNL     1      -9.299   7.074   5.776  1.00  0.00     0.000 C 
BRANCH   3   4
ATOM      4  C   UNL     1      -8.324   8.153   6.272  1.00  0.00     0.000 C 
BRANCH   4   5
ATOM      5  C   UNL     1      -7.905   9.132   5.160  1.00  0.00     0.006 C 
BRANCH   5   6
ATOM      6  C   UNL     1      -7.696  10.555   5.694  1.00  0.00     0.053 C 
BRANCH   6   7
ATOM      7  C   UNL     1      -6.632  10.603   6.748  1.00  0.00     0.041 C 
ATOM      8  O   UNL     1      -6.920  10.951   7.923  1.00  0.00    -0.550 OA
ATOM      9  O   UNL     1      -5.331  10.229   6.439  1.00  0.00    -0.550 OA
ENDBRANCH   6   7
ENDBRANCH   5   6
ENDBRANCH   4   5
ENDBRANCH   3   4
ENDBRANCH   2   3
ENDBRANCH   1   2
BRANCH   1  10
ATOM     10  C   UNL     1     -10.415   4.345   8.261  1.00  0.00     0.000 C 
BRANCH  10  11
ATOM     11  C   UNL     1     -11.463   3.815   7.270  1.00  0.00    -0.000 C 
BRANCH  11  12
ATOM     12  C   UNL     1     -12.604   4.815   7.027  1.00  0.00    -0.000 C 
BRANCH  12  13
ATOM     13  C   UNL     1     -12.845   5.018   5.526  1.00  0.00    -0.000 C 
BRANCH  13  14
ATOM     14  C   UNL     1     -13.321   6.446   5.232  1.00  0.00    -0.000 C 
BRANCH  14  15
ATOM     15  C   UNL     1     -14.776   6.454   4.753  1.00  0.00    -0.000 C 
BRANCH  15  16
ATOM     16  C   UNL     1     -14.888   5.913   3.323  1.00  0.00    -0.003 C 
ATOM     17  C   UNL     1     -13.968   6.673   2.373  1.00  0.00     0.004 C 
ENDBRANCH  15  16
ENDBRANCH  14  15
ENDBRANCH  13  14
ENDBRANCH  12  13
ENDBRANCH  11  12
ENDBRANCH  10  11
ENDBRANCH   1  10
TORSDOF 13
ENDMDL
MODEL 5
REMARK VINA RESULT:    -4.745     15.449     17.668
REMARK INTER + INTRA:          -9.391
REMARK INTER:                  -8.481
REMARK INTRA:                  -0.910
REMARK UNBOUND:                -1.041
REMARK SMILES CCCCCCCCCCCCCCC(=O)[O-]
REMARK SMILES IDX 9 1 10 2 11 3 12 4 13 5 14 6 15 7 16 8 17 9 8 10 7 11 6 12
REMARK SMILES IDX 5 13 4 14 3 15 2 16 1 17
REMARK H PARENT
REMARK Flexibility Score: inf
ROOT
ATOM      1  C   UNL     1      -9.866   5.947   7.771  1.00  0.00     0.000 C 
ENDROOT
BRANCH   1   2
ATOM      2  C   UNL     1     -10.256   4.549   8.278  1.00  0.00     0.000 C 
BRANCH   2   3
ATOM      3  C   UNL     1     -11.766   4.278   8.155  1.00  0.00     0.000 C 
BRANCH   3   4
ATOM      4  C   UNL     1     -12.210   4.071   6.698  1.00  0.00     0.000 C 
BRANCH   4   5
ATOM      5  C   UNL     1     -13.081   5.227   6.172  1.00  0.00     0.006 C 
BRANCH   5   6
ATOM      6  C   UNL     1     -12.619   5.717   4.794  1.00  0.00     0.053 C 
BRANCH   6   7
ATOM      7  C   UNL     1     -13.778   6.018   3.894  1.00  0.00     0.041 C 
ATOM      8  O   UNL     1     -14.941   6.110   4.369  1.00  0.00    -0.550 OA
ATOM      9  O   UNL     1     -13.570   6.231   2.538  1.00  0.00    -0.550 OA
ENDBRANCH   6   7
ENDBRANCH   5   6
ENDBRANCH   4   5
ENDBRANCH   3   4
ENDBRANCH   2   3
ENDBRANCH   1   2
BRANCH   1  10
ATOM     10  C   UNL     1      -9.034   5.898   6.477  1.00  0.00     0.000 C 
BRANCH  10  11
ATOM     11  C   UNL     1      -9.207   7.159   5.615  1.00  0.00    -0.000 C 
BRANCH  11  12
ATOM     12  C   UNL     1      -8.313   8.318   6.079  1.00  0.00    -0.000 C 
BRANCH  12  13
ATOM     13  C   UNL     1      -8.487   9.543   5.172  1.00  0.00    -0.000 C 
BRANCH  13  14
ATOM     14  C   UNL     1      -7.760  10.763   5.748  1.00  0.00    -0.000 C 
BRANCH  14  15
ATOM     15  C   UNL     1      -6.302  10.809   5.277  1.00  0.00    -0.000 C 
BRANCH  15  16
ATOM     16  C   UNL     1      -5.338  10.625   6.455  1.00  0.00    -0.003 C 
ATOM     17  C   UNL     1      -3.932  11.096   6.094  1.00  0.00     0.004 C 
ENDBRANCH  15  16
ENDBRANCH  14  15
ENDBRANCH  13  14
ENDBRANCH  12  13
ENDBRANCH  11  12
ENDBRANCH  10  11
ENDBRANCH   1  10
TORSDOF 13
ENDMDL
MODEL 6
REMARK VINA RESULT:    -4.715     15.626     17.845
REMARK INTER + INTRA:          -9.339
REMARK INTER:                  -8.369
REMARK INTRA:                  -0.969
REMARK UNBOUND:                -1.041
REMARK SMILES CCCCCCCCCCCCCCC(=O)[O-]
REMARK SMILES IDX 9 1 10 2 11 3 12 4 13 5 14 6 15 7 16 8 17 9 8 10 7 11 6 12
REMARK SMILES IDX 5 13 4 14 3 15 2 16 1 17
REMARK H PARENT
REMARK Flexibility Score: inf
ROOT
ATOM      1  C   UNL     1      -9.878   5.966   7.912  1.00  0.00     0.000 C 
ENDROOT
BRANCH   1   2
ATOM      2  C   UNL     1     -10.254   4.581   8.463  1.00  0.00     0.000 C 
BRANCH   2   3
ATOM      3  C   UNL     1     -11.734   4.234   8.226  1.00  0.00     0.000 C 
BRANCH   3   4
ATOM      4  C   UNL     1     -12.066   4.057   6.735  1.00  0.00     0.000 C 
BRANCH   4   5
ATOM      5  C   UNL     1     -12.951   5.191   6.185  1.00  0.00     0.006 C 
BRANCH   5   6
ATOM      6  C   UNL     1     -12.532   5.616   4.772  1.00  0.00     0.053 C 
BRANCH   6   7
ATOM      7  C   UNL     1     -13.717   5.943   3.916  1.00  0.00     0.041 C 
ATOM      8  O   UNL     1     -13.590   6.039   2.668  1.00  0.00    -0.550 OA
ATOM      9  O   UNL     1     -14.969   6.106   4.496  1.00  0.00    -0.550 OA
ENDBRANCH   6   7
ENDBRANCH   5   6
ENDBRANCH   4   5
ENDBRANCH   3   4
ENDBRANCH   2   3
ENDBRANCH   1   2
BRANCH   1  10
ATOM     10  C   UNL     1      -9.128   5.887   6.570  1.00  0.00     0.000 C 
BRANCH  10  11
ATOM     11  C   UNL     1      -9.256   7.177   5.745  1.00  0.00    -0.000 C 
BRANCH  11  12
ATOM     12  C   UNL     1      -8.187   8.218   6.108  1.00  0.00    -0.000 C 
BRANCH  12  13
ATOM     13  C   UNL     1      -8.009   9.239   4.977  1.00  0.00    -0.000 C 
BRANCH  13  14
ATOM     14  C   UNL     1      -7.188  10.446   5.447  1.00  0.00    -0.000 C 
BRANCH  14  15
ATOM     15  C   UNL     1      -6.509  10.160   6.791  1.00  0.00    -0.000 C 
BRANCH  15  16
ATOM     16  C   UNL     1      -6.774  11.290   7.793  1.00  0.00    -0.003 C 
ATOM     17  C   UNL     1      -8.097  11.990   7.496  1.00  0.00     0.004 C 
ENDBRANCH  15  16
ENDBRANCH  14  15
ENDBRANCH  13  14
ENDBRANCH  12  13
ENDBRANCH  11  12
ENDBRANCH  10  11
ENDBRANCH   1  10
TORSDOF 13
ENDMDL
MODEL 7
REMARK VINA RESULT:    -4.569     16.127     18.206
REMARK INTER + INTRA:          -9.081
REMARK INTER:                  -8.289
REMARK INTRA:                  -0.793
REMARK UNBOUND:                -1.041
REMARK SMILES CCCCCCCCCCCCCCC(=O)[O-]
REMARK SMILES IDX 9 1 10 2 11 3 12 4 13 5 14 6 15 7 16 8 17 9 8 10 7 11 6 12
REMARK SMILES IDX 5 13 4 14 3 15 2 16 1 17
REMARK H PARENT
REMARK Flexibility Score: inf
ROOT
ATOM      1  C   UNL     1      -9.334   7.041   5.746  1.00  0.00     0.000 C 
ENDROOT
BRANCH   1   2
ATOM      2  C   UNL     1      -9.113   5.738   6.531  1.00  0.00     0.000 C 
BRANCH   2   3
ATOM      3  C   UNL     1     -10.024   5.633   7.767  1.00  0.00     0.000 C 
BRANCH   3   4
ATOM      4  C   UNL     1     -10.597   4.220   7.958  1.00  0.00     0.000 C 
BRANCH   4   5
ATOM      5  C   UNL     1     -11.617   3.840   6.869  1.00  0.00     0.006 C 
BRANCH   5   6
ATOM      6  C   UNL     1     -12.847   4.757   6.885  1.00  0.00     0.053 C 
BRANCH   6   7
ATOM      7  C   UNL     1     -13.055   5.431   5.563  1.00  0.00     0.041 C 
ATOM      8  O   UNL     1     -12.156   5.389   4.683  1.00  0.00    -0.550 OA
ATOM      9  O   UNL     1     -14.255   6.075   5.292  1.00  0.00    -0.550 OA
ENDBRANCH   6   7
ENDBRANCH   5   6
ENDBRANCH   4   5
ENDBRANCH   3   4
ENDBRANCH   2   3
ENDBRANCH   1   2
BRANCH   1  10
ATOM     10  C   UNL     1      -8.304   8.129   6.099  1.00  0.00     0.000 C 
BRANCH  10  11
ATOM     11  C   UNL     1      -8.129   9.163   4.975  1.00  0.00    -0.000 C 
BRANCH  11  12
ATOM     12  C   UNL     1      -7.925  10.588   5.512  1.00  0.00    -0.000 C 
BRANCH  12  13
ATOM     13  C   UNL     1      -6.450  11.001   5.424  1.00  0.00    -0.000 C 
BRANCH  13  14
ATOM     14  C   UNL     1      -5.683  10.577   6.682  1.00  0.00    -0.000 C 
BRANCH  14  15
ATOM     15  C   UNL     1      -4.257  11.138   6.673  1.00  0.00    -0.000 C 
BRANCH  15  16
ATOM     16  C   UNL     1      -3.853  11.592   5.265  1.00  0.00    -0.003 C 
ATOM     17  C   UNL     1      -2.347  11.815   5.170  1.00  0.00     0.004 C 
ENDBRANCH  15  16
ENDBRANCH  14  15
ENDBRANCH  13  14
ENDBRANCH  12  13
ENDBRANCH  11  12
ENDBRANCH  10  11
ENDBRANCH   1  10
TORSDOF 13
ENDMDL
MODEL 8
REMARK VINA RESULT:    -4.564     16.593     18.366
REMARK INTER + INTRA:          -9.073
REMARK INTER:                  -7.837
REMARK INTRA:                  -1.236
REMARK UNBOUND:                -1.041
REMARK SMILES CCCCCCCCCCCCCCC(=O)[O-]
REMARK SMILES IDX 9 1 10 2 11 3 12 4 13 5 14 6 15 7 16 8 17 9 8 10 7 11 6 12
REMARK SMILES IDX 5 13 4 14 3 15 2 16 1 17
REMARK H PARENT
REMARK Flexibility Score: inf
ROOT
ATOM      1  C   UNL     1      -9.098   5.714   6.538  1.00  0.00     0.000 C 
ENDROOT
BRANCH   1   2
ATOM      2  C   UNL     1      -9.247   6.996   5.704  1.00  0.00     0.000 C 
BRANCH   2   3
ATOM      3  C   UNL     1      -8.344   8.136   6.207  1.00  0.00     0.000 C 
BRANCH   3   4
ATOM      4  C   UNL     1      -7.965   9.124   5.093  1.00  0.00     0.000 C 
BRANCH   4   5
ATOM      5  C   UNL     1      -8.168  10.593   5.507  1.00  0.00     0.006 C 
BRANCH   5   6
ATOM      6  C   UNL     1      -6.840  11.355   5.599  1.00  0.00     0.053 C 
BRANCH   6   7
ATOM      7  C   UNL     1      -6.021  10.904   6.770  1.00  0.00     0.041 C 
ATOM      8  O   UNL     1      -6.510  10.927   7.930  1.00  0.00    -0.550 OA
ATOM      9  O   UNL     1      -4.732  10.427   6.575  1.00  0.00    -0.550 OA
ENDBRANCH   6   7
ENDBRANCH   5   6
ENDBRANCH   4   5
ENDBRANCH   3   4
ENDBRANCH   2   3
ENDBRANCH   1   2
BRANCH   1  10
ATOM     10  C   UNL     1      -9.943   5.740   7.824  1.00  0.00     0.000 C 
BRANCH  10  11
ATOM     11  C   UNL     1     -10.610   4.388   8.121  1.00  0.00    -0.000 C 
BRANCH  11  12
ATOM     12  C   UNL     1     -11.456   3.876   6.945  1.00  0.00    -0.000 C 
BRANCH  12  13
ATOM     13  C   UNL     1     -12.687   4.765   6.726  1.00  0.00    -0.000 C 
BRANCH  13  14
ATOM     14  C   UNL     1     -12.664   5.405   5.334  1.00  0.00    -0.000 C 
BRANCH  14  15
ATOM     15  C   UNL     1     -13.343   6.779   5.348  1.00  0.00    -0.000 C 
BRANCH  15  16
ATOM     16  C   UNL     1     -12.462   7.821   6.046  1.00  0.00    -0.003 C 
ATOM     17  C   UNL     1     -12.928   9.239   5.728  1.00  0.00     0.004 C 
ENDBRANCH  15  16
ENDBRANCH  14  15
ENDBRANCH  13  14
ENDBRANCH  12  13
ENDBRANCH  11  12
ENDBRANCH  10  11
ENDBRANCH   1  10
TORSDOF 13
ENDMDL
