MODEL 1
REMARK VINA RESULT:    -3.649      0.000      0.000
REMARK INTER + INTRA:          -4.152
REMARK INTER:                  -4.395
REMARK INTRA:                   0.244
REMARK UNBOUND:                 0.244
REMARK SMILES CC[C@H](C)[C@H]([NH3+])C(=O)[O-]
REMARK SMILES IDX 3 1 4 2 5 3 6 4 7 8 8 9 9 10 2 11 1 12
REMARK H PARENT 6 5 6 6 6 7
REMARK Flexibility Score: inf
ROOT
ATOM      1  C   UNL     1     100.810  54.137  50.214  1.00  0.00     0.050 C 
ATOM      2  C   UNL     1     100.079  52.821  50.548  1.00  0.00     0.014 C 
ENDROOT
BRANCH   1   3
ATOM      3  C   UNL     1     102.004  53.871  49.241  1.00  0.00     0.230 C 
BRANCH   3   4
ATOM      4  N   UNL     1     102.600  55.120  48.744  1.00  0.00    -0.350 N 
ATOM      5  H   UNL     1     103.194  55.564  49.482  1.00  0.00     0.345 HD
ATOM      6  H   UNL     1     103.172  54.936  47.890  1.00  0.00     0.345 HD
ATOM      7  H   UNL     1     101.845  55.790  48.469  1.00  0.00     0.345 HD
ENDBRANCH   3   4
BRANCH   3   8
ATOM      8  C   UNL     1     101.567  53.033  48.064  1.00  0.00     0.099 C 
ATOM      9  O   UNL     1     101.258  53.583  46.974  1.00  0.00    -0.544 OA
ATOM     10  O   UNL     1     101.499  51.649  48.177  1.00  0.00    -0.544 OA
ENDBRANCH   3   8
ENDBRANCH   1   3
BRANCH   1  11
ATOM     11  C   UNL     1     101.262  54.824  51.537  1.00  0.00     0.006 C 
ATOM     12  C   UNL     1     100.578  54.235  52.771  1.00  0.00     0.004 C 
ENDBRANCH   1  11
TORSDOF 4
ENDMDL
MODEL 2
REMARK VINA RESULT:    -3.546      2.362      3.161
REMARK INTER + INTRA:          -4.028
REMARK INTER:                  -3.962
REMARK INTRA:                  -0.066
REMARK UNBOUND:                 0.244
REMARK SMILES CC[C@H](C)[C@H]([NH3+])C(=O)[O-]
REMARK SMILES IDX 3 1 4 2 5 3 6 4 7 8 8 9 9 10 2 11 1 12
REMARK H PARENT 6 5 6 6 6 7
REMARK Flexibility Score: inf
ROOT
ATOM      1  C   UNL     1     101.771  53.022  48.422  1.00  0.00     0.050 C 
ATOM      2  C   UNL     1     101.796  54.494  47.962  1.00  0.00     0.014 C 
ENDROOT
BRANCH   1   3
ATOM      3  C   UNL     1     101.790  52.059  47.191  1.00  0.00     0.230 C 
BRANCH   3   4
ATOM      4  N   UNL     1     100.435  51.690  46.758  1.00  0.00    -0.350 N 
ATOM      5  H   UNL     1     100.429  50.727  46.348  1.00  0.00     0.345 HD
ATOM      6  H   UNL     1      99.770  51.738  47.561  1.00  0.00     0.345 HD
ATOM      7  H   UNL     1     100.095  52.367  46.036  1.00  0.00     0.345 HD
ENDBRANCH   3   4
BRANCH   3   8
ATOM      8  C   UNL     1     102.568  50.803  47.500  1.00  0.00     0.099 C 
ATOM      9  O   UNL     1     101.971  49.773  47.911  1.00  0.00    -0.544 OA
ATOM     10  O   UNL     1     103.948  50.775  47.334  1.00  0.00    -0.544 OA
ENDBRANCH   3   8
ENDBRANCH   1   3
BRANCH   1  11
ATOM     11  C   UNL     1     100.532  52.792  49.338  1.00  0.00     0.006 C 
ATOM     12  C   UNL     1     100.573  53.639  50.610  1.00  0.00     0.004 C 
ENDBRANCH   1  11
TORSDOF 4
ENDMDL
MODEL 3
REMARK VINA RESULT:    -3.525      4.117      4.963
REMARK INTER + INTRA:          -4.003
REMARK INTER:                  -3.901
REMARK INTRA:                  -0.101
REMARK UNBOUND:                 0.244
REMARK SMILES CC[C@H](C)[C@H]([NH3+])C(=O)[O-]
REMARK SMILES IDX 3 1 4 2 5 3 6 4 7 8 8 9 9 10 2 11 1 12
REMARK H PARENT 6 5 6 6 6 7
REMARK Flexibility Score: inf
ROOT
ATOM      1  C   UNL     1     100.067  52.944  52.221  1.00  0.00     0.050 C 
ATOM      2  C   UNL     1     100.335  53.323  50.750  1.00  0.00     0.014 C 
ENDROOT
BRANCH   1   3
ATOM      3  C   UNL     1      98.546  52.666  52.451  1.00  0.00     0.230 C 
BRANCH   3   4
ATOM      4  N   UNL     1      97.899  53.739  53.220  1.00  0.00    -0.350 N 
ATOM      5  H   UNL     1      97.388  54.393  52.584  1.00  0.00     0.345 HD
ATOM      6  H   UNL     1      97.238  53.336  53.922  1.00  0.00     0.345 HD
ATOM      7  H   UNL     1      98.620  54.280  53.753  1.00  0.00     0.345 HD
ENDBRANCH   3   4
BRANCH   3   8
ATOM      8  C   UNL     1      98.338  51.354  53.166  1.00  0.00     0.099 C 
ATOM      9  O   UNL     1      99.321  50.727  53.640  1.00  0.00    -0.544 OA
ATOM     10  O   UNL     1      97.059  50.827  53.305  1.00  0.00    -0.544 OA
ENDBRANCH   3   8
ENDBRANCH   1   3
BRANCH   1  11
ATOM     11  C   UNL     1     100.613  54.070  53.149  1.00  0.00     0.006 C 
ATOM     12  C   UNL     1     101.446  55.105  52.392  1.00  0.00     0.004 C 
ENDBRANCH   1  11
TORSDOF 4
ENDMDL
MODEL 4
REMARK VINA RESULT:    -3.469      2.219      3.995
REMARK INTER + INTRA:          -3.935
REMARK INTER:                  -3.862
REMARK INTRA:                  -0.072
REMARK UNBOUND:                 0.244
REMARK SMILES CC[C@H](C)[C@H]([NH3+])C(=O)[O-]
REMARK SMILES IDX 3 1 4 2 5 3 6 4 7 8 8 9 9 10 2 11 1 12
REMARK H PARENT 6 5 6 6 6 7
REMARK Flexibility Score: inf
ROOT
ATOM      1  C   UNL     1     101.316  51.999  47.704  1.00  0.00     0.050 C 
ATOM      2  C   UNL     1     100.600  51.665  46.380  1.00  0.00     0.014 C 
ENDROOT
BRANCH   1   3
ATOM      3  C   UNL     1     101.063  53.488  48.106  1.00  0.00     0.230 C 
BRANCH   3   4
ATOM      4  N   UNL     1     102.083  54.391  47.554  1.00  0.00    -0.350 N 
ATOM      5  H   UNL     1     101.716  55.368  47.491  1.00  0.00     0.345 HD
ATOM      6  H   UNL     1     102.944  54.373  48.146  1.00  0.00     0.345 HD
ATOM      7  H   UNL     1     102.361  54.072  46.597  1.00  0.00     0.345 HD
ENDBRANCH   3   4
BRANCH   3   8
ATOM      8  C   UNL     1     101.029  53.645  49.607  1.00  0.00     0.099 C 
ATOM      9  O   UNL     1     100.324  52.873  50.309  1.00  0.00    -0.544 OA
ATOM     10  O   UNL     1     101.773  54.644  50.224  1.00  0.00    -0.544 OA
ENDBRANCH   3   8
ENDBRANCH   1   3
BRANCH   1  11
ATOM     11  C   UNL     1     102.832  51.671  47.564  1.00  0.00     0.006 C 
ATOM     12  C   UNL     1     103.097  50.179  47.362  1.00  0.00     0.004 C 
ENDBRANCH   1  11
TORSDOF 4
ENDMDL
MODEL 5
REMARK VINA RESULT:    -3.274      3.427      4.263
REMARK INTER + INTRA:          -3.700
REMARK INTER:                  -3.710
REMARK INTRA:                   0.010
REMARK UNBOUND:                 0.244
REMARK SMILES CC[C@H](C)[C@H]([NH3+])C(=O)[O-]
REMARK SMILES IDX 3 1 4 2 5 3 6 4 7 8 8 9 9 10 2 11 1 12
REMARK H PARENT 6 5 6 6 6 7
REMARK Flexibility Score: inf
ROOT
ATOM      1  C   UNL     1     101.186  53.971  51.065  1.00  0.00     0.050 C 
ATOM      2  C   UNL     1     100.147  53.097  50.333  1.00  0.00     0.014 C 
ENDROOT
BRANCH   1   3
ATOM      3  C   UNL     1     100.555  54.631  52.334  1.00  0.00     0.230 C 
BRANCH   3   4
ATOM      4  N   UNL     1     101.578  55.125  53.266  1.00  0.00    -0.350 N 
ATOM      5  H   UNL     1     101.207  55.147  54.243  1.00  0.00     0.345 HD
ATOM      6  H   UNL     1     102.431  54.524  53.223  1.00  0.00     0.345 HD
ATOM      7  H   UNL     1     101.870  56.092  52.994  1.00  0.00     0.345 HD
ENDBRANCH   3   4
BRANCH   3   8
ATOM      8  C   UNL     1      99.658  53.658  53.060  1.00  0.00     0.099 C 
ATOM      9  O   UNL     1      98.412  53.840  53.084  1.00  0.00    -0.544 OA
ATOM     10  O   UNL     1     100.201  52.555  53.710  1.00  0.00    -0.544 OA
ENDBRANCH   3   8
ENDBRANCH   1   3
BRANCH   1  11
ATOM     11  C   UNL     1     101.762  55.023  50.072  1.00  0.00     0.006 C 
ATOM     12  C   UNL     1     101.887  54.483  48.647  1.00  0.00     0.004 C 
ENDBRANCH   1  11
TORSDOF 4
ENDMDL
MODEL 6
REMARK VINA RESULT:    -3.263      1.339      1.583
REMARK INTER + INTRA:          -3.687
REMARK INTER:                  -3.699
REMARK INTRA:                   0.013
REMARK UNBOUND:                 0.244
REMARK SMILES CC[C@H](C)[C@H]([NH3+])C(=O)[O-]
REMARK SMILES IDX 3 1 4 2 5 3 6 4 7 8 8 9 9 10 2 11 1 12
REMARK H PARENT 6 5 6 6 6 7
REMARK Flexibility Score: inf
ROOT
ATOM      1  C   UNL     1     100.921  53.596  49.021  1.00  0.00     0.050 C 
ATOM      2  C   UNL     1     100.365  52.463  49.906  1.00  0.00     0.014 C 
ENDROOT
BRANCH   1   3
ATOM      3  C   UNL     1     101.929  53.030  47.968  1.00  0.00     0.230 C 
BRANCH   3   4
ATOM      4  N   UNL     1     102.192  53.987  46.885  1.00  0.00    -0.350 N 
ATOM      5  H   UNL     1     101.650  53.732  46.027  1.00  0.00     0.345 HD
ATOM      6  H   UNL     1     101.945  54.956  47.186  1.00  0.00     0.345 HD
ATOM      7  H   UNL     1     103.212  53.989  46.651  1.00  0.00     0.345 HD
ENDBRANCH   3   4
BRANCH   3   8
ATOM      8  C   UNL     1     101.419  51.740  47.372  1.00  0.00     0.099 C 
ATOM      9  O   UNL     1     100.495  51.759  46.517  1.00  0.00    -0.544 OA
ATOM     10  O   UNL     1     101.965  50.523  47.764  1.00  0.00    -0.544 OA
ENDBRANCH   3   8
ENDBRANCH   1   3
BRANCH   1  11
ATOM     11  C   UNL     1     101.560  54.690  49.927  1.00  0.00     0.006 C 
ATOM     12  C   UNL     1     101.151  54.553  51.394  1.00  0.00     0.004 C 
ENDBRANCH   1  11
TORSDOF 4
ENDMDL
MODEL 7
REMARK VINA RESULT:    -3.252      1.886      2.417
REMARK INTER + INTRA:          -3.674
REMARK INTER:                  -3.994
REMARK INTRA:                   0.320
REMARK UNBOUND:                 0.244
REMARK SMILES CC[C@H](C)[C@H]([NH3+])C(=O)[O-]
REMARK SMILES IDX 3 1 4 2 5 3 6 4 7 8 8 9 9 10 2 11 1 12
REMARK H PARENT 6 5 6 6 6 7
REMARK Flexibility Score: inf
ROOT
ATOM      1  C   UNL     1     100.978  53.771  51.409  1.00  0.00     0.050 C 
ATOM      2  C   UNL     1     101.252  55.124  52.094  1.00  0.00     0.014 C 
ENDROOT
BRANCH   1   3
ATOM      3  C   UNL     1     100.623  53.979  49.901  1.00  0.00     0.230 C 
BRANCH   3   4
ATOM      4  N   UNL     1      99.945  52.808  49.326  1.00  0.00    -0.350 N 
ATOM      5  H   UNL     1     100.241  51.933  49.816  1.00  0.00     0.345 HD
ATOM      6  H   UNL     1      98.909  52.919  49.391  1.00  0.00     0.345 HD
ATOM      7  H   UNL     1     100.182  52.723  48.310  1.00  0.00     0.345 HD
ENDBRANCH   3   4
BRANCH   3   8
ATOM      8  C   UNL     1     101.861  54.277  49.090  1.00  0.00     0.099 C 
ATOM      9  O   UNL     1     102.771  55.005  49.566  1.00  0.00    -0.544 OA
ATOM     10  O   UNL     1     102.004  53.751  47.811  1.00  0.00    -0.544 OA
ENDBRANCH   3   8
ENDBRANCH   1   3
BRANCH   1  11
ATOM     11  C   UNL     1      99.856  53.020  52.185  1.00  0.00     0.006 C 
ATOM     12  C   UNL     1     100.105  52.983  53.693  1.00  0.00     0.004 C 
ENDBRANCH   1  11
TORSDOF 4
ENDMDL
MODEL 8
REMARK VINA RESULT:    -3.196      3.181      3.949
REMARK INTER + INTRA:          -3.606
REMARK INTER:                  -3.499
REMARK INTRA:                  -0.108
REMARK UNBOUND:                 0.244
REMARK SMILES CC[C@H](C)[C@H]([NH3+])C(=O)[O-]
REMARK SMILES IDX 3 1 4 2 5 3 6 4 7 8 8 9 9 10 2 11 1 12
REMARK H PARENT 6 5 6 6 6 7
REMARK Flexibility Score: inf
ROOT
ATOM      1  C   UNL     1      99.556  53.415  52.864  1.00  0.00     0.050 C 
ATOM      2  C   UNL     1      98.139  53.890  53.247  1.00  0.00     0.014 C 
ENDROOT
BRANCH   1   3
ATOM      3  C   UNL     1      99.973  53.994  51.473  1.00  0.00     0.230 C 
BRANCH   3   4
ATOM      4  N   UNL     1     100.129  52.940  50.460  1.00  0.00    -0.350 N 
ATOM      5  H   UNL     1     100.963  53.129  49.858  1.00  0.00     0.345 HD
ATOM      6  H   UNL     1     100.225  52.006  50.918  1.00  0.00     0.345 HD
ATOM      7  H   UNL     1      99.277  52.899  49.855  1.00  0.00     0.345 HD
ENDBRANCH   3   4
BRANCH   3   8
ATOM      8  C   UNL     1     101.263  54.771  51.577  1.00  0.00     0.099 C 
ATOM      9  O   UNL     1     101.702  55.125  52.702  1.00  0.00    -0.544 OA
ATOM     10  O   UNL     1     101.974  55.105  50.429  1.00  0.00    -0.544 OA
ENDBRANCH   3   8
ENDBRANCH   1   3
BRANCH   1  11
ATOM     11  C   UNL     1      99.602  51.859  52.898  1.00  0.00     0.006 C 
ATOM     12  C   UNL     1      98.251  51.236  53.251  1.00  0.00     0.004 C 
ENDBRANCH   1  11
TORSDOF 4
ENDMDL
MODEL 9
REMARK VINA RESULT:    -2.870     12.336     13.043
REMARK INTER + INTRA:          -3.214
REMARK INTER:                  -3.194
REMARK INTRA:                  -0.020
REMARK UNBOUND:                 0.244
REMARK SMILES CC[C@H](C)[C@H]([NH3+])C(=O)[O-]
REMARK SMILES IDX 3 1 4 2 5 3 6 4 7 8 8 9 9 10 2 11 1 12
REMARK H PARENT 6 5 6 6 6 7
REMARK Flexibility Score: inf
ROOT
ATOM      1  C   UNL     1      95.113  52.409  38.998  1.00  0.00     0.050 C 
ATOM      2  C   UNL     1      94.114  51.234  38.981  1.00  0.00     0.014 C 
ENDROOT
BRANCH   1   3
ATOM      3  C   UNL     1      94.392  53.751  38.648  1.00  0.00     0.230 C 
BRANCH   3   4
ATOM      4  N   UNL     1      95.222  54.923  38.961  1.00  0.00    -0.350 N 
ATOM      5  H   UNL     1      95.642  55.320  38.089  1.00  0.00     0.345 HD
ATOM      6  H   UNL     1      94.655  55.652  39.447  1.00  0.00     0.345 HD
ATOM      7  H   UNL     1      95.994  54.648  39.612  1.00  0.00     0.345 HD
ENDBRANCH   3   4
BRANCH   3   8
ATOM      8  C   UNL     1      93.080  53.868  39.385  1.00  0.00     0.099 C 
ATOM      9  O   UNL     1      93.067  54.087  40.625  1.00  0.00    -0.544 OA
ATOM     10  O   UNL     1      91.877  53.730  38.701  1.00  0.00    -0.544 OA
ENDBRANCH   3   8
ENDBRANCH   1   3
BRANCH   1  11
ATOM     11  C   UNL     1      96.290  52.096  38.027  1.00  0.00     0.006 C 
ATOM     12  C   UNL     1      97.308  51.126  38.627  1.00  0.00     0.004 C 
ENDBRANCH   1  11
TORSDOF 4
ENDMDL
