MODEL 1
REMARK VINA RESULT:    -4.289      0.000      0.000
REMARK INTER + INTRA:          -6.176
REMARK INTER:                  -5.292
REMARK INTRA:                  -0.884
REMARK UNBOUND:                -0.884
REMARK SMILES C=CC(=C)CCC=C(C)C
REMARK SMILES IDX 5 1 6 2 7 3 9 4 8 5 10 6 3 7 4 8 2 9 1 10
REMARK H PARENT
REMARK Flexibility Score: inf
ROOT
ATOM      1  C   UNL     1     111.199 110.476 115.066  1.00  0.00     0.039 C 
ENDROOT
BRANCH   1   2
ATOM      2  C   UNL     1     109.916 111.055 114.457  1.00  0.00     0.032 C 
BRANCH   2   3
ATOM      3  C   UNL     1     109.465 110.250 113.262  1.00  0.00    -0.028 C 
ATOM      4  C   UNL     1     110.150 112.054 111.677  1.00  0.00     0.039 C 
ATOM      5  C   UNL     1     109.567 110.697 111.993  1.00  0.00    -0.080 C 
ATOM      6  C   UNL     1     109.084 109.812 110.873  1.00  0.00     0.039 C 
ENDBRANCH   2   3
ENDBRANCH   1   2
BRANCH   1   7
ATOM      7  C   UNL     1     112.418 111.209 114.549  1.00  0.00    -0.055 C 
ATOM      8  C   UNL     1     112.743 112.391 115.084  1.00  0.00     0.012 C 
BRANCH   7   9
ATOM      9  C   UNL     1     113.297 110.638 113.495  1.00  0.00    -0.005 C 
ATOM     10  C   UNL     1     113.061 109.483 112.872  1.00  0.00     0.009 C 
ENDBRANCH   7   9
ENDBRANCH   1   7
TORSDOF 4
ENDMDL
MODEL 2
REMARK VINA RESULT:    -4.280      1.909      3.546
REMARK INTER + INTRA:          -6.166
REMARK INTER:                  -5.235
REMARK INTRA:                  -0.931
REMARK UNBOUND:                -0.884
REMARK SMILES C=CC(=C)CCC=C(C)C
REMARK SMILES IDX 5 1 6 2 7 3 9 4 8 5 10 6 3 7 4 8 2 9 1 10
REMARK H PARENT
REMARK Flexibility Score: inf
ROOT
ATOM      1  C   UNL     1     110.505 109.816 110.648  1.00  0.00     0.039 C 
ENDROOT
BRANCH   1   2
ATOM      2  C   UNL     1     109.196 110.240 111.324  1.00  0.00     0.032 C 
BRANCH   2   3
ATOM      3  C   UNL     1     109.378 110.402 112.815  1.00  0.00    -0.028 C 
ATOM      4  C   UNL     1     109.157 112.885 112.662  1.00  0.00     0.039 C 
ATOM      5  C   UNL     1     109.362 111.602 113.432  1.00  0.00    -0.080 C 
ATOM      6  C   UNL     1     109.554 111.650 114.926  1.00  0.00     0.039 C 
ENDBRANCH   2   3
ENDBRANCH   1   2
BRANCH   1   7
ATOM      7  C   UNL     1     111.360 111.023 110.327  1.00  0.00    -0.055 C 
ATOM      8  C   UNL     1     110.901 111.936 109.465  1.00  0.00     0.012 C 
BRANCH   7   9
ATOM      9  C   UNL     1     112.678 111.254 110.974  1.00  0.00    -0.005 C 
ATOM     10  C   UNL     1     112.857 112.026 112.048  1.00  0.00     0.009 C 
ENDBRANCH   7   9
ENDBRANCH   1   7
TORSDOF 4
ENDMDL
MODEL 3
REMARK VINA RESULT:    -4.277      3.799      4.904
REMARK INTER + INTRA:          -6.162
REMARK INTER:                  -5.279
REMARK INTRA:                  -0.883
REMARK UNBOUND:                -0.884
REMARK SMILES C=CC(=C)CCC=C(C)C
REMARK SMILES IDX 5 1 6 2 7 3 9 4 8 5 10 6 3 7 4 8 2 9 1 10
REMARK H PARENT
REMARK Flexibility Score: inf
ROOT
ATOM      1  C   UNL     1     111.232 110.579 110.163  1.00  0.00     0.039 C 
ENDROOT
BRANCH   1   2
ATOM      2  C   UNL     1     109.932 111.133 109.570  1.00  0.00     0.032 C 
BRANCH   2   3
ATOM      3  C   UNL     1     109.471 110.306 108.394  1.00  0.00    -0.028 C 
ATOM      4  C   UNL     1     110.117 112.091 106.771  1.00  0.00     0.039 C 
ATOM      5  C   UNL     1     109.551 110.734 107.116  1.00  0.00    -0.080 C 
ATOM      6  C   UNL     1     109.060 109.828 106.017  1.00  0.00     0.039 C 
ENDBRANCH   2   3
ENDBRANCH   1   2
BRANCH   1   7
ATOM      7  C   UNL     1     112.432 111.322 109.617  1.00  0.00    -0.055 C 
ATOM      8  C   UNL     1     112.794 112.480 110.180  1.00  0.00     0.012 C 
BRANCH   7   9
ATOM      9  C   UNL     1     113.256 110.785 108.502  1.00  0.00    -0.005 C 
ATOM     10  C   UNL     1     113.093 109.572 107.971  1.00  0.00     0.009 C 
ENDBRANCH   7   9
ENDBRANCH   1   7
TORSDOF 4
ENDMDL
MODEL 4
REMARK VINA RESULT:    -4.242      1.677      3.654
REMARK INTER + INTRA:          -6.118
REMARK INTER:                  -5.263
REMARK INTRA:                  -0.855
REMARK UNBOUND:                -0.884
REMARK SMILES C=CC(=C)CCC=C(C)C
REMARK SMILES IDX 5 1 6 2 7 3 9 4 8 5 10 6 3 7 4 8 2 9 1 10
REMARK H PARENT
REMARK Flexibility Score: inf
ROOT
ATOM      1  C   UNL     1     111.086 111.891 115.002  1.00  0.00     0.039 C 
ENDROOT
BRANCH   1   2
ATOM      2  C   UNL     1     112.347 111.272 114.388  1.00  0.00     0.032 C 
BRANCH   2   3
ATOM      3  C   UNL     1     112.810 112.055 113.182  1.00  0.00    -0.028 C 
ATOM      4  C   UNL     1     112.179 110.205 111.628  1.00  0.00     0.039 C 
ATOM      5  C   UNL     1     112.738 111.576 111.922  1.00  0.00    -0.080 C 
ATOM      6  C   UNL     1     113.230 112.441 110.791  1.00  0.00     0.039 C 
ENDBRANCH   2   3
ENDBRANCH   1   2
BRANCH   1   7
ATOM      7  C   UNL     1     109.844 111.178 114.513  1.00  0.00    -0.055 C 
ATOM      8  C   UNL     1     109.409 110.099 115.173  1.00  0.00     0.012 C 
BRANCH   7   9
ATOM      9  C   UNL     1     109.058 111.664 113.348  1.00  0.00    -0.005 C 
ATOM     10  C   UNL     1     109.186 112.882 112.818  1.00  0.00     0.009 C 
ENDBRANCH   7   9
ENDBRANCH   1   7
TORSDOF 4
ENDMDL
MODEL 5
REMARK VINA RESULT:    -4.234      3.919      5.826
REMARK INTER + INTRA:          -6.108
REMARK INTER:                  -5.214
REMARK INTRA:                  -0.894
REMARK UNBOUND:                -0.884
REMARK SMILES C=CC(=C)CCC=C(C)C
REMARK SMILES IDX 5 1 6 2 7 3 9 4 8 5 10 6 3 7 4 8 2 9 1 10
REMARK H PARENT
REMARK Flexibility Score: inf
ROOT
ATOM      1  C   UNL     1     111.156 110.309 106.387  1.00  0.00     0.039 C 
ENDROOT
BRANCH   1   2
ATOM      2  C   UNL     1     109.879 110.931 106.963  1.00  0.00     0.032 C 
BRANCH   2   3
ATOM      3  C   UNL     1     109.465 110.245 108.243  1.00  0.00    -0.028 C 
ATOM      4  C   UNL     1     109.786 112.336 109.571  1.00  0.00     0.039 C 
ATOM      5  C   UNL     1     109.420 110.877 109.435  1.00  0.00    -0.080 C 
ATOM      6  C   UNL     1     108.994 110.096 110.651  1.00  0.00     0.039 C 
ENDBRANCH   2   3
ENDBRANCH   1   2
BRANCH   1   7
ATOM      7  C   UNL     1     112.386 110.926 107.014  1.00  0.00    -0.055 C 
ATOM      8  C   UNL     1     112.773 112.147 106.626  1.00  0.00     0.012 C 
BRANCH   7   9
ATOM      9  C   UNL     1     113.157 110.243 108.086  1.00  0.00    -0.005 C 
ATOM     10  C   UNL     1     113.114 110.590 109.373  1.00  0.00     0.009 C 
ENDBRANCH   7   9
ENDBRANCH   1   7
TORSDOF 4
ENDMDL
MODEL 6
REMARK VINA RESULT:    -4.232      3.980      6.167
REMARK INTER + INTRA:          -6.106
REMARK INTER:                  -5.243
REMARK INTRA:                  -0.864
REMARK UNBOUND:                -0.884
REMARK SMILES C=CC(=C)CCC=C(C)C
REMARK SMILES IDX 5 1 6 2 7 3 9 4 8 5 10 6 3 7 4 8 2 9 1 10
REMARK H PARENT
REMARK Flexibility Score: inf
ROOT
ATOM      1  C   UNL     1     110.984 111.780 110.096  1.00  0.00     0.039 C 
ENDROOT
BRANCH   1   2
ATOM      2  C   UNL     1     112.300 111.233 109.531  1.00  0.00     0.032 C 
BRANCH   2   3
ATOM      3  C   UNL     1     112.756 112.033 108.334  1.00  0.00    -0.028 C 
ATOM      4  C   UNL     1     112.251 110.150 106.772  1.00  0.00     0.039 C 
ATOM      5  C   UNL     1     112.738 111.547 107.074  1.00  0.00    -0.080 C 
ATOM      6  C   UNL     1     113.217 112.431 105.952  1.00  0.00     0.039 C 
ENDBRANCH   2   3
ENDBRANCH   1   2
BRANCH   1   7
ATOM      7  C   UNL     1     109.801 111.024 109.533  1.00  0.00    -0.055 C 
ATOM      8  C   UNL     1     109.371 109.925 110.162  1.00  0.00     0.012 C 
BRANCH   7   9
ATOM      9  C   UNL     1     109.065 111.488 108.327  1.00  0.00    -0.005 C 
ATOM     10  C   UNL     1     109.118 112.734 107.855  1.00  0.00     0.009 C 
ENDBRANCH   7   9
ENDBRANCH   1   7
TORSDOF 4
ENDMDL
MODEL 7
REMARK VINA RESULT:    -4.224      1.186      4.596
REMARK INTER + INTRA:          -6.096
REMARK INTER:                  -5.240
REMARK INTRA:                  -0.856
REMARK UNBOUND:                -0.884
REMARK SMILES C=CC(=C)CCC=C(C)C
REMARK SMILES IDX 5 1 6 2 7 3 9 4 8 5 10 6 3 7 4 8 2 9 1 10
REMARK H PARENT
REMARK Flexibility Score: inf
ROOT
ATOM      1  C   UNL     1     111.115 111.495 111.126  1.00  0.00     0.039 C 
ENDROOT
BRANCH   1   2
ATOM      2  C   UNL     1     112.432 110.990 111.728  1.00  0.00     0.032 C 
BRANCH   2   3
ATOM      3  C   UNL     1     112.830 111.805 112.934  1.00  0.00    -0.028 C 
ATOM      4  C   UNL     1     112.345 109.909 114.486  1.00  0.00     0.039 C 
ATOM      5  C   UNL     1     112.793 111.322 114.194  1.00  0.00    -0.080 C 
ATOM      6  C   UNL     1     113.212 112.222 115.327  1.00  0.00     0.039 C 
ENDBRANCH   2   3
ENDBRANCH   1   2
BRANCH   1   7
ATOM      7  C   UNL     1     109.958 110.619 111.552  1.00  0.00    -0.055 C 
ATOM      8  C   UNL     1     109.663 109.532 110.831  1.00  0.00     0.012 C 
BRANCH   7   9
ATOM      9  C   UNL     1     109.162 110.898 112.777  1.00  0.00    -0.005 C 
ATOM     10  C   UNL     1     109.122 112.084 113.386  1.00  0.00     0.009 C 
ENDBRANCH   7   9
ENDBRANCH   1   7
TORSDOF 4
ENDMDL
MODEL 8
REMARK VINA RESULT:    -4.218      2.801      4.687
REMARK INTER + INTRA:          -6.089
REMARK INTER:                  -5.158
REMARK INTRA:                  -0.931
REMARK UNBOUND:                -0.884
REMARK SMILES C=CC(=C)CCC=C(C)C
REMARK SMILES IDX 5 1 6 2 7 3 9 4 8 5 10 6 3 7 4 8 2 9 1 10
REMARK H PARENT
REMARK Flexibility Score: inf
ROOT
ATOM      1  C   UNL     1     110.352 109.766 115.458  1.00  0.00     0.039 C 
ENDROOT
BRANCH   1   2
ATOM      2  C   UNL     1     109.101 110.269 116.186  1.00  0.00     0.032 C 
BRANCH   2   3
ATOM      3  C   UNL     1     109.343 110.389 117.672  1.00  0.00    -0.028 C 
ATOM      4  C   UNL     1     109.202 112.881 117.584  1.00  0.00     0.039 C 
ATOM      5  C   UNL     1     109.391 111.573 118.317  1.00  0.00    -0.080 C 
ATOM      6  C   UNL     1     109.640 111.579 119.803  1.00  0.00     0.039 C 
ENDBRANCH   2   3
ENDBRANCH   1   2
BRANCH   1   7
ATOM      7  C   UNL     1     111.342 110.891 115.249  1.00  0.00    -0.055 C 
ATOM      8  C   UNL     1     111.034 111.881 114.404  1.00  0.00     0.012 C 
BRANCH   7   9
ATOM      9  C   UNL     1     112.631 110.960 115.987  1.00  0.00    -0.005 C 
ATOM     10  C   UNL     1     112.929 111.906 116.879  1.00  0.00     0.009 C 
ENDBRANCH   7   9
ENDBRANCH   1   7
TORSDOF 4
ENDMDL
MODEL 9
REMARK VINA RESULT:    -4.163      1.515      3.784
REMARK INTER + INTRA:          -6.021
REMARK INTER:                  -5.097
REMARK INTRA:                  -0.924
REMARK UNBOUND:                -0.884
REMARK SMILES C=CC(=C)CCC=C(C)C
REMARK SMILES IDX 5 1 6 2 7 3 9 4 8 5 10 6 3 7 4 8 2 9 1 10
REMARK H PARENT
REMARK Flexibility Score: inf
ROOT
ATOM      1  C   UNL     1     110.041 112.176 112.312  1.00  0.00     0.039 C 
ENDROOT
BRANCH   1   2
ATOM      2  C   UNL     1     109.079 112.278 113.500  1.00  0.00     0.032 C 
BRANCH   2   3
ATOM      3  C   UNL     1     109.829 112.324 114.810  1.00  0.00    -0.028 C 
ATOM      4  C   UNL     1     109.028 110.046 115.449  1.00  0.00     0.039 C 
ATOM      5  C   UNL     1     109.811 111.312 115.704  1.00  0.00    -0.080 C 
ATOM      6  C   UNL     1     110.594 111.463 116.982  1.00  0.00     0.039 C 
ENDBRANCH   2   3
ENDBRANCH   1   2
BRANCH   1   7
ATOM      7  C   UNL     1     110.385 110.731 112.021  1.00  0.00    -0.055 C 
ATOM      8  C   UNL     1     109.423 109.905 111.595  1.00  0.00     0.012 C 
BRANCH   7   9
ATOM      9  C   UNL     1     111.770 110.205 112.147  1.00  0.00    -0.005 C 
ATOM     10  C   UNL     1     112.370 109.955 113.312  1.00  0.00     0.009 C 
ENDBRANCH   7   9
ENDBRANCH   1   7
TORSDOF 4
ENDMDL
