MODEL 1
REMARK VINA RESULT:    -3.679      0.000      0.000
REMARK INTER + INTRA:         -14.396
REMARK INTER:                  -9.702
REMARK INTRA:                  -4.694
REMARK UNBOUND:                -4.694
REMARK SMILES CCCCCCCCCCCCCCCCCCCCCCCCCCCCCC(=O)[O-]
REMARK SMILES IDX 16 1 17 2 18 3 19 4 20 5 21 6 22 7 23 8 24 9 25 10 26 11
REMARK SMILES IDX 27 12 28 13 29 14 30 15 31 16 32 17 15 18 14 19 13 20 12 21
REMARK SMILES IDX 11 22 10 23 9 24 8 25 7 26 6 27 5 28 4 29 3 30 2 31 1 32
REMARK H PARENT
REMARK Flexibility Score: inf
ROOT
ATOM      1  C   UNL     1      27.264  62.085  81.248  1.00  0.00     0.000 C 
ENDROOT
BRANCH   1   2
ATOM      2  C   UNL     1      27.646  61.769  82.707  1.00  0.00     0.000 C 
BRANCH   2   3
ATOM      3  C   UNL     1      26.477  61.329  83.609  1.00  0.00     0.000 C 
BRANCH   3   4
ATOM      4  C   UNL     1      26.448  59.813  83.856  1.00  0.00     0.000 C 
BRANCH   4   5
ATOM      5  C   UNL     1      27.804  59.166  83.532  1.00  0.00     0.000 C 
BRANCH   5   6
ATOM      6  C   UNL     1      27.665  57.831  82.769  1.00  0.00     0.000 C 
BRANCH   6   7
ATOM      7  C   UNL     1      28.765  57.576  81.720  1.00  0.00     0.000 C 
BRANCH   7   8
ATOM      8  C   UNL     1      29.832  58.681  81.591  1.00  0.00     0.000 C 
BRANCH   8   9
ATOM      9  C   UNL     1      31.261  58.257  81.976  1.00  0.00     0.000 C 
BRANCH   9  10
ATOM     10  C   UNL     1      31.291  57.060  82.942  1.00  0.00     0.000 C 
BRANCH  10  11
ATOM     11  C   UNL     1      31.546  57.484  84.398  1.00  0.00     0.000 C 
BRANCH  11  12
ATOM     12  C   UNL     1      30.374  57.131  85.331  1.00  0.00     0.000 C 
BRANCH  12  13
ATOM     13  C   UNL     1      29.931  58.320  86.203  1.00  0.00     0.006 C 
BRANCH  13  14
ATOM     14  C   UNL     1      28.636  58.078  86.994  1.00  0.00     0.053 C 
BRANCH  14  15
ATOM     15  C   UNL     1      28.030  59.356  87.486  1.00  0.00     0.041 C 
ATOM     16  O   UNL     1      28.433  60.460  87.035  1.00  0.00    -0.550 OA
ATOM     17  O   UNL     1      27.038  59.328  88.460  1.00  0.00    -0.550 OA
ENDBRANCH  14  15
ENDBRANCH  13  14
ENDBRANCH  12  13
ENDBRANCH  11  12
ENDBRANCH  10  11
ENDBRANCH   9  10
ENDBRANCH   8   9
ENDBRANCH   7   8
ENDBRANCH   6   7
ENDBRANCH   5   6
ENDBRANCH   4   5
ENDBRANCH   3   4
ENDBRANCH   2   3
ENDBRANCH   1   2
BRANCH   1  18
ATOM     18  C   UNL     1      25.754  62.068  80.946  1.00  0.00     0.000 C 
BRANCH  18  19
ATOM     19  C   UNL     1      25.340  61.032  79.879  1.00  0.00     0.000 C 
BRANCH  19  20
ATOM     20  C   UNL     1      25.971  59.648  80.111  1.00  0.00     0.000 C 
BRANCH  20  21
ATOM     21  C   UNL     1      26.849  59.185  78.935  1.00  0.00     0.000 C 
BRANCH  21  22
ATOM     22  C   UNL     1      28.076  60.085  78.676  1.00  0.00     0.000 C 
BRANCH  22  23
ATOM     23  C   UNL     1      28.124  60.616  77.234  1.00  0.00     0.000 C 
BRANCH  23  24
ATOM     24  C   UNL     1      26.909  60.129  76.429  1.00  0.00    -0.000 C 
BRANCH  24  25
ATOM     25  C   UNL     1      26.008  61.277  75.946  1.00  0.00    -0.000 C 
BRANCH  25  26
ATOM     26  C   UNL     1      26.178  62.607  76.708  1.00  0.00    -0.000 C 
BRANCH  26  27
ATOM     27  C   UNL     1      24.846  63.298  77.069  1.00  0.00    -0.000 C 
BRANCH  27  28
ATOM     28  C   UNL     1      24.763  64.732  76.526  1.00  0.00    -0.000 C 
BRANCH  28  29
ATOM     29  C   UNL     1      24.779  64.742  74.991  1.00  0.00    -0.000 C 
BRANCH  29  30
ATOM     30  C   UNL     1      25.797  65.743  74.420  1.00  0.00    -0.000 C 
BRANCH  30  31
ATOM     31  C   UNL     1      26.567  66.494  75.517  1.00  0.00    -0.003 C 
ATOM     32  C   UNL     1      25.864  67.797  75.889  1.00  0.00     0.004 C 
ENDBRANCH  30  31
ENDBRANCH  29  30
ENDBRANCH  28  29
ENDBRANCH  27  28
ENDBRANCH  26  27
ENDBRANCH  25  26
ENDBRANCH  24  25
ENDBRANCH  23  24
ENDBRANCH  22  23
ENDBRANCH  21  22
ENDBRANCH  20  21
ENDBRANCH  19  20
ENDBRANCH  18  19
ENDBRANCH   1  18
TORSDOF 28
ENDMDL
MODEL 2
REMARK VINA RESULT:    -3.626      3.744      9.665
REMARK INTER + INTRA:         -14.255
REMARK INTER:                  -9.394
REMARK INTRA:                  -4.861
REMARK UNBOUND:                -4.694
REMARK SMILES CCCCCCCCCCCCCCCCCCCCCCCCCCCCCC(=O)[O-]
REMARK SMILES IDX 16 1 17 2 18 3 19 4 20 5 21 6 22 7 23 8 24 9 25 10 26 11
REMARK SMILES IDX 27 12 28 13 29 14 30 15 31 16 32 17 15 18 14 19 13 20 12 21
REMARK SMILES IDX 11 22 10 23 9 24 8 25 7 26 6 27 5 28 4 29 3 30 2 31 1 32
REMARK H PARENT
REMARK Flexibility Score: inf
ROOT
ATOM      1  C   UNL     1      27.374  61.884  81.325  1.00  0.00     0.000 C 
ENDROOT
BRANCH   1   2
ATOM      2  C   UNL     1      26.259  61.528  80.323  1.00  0.00     0.000 C 
BRANCH   2   3
ATOM      3  C   UNL     1      26.744  61.132  78.915  1.00  0.00     0.000 C 
BRANCH   3   4
ATOM      4  C   UNL     1      28.232  61.433  78.688  1.00  0.00     0.000 C 
BRANCH   4   5
ATOM      5  C   UNL     1      28.838  60.498  77.628  1.00  0.00     0.000 C 
BRANCH   5   6
ATOM      6  C   UNL     1      27.802  59.527  77.022  1.00  0.00     0.000 C 
BRANCH   6   7
ATOM      7  C   UNL     1      27.803  59.471  75.482  1.00  0.00     0.000 C 
BRANCH   7   8
ATOM      8  C   UNL     1      26.511  59.958  74.796  1.00  0.00     0.000 C 
BRANCH   8   9
ATOM      9  C   UNL     1      25.236  59.848  75.652  1.00  0.00     0.000 C 
BRANCH   9  10
ATOM     10  C   UNL     1      24.584  61.213  75.932  1.00  0.00     0.000 C 
BRANCH  10  11
ATOM     11  C   UNL     1      25.446  62.389  75.443  1.00  0.00     0.000 C 
BRANCH  11  12
ATOM     12  C   UNL     1      25.470  63.560  76.442  1.00  0.00     0.000 C 
BRANCH  12  13
ATOM     13  C   UNL     1      24.382  64.610  76.150  1.00  0.00     0.006 C 
BRANCH  13  14
ATOM     14  C   UNL     1      24.773  66.048  76.526  1.00  0.00     0.053 C 
BRANCH  14  15
ATOM     15  C   UNL     1      25.706  66.657  75.526  1.00  0.00     0.041 C 
ATOM     16  O   UNL     1      26.495  67.575  75.875  1.00  0.00    -0.550 OA
ATOM     17  O   UNL     1      25.688  66.230  74.203  1.00  0.00    -0.550 OA
ENDBRANCH  14  15
ENDBRANCH  13  14
ENDBRANCH  12  13
ENDBRANCH  11  12
ENDBRANCH  10  11
ENDBRANCH   9  10
ENDBRANCH   8   9
ENDBRANCH   7   8
ENDBRANCH   6   7
ENDBRANCH   5   6
ENDBRANCH   4   5
ENDBRANCH   3   4
ENDBRANCH   2   3
ENDBRANCH   1   2
BRANCH   1  18
ATOM     18  C   UNL     1      27.682  60.802  82.377  1.00  0.00     0.000 C 
BRANCH  18  19
ATOM     19  C   UNL     1      26.722  59.593  82.331  1.00  0.00     0.000 C 
BRANCH  19  20
ATOM     20  C   UNL     1      27.451  58.256  82.121  1.00  0.00     0.000 C 
BRANCH  20  21
ATOM     21  C   UNL     1      27.881  58.032  80.661  1.00  0.00     0.000 C 
BRANCH  21  22
ATOM     22  C   UNL     1      29.363  57.631  80.497  1.00  0.00     0.000 C 
BRANCH  22  23
ATOM     23  C   UNL     1      30.303  58.847  80.468  1.00  0.00     0.000 C 
BRANCH  23  24
ATOM     24  C   UNL     1      31.419  58.704  81.515  1.00  0.00    -0.000 C 
BRANCH  24  25
ATOM     25  C   UNL     1      31.403  57.342  82.228  1.00  0.00    -0.000 C 
BRANCH  25  26
ATOM     26  C   UNL     1      31.503  57.406  83.765  1.00  0.00    -0.000 C 
BRANCH  26  27
ATOM     27  C   UNL     1      30.156  57.202  84.489  1.00  0.00    -0.000 C 
BRANCH  27  28
ATOM     28  C   UNL     1      29.578  58.517  85.034  1.00  0.00    -0.000 C 
BRANCH  28  29
ATOM     29  C   UNL     1      28.502  58.247  86.096  1.00  0.00    -0.000 C 
BRANCH  29  30
ATOM     30  C   UNL     1      27.527  59.426  86.257  1.00  0.00    -0.000 C 
BRANCH  30  31
ATOM     31  C   UNL     1      27.645  60.108  87.629  1.00  0.00    -0.003 C 
ATOM     32  C   UNL     1      28.137  61.546  87.488  1.00  0.00     0.004 C 
ENDBRANCH  30  31
ENDBRANCH  29  30
ENDBRANCH  28  29
ENDBRANCH  27  28
ENDBRANCH  26  27
ENDBRANCH  25  26
ENDBRANCH  24  25
ENDBRANCH  23  24
ENDBRANCH  22  23
ENDBRANCH  21  22
ENDBRANCH  20  21
ENDBRANCH  19  20
ENDBRANCH  18  19
ENDBRANCH   1  18
TORSDOF 28
ENDMDL
MODEL 3
REMARK VINA RESULT:    -3.611      2.222      3.834
REMARK INTER + INTRA:         -14.215
REMARK INTER:                 -10.538
REMARK INTRA:                  -3.678
REMARK UNBOUND:                -4.694
REMARK SMILES CCCCCCCCCCCCCCCCCCCCCCCCCCCCCC(=O)[O-]
REMARK SMILES IDX 16 1 17 2 18 3 19 4 20 5 21 6 22 7 23 8 24 9 25 10 26 11
REMARK SMILES IDX 27 12 28 13 29 14 30 15 31 16 32 17 15 18 14 19 13 20 12 21
REMARK SMILES IDX 11 22 10 23 9 24 8 25 7 26 6 27 5 28 4 29 3 30 2 31 1 32
REMARK H PARENT
REMARK Flexibility Score: inf
ROOT
ATOM      1  C   UNL     1      27.906  61.757  79.412  1.00  0.00     0.000 C 
ENDROOT
BRANCH   1   2
ATOM      2  C   UNL     1      26.460  61.485  79.870  1.00  0.00     0.000 C 
BRANCH   2   3
ATOM      3  C   UNL     1      26.302  61.109  81.356  1.00  0.00     0.000 C 
BRANCH   3   4
ATOM      4  C   UNL     1      27.573  61.371  82.178  1.00  0.00     0.000 C 
BRANCH   4   5
ATOM      5  C   UNL     1      27.268  61.403  83.685  1.00  0.00     0.000 C 
BRANCH   5   6
ATOM      6  C   UNL     1      26.579  60.116  84.186  1.00  0.00     0.000 C 
BRANCH   6   7
ATOM      7  C   UNL     1      26.389  60.045  85.714  1.00  0.00     0.000 C 
BRANCH   7   8
ATOM      8  C   UNL     1      27.310  60.960  86.542  1.00  0.00     0.000 C 
BRANCH   8   9
ATOM      9  C   UNL     1      28.518  60.259  87.191  1.00  0.00     0.000 C 
BRANCH   9  10
ATOM     10  C   UNL     1      28.254  58.775  87.500  1.00  0.00     0.000 C 
BRANCH  10  11
ATOM     11  C   UNL     1      29.168  57.835  86.697  1.00  0.00     0.000 C 
BRANCH  11  12
ATOM     12  C   UNL     1      30.078  58.592  85.714  1.00  0.00     0.000 C 
BRANCH  12  13
ATOM     13  C   UNL     1      30.233  57.862  84.366  1.00  0.00     0.006 C 
BRANCH  13  14
ATOM     14  C   UNL     1      30.009  58.753  83.134  1.00  0.00     0.053 C 
BRANCH  14  15
ATOM     15  C   UNL     1      30.751  58.251  81.935  1.00  0.00     0.041 C 
ATOM     16  O   UNL     1      30.518  57.098  81.485  1.00  0.00    -0.550 OA
ATOM     17  O   UNL     1      31.718  59.045  81.329  1.00  0.00    -0.550 OA
ENDBRANCH  14  15
ENDBRANCH  13  14
ENDBRANCH  12  13
ENDBRANCH  11  12
ENDBRANCH  10  11
ENDBRANCH   9  10
ENDBRANCH   8   9
ENDBRANCH   7   8
ENDBRANCH   6   7
ENDBRANCH   5   6
ENDBRANCH   4   5
ENDBRANCH   3   4
ENDBRANCH   2   3
ENDBRANCH   1   2
BRANCH   1  18
ATOM     18  C   UNL     1      28.428  60.827  78.301  1.00  0.00     0.000 C 
BRANCH  18  19
ATOM     19  C   UNL     1      28.175  59.327  78.568  1.00  0.00     0.000 C 
BRANCH  19  20
ATOM     20  C   UNL     1      29.337  58.431  78.106  1.00  0.00     0.000 C 
BRANCH  20  21
ATOM     21  C   UNL     1      29.933  58.870  76.758  1.00  0.00     0.000 C 
BRANCH  21  22
ATOM     22  C   UNL     1      29.243  58.237  75.531  1.00  0.00     0.000 C 
BRANCH  22  23
ATOM     23  C   UNL     1      28.409  59.253  74.733  1.00  0.00     0.000 C 
BRANCH  23  24
ATOM     24  C   UNL     1      26.934  59.210  75.162  1.00  0.00    -0.000 C 
BRANCH  24  25
ATOM     25  C   UNL     1      26.178  60.511  74.848  1.00  0.00    -0.000 C 
BRANCH  25  26
ATOM     26  C   UNL     1      25.038  60.859  75.826  1.00  0.00    -0.000 C 
BRANCH  26  27
ATOM     27  C   UNL     1      25.291  62.137  76.655  1.00  0.00    -0.000 C 
BRANCH  27  28
ATOM     28  C   UNL     1      26.241  63.116  75.948  1.00  0.00    -0.000 C 
BRANCH  28  29
ATOM     29  C   UNL     1      25.636  64.526  75.891  1.00  0.00    -0.000 C 
BRANCH  29  30
ATOM     30  C   UNL     1      26.547  65.527  75.163  1.00  0.00    -0.000 C 
BRANCH  30  31
ATOM     31  C   UNL     1      26.345  66.971  75.647  1.00  0.00    -0.003 C 
ATOM     32  C   UNL     1      25.019  67.123  76.388  1.00  0.00     0.004 C 
ENDBRANCH  30  31
ENDBRANCH  29  30
ENDBRANCH  28  29
ENDBRANCH  27  28
ENDBRANCH  26  27
ENDBRANCH  25  26
ENDBRANCH  24  25
ENDBRANCH  23  24
ENDBRANCH  22  23
ENDBRANCH  21  22
ENDBRANCH  20  21
ENDBRANCH  19  20
ENDBRANCH  18  19
ENDBRANCH   1  18
TORSDOF 28
ENDMDL
MODEL 4
REMARK VINA RESULT:    -3.530      1.151      1.552
REMARK INTER + INTRA:         -14.001
REMARK INTER:                  -9.682
REMARK INTRA:                  -4.319
REMARK UNBOUND:                -4.694
REMARK SMILES CCCCCCCCCCCCCCCCCCCCCCCCCCCCCC(=O)[O-]
REMARK SMILES IDX 16 1 17 2 18 3 19 4 20 5 21 6 22 7 23 8 24 9 25 10 26 11
REMARK SMILES IDX 27 12 28 13 29 14 30 15 31 16 32 17 15 18 14 19 13 20 12 21
REMARK SMILES IDX 11 22 10 23 9 24 8 25 7 26 6 27 5 28 4 29 3 30 2 31 1 32
REMARK H PARENT
REMARK Flexibility Score: inf
ROOT
ATOM      1  C   UNL     1      26.860  62.113  80.863  1.00  0.00     0.000 C 
ENDROOT
BRANCH   1   2
ATOM      2  C   UNL     1      27.322  61.908  82.319  1.00  0.00     0.000 C 
BRANCH   2   3
ATOM      3  C   UNL     1      28.123  60.618  82.577  1.00  0.00     0.000 C 
BRANCH   3   4
ATOM      4  C   UNL     1      27.250  59.355  82.545  1.00  0.00     0.000 C 
BRANCH   4   5
ATOM      5  C   UNL     1      27.754  58.351  81.495  1.00  0.00     0.000 C 
BRANCH   5   6
ATOM      6  C   UNL     1      28.755  58.977  80.499  1.00  0.00     0.000 C 
BRANCH   6   7
ATOM      7  C   UNL     1      30.102  58.235  80.396  1.00  0.00     0.000 C 
BRANCH   7   8
ATOM      8  C   UNL     1      31.152  58.612  81.459  1.00  0.00     0.000 C 
BRANCH   8   9
ATOM      9  C   UNL     1      31.649  57.443  82.330  1.00  0.00     0.000 C 
BRANCH   9  10
ATOM     10  C   UNL     1      30.758  57.191  83.558  1.00  0.00     0.000 C 
BRANCH  10  11
ATOM     11  C   UNL     1      30.395  58.490  84.298  1.00  0.00     0.000 C 
BRANCH  11  12
ATOM     12  C   UNL     1      30.243  58.283  85.816  1.00  0.00     0.000 C 
BRANCH  12  13
ATOM     13  C   UNL     1      28.770  58.237  86.264  1.00  0.00     0.006 C 
BRANCH  13  14
ATOM     14  C   UNL     1      28.316  59.462  87.074  1.00  0.00     0.053 C 
BRANCH  14  15
ATOM     15  C   UNL     1      27.107  60.114  86.478  1.00  0.00     0.041 C 
ATOM     16  O   UNL     1      27.192  61.266  85.977  1.00  0.00    -0.550 OA
ATOM     17  O   UNL     1      25.880  59.460  86.499  1.00  0.00    -0.550 OA
ENDBRANCH  14  15
ENDBRANCH  13  14
ENDBRANCH  12  13
ENDBRANCH  11  12
ENDBRANCH  10  11
ENDBRANCH   9  10
ENDBRANCH   8   9
ENDBRANCH   7   8
ENDBRANCH   6   7
ENDBRANCH   5   6
ENDBRANCH   4   5
ENDBRANCH   3   4
ENDBRANCH   2   3
ENDBRANCH   1   2
BRANCH   1  18
ATOM     18  C   UNL     1      25.464  62.744  80.701  1.00  0.00     0.000 C 
BRANCH  18  19
ATOM     19  C   UNL     1      24.424  61.804  80.054  1.00  0.00     0.000 C 
BRANCH  19  20
ATOM     20  C   UNL     1      24.848  60.326  80.087  1.00  0.00     0.000 C 
BRANCH  20  21
ATOM     21  C   UNL     1      24.635  59.612  78.742  1.00  0.00     0.000 C 
BRANCH  21  22
ATOM     22  C   UNL     1      25.943  59.175  78.049  1.00  0.00     0.000 C 
BRANCH  22  23
ATOM     23  C   UNL     1      26.701  60.355  77.420  1.00  0.00     0.000 C 
BRANCH  23  24
ATOM     24  C   UNL     1      26.271  60.568  75.959  1.00  0.00    -0.000 C 
BRANCH  24  25
ATOM     25  C   UNL     1      25.469  61.863  75.751  1.00  0.00    -0.000 C 
BRANCH  25  26
ATOM     26  C   UNL     1      25.980  63.083  76.543  1.00  0.00    -0.000 C 
BRANCH  26  27
ATOM     27  C   UNL     1      24.856  63.959  77.138  1.00  0.00    -0.000 C 
BRANCH  27  28
ATOM     28  C   UNL     1      24.567  65.203  76.284  1.00  0.00    -0.000 C 
BRANCH  28  29
ATOM     29  C   UNL     1      25.768  65.550  75.392  1.00  0.00    -0.000 C 
BRANCH  29  30
ATOM     30  C   UNL     1      26.411  66.894  75.771  1.00  0.00    -0.000 C 
BRANCH  30  31
ATOM     31  C   UNL     1      25.386  67.918  76.281  1.00  0.00    -0.003 C 
ATOM     32  C   UNL     1      24.454  68.368  75.159  1.00  0.00     0.004 C 
ENDBRANCH  30  31
ENDBRANCH  29  30
ENDBRANCH  28  29
ENDBRANCH  27  28
ENDBRANCH  26  27
ENDBRANCH  25  26
ENDBRANCH  24  25
ENDBRANCH  23  24
ENDBRANCH  22  23
ENDBRANCH  21  22
ENDBRANCH  20  21
ENDBRANCH  19  20
ENDBRANCH  18  19
ENDBRANCH   1  18
TORSDOF 28
ENDMDL
MODEL 5
REMARK VINA RESULT:    -3.498      3.533      9.309
REMARK INTER + INTRA:         -13.918
REMARK INTER:                  -8.673
REMARK INTRA:                  -5.245
REMARK UNBOUND:                -4.694
REMARK SMILES CCCCCCCCCCCCCCCCCCCCCCCCCCCCCC(=O)[O-]
REMARK SMILES IDX 16 1 17 2 18 3 19 4 20 5 21 6 22 7 23 8 24 9 25 10 26 11
REMARK SMILES IDX 27 12 28 13 29 14 30 15 31 16 32 17 15 18 14 19 13 20 12 21
REMARK SMILES IDX 11 22 10 23 9 24 8 25 7 26 6 27 5 28 4 29 3 30 2 31 1 32
REMARK H PARENT
REMARK Flexibility Score: inf
ROOT
ATOM      1  C   UNL     1      27.602  61.748  79.856  1.00  0.00     0.000 C 
ENDROOT
BRANCH   1   2
ATOM      2  C   UNL     1      28.135  60.303  79.859  1.00  0.00     0.000 C 
BRANCH   2   3
ATOM      3  C   UNL     1      27.054  59.205  79.809  1.00  0.00     0.000 C 
BRANCH   3   4
ATOM      4  C   UNL     1      27.642  57.789  79.728  1.00  0.00     0.000 C 
BRANCH   4   5
ATOM      5  C   UNL     1      29.141  57.823  79.388  1.00  0.00     0.000 C 
BRANCH   5   6
ATOM      6  C   UNL     1      29.438  57.384  77.938  1.00  0.00     0.000 C 
BRANCH   6   7
ATOM      7  C   UNL     1      29.600  58.547  76.939  1.00  0.00     0.000 C 
BRANCH   7   8
ATOM      8  C   UNL     1      28.414  58.772  75.981  1.00  0.00     0.000 C 
BRANCH   8   9
ATOM      9  C   UNL     1      27.635  60.082  76.201  1.00  0.00     0.000 C 
BRANCH   9  10
ATOM     10  C   UNL     1      26.116  59.865  76.313  1.00  0.00     0.000 C 
BRANCH  10  11
ATOM     11  C   UNL     1      25.388  61.088  76.895  1.00  0.00     0.000 C 
BRANCH  11  12
ATOM     12  C   UNL     1      26.216  62.380  76.778  1.00  0.00     0.000 C 
BRANCH  12  13
ATOM     13  C   UNL     1      25.375  63.583  76.312  1.00  0.00     0.006 C 
BRANCH  13  14
ATOM     14  C   UNL     1      26.156  64.621  75.490  1.00  0.00     0.053 C 
BRANCH  14  15
ATOM     15  C   UNL     1      25.791  66.024  75.864  1.00  0.00     0.041 C 
ATOM     16  O   UNL     1      26.538  66.981  75.529  1.00  0.00    -0.550 OA
ATOM     17  O   UNL     1      24.640  66.273  76.603  1.00  0.00    -0.550 OA
ENDBRANCH  14  15
ENDBRANCH  13  14
ENDBRANCH  12  13
ENDBRANCH  11  12
ENDBRANCH  10  11
ENDBRANCH   9  10
ENDBRANCH   8   9
ENDBRANCH   7   8
ENDBRANCH   6   7
ENDBRANCH   5   6
ENDBRANCH   4   5
ENDBRANCH   3   4
ENDBRANCH   2   3
ENDBRANCH   1   2
BRANCH   1  18
ATOM     18  C   UNL     1      26.761  62.140  81.086  1.00  0.00     0.000 C 
BRANCH  18  19
ATOM     19  C   UNL     1      25.244  62.222  80.808  1.00  0.00     0.000 C 
BRANCH  19  20
ATOM     20  C   UNL     1      24.390  61.948  82.058  1.00  0.00     0.000 C 
BRANCH  20  21
ATOM     21  C   UNL     1      25.232  61.773  83.333  1.00  0.00     0.000 C 
BRANCH  21  22
ATOM     22  C   UNL     1      25.074  60.393  84.006  1.00  0.00     0.000 C 
BRANCH  22  23
ATOM     23  C   UNL     1      25.675  59.255  83.166  1.00  0.00     0.000 C 
BRANCH  23  24
ATOM     24  C   UNL     1      27.021  58.794  83.748  1.00  0.00    -0.000 C 
BRANCH  24  25
ATOM     25  C   UNL     1      28.193  59.705  83.346  1.00  0.00    -0.000 C 
BRANCH  25  26
ATOM     26  C   UNL     1      29.516  58.974  83.042  1.00  0.00    -0.000 C 
BRANCH  26  27
ATOM     27  C   UNL     1      29.624  57.578  83.692  1.00  0.00    -0.000 C 
BRANCH  27  28
ATOM     28  C   UNL     1      30.649  57.542  84.836  1.00  0.00    -0.000 C 
BRANCH  28  29
ATOM     29  C   UNL     1      30.168  58.374  86.033  1.00  0.00    -0.000 C 
BRANCH  29  30
ATOM     30  C   UNL     1      28.943  57.755  86.725  1.00  0.00    -0.000 C 
BRANCH  30  31
ATOM     31  C   UNL     1      28.182  58.767  87.597  1.00  0.00    -0.003 C 
ATOM     32  C   UNL     1      28.316  60.182  87.041  1.00  0.00     0.004 C 
ENDBRANCH  30  31
ENDBRANCH  29  30
ENDBRANCH  28  29
ENDBRANCH  27  28
ENDBRANCH  26  27
ENDBRANCH  25  26
ENDBRANCH  24  25
ENDBRANCH  23  24
ENDBRANCH  22  23
ENDBRANCH  21  22
ENDBRANCH  20  21
ENDBRANCH  19  20
ENDBRANCH  18  19
ENDBRANCH   1  18
TORSDOF 28
ENDMDL
MODEL 6
REMARK VINA RESULT:    -3.433      4.317      9.208
REMARK INTER + INTRA:         -13.747
REMARK INTER:                  -8.332
REMARK INTRA:                  -5.416
REMARK UNBOUND:                -4.694
REMARK SMILES CCCCCCCCCCCCCCCCCCCCCCCCCCCCCC(=O)[O-]
REMARK SMILES IDX 16 1 17 2 18 3 19 4 20 5 21 6 22 7 23 8 24 9 25 10 26 11
REMARK SMILES IDX 27 12 28 13 29 14 30 15 31 16 32 17 15 18 14 19 13 20 12 21
REMARK SMILES IDX 11 22 10 23 9 24 8 25 7 26 6 27 5 28 4 29 3 30 2 31 1 32
REMARK H PARENT
REMARK Flexibility Score: inf
ROOT
ATOM      1  C   UNL     1      31.138  58.650  81.449  1.00  0.00     0.000 C 
ENDROOT
BRANCH   1   2
ATOM      2  C   UNL     1      29.731  58.750  80.829  1.00  0.00     0.000 C 
BRANCH   2   3
ATOM      3  C   UNL     1      29.534  57.964  79.519  1.00  0.00     0.000 C 
BRANCH   3   4
ATOM      4  C   UNL     1      28.216  57.177  79.486  1.00  0.00     0.000 C 
BRANCH   4   5
ATOM      5  C   UNL     1      27.188  57.763  80.466  1.00  0.00     0.000 C 
BRANCH   5   6
ATOM      6  C   UNL     1      26.017  58.475  79.753  1.00  0.00     0.000 C 
BRANCH   6   7
ATOM      7  C   UNL     1      25.683  59.873  80.311  1.00  0.00     0.000 C 
BRANCH   7   8
ATOM      8  C   UNL     1      26.128  61.062  79.438  1.00  0.00     0.000 C 
BRANCH   8   9
ATOM      9  C   UNL     1      27.613  61.448  79.566  1.00  0.00     0.000 C 
BRANCH   9  10
ATOM     10  C   UNL     1      28.424  61.136  78.295  1.00  0.00     0.000 C 
BRANCH  10  11
ATOM     11  C   UNL     1      27.527  60.897  77.069  1.00  0.00     0.000 C 
BRANCH  11  12
ATOM     12  C   UNL     1      27.503  59.421  76.632  1.00  0.00     0.000 C 
BRANCH  12  13
ATOM     13  C   UNL     1      28.432  59.142  75.436  1.00  0.00     0.006 C 
BRANCH  13  14
ATOM     14  C   UNL     1      29.894  58.869  75.820  1.00  0.00     0.053 C 
BRANCH  14  15
ATOM     15  C   UNL     1      30.708  58.412  74.649  1.00  0.00     0.041 C 
ATOM     16  O   UNL     1      31.750  57.728  74.832  1.00  0.00    -0.550 OA
ATOM     17  O   UNL     1      30.331  58.762  73.358  1.00  0.00    -0.550 OA
ENDBRANCH  14  15
ENDBRANCH  13  14
ENDBRANCH  12  13
ENDBRANCH  11  12
ENDBRANCH  10  11
ENDBRANCH   9  10
ENDBRANCH   8   9
ENDBRANCH   7   8
ENDBRANCH   6   7
ENDBRANCH   5   6
ENDBRANCH   4   5
ENDBRANCH   3   4
ENDBRANCH   2   3
ENDBRANCH   1   2
BRANCH   1  18
ATOM     18  C   UNL     1      31.301  57.571  82.537  1.00  0.00     0.000 C 
BRANCH  18  19
ATOM     19  C   UNL     1      30.552  57.887  83.849  1.00  0.00     0.000 C 
BRANCH  19  20
ATOM     20  C   UNL     1      31.301  57.396  85.100  1.00  0.00     0.000 C 
BRANCH  20  21
ATOM     21  C   UNL     1      30.509  57.621  86.399  1.00  0.00     0.000 C 
BRANCH  21  22
ATOM     22  C   UNL     1      29.135  58.290  86.189  1.00  0.00     0.000 C 
BRANCH  22  23
ATOM     23  C   UNL     1      29.082  59.720  86.751  1.00  0.00     0.000 C 
BRANCH  23  24
ATOM     24  C   UNL     1      27.673  60.057  87.264  1.00  0.00    -0.000 C 
BRANCH  24  25
ATOM     25  C   UNL     1      27.000  58.880  87.990  1.00  0.00    -0.000 C 
BRANCH  25  26
ATOM     26  C   UNL     1      25.536  58.613  87.586  1.00  0.00    -0.000 C 
BRANCH  26  27
ATOM     27  C   UNL     1      25.365  58.134  86.129  1.00  0.00    -0.000 C 
BRANCH  27  28
ATOM     28  C   UNL     1      24.406  59.027  85.327  1.00  0.00    -0.000 C 
BRANCH  28  29
ATOM     29  C   UNL     1      25.074  59.536  84.041  1.00  0.00    -0.000 C 
BRANCH  29  30
ATOM     30  C   UNL     1      26.511  59.013  83.879  1.00  0.00    -0.000 C 
BRANCH  30  31
ATOM     31  C   UNL     1      27.499  60.116  83.469  1.00  0.00    -0.003 C 
ATOM     32  C   UNL     1      26.972  61.497  83.852  1.00  0.00     0.004 C 
ENDBRANCH  30  31
ENDBRANCH  29  30
ENDBRANCH  28  29
ENDBRANCH  27  28
ENDBRANCH  26  27
ENDBRANCH  25  26
ENDBRANCH  24  25
ENDBRANCH  23  24
ENDBRANCH  22  23
ENDBRANCH  21  22
ENDBRANCH  20  21
ENDBRANCH  19  20
ENDBRANCH  18  19
ENDBRANCH   1  18
TORSDOF 28
ENDMDL
MODEL 7
REMARK VINA RESULT:    -3.405      3.545      9.853
REMARK INTER + INTRA:         -13.674
REMARK INTER:                  -9.467
REMARK INTRA:                  -4.207
REMARK UNBOUND:                -4.694
REMARK SMILES CCCCCCCCCCCCCCCCCCCCCCCCCCCCCC(=O)[O-]
REMARK SMILES IDX 16 1 17 2 18 3 19 4 20 5 21 6 22 7 23 8 24 9 25 10 26 11
REMARK SMILES IDX 27 12 28 13 29 14 30 15 31 16 32 17 15 18 14 19 13 20 12 21
REMARK SMILES IDX 11 22 10 23 9 24 8 25 7 26 6 27 5 28 4 29 3 30 2 31 1 32
REMARK H PARENT
REMARK Flexibility Score: inf
ROOT
ATOM      1  C   UNL     1      29.816  58.722  81.470  1.00  0.00     0.000 C 
ENDROOT
BRANCH   1   2
ATOM      2  C   UNL     1      29.367  58.471  80.018  1.00  0.00     0.000 C 
BRANCH   2   3
ATOM      3  C   UNL     1      28.069  59.189  79.600  1.00  0.00     0.000 C 
BRANCH   3   4
ATOM      4  C   UNL     1      28.303  60.290  78.555  1.00  0.00     0.000 C 
BRANCH   4   5
ATOM      5  C   UNL     1      27.980  61.681  79.126  1.00  0.00     0.000 C 
BRANCH   5   6
ATOM      6  C   UNL     1      27.504  61.632  80.594  1.00  0.00     0.000 C 
BRANCH   6   7
ATOM      7  C   UNL     1      26.069  62.145  80.819  1.00  0.00     0.000 C 
BRANCH   7   8
ATOM      8  C   UNL     1      25.084  61.898  79.660  1.00  0.00     0.000 C 
BRANCH   8   9
ATOM      9  C   UNL     1      24.380  63.157  79.120  1.00  0.00     0.000 C 
BRANCH   9  10
ATOM     10  C   UNL     1      24.046  63.059  77.621  1.00  0.00     0.000 C 
BRANCH  10  11
ATOM     11  C   UNL     1      25.172  62.395  76.809  1.00  0.00     0.000 C 
BRANCH  11  12
ATOM     12  C   UNL     1      26.172  63.418  76.241  1.00  0.00     0.000 C 
BRANCH  12  13
ATOM     13  C   UNL     1      25.565  64.281  75.120  1.00  0.00     0.006 C 
BRANCH  13  14
ATOM     14  C   UNL     1      26.295  65.613  74.881  1.00  0.00     0.053 C 
BRANCH  14  15
ATOM     15  C   UNL     1      25.844  66.679  75.832  1.00  0.00     0.041 C 
ATOM     16  O   UNL     1      26.524  67.730  75.969  1.00  0.00    -0.550 OA
ATOM     17  O   UNL     1      24.689  66.501  76.583  1.00  0.00    -0.550 OA
ENDBRANCH  14  15
ENDBRANCH  13  14
ENDBRANCH  12  13
ENDBRANCH  11  12
ENDBRANCH  10  11
ENDBRANCH   9  10
ENDBRANCH   8   9
ENDBRANCH   7   8
ENDBRANCH   6   7
ENDBRANCH   5   6
ENDBRANCH   4   5
ENDBRANCH   3   4
ENDBRANCH   2   3
ENDBRANCH   1   2
BRANCH   1  18
ATOM     18  C   UNL     1      31.341  58.752  81.689  1.00  0.00     0.000 C 
BRANCH  18  19
ATOM     19  C   UNL     1      31.890  57.523  82.446  1.00  0.00     0.000 C 
BRANCH  19  20
ATOM     20  C   UNL     1      30.870  56.918  83.426  1.00  0.00     0.000 C 
BRANCH  20  21
ATOM     21  C   UNL     1      31.061  57.412  84.870  1.00  0.00     0.000 C 
BRANCH  21  22
ATOM     22  C   UNL     1      30.132  58.580  85.262  1.00  0.00     0.000 C 
BRANCH  22  23
ATOM     23  C   UNL     1      29.313  58.283  86.529  1.00  0.00     0.000 C 
BRANCH  23  24
ATOM     24  C   UNL     1      28.577  59.543  87.014  1.00  0.00    -0.000 C 
BRANCH  24  25
ATOM     25  C   UNL     1      27.278  59.224  87.772  1.00  0.00    -0.000 C 
BRANCH  25  26
ATOM     26  C   UNL     1      26.697  57.819  87.514  1.00  0.00    -0.000 C 
BRANCH  26  27
ATOM     27  C   UNL     1      25.786  57.737  86.270  1.00  0.00    -0.000 C 
BRANCH  27  28
ATOM     28  C   UNL     1      24.763  58.882  86.215  1.00  0.00    -0.000 C 
BRANCH  28  29
ATOM     29  C   UNL     1      24.728  59.522  84.820  1.00  0.00    -0.000 C 
BRANCH  29  30
ATOM     30  C   UNL     1      25.937  60.437  84.563  1.00  0.00    -0.000 C 
BRANCH  30  31
ATOM     31  C   UNL     1      26.973  59.799  83.624  1.00  0.00    -0.003 C 
ATOM     32  C   UNL     1      26.325  58.753  82.721  1.00  0.00     0.004 C 
ENDBRANCH  30  31
ENDBRANCH  29  30
ENDBRANCH  28  29
ENDBRANCH  27  28
ENDBRANCH  26  27
ENDBRANCH  25  26
ENDBRANCH  24  25
ENDBRANCH  23  24
ENDBRANCH  22  23
ENDBRANCH  21  22
ENDBRANCH  20  21
ENDBRANCH  19  20
ENDBRANCH  18  19
ENDBRANCH   1  18
TORSDOF 28
ENDMDL
MODEL 8
REMARK VINA RESULT:    -3.382      3.688      9.469
REMARK INTER + INTRA:         -13.611
REMARK INTER:                  -9.541
REMARK INTRA:                  -4.070
REMARK UNBOUND:                -4.694
REMARK SMILES CCCCCCCCCCCCCCCCCCCCCCCCCCCCCC(=O)[O-]
REMARK SMILES IDX 16 1 17 2 18 3 19 4 20 5 21 6 22 7 23 8 24 9 25 10 26 11
REMARK SMILES IDX 27 12 28 13 29 14 30 15 31 16 32 17 15 18 14 19 13 20 12 21
REMARK SMILES IDX 11 22 10 23 9 24 8 25 7 26 6 27 5 28 4 29 3 30 2 31 1 32
REMARK H PARENT
REMARK Flexibility Score: inf
ROOT
ATOM      1  C   UNL     1      29.627  58.777  81.747  1.00  0.00     0.000 C 
ENDROOT
BRANCH   1   2
ATOM      2  C   UNL     1      28.572  58.376  80.698  1.00  0.00     0.000 C 
BRANCH   2   3
ATOM      3  C   UNL     1      28.798  58.953  79.287  1.00  0.00     0.000 C 
BRANCH   3   4
ATOM      4  C   UNL     1      28.730  60.487  79.249  1.00  0.00     0.000 C 
BRANCH   4   5
ATOM      5  C   UNL     1      28.470  61.001  77.824  1.00  0.00     0.000 C 
BRANCH   5   6
ATOM      6  C   UNL     1      27.564  60.059  77.002  1.00  0.00     0.000 C 
BRANCH   6   7
ATOM      7  C   UNL     1      26.127  60.576  76.791  1.00  0.00     0.000 C 
BRANCH   7   8
ATOM      8  C   UNL     1      25.089  60.096  77.824  1.00  0.00     0.000 C 
BRANCH   8   9
ATOM      9  C   UNL     1      24.319  61.217  78.547  1.00  0.00     0.000 C 
BRANCH   9  10
ATOM     10  C   UNL     1      25.093  62.546  78.585  1.00  0.00     0.000 C 
BRANCH  10  11
ATOM     11  C   UNL     1      24.167  63.761  78.769  1.00  0.00     0.000 C 
BRANCH  11  12
ATOM     12  C   UNL     1      24.110  64.655  77.518  1.00  0.00     0.000 C 
BRANCH  12  13
ATOM     13  C   UNL     1      25.096  64.206  76.422  1.00  0.00     0.006 C 
BRANCH  13  14
ATOM     14  C   UNL     1      25.212  65.178  75.238  1.00  0.00     0.053 C 
BRANCH  14  15
ATOM     15  C   UNL     1      26.388  66.095  75.375  1.00  0.00     0.041 C 
ATOM     16  O   UNL     1      27.542  65.692  75.068  1.00  0.00    -0.550 OA
ATOM     17  O   UNL     1      26.216  67.384  75.865  1.00  0.00    -0.550 OA
ENDBRANCH  14  15
ENDBRANCH  13  14
ENDBRANCH  12  13
ENDBRANCH  11  12
ENDBRANCH  10  11
ENDBRANCH   9  10
ENDBRANCH   8   9
ENDBRANCH   7   8
ENDBRANCH   6   7
ENDBRANCH   5   6
ENDBRANCH   4   5
ENDBRANCH   3   4
ENDBRANCH   2   3
ENDBRANCH   1   2
BRANCH   1  18
ATOM     18  C   UNL     1      31.091  58.545  81.326  1.00  0.00     0.000 C 
BRANCH  18  19
ATOM     19  C   UNL     1      31.900  57.685  82.321  1.00  0.00     0.000 C 
BRANCH  19  20
ATOM     20  C   UNL     1      31.028  57.070  83.429  1.00  0.00     0.000 C 
BRANCH  20  21
ATOM     21  C   UNL     1      31.420  57.552  84.836  1.00  0.00     0.000 C 
BRANCH  21  22
ATOM     22  C   UNL     1      30.277  58.253  85.601  1.00  0.00     0.000 C 
BRANCH  22  23
ATOM     23  C   UNL     1      29.495  57.289  86.507  1.00  0.00     0.000 C 
BRANCH  23  24
ATOM     24  C   UNL     1      28.623  58.063  87.509  1.00  0.00    -0.000 C 
BRANCH  24  25
ATOM     25  C   UNL     1      28.360  59.515  87.080  1.00  0.00    -0.000 C 
BRANCH  25  26
ATOM     26  C   UNL     1      26.872  59.910  86.980  1.00  0.00    -0.000 C 
BRANCH  26  27
ATOM     27  C   UNL     1      26.238  59.621  85.603  1.00  0.00    -0.000 C 
BRANCH  27  28
ATOM     28  C   UNL     1      27.198  59.921  84.441  1.00  0.00    -0.000 C 
BRANCH  28  29
ATOM     29  C   UNL     1      27.167  61.411  84.071  1.00  0.00    -0.000 C 
BRANCH  29  30
ATOM     30  C   UNL     1      27.455  61.652  82.581  1.00  0.00    -0.000 C 
BRANCH  30  31
ATOM     31  C   UNL     1      26.250  61.325  81.685  1.00  0.00    -0.003 C 
ATOM     32  C   UNL     1      24.943  61.770  82.337  1.00  0.00     0.004 C 
ENDBRANCH  30  31
ENDBRANCH  29  30
ENDBRANCH  28  29
ENDBRANCH  27  28
ENDBRANCH  26  27
ENDBRANCH  25  26
ENDBRANCH  24  25
ENDBRANCH  23  24
ENDBRANCH  22  23
ENDBRANCH  21  22
ENDBRANCH  20  21
ENDBRANCH  19  20
ENDBRANCH  18  19
ENDBRANCH   1  18
TORSDOF 28
ENDMDL
MODEL 9
REMARK VINA RESULT:    -3.329      3.733      8.797
REMARK INTER + INTRA:         -13.472
REMARK INTER:                  -8.809
REMARK INTRA:                  -4.663
REMARK UNBOUND:                -4.694
REMARK SMILES CCCCCCCCCCCCCCCCCCCCCCCCCCCCCC(=O)[O-]
REMARK SMILES IDX 16 1 17 2 18 3 19 4 20 5 21 6 22 7 23 8 24 9 25 10 26 11
REMARK SMILES IDX 27 12 28 13 29 14 30 15 31 16 32 17 15 18 14 19 13 20 12 21
REMARK SMILES IDX 11 22 10 23 9 24 8 25 7 26 6 27 5 28 4 29 3 30 2 31 1 32
REMARK H PARENT
REMARK Flexibility Score: inf
ROOT
ATOM      1  C   UNL     1      29.980  59.132  82.569  1.00  0.00     0.000 C 
ENDROOT
BRANCH   1   2
ATOM      2  C   UNL     1      30.703  58.337  81.465  1.00  0.00     0.000 C 
BRANCH   2   3
ATOM      3  C   UNL     1      29.948  58.240  80.126  1.00  0.00     0.000 C 
BRANCH   3   4
ATOM      4  C   UNL     1      28.752  59.199  80.041  1.00  0.00     0.000 C 
BRANCH   4   5
ATOM      5  C   UNL     1      28.885  60.157  78.846  1.00  0.00     0.000 C 
BRANCH   5   6
ATOM      6  C   UNL     1      29.110  59.420  77.508  1.00  0.00     0.000 C 
BRANCH   6   7
ATOM      7  C   UNL     1      27.847  58.760  76.921  1.00  0.00     0.000 C 
BRANCH   7   8
ATOM      8  C   UNL     1      27.287  59.412  75.642  1.00  0.00     0.000 C 
BRANCH   8   9
ATOM      9  C   UNL     1      26.545  60.743  75.858  1.00  0.00     0.000 C 
BRANCH   9  10
ATOM     10  C   UNL     1      25.162  60.774  75.183  1.00  0.00     0.000 C 
BRANCH  10  11
ATOM     11  C   UNL     1      24.657  62.206  74.940  1.00  0.00     0.000 C 
BRANCH  11  12
ATOM     12  C   UNL     1      24.190  62.896  76.234  1.00  0.00     0.000 C 
BRANCH  12  13
ATOM     13  C   UNL     1      24.926  64.223  76.497  1.00  0.00     0.006 C 
BRANCH  13  14
ATOM     14  C   UNL     1      26.187  64.428  75.644  1.00  0.00     0.053 C 
BRANCH  14  15
ATOM     15  C   UNL     1      26.192  65.760  74.958  1.00  0.00     0.041 C 
ATOM     16  O   UNL     1      25.840  65.850  73.753  1.00  0.00    -0.550 OA
ATOM     17  O   UNL     1      26.610  66.895  75.643  1.00  0.00    -0.550 OA
ENDBRANCH  14  15
ENDBRANCH  13  14
ENDBRANCH  12  13
ENDBRANCH  11  12
ENDBRANCH  10  11
ENDBRANCH   9  10
ENDBRANCH   8   9
ENDBRANCH   7   8
ENDBRANCH   6   7
ENDBRANCH   5   6
ENDBRANCH   4   5
ENDBRANCH   3   4
ENDBRANCH   2   3
ENDBRANCH   1   2
BRANCH   1  18
ATOM     18  C   UNL     1      29.256  58.275  83.625  1.00  0.00     0.000 C 
BRANCH  18  19
ATOM     19  C   UNL     1      30.110  57.966  84.874  1.00  0.00     0.000 C 
BRANCH  19  20
ATOM     20  C   UNL     1      29.698  58.794  86.103  1.00  0.00     0.000 C 
BRANCH  20  21
ATOM     21  C   UNL     1      28.174  58.972  86.221  1.00  0.00     0.000 C 
BRANCH  21  22
ATOM     22  C   UNL     1      27.746  60.314  86.852  1.00  0.00     0.000 C 
BRANCH  22  23
ATOM     23  C   UNL     1      27.161  61.291  85.820  1.00  0.00     0.000 C 
BRANCH  23  24
ATOM     24  C   UNL     1      26.198  60.568  84.864  1.00  0.00    -0.000 C 
BRANCH  24  25
ATOM     25  C   UNL     1      26.072  61.263  83.498  1.00  0.00    -0.000 C 
BRANCH  25  26
ATOM     26  C   UNL     1      27.408  61.549  82.784  1.00  0.00    -0.000 C 
BRANCH  26  27
ATOM     27  C   UNL     1      27.248  62.196  81.391  1.00  0.00    -0.000 C 
BRANCH  27  28
ATOM     28  C   UNL     1      25.776  62.408  81.009  1.00  0.00    -0.000 C 
BRANCH  28  29
ATOM     29  C   UNL     1      25.543  62.102  79.522  1.00  0.00    -0.000 C 
BRANCH  29  30
ATOM     30  C   UNL     1      24.544  60.953  79.309  1.00  0.00    -0.000 C 
BRANCH  30  31
ATOM     31  C   UNL     1      25.224  59.576  79.273  1.00  0.00    -0.003 C 
ATOM     32  C   UNL     1      25.031  58.832  80.591  1.00  0.00     0.004 C 
ENDBRANCH  30  31
ENDBRANCH  29  30
ENDBRANCH  28  29
ENDBRANCH  27  28
ENDBRANCH  26  27
ENDBRANCH  25  26
ENDBRANCH  24  25
ENDBRANCH  23  24
ENDBRANCH  22  23
ENDBRANCH  21  22
ENDBRANCH  20  21
ENDBRANCH  19  20
ENDBRANCH  18  19
ENDBRANCH   1  18
TORSDOF 28
ENDMDL
