MODEL 1
REMARK VINA RESULT:    -5.948      0.000      0.000
REMARK INTER + INTRA:         -15.773
REMARK INTER:                 -13.597
REMARK INTRA:                  -2.177
REMARK UNBOUND:                -2.177
REMARK SMILES CCCCCCCCCCCCCCCCCCCCCCCC(=O)[O-]
REMARK SMILES IDX 13 1 14 2 15 3 16 4 17 5 18 6 19 7 20 8 21 9 22 10 23 11
REMARK SMILES IDX 24 12 25 13 26 14 12 15 11 16 10 17 9 18 8 19 7 20 6 21 5 22
REMARK SMILES IDX 4 23 3 24 2 25 1 26
REMARK H PARENT
REMARK Flexibility Score: inf
ROOT
ATOM      1  C   UNL     1      17.995 -44.659 -25.845  1.00  0.00     0.000 C 
ENDROOT
BRANCH   1   2
ATOM      2  C   UNL     1      17.993 -45.777 -26.904  1.00  0.00     0.000 C 
BRANCH   2   3
ATOM      3  C   UNL     1      17.767 -45.318 -28.357  1.00  0.00     0.000 C 
BRANCH   3   4
ATOM      4  C   UNL     1      16.877 -46.276 -29.164  1.00  0.00     0.000 C 
BRANCH   4   5
ATOM      5  C   UNL     1      17.607 -47.566 -29.575  1.00  0.00     0.000 C 
BRANCH   5   6
ATOM      6  C   UNL     1      18.729 -47.342 -30.612  1.00  0.00     0.000 C 
BRANCH   6   7
ATOM      7  C   UNL     1      19.015 -48.609 -31.439  1.00  0.00     0.000 C 
BRANCH   7   8
ATOM      8  C   UNL     1      19.847 -48.321 -32.699  1.00  0.00     0.000 C 
BRANCH   8   9
ATOM      9  C   UNL     1      20.498 -49.585 -33.282  1.00  0.00     0.000 C 
BRANCH   9  10
ATOM     10  C   UNL     1      19.984 -50.845 -32.575  1.00  0.00     0.006 C 
BRANCH  10  11
ATOM     11  C   UNL     1      21.031 -51.963 -32.612  1.00  0.00     0.053 C 
BRANCH  11  12
ATOM     12  C   UNL     1      20.510 -53.142 -33.370  1.00  0.00     0.041 C 
ATOM     13  O   UNL     1      19.413 -53.670 -33.045  1.00  0.00    -0.550 OA
ATOM     14  O   UNL     1      21.261 -53.694 -34.399  1.00  0.00    -0.550 OA
ENDBRANCH  11  12
ENDBRANCH  10  11
ENDBRANCH   9  10
ENDBRANCH   8   9
ENDBRANCH   7   8
ENDBRANCH   6   7
ENDBRANCH   5   6
ENDBRANCH   4   5
ENDBRANCH   3   4
ENDBRANCH   2   3
ENDBRANCH   1   2
BRANCH   1  15
ATOM     15  C   UNL     1      19.348 -44.507 -25.129  1.00  0.00     0.000 C 
BRANCH  15  16
ATOM     16  C   UNL     1      20.009 -43.142 -25.390  1.00  0.00     0.000 C 
BRANCH  16  17
ATOM     17  C   UNL     1      19.717 -42.058 -24.331  1.00  0.00     0.000 C 
BRANCH  17  18
ATOM     18  C   UNL     1      18.404 -41.274 -24.538  1.00  0.00    -0.000 C 
BRANCH  18  19
ATOM     19  C   UNL     1      17.470 -41.243 -23.315  1.00  0.00    -0.000 C 
BRANCH  19  20
ATOM     20  C   UNL     1      16.131 -41.955 -23.572  1.00  0.00    -0.000 C 
BRANCH  20  21
ATOM     21  C   UNL     1      16.012 -43.283 -22.808  1.00  0.00    -0.000 C 
BRANCH  21  22
ATOM     22  C   UNL     1      17.182 -43.509 -21.838  1.00  0.00    -0.000 C 
BRANCH  22  23
ATOM     23  C   UNL     1      17.562 -44.994 -21.770  1.00  0.00    -0.000 C 
BRANCH  23  24
ATOM     24  C   UNL     1      16.739 -45.818 -22.768  1.00  0.00    -0.000 C 
BRANCH  24  25
ATOM     25  C   UNL     1      16.809 -47.313 -22.437  1.00  0.00    -0.003 C 
ATOM     26  C   UNL     1      15.588 -47.757 -21.636  1.00  0.00     0.004 C 
ENDBRANCH  24  25
ENDBRANCH  23  24
ENDBRANCH  22  23
ENDBRANCH  21  22
ENDBRANCH  20  21
ENDBRANCH  19  20
ENDBRANCH  18  19
ENDBRANCH  17  18
ENDBRANCH  16  17
ENDBRANCH  15  16
ENDBRANCH   1  15
TORSDOF 22
ENDMDL
MODEL 2
REMARK VINA RESULT:    -5.938      2.338      4.893
REMARK INTER + INTRA:         -15.752
REMARK INTER:                 -12.429
REMARK INTRA:                  -3.323
REMARK UNBOUND:                -2.177
REMARK SMILES CCCCCCCCCCCCCCCCCCCCCCCC(=O)[O-]
REMARK SMILES IDX 13 1 14 2 15 3 16 4 17 5 18 6 19 7 20 8 21 9 22 10 23 11
REMARK SMILES IDX 24 12 25 13 26 14 12 15 11 16 10 17 9 18 8 19 7 20 6 21 5 22
REMARK SMILES IDX 4 23 3 24 2 25 1 26
REMARK H PARENT
REMARK Flexibility Score: inf
ROOT
ATOM      1  C   UNL     1      18.455 -47.650 -21.716  1.00  0.00     0.000 C 
ENDROOT
BRANCH   1   2
ATOM      2  C   UNL     1      17.975 -47.130 -23.084  1.00  0.00     0.000 C 
BRANCH   2   3
ATOM      3  C   UNL     1      17.086 -45.873 -23.044  1.00  0.00     0.000 C 
BRANCH   3   4
ATOM      4  C   UNL     1      17.266 -44.964 -24.271  1.00  0.00     0.000 C 
BRANCH   4   5
ATOM      5  C   UNL     1      18.003 -45.662 -25.428  1.00  0.00     0.000 C 
BRANCH   5   6
ATOM      6  C   UNL     1      18.249 -44.750 -26.649  1.00  0.00     0.000 C 
BRANCH   6   7
ATOM      7  C   UNL     1      17.483 -45.230 -27.894  1.00  0.00     0.000 C 
BRANCH   7   8
ATOM      8  C   UNL     1      17.864 -46.660 -28.313  1.00  0.00     0.000 C 
BRANCH   8   9
ATOM      9  C   UNL     1      17.134 -47.121 -29.585  1.00  0.00     0.000 C 
BRANCH   9  10
ATOM     10  C   UNL     1      17.814 -46.564 -30.841  1.00  0.00     0.006 C 
BRANCH  10  11
ATOM     11  C   UNL     1      19.265 -47.043 -30.940  1.00  0.00     0.053 C 
BRANCH  11  12
ATOM     12  C   UNL     1      19.400 -48.089 -32.002  1.00  0.00     0.041 C 
ATOM     13  O   UNL     1      19.703 -47.760 -33.179  1.00  0.00    -0.550 OA
ATOM     14  O   UNL     1      19.136 -49.420 -31.704  1.00  0.00    -0.550 OA
ENDBRANCH  11  12
ENDBRANCH  10  11
ENDBRANCH   9  10
ENDBRANCH   8   9
ENDBRANCH   7   8
ENDBRANCH   6   7
ENDBRANCH   5   6
ENDBRANCH   4   5
ENDBRANCH   3   4
ENDBRANCH   2   3
ENDBRANCH   1   2
BRANCH   1  15
ATOM     15  C   UNL     1      19.987 -47.699 -21.592  1.00  0.00     0.000 C 
BRANCH  15  16
ATOM     16  C   UNL     1      20.600 -46.332 -21.237  1.00  0.00     0.000 C 
BRANCH  16  17
ATOM     17  C   UNL     1      21.392 -45.653 -22.373  1.00  0.00     0.000 C 
BRANCH  17  18
ATOM     18  C   UNL     1      20.730 -44.397 -22.978  1.00  0.00    -0.000 C 
BRANCH  18  19
ATOM     19  C   UNL     1      19.929 -43.543 -21.979  1.00  0.00    -0.000 C 
BRANCH  19  20
ATOM     20  C   UNL     1      19.707 -42.104 -22.473  1.00  0.00    -0.000 C 
BRANCH  20  21
ATOM     21  C   UNL     1      19.652 -42.008 -24.006  1.00  0.00    -0.000 C 
BRANCH  21  22
ATOM     22  C   UNL     1      18.321 -41.429 -24.510  1.00  0.00    -0.000 C 
BRANCH  22  23
ATOM     23  C   UNL     1      17.379 -41.115 -23.341  1.00  0.00    -0.000 C 
BRANCH  23  24
ATOM     24  C   UNL     1      15.974 -41.672 -23.602  1.00  0.00    -0.000 C 
BRANCH  24  25
ATOM     25  C   UNL     1      15.241 -41.954 -22.287  1.00  0.00    -0.003 C 
ATOM     26  C   UNL     1      16.165 -41.758 -21.088  1.00  0.00     0.004 C 
ENDBRANCH  24  25
ENDBRANCH  23  24
ENDBRANCH  22  23
ENDBRANCH  21  22
ENDBRANCH  20  21
ENDBRANCH  19  20
ENDBRANCH  18  19
ENDBRANCH  17  18
ENDBRANCH  16  17
ENDBRANCH  15  16
ENDBRANCH   1  15
TORSDOF 22
ENDMDL
MODEL 3
REMARK VINA RESULT:    -5.842      3.617     10.949
REMARK INTER + INTRA:         -15.532
REMARK INTER:                 -13.791
REMARK INTRA:                  -1.741
REMARK UNBOUND:                -2.177
REMARK SMILES CCCCCCCCCCCCCCCCCCCCCCCC(=O)[O-]
REMARK SMILES IDX 13 1 14 2 15 3 16 4 17 5 18 6 19 7 20 8 21 9 22 10 23 11
REMARK SMILES IDX 24 12 25 13 26 14 12 15 11 16 10 17 9 18 8 19 7 20 6 21 5 22
REMARK SMILES IDX 4 23 3 24 2 25 1 26
REMARK H PARENT
REMARK Flexibility Score: inf
ROOT
ATOM      1  C   UNL     1      18.298 -45.414 -26.857  1.00  0.00     0.000 C 
ENDROOT
BRANCH   1   2
ATOM      2  C   UNL     1      18.416 -44.389 -25.714  1.00  0.00     0.000 C 
BRANCH   2   3
ATOM      3  C   UNL     1      19.820 -43.798 -25.492  1.00  0.00     0.000 C 
BRANCH   3   4
ATOM      4  C   UNL     1      19.820 -42.560 -24.580  1.00  0.00     0.000 C 
BRANCH   4   5
ATOM      5  C   UNL     1      18.619 -41.632 -24.833  1.00  0.00     0.000 C 
BRANCH   5   6
ATOM      6  C   UNL     1      17.773 -41.351 -23.573  1.00  0.00     0.000 C 
BRANCH   6   7
ATOM      7  C   UNL     1      16.382 -42.005 -23.652  1.00  0.00     0.000 C 
BRANCH   7   8
ATOM      8  C   UNL     1      16.021 -42.791 -22.381  1.00  0.00     0.000 C 
BRANCH   8   9
ATOM      9  C   UNL     1      17.255 -43.180 -21.552  1.00  0.00     0.000 C 
BRANCH   9  10
ATOM     10  C   UNL     1      17.793 -44.551 -21.978  1.00  0.00     0.006 C 
BRANCH  10  11
ATOM     11  C   UNL     1      16.712 -45.367 -22.695  1.00  0.00     0.053 C 
BRANCH  11  12
ATOM     12  C   UNL     1      16.892 -46.827 -22.424  1.00  0.00     0.041 C 
ATOM     13  O   UNL     1      17.841 -47.458 -22.960  1.00  0.00    -0.550 OA
ATOM     14  O   UNL     1      15.979 -47.503 -21.624  1.00  0.00    -0.550 OA
ENDBRANCH  11  12
ENDBRANCH  10  11
ENDBRANCH   9  10
ENDBRANCH   8   9
ENDBRANCH   7   8
ENDBRANCH   6   7
ENDBRANCH   5   6
ENDBRANCH   4   5
ENDBRANCH   3   4
ENDBRANCH   2   3
ENDBRANCH   1   2
BRANCH   1  15
ATOM     15  C   UNL     1      17.234 -45.036 -27.901  1.00  0.00     0.000 C 
BRANCH  15  16
ATOM     16  C   UNL     1      17.628 -45.451 -29.330  1.00  0.00     0.000 C 
BRANCH  16  17
ATOM     17  C   UNL     1      17.943 -46.950 -29.514  1.00  0.00     0.000 C 
BRANCH  17  18
ATOM     18  C   UNL     1      19.021 -47.270 -30.570  1.00  0.00    -0.000 C 
BRANCH  18  19
ATOM     19  C   UNL     1      18.796 -48.578 -31.349  1.00  0.00    -0.000 C 
BRANCH  19  20
ATOM     20  C   UNL     1      20.104 -49.182 -31.887  1.00  0.00    -0.000 C 
BRANCH  20  21
ATOM     21  C   UNL     1      19.910 -50.590 -32.470  1.00  0.00    -0.000 C 
BRANCH  21  22
ATOM     22  C   UNL     1      21.048 -51.547 -32.085  1.00  0.00    -0.000 C 
BRANCH  22  23
ATOM     23  C   UNL     1      21.121 -52.733 -33.055  1.00  0.00    -0.000 C 
BRANCH  23  24
ATOM     24  C   UNL     1      19.756 -53.419 -33.190  1.00  0.00    -0.000 C 
BRANCH  24  25
ATOM     25  C   UNL     1      19.894 -54.792 -33.856  1.00  0.00    -0.003 C 
ATOM     26  C   UNL     1      21.089 -54.827 -34.804  1.00  0.00     0.004 C 
ENDBRANCH  24  25
ENDBRANCH  23  24
ENDBRANCH  22  23
ENDBRANCH  21  22
ENDBRANCH  20  21
ENDBRANCH  19  20
ENDBRANCH  18  19
ENDBRANCH  17  18
ENDBRANCH  16  17
ENDBRANCH  15  16
ENDBRANCH   1  15
TORSDOF 22
ENDMDL
MODEL 4
REMARK VINA RESULT:    -5.823      5.979     10.562
REMARK INTER + INTRA:         -15.488
REMARK INTER:                 -12.453
REMARK INTRA:                  -3.035
REMARK UNBOUND:                -2.177
REMARK SMILES CCCCCCCCCCCCCCCCCCCCCCCC(=O)[O-]
REMARK SMILES IDX 13 1 14 2 15 3 16 4 17 5 18 6 19 7 20 8 21 9 22 10 23 11
REMARK SMILES IDX 24 12 25 13 26 14 12 15 11 16 10 17 9 18 8 19 7 20 6 21 5 22
REMARK SMILES IDX 4 23 3 24 2 25 1 26
REMARK H PARENT
REMARK Flexibility Score: inf
ROOT
ATOM      1  C   UNL     1      19.856 -45.693 -21.621  1.00  0.00     0.000 C 
ENDROOT
BRANCH   1   2
ATOM      2  C   UNL     1      19.561 -46.319 -22.997  1.00  0.00     0.000 C 
BRANCH   2   3
ATOM      3  C   UNL     1      18.245 -47.113 -23.100  1.00  0.00     0.000 C 
BRANCH   3   4
ATOM      4  C   UNL     1      17.154 -46.603 -22.145  1.00  0.00     0.000 C 
BRANCH   4   5
ATOM      5  C   UNL     1      16.221 -45.570 -22.802  1.00  0.00     0.000 C 
BRANCH   5   6
ATOM      6  C   UNL     1      16.588 -44.106 -22.479  1.00  0.00     0.000 C 
BRANCH   6   7
ATOM      7  C   UNL     1      15.643 -43.106 -23.170  1.00  0.00     0.000 C 
BRANCH   7   8
ATOM      8  C   UNL     1      15.981 -41.643 -22.840  1.00  0.00     0.000 C 
BRANCH   8   9
ATOM      9  C   UNL     1      16.908 -41.506 -21.622  1.00  0.00     0.000 C 
BRANCH   9  10
ATOM     10  C   UNL     1      16.108 -41.554 -20.315  1.00  0.00     0.006 C 
BRANCH  10  11
ATOM     11  C   UNL     1      17.027 -41.811 -19.117  1.00  0.00     0.053 C 
BRANCH  11  12
ATOM     12  C   UNL     1      16.223 -41.978 -17.867  1.00  0.00     0.041 C 
ATOM     13  O   UNL     1      14.965 -41.992 -17.921  1.00  0.00    -0.550 OA
ATOM     14  O   UNL     1      16.861 -42.061 -16.635  1.00  0.00    -0.550 OA
ENDBRANCH  11  12
ENDBRANCH  10  11
ENDBRANCH   9  10
ENDBRANCH   8   9
ENDBRANCH   7   8
ENDBRANCH   6   7
ENDBRANCH   5   6
ENDBRANCH   4   5
ENDBRANCH   3   4
ENDBRANCH   2   3
ENDBRANCH   1   2
BRANCH   1  15
ATOM     15  C   UNL     1      19.814 -44.156 -21.635  1.00  0.00     0.000 C 
BRANCH  15  16
ATOM     16  C   UNL     1      20.601 -43.550 -22.811  1.00  0.00     0.000 C 
BRANCH  16  17
ATOM     17  C   UNL     1      20.148 -42.141 -23.247  1.00  0.00     0.000 C 
BRANCH  17  18
ATOM     18  C   UNL     1      19.369 -42.083 -24.577  1.00  0.00    -0.000 C 
BRANCH  18  19
ATOM     19  C   UNL     1      19.439 -43.366 -25.426  1.00  0.00    -0.000 C 
BRANCH  19  20
ATOM     20  C   UNL     1      18.074 -44.061 -25.565  1.00  0.00    -0.000 C 
BRANCH  20  21
ATOM     21  C   UNL     1      18.164 -45.391 -26.329  1.00  0.00    -0.000 C 
BRANCH  21  22
ATOM     22  C   UNL     1      17.562 -45.299 -27.740  1.00  0.00    -0.000 C 
BRANCH  22  23
ATOM     23  C   UNL     1      18.262 -46.268 -28.701  1.00  0.00    -0.000 C 
BRANCH  23  24
ATOM     24  C   UNL     1      17.291 -46.778 -29.773  1.00  0.00    -0.000 C 
BRANCH  24  25
ATOM     25  C   UNL     1      17.674 -48.187 -30.238  1.00  0.00    -0.003 C 
ATOM     26  C   UNL     1      18.733 -48.135 -31.336  1.00  0.00     0.004 C 
ENDBRANCH  24  25
ENDBRANCH  23  24
ENDBRANCH  22  23
ENDBRANCH  21  22
ENDBRANCH  20  21
ENDBRANCH  19  20
ENDBRANCH  18  19
ENDBRANCH  17  18
ENDBRANCH  16  17
ENDBRANCH  15  16
ENDBRANCH   1  15
TORSDOF 22
ENDMDL
MODEL 5
REMARK VINA RESULT:    -5.767      3.777     10.026
REMARK INTER + INTRA:         -15.361
REMARK INTER:                 -13.202
REMARK INTRA:                  -2.159
REMARK UNBOUND:                -2.177
REMARK SMILES CCCCCCCCCCCCCCCCCCCCCCCC(=O)[O-]
REMARK SMILES IDX 13 1 14 2 15 3 16 4 17 5 18 6 19 7 20 8 21 9 22 10 23 11
REMARK SMILES IDX 24 12 25 13 26 14 12 15 11 16 10 17 9 18 8 19 7 20 6 21 5 22
REMARK SMILES IDX 4 23 3 24 2 25 1 26
REMARK H PARENT
REMARK Flexibility Score: inf
ROOT
ATOM      1  C   UNL     1      19.576 -43.881 -25.375  1.00  0.00     0.000 C 
ENDROOT
BRANCH   1   2
ATOM      2  C   UNL     1      19.610 -42.770 -24.308  1.00  0.00     0.000 C 
BRANCH   2   3
ATOM      3  C   UNL     1      18.760 -41.524 -24.617  1.00  0.00     0.000 C 
BRANCH   3   4
ATOM      4  C   UNL     1      17.748 -41.191 -23.509  1.00  0.00     0.000 C 
BRANCH   4   5
ATOM      5  C   UNL     1      16.574 -42.183 -23.455  1.00  0.00     0.000 C 
BRANCH   5   6
ATOM      6  C   UNL     1      16.154 -42.573 -22.021  1.00  0.00     0.000 C 
BRANCH   6   7
ATOM      7  C   UNL     1      17.327 -43.159 -21.214  1.00  0.00     0.000 C 
BRANCH   7   8
ATOM      8  C   UNL     1      17.935 -44.410 -21.869  1.00  0.00     0.000 C 
BRANCH   8   9
ATOM      9  C   UNL     1      16.992 -45.622 -21.826  1.00  0.00     0.000 C 
BRANCH   9  10
ATOM     10  C   UNL     1      17.213 -46.534 -23.039  1.00  0.00     0.006 C 
BRANCH  10  11
ATOM     11  C   UNL     1      18.692 -46.908 -23.183  1.00  0.00     0.053 C 
BRANCH  11  12
ATOM     12  C   UNL     1      19.154 -47.685 -21.992  1.00  0.00     0.041 C 
ATOM     13  O   UNL     1      18.539 -48.725 -21.637  1.00  0.00    -0.550 OA
ATOM     14  O   UNL     1      20.230 -47.230 -21.240  1.00  0.00    -0.550 OA
ENDBRANCH  11  12
ENDBRANCH  10  11
ENDBRANCH   9  10
ENDBRANCH   8   9
ENDBRANCH   7   8
ENDBRANCH   6   7
ENDBRANCH   5   6
ENDBRANCH   4   5
ENDBRANCH   3   4
ENDBRANCH   2   3
ENDBRANCH   1   2
BRANCH   1  15
ATOM     15  C   UNL     1      18.151 -44.250 -25.819  1.00  0.00     0.000 C 
BRANCH  15  16
ATOM     16  C   UNL     1      18.103 -45.542 -26.654  1.00  0.00     0.000 C 
BRANCH  16  17
ATOM     17  C   UNL     1      17.503 -45.388 -28.067  1.00  0.00     0.000 C 
BRANCH  17  18
ATOM     18  C   UNL     1      18.122 -46.300 -29.147  1.00  0.00    -0.000 C 
BRANCH  18  19
ATOM     19  C   UNL     1      17.224 -47.464 -29.603  1.00  0.00    -0.000 C 
BRANCH  19  20
ATOM     20  C   UNL     1      17.915 -48.381 -30.626  1.00  0.00    -0.000 C 
BRANCH  20  21
ATOM     21  C   UNL     1      19.221 -47.780 -31.170  1.00  0.00    -0.000 C 
BRANCH  21  22
ATOM     22  C   UNL     1      19.859 -48.653 -32.261  1.00  0.00    -0.000 C 
BRANCH  22  23
ATOM     23  C   UNL     1      19.393 -50.109 -32.144  1.00  0.00    -0.000 C 
BRANCH  23  24
ATOM     24  C   UNL     1      20.419 -51.067 -32.762  1.00  0.00    -0.000 C 
BRANCH  24  25
ATOM     25  C   UNL     1      19.844 -52.481 -32.893  1.00  0.00    -0.003 C 
ATOM     26  C   UNL     1      20.809 -53.401 -33.635  1.00  0.00     0.004 C 
ENDBRANCH  24  25
ENDBRANCH  23  24
ENDBRANCH  22  23
ENDBRANCH  21  22
ENDBRANCH  20  21
ENDBRANCH  19  20
ENDBRANCH  18  19
ENDBRANCH  17  18
ENDBRANCH  16  17
ENDBRANCH  15  16
ENDBRANCH   1  15
TORSDOF 22
ENDMDL
MODEL 6
REMARK VINA RESULT:    -5.742      2.511      5.007
REMARK INTER + INTRA:         -15.304
REMARK INTER:                 -12.135
REMARK INTRA:                  -3.169
REMARK UNBOUND:                -2.177
REMARK SMILES CCCCCCCCCCCCCCCCCCCCCCCC(=O)[O-]
REMARK SMILES IDX 13 1 14 2 15 3 16 4 17 5 18 6 19 7 20 8 21 9 22 10 23 11
REMARK SMILES IDX 24 12 25 13 26 14 12 15 11 16 10 17 9 18 8 19 7 20 6 21 5 22
REMARK SMILES IDX 4 23 3 24 2 25 1 26
REMARK H PARENT
REMARK Flexibility Score: inf
ROOT
ATOM      1  C   UNL     1      20.207 -45.353 -21.623  1.00  0.00     0.000 C 
ENDROOT
BRANCH   1   2
ATOM      2  C   UNL     1      19.004 -46.254 -21.957  1.00  0.00     0.000 C 
BRANCH   2   3
ATOM      3  C   UNL     1      17.621 -45.584 -21.854  1.00  0.00     0.000 C 
BRANCH   3   4
ATOM      4  C   UNL     1      16.839 -45.601 -23.178  1.00  0.00     0.000 C 
BRANCH   4   5
ATOM      5  C   UNL     1      17.569 -44.860 -24.312  1.00  0.00     0.000 C 
BRANCH   5   6
ATOM      6  C   UNL     1      17.924 -45.760 -25.515  1.00  0.00     0.000 C 
BRANCH   6   7
ATOM      7  C   UNL     1      18.153 -44.945 -26.800  1.00  0.00     0.000 C 
BRANCH   7   8
ATOM      8  C   UNL     1      17.359 -45.488 -27.999  1.00  0.00     0.000 C 
BRANCH   8   9
ATOM      9  C   UNL     1      18.040 -46.693 -28.668  1.00  0.00     0.000 C 
BRANCH   9  10
ATOM     10  C   UNL     1      17.728 -46.736 -30.169  1.00  0.00     0.006 C 
BRANCH  10  11
ATOM     11  C   UNL     1      19.015 -46.696 -30.999  1.00  0.00     0.053 C 
BRANCH  11  12
ATOM     12  C   UNL     1      19.167 -47.955 -31.791  1.00  0.00     0.041 C 
ATOM     13  O   UNL     1      18.679 -49.035 -31.363  1.00  0.00    -0.550 OA
ATOM     14  O   UNL     1      19.895 -47.948 -32.974  1.00  0.00    -0.550 OA
ENDBRANCH  11  12
ENDBRANCH  10  11
ENDBRANCH   9  10
ENDBRANCH   8   9
ENDBRANCH   7   8
ENDBRANCH   6   7
ENDBRANCH   5   6
ENDBRANCH   4   5
ENDBRANCH   3   4
ENDBRANCH   2   3
ENDBRANCH   1   2
BRANCH   1  15
ATOM     15  C   UNL     1      21.479 -45.730 -22.402  1.00  0.00     0.000 C 
BRANCH  15  16
ATOM     16  C   UNL     1      21.282 -45.668 -23.928  1.00  0.00     0.000 C 
BRANCH  16  17
ATOM     17  C   UNL     1      21.860 -44.411 -24.612  1.00  0.00     0.000 C 
BRANCH  17  18
ATOM     18  C   UNL     1      20.822 -43.335 -24.993  1.00  0.00    -0.000 C 
BRANCH  18  19
ATOM     19  C   UNL     1      20.725 -42.153 -24.010  1.00  0.00    -0.000 C 
BRANCH  19  20
ATOM     20  C   UNL     1      19.335 -42.032 -23.364  1.00  0.00    -0.000 C 
BRANCH  20  21
ATOM     21  C   UNL     1      18.299 -41.397 -24.306  1.00  0.00    -0.000 C 
BRANCH  21  22
ATOM     22  C   UNL     1      16.894 -41.348 -23.687  1.00  0.00    -0.000 C 
BRANCH  22  23
ATOM     23  C   UNL     1      16.961 -40.987 -22.198  1.00  0.00    -0.000 C 
BRANCH  23  24
ATOM     24  C   UNL     1      16.193 -42.007 -21.348  1.00  0.00    -0.000 C 
BRANCH  24  25
ATOM     25  C   UNL     1      16.980 -42.378 -20.087  1.00  0.00    -0.003 C 
ATOM     26  C   UNL     1      16.648 -41.433 -18.934  1.00  0.00     0.004 C 
ENDBRANCH  24  25
ENDBRANCH  23  24
ENDBRANCH  22  23
ENDBRANCH  21  22
ENDBRANCH  20  21
ENDBRANCH  19  20
ENDBRANCH  18  19
ENDBRANCH  17  18
ENDBRANCH  16  17
ENDBRANCH  15  16
ENDBRANCH   1  15
TORSDOF 22
ENDMDL
MODEL 7
REMARK VINA RESULT:    -5.732      4.832     10.719
REMARK INTER + INTRA:         -15.281
REMARK INTER:                 -13.030
REMARK INTRA:                  -2.250
REMARK UNBOUND:                -2.177
REMARK SMILES CCCCCCCCCCCCCCCCCCCCCCCC(=O)[O-]
REMARK SMILES IDX 13 1 14 2 15 3 16 4 17 5 18 6 19 7 20 8 21 9 22 10 23 11
REMARK SMILES IDX 24 12 25 13 26 14 12 15 11 16 10 17 9 18 8 19 7 20 6 21 5 22
REMARK SMILES IDX 4 23 3 24 2 25 1 26
REMARK H PARENT
REMARK Flexibility Score: inf
ROOT
ATOM      1  C   UNL     1      17.608 -45.544 -24.458  1.00  0.00     0.000 C 
ENDROOT
BRANCH   1   2
ATOM      2  C   UNL     1      17.652 -46.721 -23.466  1.00  0.00     0.000 C 
BRANCH   2   3
ATOM      3  C   UNL     1      18.135 -46.376 -22.045  1.00  0.00     0.000 C 
BRANCH   3   4
ATOM      4  C   UNL     1      19.650 -46.131 -21.961  1.00  0.00     0.000 C 
BRANCH   4   5
ATOM      5  C   UNL     1      20.002 -44.666 -21.651  1.00  0.00     0.000 C 
BRANCH   5   6
ATOM      6  C   UNL     1      20.785 -43.962 -22.780  1.00  0.00     0.000 C 
BRANCH   6   7
ATOM      7  C   UNL     1      20.244 -42.549 -23.066  1.00  0.00     0.000 C 
BRANCH   7   8
ATOM      8  C   UNL     1      19.492 -42.459 -24.403  1.00  0.00     0.000 C 
BRANCH   8   9
ATOM      9  C   UNL     1      18.374 -41.404 -24.387  1.00  0.00     0.000 C 
BRANCH   9  10
ATOM     10  C   UNL     1      17.019 -42.045 -24.066  1.00  0.00     0.006 C 
BRANCH  10  11
ATOM     11  C   UNL     1      16.248 -41.215 -23.035  1.00  0.00     0.053 C 
BRANCH  11  12
ATOM     12  C   UNL     1      16.152 -41.951 -21.736  1.00  0.00     0.041 C 
ATOM     13  O   UNL     1      15.339 -41.571 -20.852  1.00  0.00    -0.550 OA
ATOM     14  O   UNL     1      16.999 -43.021 -21.480  1.00  0.00    -0.550 OA
ENDBRANCH  11  12
ENDBRANCH  10  11
ENDBRANCH   9  10
ENDBRANCH   8   9
ENDBRANCH   7   8
ENDBRANCH   6   7
ENDBRANCH   5   6
ENDBRANCH   4   5
ENDBRANCH   3   4
ENDBRANCH   2   3
ENDBRANCH   1   2
BRANCH   1  15
ATOM     15  C   UNL     1      18.353 -45.833 -25.772  1.00  0.00     0.000 C 
BRANCH  15  16
ATOM     16  C   UNL     1      18.026 -44.814 -26.879  1.00  0.00     0.000 C 
BRANCH  16  17
ATOM     17  C   UNL     1      17.432 -45.415 -28.169  1.00  0.00     0.000 C 
BRANCH  17  18
ATOM     18  C   UNL     1      17.687 -46.923 -28.370  1.00  0.00    -0.000 C 
BRANCH  18  19
ATOM     19  C   UNL     1      17.673 -47.392 -29.837  1.00  0.00    -0.000 C 
BRANCH  19  20
ATOM     20  C   UNL     1      19.048 -47.267 -30.513  1.00  0.00    -0.000 C 
BRANCH  20  21
ATOM     21  C   UNL     1      18.942 -46.951 -32.013  1.00  0.00    -0.000 C 
BRANCH  21  22
ATOM     22  C   UNL     1      19.743 -47.935 -32.879  1.00  0.00    -0.000 C 
BRANCH  22  23
ATOM     23  C   UNL     1      20.217 -49.136 -32.052  1.00  0.00    -0.000 C 
BRANCH  23  24
ATOM     24  C   UNL     1      19.640 -50.446 -32.603  1.00  0.00    -0.000 C 
BRANCH  24  25
ATOM     25  C   UNL     1      20.674 -51.575 -32.535  1.00  0.00    -0.003 C 
ATOM     26  C   UNL     1      20.053 -52.915 -32.921  1.00  0.00     0.004 C 
ENDBRANCH  24  25
ENDBRANCH  23  24
ENDBRANCH  22  23
ENDBRANCH  21  22
ENDBRANCH  20  21
ENDBRANCH  19  20
ENDBRANCH  18  19
ENDBRANCH  17  18
ENDBRANCH  16  17
ENDBRANCH  15  16
ENDBRANCH   1  15
TORSDOF 22
ENDMDL
MODEL 8
REMARK VINA RESULT:    -5.651      1.481      3.136
REMARK INTER + INTRA:         -15.096
REMARK INTER:                 -12.224
REMARK INTRA:                  -2.872
REMARK UNBOUND:                -2.177
REMARK SMILES CCCCCCCCCCCCCCCCCCCCCCCC(=O)[O-]
REMARK SMILES IDX 13 1 14 2 15 3 16 4 17 5 18 6 19 7 20 8 21 9 22 10 23 11
REMARK SMILES IDX 24 12 25 13 26 14 12 15 11 16 10 17 9 18 8 19 7 20 6 21 5 22
REMARK SMILES IDX 4 23 3 24 2 25 1 26
REMARK H PARENT
REMARK Flexibility Score: inf
ROOT
ATOM      1  C   UNL     1      18.208 -46.291 -24.507  1.00  0.00     0.000 C 
ENDROOT
BRANCH   1   2
ATOM      2  C   UNL     1      17.555 -45.300 -25.489  1.00  0.00     0.000 C 
BRANCH   2   3
ATOM      3  C   UNL     1      18.325 -45.058 -26.801  1.00  0.00     0.000 C 
BRANCH   3   4
ATOM      4  C   UNL     1      17.488 -45.344 -28.058  1.00  0.00     0.000 C 
BRANCH   4   5
ATOM      5  C   UNL     1      17.946 -46.609 -28.805  1.00  0.00     0.000 C 
BRANCH   5   6
ATOM      6  C   UNL     1      19.000 -46.338 -29.899  1.00  0.00     0.000 C 
BRANCH   6   7
ATOM      7  C   UNL     1      18.357 -46.104 -31.278  1.00  0.00     0.000 C 
BRANCH   7   8
ATOM      8  C   UNL     1      18.706 -47.205 -32.292  1.00  0.00     0.000 C 
BRANCH   8   9
ATOM      9  C   UNL     1      19.638 -48.278 -31.708  1.00  0.00     0.000 C 
BRANCH   9  10
ATOM     10  C   UNL     1      20.180 -49.195 -32.812  1.00  0.00     0.006 C 
BRANCH  10  11
ATOM     11  C   UNL     1      19.862 -50.663 -32.512  1.00  0.00     0.053 C 
BRANCH  11  12
ATOM     12  C   UNL     1      21.006 -51.539 -32.916  1.00  0.00     0.041 C 
ATOM     13  O   UNL     1      21.337 -51.629 -34.128  1.00  0.00    -0.550 OA
ATOM     14  O   UNL     1      21.670 -52.300 -31.962  1.00  0.00    -0.550 OA
ENDBRANCH  11  12
ENDBRANCH  10  11
ENDBRANCH   9  10
ENDBRANCH   8   9
ENDBRANCH   7   8
ENDBRANCH   6   7
ENDBRANCH   5   6
ENDBRANCH   4   5
ENDBRANCH   3   4
ENDBRANCH   2   3
ENDBRANCH   1   2
BRANCH   1  15
ATOM     15  C   UNL     1      17.476 -46.374 -23.157  1.00  0.00     0.000 C 
BRANCH  15  16
ATOM     16  C   UNL     1      18.320 -45.836 -21.988  1.00  0.00     0.000 C 
BRANCH  16  17
ATOM     17  C   UNL     1      19.626 -45.123 -22.396  1.00  0.00     0.000 C 
BRANCH  17  18
ATOM     18  C   UNL     1      19.928 -43.817 -21.632  1.00  0.00    -0.000 C 
BRANCH  18  19
ATOM     19  C   UNL     1      20.128 -42.577 -22.523  1.00  0.00    -0.000 C 
BRANCH  19  20
ATOM     20  C   UNL     1      19.545 -42.761 -23.934  1.00  0.00    -0.000 C 
BRANCH  20  21
ATOM     21  C   UNL     1      18.857 -41.491 -24.459  1.00  0.00    -0.000 C 
BRANCH  21  22
ATOM     22  C   UNL     1      17.508 -41.228 -23.773  1.00  0.00    -0.000 C 
BRANCH  22  23
ATOM     23  C   UNL     1      16.628 -42.484 -23.789  1.00  0.00    -0.000 C 
BRANCH  23  24
ATOM     24  C   UNL     1      16.103 -42.807 -22.384  1.00  0.00    -0.000 C 
BRANCH  24  25
ATOM     25  C   UNL     1      16.275 -41.609 -21.444  1.00  0.00    -0.003 C 
ATOM     26  C   UNL     1      17.055 -42.000 -20.191  1.00  0.00     0.004 C 
ENDBRANCH  24  25
ENDBRANCH  23  24
ENDBRANCH  22  23
ENDBRANCH  21  22
ENDBRANCH  20  21
ENDBRANCH  19  20
ENDBRANCH  18  19
ENDBRANCH  17  18
ENDBRANCH  16  17
ENDBRANCH  15  16
ENDBRANCH   1  15
TORSDOF 22
ENDMDL
MODEL 9
REMARK VINA RESULT:    -5.590      4.764     10.970
REMARK INTER + INTRA:         -14.956
REMARK INTER:                 -12.812
REMARK INTRA:                  -2.144
REMARK UNBOUND:                -2.177
REMARK SMILES CCCCCCCCCCCCCCCCCCCCCCCC(=O)[O-]
REMARK SMILES IDX 13 1 14 2 15 3 16 4 17 5 18 6 19 7 20 8 21 9 22 10 23 11
REMARK SMILES IDX 24 12 25 13 26 14 12 15 11 16 10 17 9 18 8 19 7 20 6 21 5 22
REMARK SMILES IDX 4 23 3 24 2 25 1 26
REMARK H PARENT
REMARK Flexibility Score: inf
ROOT
ATOM      1  C   UNL     1      17.784 -45.470 -26.205  1.00  0.00     0.000 C 
ENDROOT
BRANCH   1   2
ATOM      2  C   UNL     1      18.404 -44.148 -25.714  1.00  0.00     0.000 C 
BRANCH   2   3
ATOM      3  C   UNL     1      19.926 -44.173 -25.479  1.00  0.00     0.000 C 
BRANCH   3   4
ATOM      4  C   UNL     1      20.309 -44.315 -23.997  1.00  0.00     0.000 C 
BRANCH   4   5
ATOM      5  C   UNL     1      20.667 -45.760 -23.609  1.00  0.00     0.000 C 
BRANCH   5   6
ATOM      6  C   UNL     1      20.231 -46.146 -22.179  1.00  0.00     0.000 C 
BRANCH   6   7
ATOM      7  C   UNL     1      18.831 -46.786 -22.152  1.00  0.00     0.000 C 
BRANCH   7   8
ATOM      8  C   UNL     1      17.718 -45.771 -21.845  1.00  0.00     0.000 C 
BRANCH   8   9
ATOM      9  C   UNL     1      16.505 -45.919 -22.777  1.00  0.00     0.000 C 
BRANCH   9  10
ATOM     10  C   UNL     1      15.867 -44.555 -23.069  1.00  0.00     0.006 C 
BRANCH  10  11
ATOM     11  C   UNL     1      16.742 -43.414 -22.539  1.00  0.00     0.053 C 
BRANCH  11  12
ATOM     12  C   UNL     1      16.043 -42.101 -22.699  1.00  0.00     0.041 C 
ATOM     13  O   UNL     1      14.914 -42.049 -23.254  1.00  0.00    -0.550 OA
ATOM     14  O   UNL     1      16.663 -40.929 -22.286  1.00  0.00    -0.550 OA
ENDBRANCH  11  12
ENDBRANCH  10  11
ENDBRANCH   9  10
ENDBRANCH   8   9
ENDBRANCH   7   8
ENDBRANCH   6   7
ENDBRANCH   5   6
ENDBRANCH   4   5
ENDBRANCH   3   4
ENDBRANCH   2   3
ENDBRANCH   1   2
BRANCH   1  15
ATOM     15  C   UNL     1      18.270 -45.882 -27.605  1.00  0.00     0.000 C 
BRANCH  15  16
ATOM     16  C   UNL     1      17.247 -45.557 -28.709  1.00  0.00     0.000 C 
BRANCH  16  17
ATOM     17  C   UNL     1      17.713 -45.867 -30.146  1.00  0.00     0.000 C 
BRANCH  17  18
ATOM     18  C   UNL     1      18.959 -46.771 -30.253  1.00  0.00    -0.000 C 
BRANCH  18  19
ATOM     19  C   UNL     1      18.796 -47.991 -31.178  1.00  0.00    -0.000 C 
BRANCH  19  20
ATOM     20  C   UNL     1      19.533 -47.823 -32.517  1.00  0.00    -0.000 C 
BRANCH  20  21
ATOM     21  C   UNL     1      20.230 -49.114 -32.974  1.00  0.00    -0.000 C 
BRANCH  21  22
ATOM     22  C   UNL     1      19.722 -50.353 -32.223  1.00  0.00    -0.000 C 
BRANCH  22  23
ATOM     23  C   UNL     1      20.777 -51.466 -32.217  1.00  0.00    -0.000 C 
BRANCH  23  24
ATOM     24  C   UNL     1      21.043 -51.980 -33.638  1.00  0.00    -0.000 C 
BRANCH  24  25
ATOM     25  C   UNL     1      20.891 -53.503 -33.710  1.00  0.00    -0.003 C 
ATOM     26  C   UNL     1      19.482 -53.935 -33.314  1.00  0.00     0.004 C 
ENDBRANCH  24  25
ENDBRANCH  23  24
ENDBRANCH  22  23
ENDBRANCH  21  22
ENDBRANCH  20  21
ENDBRANCH  19  20
ENDBRANCH  18  19
ENDBRANCH  17  18
ENDBRANCH  16  17
ENDBRANCH  15  16
ENDBRANCH   1  15
TORSDOF 22
ENDMDL
