MODEL 1
REMARK VINA RESULT:    -0.092      0.000      0.000
REMARK INTER + INTRA:          -0.095
REMARK INTER:                  -0.095
REMARK INTRA:                   0.000
REMARK UNBOUND:                 0.000
REMARK SMILES Cc1cccc(O)c1C
REMARK SMILES IDX 1 1 2 2 8 3 6 4 5 5 4 6 3 7 9 8 7 9
REMARK H PARENT 7 10
REMARK Flexibility Score: inf
ROOT
ATOM      1  C   UNL     1     -27.114  -3.867 -21.895  1.00  0.00     0.045 C 
ATOM      2  C   UNL     1     -27.117  -3.262 -23.276  1.00  0.00    -0.045 A 
ATOM      3  C   UNL     1     -27.119  -1.854 -23.483  1.00  0.00    -0.006 A 
ATOM      4  C   UNL     1     -27.122  -1.354 -24.810  1.00  0.00     0.118 A 
ATOM      5  C   UNL     1     -27.121  -2.239 -25.892  1.00  0.00     0.046 A 
ATOM      6  C   UNL     1     -27.118  -3.615 -25.682  1.00  0.00     0.004 A 
ATOM      7  C   UNL     1     -27.115  -4.124 -24.385  1.00  0.00     0.004 A 
ATOM      8  C   UNL     1     -27.120  -0.880 -22.328  1.00  0.00     0.048 C 
ENDROOT
BRANCH   4   9
ATOM      9  O   UNL     1     -27.124   0.015 -25.089  1.00  0.00    -0.508 OA
ATOM     10  H   UNL     1     -27.149   0.393 -26.028  1.00  0.00     0.293 HD
ENDBRANCH   4   9
TORSDOF 1
ENDMDL
MODEL 2
REMARK VINA RESULT:     1.012      1.639      2.779
REMARK INTER + INTRA:           1.042
REMARK INTER:                   1.042
REMARK INTRA:                   0.000
REMARK UNBOUND:                 0.000
REMARK SMILES Cc1cccc(O)c1C
REMARK SMILES IDX 1 1 2 2 8 3 6 4 5 5 4 6 3 7 9 8 7 9
REMARK H PARENT 7 10
REMARK Flexibility Score: inf
ROOT
ATOM      1  C   UNL     1     -26.810  -0.549 -21.651  1.00  0.00     0.045 C 
ATOM      2  C   UNL     1     -26.918  -1.016 -23.080  1.00  0.00    -0.045 A 
ATOM      3  C   UNL     1     -26.962  -2.397 -23.422  1.00  0.00    -0.006 A 
ATOM      4  C   UNL     1     -27.064  -2.765 -24.788  1.00  0.00     0.118 A 
ATOM      5  C   UNL     1     -27.120  -1.779 -25.777  1.00  0.00     0.046 A 
ATOM      6  C   UNL     1     -27.076  -0.430 -25.435  1.00  0.00     0.004 A 
ATOM      7  C   UNL     1     -26.976  -0.050 -24.099  1.00  0.00     0.004 A 
ATOM      8  C   UNL     1     -26.903  -3.480 -22.369  1.00  0.00     0.048 C 
ENDROOT
BRANCH   4   9
ATOM      9  O   UNL     1     -27.113  -4.100 -25.197  1.00  0.00    -0.508 OA
ATOM     10  H   UNL     1     -27.972  -4.629 -25.273  1.00  0.00     0.293 HD
ENDBRANCH   4   9
TORSDOF 1
ENDMDL
