MODEL 1
REMARK VINA RESULT:    -1.375      0.000      0.000
REMARK INTER + INTRA:          -2.360
REMARK INTER:                  -1.897
REMARK INTRA:                  -0.463
REMARK UNBOUND:                -0.463
REMARK SMILES C=C(CC[C@@H](C(=O)[O-])[C@H]1CC[C@]2(C)C3=C(CC[C@]12C)[C@]1(C)CC[C@H](O)C(C)(C)[C@@H]1CC3)C(C)C
REMARK SMILES IDX 4 1 5 2 6 3 7 4 8 5 9 6 10 7 18 8 11 9 12 10 17 11 19 12
REMARK SMILES IDX 13 13 14 14 16 15 15 16 31 17 20 18 30 19 29 20 22 21 21 22
REMARK SMILES IDX 26 23 23 24 24 25 27 26 28 27 25 28 3 30 2 31 1 32 32 33
REMARK SMILES IDX 33 34 34 35
REMARK H PARENT 25 29
REMARK Flexibility Score: inf
ROOT
ATOM      1  C   UNL     1      28.409  33.249  21.649  1.00  0.00     0.014 C 
ENDROOT
BRANCH   1   2
ATOM      2  C   UNL     1      27.476  34.485  21.788  1.00  0.00     0.039 C 
BRANCH   2   3
ATOM      3  C   UNL     1      27.573  35.078  23.174  1.00  0.00     0.045 C 
ATOM      4  O   UNL     1      26.562  35.147  23.922  1.00  0.00    -0.550 OA
ATOM      5  O   UNL     1      28.811  35.459  23.672  1.00  0.00    -0.550 OA
ENDBRANCH   2   3
BRANCH   2   6
ATOM      6  C   UNL     1      27.698  35.619  20.723  1.00  0.00     0.004 C 
ATOM      7  C   UNL     1      28.655  35.301  19.577  1.00  0.00     0.006 C 
ATOM      8  C   UNL     1      26.439  36.221  20.027  1.00  0.00    -0.020 C 
ATOM      9  C   UNL     1      28.352  36.335  18.492  1.00  0.00     0.012 C 
ATOM     10  C   UNL     1      27.075  37.130  18.915  1.00  0.00    -0.006 C 
ATOM     11  C   UNL     1      25.549  37.062  20.962  1.00  0.00     0.012 C 
ATOM     12  C   UNL     1      25.544  35.086  19.444  1.00  0.00     0.012 C 
ATOM     13  C   UNL     1      26.133  37.335  17.694  1.00  0.00     0.017 C 
ATOM     14  C   UNL     1      27.497  38.539  19.439  1.00  0.00    -0.064 C 
ATOM     15  C   UNL     1      26.302  38.195  21.637  1.00  0.00     0.032 C 
ATOM     16  C   UNL     1      27.183  39.010  20.692  1.00  0.00    -0.064 C 
ATOM     17  C   UNL     1      28.133  39.480  18.426  1.00  0.00     0.032 C 
ATOM     18  C   UNL     1      27.945  40.216  21.317  1.00  0.00    -0.008 C 
ATOM     19  C   UNL     1      29.125  40.452  19.036  1.00  0.00     0.009 C 
ATOM     20  C   UNL     1      28.549  41.214  20.248  1.00  0.00     0.007 C 
ATOM     21  C   UNL     1      27.018  40.992  22.314  1.00  0.00     0.014 C 
ATOM     22  C   UNL     1      29.125  39.611  22.131  1.00  0.00     0.016 C 
ATOM     23  C   UNL     1      27.656  42.488  19.950  1.00  0.00    -0.006 C 
ATOM     24  C   UNL     1      27.489  42.419  22.577  1.00  0.00     0.033 C 
ATOM     25  C   UNL     1      27.473  43.289  21.302  1.00  0.00     0.120 C 
ATOM     26  C   UNL     1      28.377  43.443  18.961  1.00  0.00     0.014 C 
ATOM     27  C   UNL     1      26.286  42.124  19.302  1.00  0.00     0.014 C 
BRANCH  25  28
ATOM     28  O   UNL     1      26.297  44.064  21.283  1.00  0.00    -0.393 OA
ATOM     29  H   UNL     1      26.213  44.474  20.383  1.00  0.00     0.210 HD
ENDBRANCH  25  28
ENDBRANCH   2   6
ENDBRANCH   1   2
BRANCH   1  30
ATOM     30  C   UNL     1      28.916  32.692  22.997  1.00  0.00     0.031 C 
BRANCH  30  31
ATOM     31  C   UNL     1      28.512  31.250  23.267  1.00  0.00    -0.075 C 
ATOM     32  C   UNL     1      28.855  30.292  22.385  1.00  0.00     0.008 C 
BRANCH  31  33
ATOM     33  C   UNL     1      27.870  30.847  24.590  1.00  0.00     0.008 C 
ATOM     34  C   UNL     1      28.824  31.039  25.768  1.00  0.00     0.012 C 
ATOM     35  C   UNL     1      27.351  29.407  24.533  1.00  0.00     0.012 C 
ENDBRANCH  31  33
ENDBRANCH  30  31
ENDBRANCH   1  30
TORSDOF 7
ENDMDL
