MODEL 1
REMARK VINA RESULT:    -2.349      0.000      0.000
REMARK INTER + INTRA:          -2.639
REMARK INTER:                  -2.555
REMARK INTRA:                  -0.085
REMARK UNBOUND:                -0.085
REMARK SMILES C=C(C)[C@H]1CC=C(C)[C@H](O)C1
REMARK SMILES IDX 8 1 7 2 6 3 5 4 4 5 11 6 9 7 10 8 2 10 1 11 3 12
REMARK H PARENT 10 9
REMARK Flexibility Score: inf
ROOT
ATOM      1  C   UNL     1     -39.122  25.636   4.452  1.00  0.00     0.042 C 
ATOM      2  C   UNL     1     -38.850  24.395   5.258  1.00  0.00    -0.049 C 
ATOM      3  C   UNL     1     -38.291  23.329   4.648  1.00  0.00    -0.025 C 
ATOM      4  C   UNL     1     -38.045  22.017   5.349  1.00  0.00     0.035 C 
ATOM      5  C   UNL     1     -37.889  22.196   6.867  1.00  0.00     0.021 C 
ATOM      6  C   UNL     1     -39.060  23.026   7.418  1.00  0.00     0.044 C 
ATOM      7  C   UNL     1     -39.125  24.419   6.757  1.00  0.00     0.140 C 
ENDROOT
BRANCH   7   8
ATOM      8  O   UNL     1     -38.255  25.316   7.404  1.00  0.00    -0.389 OA
ATOM      9  H   UNL     1     -38.627  26.230   7.300  1.00  0.00     0.211 HD
ENDBRANCH   7   8
BRANCH   5  10
ATOM     10  C   UNL     1     -37.778  20.851   7.575  1.00  0.00    -0.077 C 
ATOM     11  C   UNL     1     -36.592  20.437   8.048  1.00  0.00     0.008 C 
ATOM     12  C   UNL     1     -38.978  19.957   7.760  1.00  0.00     0.039 C 
ENDBRANCH   5  10
TORSDOF 2
ENDMDL
MODEL 2
REMARK VINA RESULT:    -0.730      1.528      2.150
REMARK INTER + INTRA:          -0.878
REMARK INTER:                  -0.785
REMARK INTRA:                  -0.094
REMARK UNBOUND:                -0.085
REMARK SMILES C=C(C)[C@H]1CC=C(C)[C@H](O)C1
REMARK SMILES IDX 8 1 7 2 6 3 5 4 4 5 11 6 9 7 10 8 2 10 1 11 3 12
REMARK H PARENT 10 9
REMARK Flexibility Score: inf
ROOT
ATOM      1  C   UNL     1     -39.125  25.816   4.142  1.00  0.00     0.042 C 
ATOM      2  C   UNL     1     -38.690  24.679   5.027  1.00  0.00    -0.049 C 
ATOM      3  C   UNL     1     -38.988  24.724   6.342  1.00  0.00    -0.025 C 
ATOM      4  C   UNL     1     -38.537  23.672   7.323  1.00  0.00     0.035 C 
ATOM      5  C   UNL     1     -38.292  22.318   6.642  1.00  0.00     0.021 C 
ATOM      6  C   UNL     1     -37.383  22.506   5.416  1.00  0.00     0.044 C 
ATOM      7  C   UNL     1     -38.013  23.471   4.390  1.00  0.00     0.140 C 
ENDROOT
BRANCH   7   8
ATOM      8  O   UNL     1     -38.912  22.787   3.552  1.00  0.00    -0.389 OA
ATOM      9  H   UNL     1     -39.064  23.345   2.746  1.00  0.00     0.211 HD
ENDBRANCH   7   8
BRANCH   5  10
ATOM     10  C   UNL     1     -37.706  21.305   7.619  1.00  0.00    -0.077 C 
ATOM     11  C   UNL     1     -36.477  21.491   8.125  1.00  0.00     0.008 C 
ATOM     12  C   UNL     1     -38.478  20.078   8.038  1.00  0.00     0.039 C 
ENDBRANCH   5  10
TORSDOF 2
ENDMDL
