MODEL 1
REMARK VINA RESULT:    -2.366      0.000      0.000
REMARK INTER + INTRA:          -3.272
REMARK INTER:                  -3.334
REMARK INTRA:                   0.062
REMARK UNBOUND:                 0.062
REMARK SMILES CC1=CCC(=C(C)C)C(=O)CC(C)=CCC1
REMARK SMILES IDX 12 1 14 2 13 3 15 4 16 5 2 6 1 7 3 8 11 10 9 11 10 12 5 13
REMARK SMILES IDX 6 14 7 15 8 16 4 17
REMARK H PARENT
REMARK Flexibility Score: 60.00
ROOT
ATOM      1  C   UNL     1      51.426   0.511  20.389  1.00  0.00    -0.070 C 
ATOM      2  C   UNL     1      50.639   1.496  20.880  1.00  0.00    -0.027 C 
ATOM      3  C   UNL     1      50.733  -0.689  19.790  1.00  0.00     0.039 C 
ENDROOT
BRANCH   2   4
ATOM      4  C   UNL     1      51.104   2.758  21.561  1.00  0.00     0.032 C 
BRANCH   4   5
ATOM      5  C   UNL     1      50.585   2.955  23.005  1.00  0.00     0.034 C 
BRANCH   5   6
ATOM      6  C   UNL     1      51.041   1.912  24.016  1.00  0.00    -0.077 C 
ATOM      7  C   UNL     1      49.987   1.288  24.899  1.00  0.00     0.039 C 
ATOM      8  C   UNL     1      52.316   1.452  24.151  1.00  0.00    -0.023 CG0
ATOM      9  G   UNL     1      53.608   1.963  23.528  1.00  0.00     0.000 G0
ENDBRANCH   5   6
ENDBRANCH   4   5
ENDBRANCH   2   4
BRANCH   1  10
ATOM     10  C   UNL     1      52.949   0.501  20.440  1.00  0.00     0.111 C 
BRANCH  10  11
ATOM     11  C   UNL     1      53.581   0.071  21.744  1.00  0.00     0.163 C 
ATOM     12  O   UNL     1      53.401  -1.130  22.084  1.00  0.00    -0.294 OA
BRANCH  11  13
ATOM     13  C   UNL     1      54.379   0.992  22.634  1.00  0.00    -0.002 C 
ATOM     14  C   UNL     1      55.748   0.935  22.697  1.00  0.00    -0.069 C 
ATOM     15  C   UNL     1      56.563   0.061  21.770  1.00  0.00     0.039 C 
ATOM     16  C   UNL     1      56.526   1.780  23.684  1.00  0.00     0.039 C 
BRANCH  13  17
ATOM     17  C   UNL     1      53.623   1.963  23.525  1.00  0.00     0.066 CG0
ATOM     18  G   UNL     1      52.325   1.460  24.141  1.00  0.00     0.000 G0
ENDBRANCH  13  17
ENDBRANCH  11  13
ENDBRANCH  10  11
ENDBRANCH   1  10
TORSDOF 0
ENDMDL
MODEL 2
REMARK VINA RESULT:    -2.183      1.651      3.194
REMARK INTER + INTRA:          -3.014
REMARK INTER:                  -3.135
REMARK INTRA:                   0.121
REMARK UNBOUND:                 0.062
REMARK SMILES CC1=CCC(=C(C)C)C(=O)CC(C)=CCC1
REMARK SMILES IDX 12 1 14 2 13 3 15 4 16 5 2 6 1 7 3 8 11 10 9 11 10 12 5 13
REMARK SMILES IDX 6 14 7 15 8 16 4 17
REMARK H PARENT
REMARK Flexibility Score: 60.00
ROOT
ATOM      1  C   UNL     1      50.799   2.626  22.669  1.00  0.00    -0.070 C 
ATOM      2  C   UNL     1      50.140   2.155  21.586  1.00  0.00    -0.027 C 
ATOM      3  C   UNL     1      49.974   2.939  23.894  1.00  0.00     0.039 C 
ENDROOT
BRANCH   2   4
ATOM      4  C   UNL     1      50.744   1.819  20.245  1.00  0.00     0.032 C 
BRANCH   4   5
ATOM      5  C   UNL     1      50.687   0.323  19.855  1.00  0.00     0.034 C 
BRANCH   5   6
ATOM      6  C   UNL     1      51.212  -0.650  20.900  1.00  0.00    -0.077 C 
ATOM      7  C   UNL     1      50.267  -1.717  21.399  1.00  0.00     0.039 C 
ATOM      8  C   UNL     1      52.486  -0.675  21.382  1.00  0.00    -0.023 CG0
ATOM      9  G   UNL     1      53.618   0.325  21.197  1.00  0.00     0.000 G0
ENDBRANCH   5   6
ENDBRANCH   4   5
ENDBRANCH   2   4
BRANCH   1  10
ATOM     10  C   UNL     1      52.296   2.907  22.728  1.00  0.00     0.111 C 
BRANCH  10  11
ATOM     11  C   UNL     1      53.171   1.810  23.290  1.00  0.00     0.163 C 
ATOM     12  O   UNL     1      53.069   1.591  24.527  1.00  0.00    -0.294 OA
BRANCH  11  13
ATOM     13  C   UNL     1      54.139   1.002  22.461  1.00  0.00    -0.002 C 
ATOM     14  C   UNL     1      55.471   0.918  22.776  1.00  0.00    -0.069 C 
ATOM     15  C   UNL     1      56.036   1.494  24.055  1.00  0.00     0.039 C 
ATOM     16  C   UNL     1      56.451   0.206  21.867  1.00  0.00     0.039 C 
BRANCH  13  17
ATOM     17  C   UNL     1      53.615   0.318  21.209  1.00  0.00     0.066 CG0
ATOM     18  G   UNL     1      52.480  -0.679  21.395  1.00  0.00     0.000 G0
ENDBRANCH  13  17
ENDBRANCH  11  13
ENDBRANCH  10  11
ENDBRANCH   1  10
TORSDOF 0
ENDMDL
MODEL 3
REMARK VINA RESULT:    -1.822      1.844      3.578
REMARK INTER + INTRA:          -2.506
REMARK INTER:                  -2.570
REMARK INTRA:                   0.064
REMARK UNBOUND:                 0.062
REMARK SMILES CC1=CCC(=C(C)C)C(=O)CC(C)=CCC1
REMARK SMILES IDX 12 1 14 2 13 3 15 4 16 5 2 6 1 7 3 8 11 10 9 11 10 12 5 13
REMARK SMILES IDX 6 14 7 15 8 16 4 17
REMARK H PARENT
REMARK Flexibility Score: 60.00
ROOT
ATOM      1  C   UNL     1      51.906   1.720  24.305  1.00  0.00    -0.070 C 
ATOM      2  C   UNL     1      51.021   0.854  23.761  1.00  0.00    -0.027 C 
ATOM      3  C   UNL     1      51.420   3.125  24.570  1.00  0.00     0.039 C 
ENDROOT
BRANCH   2   4
ATOM      4  C   UNL     1      51.292  -0.577  23.370  1.00  0.00     0.032 C 
BRANCH   4   5
ATOM      5  C   UNL     1      51.478  -0.819  21.853  1.00  0.00     0.034 C 
BRANCH   5   6
ATOM      6  C   UNL     1      51.938   0.386  21.045  1.00  0.00    -0.077 C 
ATOM      7  C   UNL     1      50.880   1.192  20.330  1.00  0.00     0.039 C 
ATOM      8  C   UNL     1      53.222   0.833  20.961  1.00  0.00    -0.023 CG0
ATOM      9  G   UNL     1      54.514   0.183  21.435  1.00  0.00     0.000 G0
ENDBRANCH   5   6
ENDBRANCH   4   5
ENDBRANCH   2   4
BRANCH   1  10
ATOM     10  C   UNL     1      53.362   1.399  24.623  1.00  0.00     0.111 C 
BRANCH  10  11
ATOM     11  C   UNL     1      54.375   1.713  23.547  1.00  0.00     0.163 C 
ATOM     12  O   UNL     1      54.579   2.934  23.308  1.00  0.00    -0.294 OA
BRANCH  11  13
ATOM     13  C   UNL     1      55.119   0.660  22.761  1.00  0.00    -0.002 C 
ATOM     14  C   UNL     1      56.323   0.155  23.182  1.00  0.00    -0.069 C 
ATOM     15  C   UNL     1      56.914   0.496  24.532  1.00  0.00     0.039 C 
ATOM     16  C   UNL     1      57.115  -0.809  22.324  1.00  0.00     0.039 C 
BRANCH  13  17
ATOM     17  C   UNL     1      54.531   0.204  21.436  1.00  0.00     0.066 CG0
ATOM     18  G   UNL     1      53.228   0.860  21.001  1.00  0.00     0.000 G0
ENDBRANCH  13  17
ENDBRANCH  11  13
ENDBRANCH  10  11
ENDBRANCH   1  10
TORSDOF 0
ENDMDL
MODEL 4
REMARK VINA RESULT:    -1.800      1.789      4.148
REMARK INTER + INTRA:          -2.474
REMARK INTER:                  -2.499
REMARK INTRA:                   0.025
REMARK UNBOUND:                 0.062
REMARK SMILES CC1=CCC(=C(C)C)C(=O)CC(C)=CCC1
REMARK SMILES IDX 12 1 14 2 13 3 15 4 16 5 2 6 1 7 3 8 11 10 9 11 10 12 5 13
REMARK SMILES IDX 6 14 7 15 8 16 4 17
REMARK H PARENT
REMARK Flexibility Score: 60.00
ROOT
ATOM      1  C   UNL     1      53.533   0.432  21.328  1.00  0.00    -0.070 C 
ATOM      2  C   UNL     1      54.658  -0.137  21.818  1.00  0.00    -0.027 C 
ATOM      3  C   UNL     1      52.644  -0.433  20.467  1.00  0.00     0.039 C 
ENDROOT
BRANCH   2   4
ATOM      4  C   UNL     1      55.712   0.541  22.657  1.00  0.00     0.032 C 
BRANCH   4   5
ATOM      5  C   UNL     1      55.382   0.650  24.164  1.00  0.00     0.034 C 
BRANCH   5   6
ATOM      6  C   UNL     1      54.993   2.037  24.654  1.00  0.00    -0.077 C 
ATOM      7  C   UNL     1      56.093   3.061  24.797  1.00  0.00     0.039 C 
ATOM      8  C   UNL     1      53.722   2.450  24.919  1.00  0.00    -0.023 CG0
ATOM      9  G   UNL     1      52.434   1.644  25.009  1.00  0.00     0.000 G0
ENDBRANCH   5   6
ENDBRANCH   4   5
ENDBRANCH   2   4
BRANCH   1  10
ATOM     10  C   UNL     1      53.125   1.886  21.538  1.00  0.00     0.111 C 
BRANCH  10  11
ATOM     11  C   UNL     1      51.984   2.137  22.496  1.00  0.00     0.163 C 
ATOM     12  O   UNL     1      51.244   3.125  22.240  1.00  0.00    -0.294 OA
BRANCH  11  13
ATOM     13  C   UNL     1      51.710   1.290  23.715  1.00  0.00    -0.002 C 
ATOM     14  C   UNL     1      50.818   0.249  23.691  1.00  0.00    -0.069 C 
ATOM     15  C   UNL     1      50.166  -0.226  22.412  1.00  0.00     0.039 C 
ATOM     16  C   UNL     1      50.462  -0.512  24.951  1.00  0.00     0.039 C 
BRANCH  13  17
ATOM     17  C   UNL     1      52.407   1.657  25.015  1.00  0.00     0.066 CG0
ATOM     18  G   UNL     1      53.718   2.421  24.899  1.00  0.00     0.000 G0
ENDBRANCH  13  17
ENDBRANCH  11  13
ENDBRANCH  10  11
ENDBRANCH   1  10
TORSDOF 0
ENDMDL
MODEL 5
REMARK VINA RESULT:    -1.790      2.152      4.975
REMARK INTER + INTRA:          -2.460
REMARK INTER:                  -2.577
REMARK INTRA:                   0.117
REMARK UNBOUND:                 0.062
REMARK SMILES CC1=CCC(=C(C)C)C(=O)CC(C)=CCC1
REMARK SMILES IDX 12 1 14 2 13 3 15 4 16 5 2 6 1 7 3 8 11 10 9 11 10 12 5 13
REMARK SMILES IDX 6 14 7 15 8 16 4 17
REMARK H PARENT
REMARK Flexibility Score: 60.00
ROOT
ATOM      1  C   UNL     1      54.337   2.770  23.577  1.00  0.00    -0.070 C 
ATOM      2  C   UNL     1      55.599   2.390  23.880  1.00  0.00    -0.027 C 
ATOM      3  C   UNL     1      53.337   2.795  24.708  1.00  0.00     0.039 C 
ENDROOT
BRANCH   2   4
ATOM      4  C   UNL     1      56.747   2.247  22.912  1.00  0.00     0.032 C 
BRANCH   4   5
ATOM      5  C   UNL     1      56.636   1.056  21.931  1.00  0.00     0.034 C 
BRANCH   5   6
ATOM      6  C   UNL     1      55.945  -0.185  22.478  1.00  0.00    -0.077 C 
ATOM      7  C   UNL     1      56.724  -1.051  23.438  1.00  0.00     0.039 C 
ATOM      8  C   UNL     1      54.658  -0.548  22.217  1.00  0.00    -0.023 CG0
ATOM      9  G   UNL     1      53.672   0.016  21.205  1.00  0.00     0.000 G0
ENDBRANCH   5   6
ENDBRANCH   4   5
ENDBRANCH   2   4
BRANCH   1  10
ATOM     10  C   UNL     1      53.840   3.125  22.180  1.00  0.00     0.111 C 
BRANCH  10  11
ATOM     11  C   UNL     1      52.644   2.355  21.670  1.00  0.00     0.163 C 
ATOM     12  O   UNL     1      51.711   3.038  21.168  1.00  0.00    -0.294 OA
BRANCH  11  13
ATOM     13  C   UNL     1      52.518   0.853  21.748  1.00  0.00    -0.002 C 
ATOM     14  C   UNL     1      51.440   0.244  22.336  1.00  0.00    -0.069 C 
ATOM     15  C   UNL     1      50.231   1.021  22.806  1.00  0.00     0.039 C 
ATOM     16  C   UNL     1      51.386  -1.259  22.515  1.00  0.00     0.039 C 
BRANCH  13  17
ATOM     17  C   UNL     1      53.660   0.009  21.207  1.00  0.00     0.066 CG0
ATOM     18  G   UNL     1      54.643  -0.550  22.227  1.00  0.00     0.000 G0
ENDBRANCH  13  17
ENDBRANCH  11  13
ENDBRANCH  10  11
ENDBRANCH   1  10
TORSDOF 0
ENDMDL
MODEL 6
REMARK VINA RESULT:    -1.754      2.132      5.780
REMARK INTER + INTRA:          -2.410
REMARK INTER:                  -2.434
REMARK INTRA:                   0.024
REMARK UNBOUND:                 0.062
REMARK SMILES CC1=CCC(=C(C)C)C(=O)CC(C)=CCC1
REMARK SMILES IDX 12 1 14 2 13 3 15 4 16 5 2 6 1 7 3 8 11 10 9 11 10 12 5 13
REMARK SMILES IDX 6 14 7 15 8 16 4 17
REMARK H PARENT
REMARK Flexibility Score: 60.00
ROOT
ATOM      1  C   UNL     1      56.703   1.856  24.634  1.00  0.00    -0.070 C 
ATOM      2  C   UNL     1      57.317   0.659  24.493  1.00  0.00    -0.027 C 
ATOM      3  C   UNL     1      57.587   3.061  24.851  1.00  0.00     0.039 C 
ENDROOT
BRANCH   2   4
ATOM      4  C   UNL     1      56.643  -0.678  24.314  1.00  0.00     0.032 C 
BRANCH   4   5
ATOM      5  C   UNL     1      56.765  -1.291  22.899  1.00  0.00     0.034 C 
BRANCH   5   6
ATOM      6  C   UNL     1      56.537  -0.327  21.743  1.00  0.00    -0.077 C 
ATOM      7  C   UNL     1      57.747   0.121  20.959  1.00  0.00     0.039 C 
ATOM      8  C   UNL     1      55.322   0.119  21.319  1.00  0.00    -0.023 CG0
ATOM      9  G   UNL     1      53.950  -0.026  21.963  1.00  0.00     0.000 G0
ENDBRANCH   5   6
ENDBRANCH   4   5
ENDBRANCH   2   4
BRANCH   1  10
ATOM     10  C   UNL     1      55.194   2.070  24.639  1.00  0.00     0.111 C 
BRANCH  10  11
ATOM     11  C   UNL     1      54.517   2.155  23.291  1.00  0.00     0.163 C 
ATOM     12  O   UNL     1      54.851   3.122  22.556  1.00  0.00    -0.294 OA
BRANCH  11  13
ATOM     13  C   UNL     1      53.480   1.169  22.809  1.00  0.00    -0.002 C 
ATOM     14  C   UNL     1      52.159   1.273  23.162  1.00  0.00    -0.069 C 
ATOM     15  C   UNL     1      51.618   2.462  23.923  1.00  0.00     0.039 C 
ATOM     16  C   UNL     1      51.154   0.208  22.773  1.00  0.00     0.039 C 
BRANCH  13  17
ATOM     17  C   UNL     1      53.944  -0.003  21.960  1.00  0.00     0.066 CG0
ATOM     18  G   UNL     1      55.313   0.122  21.307  1.00  0.00     0.000 G0
ENDBRANCH  13  17
ENDBRANCH  11  13
ENDBRANCH  10  11
ENDBRANCH   1  10
TORSDOF 0
ENDMDL
MODEL 7
REMARK VINA RESULT:    -1.672      1.288      3.999
REMARK INTER + INTRA:          -2.294
REMARK INTER:                  -2.851
REMARK INTRA:                   0.557
REMARK UNBOUND:                 0.062
REMARK SMILES CC1=CCC(=C(C)C)C(=O)CC(C)=CCC1
REMARK SMILES IDX 12 1 14 2 13 3 15 4 16 5 2 6 1 7 3 8 11 10 9 11 10 12 5 13
REMARK SMILES IDX 6 14 7 15 8 16 4 17
REMARK H PARENT
REMARK Flexibility Score: 60.00
ROOT
ATOM      1  C   UNL     1      55.737   0.241  22.238  1.00  0.00    -0.070 C 
ATOM      2  C   UNL     1      55.696   1.141  23.246  1.00  0.00    -0.027 C 
ATOM      3  C   UNL     1      56.860  -0.769  22.263  1.00  0.00     0.039 C 
ENDROOT
BRANCH   2   4
ATOM      4  C   UNL     1      54.701   2.264  23.404  1.00  0.00     0.032 C 
BRANCH   4   5
ATOM      5  C   UNL     1      53.464   1.928  24.270  1.00  0.00     0.034 C 
BRANCH   5   6
ATOM      6  C   UNL     1      52.172   2.628  23.873  1.00  0.00    -0.077 C 
ATOM      7  C   UNL     1      51.272   3.116  24.982  1.00  0.00     0.039 C 
ATOM      8  C   UNL     1      51.789   2.904  22.595  1.00  0.00    -0.023 CG0
ATOM      9  G   UNL     1      52.384   2.435  21.275  1.00  0.00     0.000 G0
ENDBRANCH   5   6
ENDBRANCH   4   5
ENDBRANCH   2   4
BRANCH   1  10
ATOM     10  C   UNL     1      54.770   0.200  21.060  1.00  0.00     0.111 C 
BRANCH  10  11
ATOM     11  C   UNL     1      53.309   0.003  21.390  1.00  0.00     0.163 C 
ATOM     12  O   UNL     1      53.019  -1.024  22.061  1.00  0.00    -0.294 OA
BRANCH  11  13
ATOM     13  C   UNL     1      52.215   0.947  20.952  1.00  0.00    -0.002 C 
ATOM     14  C   UNL     1      51.127   0.516  20.236  1.00  0.00    -0.069 C 
ATOM     15  C   UNL     1      50.864  -0.949  19.972  1.00  0.00     0.039 C 
ATOM     16  C   UNL     1      50.102   1.493  19.699  1.00  0.00     0.039 C 
BRANCH  13  17
ATOM     17  C   UNL     1      52.373   2.425  21.269  1.00  0.00     0.066 CG0
ATOM     18  G   UNL     1      51.789   2.911  22.588  1.00  0.00     0.000 G0
ENDBRANCH  13  17
ENDBRANCH  11  13
ENDBRANCH  10  11
ENDBRANCH   1  10
TORSDOF 0
ENDMDL
MODEL 8
REMARK VINA RESULT:    -1.601      1.692      4.595
REMARK INTER + INTRA:          -2.193
REMARK INTER:                  -1.892
REMARK INTRA:                  -0.301
REMARK UNBOUND:                 0.062
REMARK SMILES CC1=CCC(=C(C)C)C(=O)CC(C)=CCC1
REMARK SMILES IDX 12 1 14 2 13 3 15 4 16 5 2 6 1 7 3 8 11 10 9 11 10 12 5 13
REMARK SMILES IDX 6 14 7 15 8 16 4 17
REMARK H PARENT
REMARK Flexibility Score: 60.00
ROOT
ATOM      1  C   UNL     1      52.218   2.117  24.087  1.00  0.00    -0.070 C 
ATOM      2  C   UNL     1      53.479   2.534  24.343  1.00  0.00    -0.027 C 
ATOM      3  C   UNL     1      51.308   3.082  23.365  1.00  0.00     0.039 C 
ENDROOT
BRANCH   2   4
ATOM      4  C   UNL     1      54.543   1.765  25.086  1.00  0.00     0.032 C 
BRANCH   4   5
ATOM      5  C   UNL     1      55.287   0.697  24.250  1.00  0.00     0.034 C 
BRANCH   5   6
ATOM      6  C   UNL     1      55.321   0.943  22.748  1.00  0.00    -0.077 C 
ATOM      7  C   UNL     1      56.265   2.004  22.236  1.00  0.00     0.039 C 
ATOM      8  C   UNL     1      54.610   0.244  21.821  1.00  0.00    -0.023 CG0
ATOM      9  G   UNL     1      53.489  -0.768  22.010  1.00  0.00     0.000 G0
ENDBRANCH   5   6
ENDBRANCH   4   5
ENDBRANCH   2   4
BRANCH   1  10
ATOM     10  C   UNL     1      51.637   0.773  24.512  1.00  0.00     0.111 C 
BRANCH  10  11
ATOM     11  C   UNL     1      51.345  -0.218  23.410  1.00  0.00     0.163 C 
ATOM     12  O   UNL     1      50.455  -1.078  23.650  1.00  0.00    -0.294 OA
BRANCH  11  13
ATOM     13  C   UNL     1      52.062  -0.230  22.081  1.00  0.00    -0.002 C 
ATOM     14  C   UNL     1      51.448   0.170  20.921  1.00  0.00    -0.069 C 
ATOM     15  C   UNL     1      50.073   0.798  20.911  1.00  0.00     0.039 C 
ATOM     16  C   UNL     1      52.138   0.036  19.580  1.00  0.00     0.039 C 
BRANCH  13  17
ATOM     17  C   UNL     1      53.484  -0.764  22.037  1.00  0.00     0.066 CG0
ATOM     18  G   UNL     1      54.595   0.258  21.843  1.00  0.00     0.000 G0
ENDBRANCH  13  17
ENDBRANCH  11  13
ENDBRANCH  10  11
ENDBRANCH   1  10
TORSDOF 0
ENDMDL
MODEL 9
REMARK VINA RESULT:    -1.473      1.850      5.055
REMARK INTER + INTRA:          -2.013
REMARK INTER:                  -3.169
REMARK INTRA:                   1.156
REMARK UNBOUND:                 0.062
REMARK SMILES CC1=CCC(=C(C)C)C(=O)CC(C)=CCC1
REMARK SMILES IDX 12 1 14 2 13 3 15 4 16 5 2 6 1 7 3 8 11 10 9 11 10 12 5 13
REMARK SMILES IDX 6 14 7 15 8 16 4 17
REMARK H PARENT
REMARK Flexibility Score: 60.00
ROOT
ATOM      1  C   UNL     1      57.488  -1.049  22.704  1.00  0.00    -0.070 C 
ATOM      2  C   UNL     1      58.109  -0.997  23.905  1.00  0.00    -0.027 C 
ATOM      3  C   UNL     1      57.796  -2.234  21.821  1.00  0.00     0.039 C 
ENDROOT
BRANCH   2   4
ATOM      4  C   UNL     1      57.991   0.105  24.927  1.00  0.00     0.032 C 
BRANCH   4   5
ATOM      5  C   UNL     1      56.564   0.669  25.125  1.00  0.00     0.034 C 
BRANCH   5   6
ATOM      6  C   UNL     1      56.357   2.108  24.675  1.00  0.00    -0.077 C 
ATOM      7  C   UNL     1      57.437   3.107  25.014  1.00  0.00     0.039 C 
ATOM      8  C   UNL     1      55.302   2.558  23.941  1.00  0.00    -0.023 CG0
ATOM      9  G   UNL     1      54.004   1.857  23.566  1.00  0.00     0.000 G0
ENDBRANCH   5   6
ENDBRANCH   4   5
ENDBRANCH   2   4
BRANCH   1  10
ATOM     10  C   UNL     1      56.546   0.019  22.160  1.00  0.00     0.111 C 
BRANCH  10  11
ATOM     11  C   UNL     1      55.067  -0.210  22.373  1.00  0.00     0.163 C 
ATOM     12  O   UNL     1      54.705  -1.404  22.547  1.00  0.00    -0.294 OA
BRANCH  11  13
ATOM     13  C   UNL     1      54.039   0.895  22.374  1.00  0.00    -0.002 C 
ATOM     14  C   UNL     1      53.189   1.097  21.317  1.00  0.00    -0.069 C 
ATOM     15  C   UNL     1      53.109   0.138  20.151  1.00  0.00     0.039 C 
ATOM     16  C   UNL     1      52.248   2.283  21.280  1.00  0.00     0.039 C 
BRANCH  13  17
ATOM     17  C   UNL     1      54.003   1.841  23.563  1.00  0.00     0.066 CG0
ATOM     18  G   UNL     1      55.302   2.555  23.912  1.00  0.00     0.000 G0
ENDBRANCH  13  17
ENDBRANCH  11  13
ENDBRANCH  10  11
ENDBRANCH   1  10
TORSDOF 0
ENDMDL
