MODEL 1
REMARK VINA RESULT:    -3.627      0.000      0.000
REMARK INTER + INTRA:          -9.843
REMARK INTER:                  -6.808
REMARK INTRA:                  -3.035
REMARK UNBOUND:                -3.035
REMARK SMILES CCCCCCCCC=CCCCCCCCC(=O)[O-]
REMARK SMILES IDX 10 1 9 2 11 3 12 4 13 5 14 6 15 7 16 8 17 9 18 10 19 11
REMARK SMILES IDX 20 12 8 13 7 14 6 15 5 16 4 17 3 18 2 19 1 20
REMARK H PARENT
REMARK Flexibility Score: inf
ROOT
ATOM      1  C   UNL     1     140.215 133.566 150.643  1.00  0.00    -0.031 C 
ATOM      2  C   UNL     1     140.392 134.702 149.951  1.00  0.00    -0.031 C 
ENDROOT
BRANCH   1   3
ATOM      3  C   UNL     1     138.997 133.346 151.499  1.00  0.00     0.027 C 
BRANCH   3   4
ATOM      4  C   UNL     1     137.713 133.215 150.666  1.00  0.00     0.004 C 
BRANCH   4   5
ATOM      5  C   UNL     1     137.469 131.770 150.202  1.00  0.00     0.000 C 
BRANCH   5   6
ATOM      6  C   UNL     1     137.324 131.699 148.676  1.00  0.00     0.000 C 
BRANCH   6   7
ATOM      7  C   UNL     1     137.617 133.053 147.997  1.00  0.00     0.000 C 
BRANCH   7   8
ATOM      8  C   UNL     1     137.664 132.978 146.461  1.00  0.00     0.006 C 
BRANCH   8   9
ATOM      9  C   UNL     1     138.129 134.287 145.813  1.00  0.00     0.053 C 
BRANCH   9  10
ATOM     10  C   UNL     1     137.087 134.803 144.871  1.00  0.00     0.041 C 
ATOM     11  O   UNL     1     136.637 134.062 143.958  1.00  0.00    -0.550 OA
ATOM     12  O   UNL     1     136.578 136.085 145.031  1.00  0.00    -0.550 OA
ENDBRANCH   9  10
ENDBRANCH   8   9
ENDBRANCH   7   8
ENDBRANCH   6   7
ENDBRANCH   5   6
ENDBRANCH   4   5
ENDBRANCH   3   4
ENDBRANCH   1   3
BRANCH   2  13
ATOM     13  C   UNL     1     141.608 134.921 149.093  1.00  0.00     0.027 C 
BRANCH  13  14
ATOM     14  C   UNL     1     141.325 134.567 147.629  1.00  0.00     0.004 C 
BRANCH  14  15
ATOM     15  C   UNL     1     142.238 133.426 147.152  1.00  0.00     0.000 C 
BRANCH  15  16
ATOM     16  C   UNL     1     141.470 132.348 146.359  1.00  0.00     0.000 C 
BRANCH  16  17
ATOM     17  C   UNL     1     140.779 131.296 147.248  1.00  0.00    -0.000 C 
BRANCH  17  18
ATOM     18  C   UNL     1     141.535 130.935 148.541  1.00  0.00    -0.000 C 
BRANCH  18  19
ATOM     19  C   UNL     1     140.720 130.118 149.559  1.00  0.00    -0.003 C 
ATOM     20  C   UNL     1     141.409 130.000 150.918  1.00  0.00     0.004 C 
ENDBRANCH  18  19
ENDBRANCH  17  18
ENDBRANCH  16  17
ENDBRANCH  15  16
ENDBRANCH  14  15
ENDBRANCH  13  14
ENDBRANCH   2  13
TORSDOF 15
ENDMDL
MODEL 2
REMARK VINA RESULT:    -3.527      3.667      5.951
REMARK INTER + INTRA:          -9.655
REMARK INTER:                  -7.010
REMARK INTRA:                  -2.646
REMARK UNBOUND:                -3.035
REMARK SMILES CCCCCCCCC=CCCCCCCCC(=O)[O-]
REMARK SMILES IDX 10 1 9 2 11 3 12 4 13 5 14 6 15 7 16 8 17 9 18 10 19 11
REMARK SMILES IDX 20 12 8 13 7 14 6 15 5 16 4 17 3 18 2 19 1 20
REMARK H PARENT
REMARK Flexibility Score: inf
ROOT
ATOM      1  C   UNL     1     137.509 132.547 147.637  1.00  0.00    -0.031 C 
ATOM      2  C   UNL     1     138.605 132.849 146.925  1.00  0.00    -0.031 C 
ENDROOT
BRANCH   1   3
ATOM      3  C   UNL     1     137.507 131.430 148.646  1.00  0.00     0.027 C 
BRANCH   3   4
ATOM      4  C   UNL     1     136.906 131.860 149.993  1.00  0.00     0.004 C 
BRANCH   4   5
ATOM      5  C   UNL     1     137.381 133.258 150.419  1.00  0.00     0.000 C 
BRANCH   5   6
ATOM      6  C   UNL     1     138.680 133.173 151.234  1.00  0.00     0.000 C 
BRANCH   6   7
ATOM      7  C   UNL     1     139.854 133.891 150.536  1.00  0.00     0.000 C 
BRANCH   7   8
ATOM      8  C   UNL     1     140.949 132.934 150.030  1.00  0.00     0.006 C 
BRANCH   8   9
ATOM      9  C   UNL     1     140.778 131.503 150.551  1.00  0.00     0.053 C 
BRANCH   9  10
ATOM     10  C   UNL     1     141.844 131.180 151.551  1.00  0.00     0.041 C 
ATOM     11  O   UNL     1     142.210 132.047 152.388  1.00  0.00    -0.550 OA
ATOM     12  O   UNL     1     142.400 129.909 151.589  1.00  0.00    -0.550 OA
ENDBRANCH   9  10
ENDBRANCH   8   9
ENDBRANCH   7   8
ENDBRANCH   6   7
ENDBRANCH   5   6
ENDBRANCH   4   5
ENDBRANCH   3   4
ENDBRANCH   1   3
BRANCH   2  13
ATOM     13  C   UNL     1     138.609 133.966 145.918  1.00  0.00     0.027 C 
BRANCH  13  14
ATOM     14  C   UNL     1     137.198 134.528 145.707  1.00  0.00     0.004 C 
BRANCH  14  15
ATOM     15  C   UNL     1     136.885 134.681 144.210  1.00  0.00     0.000 C 
BRANCH  15  16
ATOM     16  C   UNL     1     137.097 133.370 143.425  1.00  0.00     0.000 C 
BRANCH  16  17
ATOM     17  C   UNL     1     136.021 132.301 143.697  1.00  0.00    -0.000 C 
BRANCH  17  18
ATOM     18  C   UNL     1     136.554 130.958 144.231  1.00  0.00    -0.000 C 
BRANCH  18  19
ATOM     19  C   UNL     1     138.073 130.758 144.076  1.00  0.00    -0.003 C 
ATOM     20  C   UNL     1     138.592 129.530 144.823  1.00  0.00     0.004 C 
ENDBRANCH  18  19
ENDBRANCH  17  18
ENDBRANCH  16  17
ENDBRANCH  15  16
ENDBRANCH  14  15
ENDBRANCH  13  14
ENDBRANCH   2  13
TORSDOF 15
ENDMDL
MODEL 3
REMARK VINA RESULT:    -3.518      3.400      5.225
REMARK INTER + INTRA:          -9.639
REMARK INTER:                  -6.617
REMARK INTRA:                  -3.022
REMARK UNBOUND:                -3.035
REMARK SMILES CCCCCCCCC=CCCCCCCCC(=O)[O-]
REMARK SMILES IDX 10 1 9 2 11 3 12 4 13 5 14 6 15 7 16 8 17 9 18 10 19 11
REMARK SMILES IDX 20 12 8 13 7 14 6 15 5 16 4 17 3 18 2 19 1 20
REMARK H PARENT
REMARK Flexibility Score: inf
ROOT
ATOM      1  C   UNL     1     137.910 133.150 150.223  1.00  0.00    -0.031 C 
ATOM      2  C   UNL     1     138.623 133.058 151.356  1.00  0.00    -0.031 C 
ENDROOT
BRANCH   1   3
ATOM      3  C   UNL     1     136.518 132.589 150.119  1.00  0.00     0.027 C 
BRANCH   3   4
ATOM      4  C   UNL     1     136.497 131.193 149.477  1.00  0.00     0.004 C 
BRANCH   4   5
ATOM      5  C   UNL     1     136.617 130.073 150.522  1.00  0.00     0.000 C 
BRANCH   5   6
ATOM      6  C   UNL     1     138.009 129.428 150.481  1.00  0.00     0.000 C 
BRANCH   6   7
ATOM      7  C   UNL     1     138.726 129.672 149.136  1.00  0.00     0.000 C 
BRANCH   7   8
ATOM      8  C   UNL     1     140.156 130.219 149.289  1.00  0.00     0.006 C 
BRANCH   8   9
ATOM      9  C   UNL     1     140.695 130.092 150.719  1.00  0.00     0.053 C 
BRANCH   9  10
ATOM     10  C   UNL     1     142.189 130.020 150.710  1.00  0.00     0.041 C 
ATOM     11  O   UNL     1     142.801 129.457 151.656  1.00  0.00    -0.550 OA
ATOM     12  O   UNL     1     142.904 130.534 149.637  1.00  0.00    -0.550 OA
ENDBRANCH   9  10
ENDBRANCH   8   9
ENDBRANCH   7   8
ENDBRANCH   6   7
ENDBRANCH   5   6
ENDBRANCH   4   5
ENDBRANCH   3   4
ENDBRANCH   1   3
BRANCH   2  13
ATOM     13  C   UNL     1     140.014 133.621 151.462  1.00  0.00     0.027 C 
BRANCH  13  14
ATOM     14  C   UNL     1     140.378 134.439 150.217  1.00  0.00     0.004 C 
BRANCH  14  15
ATOM     15  C   UNL     1     141.677 133.922 149.579  1.00  0.00     0.000 C 
BRANCH  15  16
ATOM     16  C   UNL     1     141.472 133.446 148.126  1.00  0.00     0.000 C 
BRANCH  16  17
ATOM     17  C   UNL     1     141.067 134.571 147.154  1.00  0.00    -0.000 C 
BRANCH  17  18
ATOM     18  C   UNL     1     139.956 134.202 146.154  1.00  0.00    -0.000 C 
BRANCH  18  19
ATOM     19  C   UNL     1     138.927 133.183 146.678  1.00  0.00    -0.003 C 
ATOM     20  C   UNL     1     137.484 133.664 146.532  1.00  0.00     0.004 C 
ENDBRANCH  18  19
ENDBRANCH  17  18
ENDBRANCH  16  17
ENDBRANCH  15  16
ENDBRANCH  14  15
ENDBRANCH  13  14
ENDBRANCH   2  13
TORSDOF 15
ENDMDL
MODEL 4
REMARK VINA RESULT:    -3.515      3.102      5.524
REMARK INTER + INTRA:          -9.632
REMARK INTER:                  -7.122
REMARK INTRA:                  -2.510
REMARK UNBOUND:                -3.035
REMARK SMILES CCCCCCCCC=CCCCCCCCC(=O)[O-]
REMARK SMILES IDX 10 1 9 2 11 3 12 4 13 5 14 6 15 7 16 8 17 9 18 10 19 11
REMARK SMILES IDX 20 12 8 13 7 14 6 15 5 16 4 17 3 18 2 19 1 20
REMARK H PARENT
REMARK Flexibility Score: inf
ROOT
ATOM      1  C   UNL     1     138.711 132.750 151.334  1.00  0.00    -0.031 C 
ATOM      2  C   UNL     1     137.911 133.381 150.462  1.00  0.00    -0.031 C 
ENDROOT
BRANCH   1   3
ATOM      3  C   UNL     1     139.989 133.373 151.826  1.00  0.00     0.027 C 
BRANCH   3   4
ATOM      4  C   UNL     1     141.230 132.567 151.410  1.00  0.00     0.004 C 
BRANCH   4   5
ATOM      5  C   UNL     1     141.029 131.847 150.068  1.00  0.00     0.000 C 
BRANCH   5   6
ATOM      6  C   UNL     1     141.755 132.584 148.933  1.00  0.00     0.000 C 
BRANCH   6   7
ATOM      7  C   UNL     1     141.022 133.875 148.513  1.00  0.00     0.000 C 
BRANCH   7   8
ATOM      8  C   UNL     1     141.967 135.056 148.224  1.00  0.00     0.006 C 
BRANCH   8   9
ATOM      9  C   UNL     1     143.280 134.975 149.011  1.00  0.00     0.053 C 
BRANCH   9  10
ATOM     10  C   UNL     1     144.113 136.193 148.762  1.00  0.00     0.041 C 
ATOM     11  O   UNL     1     144.507 136.463 147.598  1.00  0.00    -0.550 OA
ATOM     12  O   UNL     1     144.415 137.055 149.808  1.00  0.00    -0.550 OA
ENDBRANCH   9  10
ENDBRANCH   8   9
ENDBRANCH   7   8
ENDBRANCH   6   7
ENDBRANCH   5   6
ENDBRANCH   4   5
ENDBRANCH   3   4
ENDBRANCH   1   3
BRANCH   2  13
ATOM     13  C   UNL     1     136.632 132.760 149.971  1.00  0.00     0.027 C 
BRANCH  13  14
ATOM     14  C   UNL     1     136.674 131.232 150.092  1.00  0.00     0.004 C 
BRANCH  14  15
ATOM     15  C   UNL     1     136.755 130.573 148.706  1.00  0.00     0.000 C 
BRANCH  15  16
ATOM     16  C   UNL     1     138.195 130.170 148.327  1.00  0.00     0.000 C 
BRANCH  16  17
ATOM     17  C   UNL     1     138.791 131.003 147.175  1.00  0.00    -0.000 C 
BRANCH  17  18
ATOM     18  C   UNL     1     137.790 131.914 146.442  1.00  0.00    -0.000 C 
BRANCH  18  19
ATOM     19  C   UNL     1     138.059 133.423 146.593  1.00  0.00    -0.003 C 
ATOM     20  C   UNL     1     137.136 134.282 145.730  1.00  0.00     0.004 C 
ENDBRANCH  18  19
ENDBRANCH  17  18
ENDBRANCH  16  17
ENDBRANCH  15  16
ENDBRANCH  14  15
ENDBRANCH  13  14
ENDBRANCH   2  13
TORSDOF 15
ENDMDL
MODEL 5
REMARK VINA RESULT:    -3.465      1.542      2.132
REMARK INTER + INTRA:          -9.538
REMARK INTER:                  -7.110
REMARK INTRA:                  -2.428
REMARK UNBOUND:                -3.035
REMARK SMILES CCCCCCCCC=CCCCCCCCC(=O)[O-]
REMARK SMILES IDX 10 1 9 2 11 3 12 4 13 5 14 6 15 7 16 8 17 9 18 10 19 11
REMARK SMILES IDX 20 12 8 13 7 14 6 15 5 16 4 17 3 18 2 19 1 20
REMARK H PARENT
REMARK Flexibility Score: inf
ROOT
ATOM      1  C   UNL     1     140.277 133.580 150.851  1.00  0.00    -0.031 C 
ATOM      2  C   UNL     1     140.353 134.501 149.879  1.00  0.00    -0.031 C 
ENDROOT
BRANCH   1   3
ATOM      3  C   UNL     1     139.002 133.343 151.615  1.00  0.00     0.027 C 
BRANCH   3   4
ATOM      4  C   UNL     1     137.796 133.129 150.688  1.00  0.00     0.004 C 
BRANCH   4   5
ATOM      5  C   UNL     1     137.771 131.714 150.088  1.00  0.00     0.000 C 
BRANCH   5   6
ATOM      6  C   UNL     1     137.503 131.761 148.577  1.00  0.00     0.000 C 
BRANCH   6   7
ATOM      7  C   UNL     1     137.471 133.205 148.035  1.00  0.00     0.000 C 
BRANCH   7   8
ATOM      8  C   UNL     1     138.383 133.427 146.815  1.00  0.00     0.006 C 
BRANCH   8   9
ATOM      9  C   UNL     1     137.650 134.070 145.631  1.00  0.00     0.053 C 
BRANCH   9  10
ATOM     10  C   UNL     1     137.114 133.017 144.714  1.00  0.00     0.041 C 
ATOM     11  O   UNL     1     137.323 131.799 144.958  1.00  0.00    -0.550 OA
ATOM     12  O   UNL     1     136.345 133.376 143.615  1.00  0.00    -0.550 OA
ENDBRANCH   9  10
ENDBRANCH   8   9
ENDBRANCH   7   8
ENDBRANCH   6   7
ENDBRANCH   5   6
ENDBRANCH   4   5
ENDBRANCH   3   4
ENDBRANCH   1   3
BRANCH   2  13
ATOM     13  C   UNL     1     141.625 134.737 149.112  1.00  0.00     0.027 C 
BRANCH  13  14
ATOM     14  C   UNL     1     141.916 133.579 148.150  1.00  0.00     0.004 C 
BRANCH  14  15
ATOM     15  C   UNL     1     143.311 132.987 148.406  1.00  0.00     0.000 C 
BRANCH  15  16
ATOM     16  C   UNL     1     143.911 133.452 149.750  1.00  0.00     0.000 C 
BRANCH  16  17
ATOM     17  C   UNL     1     144.338 132.294 150.673  1.00  0.00    -0.000 C 
BRANCH  17  18
ATOM     18  C   UNL     1     143.260 131.816 151.663  1.00  0.00    -0.000 C 
BRANCH  18  19
ATOM     19  C   UNL     1     142.800 130.360 151.465  1.00  0.00    -0.003 C 
ATOM     20  C   UNL     1     141.422 130.254 150.814  1.00  0.00     0.004 C 
ENDBRANCH  18  19
ENDBRANCH  17  18
ENDBRANCH  16  17
ENDBRANCH  15  16
ENDBRANCH  14  15
ENDBRANCH  13  14
ENDBRANCH   2  13
TORSDOF 15
ENDMDL
MODEL 6
REMARK VINA RESULT:    -3.452      2.634      4.667
REMARK INTER + INTRA:          -9.514
REMARK INTER:                  -7.223
REMARK INTRA:                  -2.290
REMARK UNBOUND:                -3.035
REMARK SMILES CCCCCCCCC=CCCCCCCCC(=O)[O-]
REMARK SMILES IDX 10 1 9 2 11 3 12 4 13 5 14 6 15 7 16 8 17 9 18 10 19 11
REMARK SMILES IDX 20 12 8 13 7 14 6 15 5 16 4 17 3 18 2 19 1 20
REMARK H PARENT
REMARK Flexibility Score: inf
ROOT
ATOM      1  C   UNL     1     139.506 132.399 147.153  1.00  0.00    -0.031 C 
ATOM      2  C   UNL     1     140.106 133.551 147.490  1.00  0.00    -0.031 C 
ENDROOT
BRANCH   1   3
ATOM      3  C   UNL     1     138.127 132.375 146.550  1.00  0.00     0.027 C 
BRANCH   3   4
ATOM      4  C   UNL     1     137.445 133.751 146.597  1.00  0.00     0.004 C 
BRANCH   4   5
ATOM      5  C   UNL     1     137.011 134.230 145.203  1.00  0.00     0.000 C 
BRANCH   5   6
ATOM      6  C   UNL     1     137.887 135.397 144.725  1.00  0.00     0.000 C 
BRANCH   6   7
ATOM      7  C   UNL     1     139.214 134.914 144.103  1.00  0.00     0.000 C 
BRANCH   7   8
ATOM      8  C   UNL     1     140.425 135.788 144.475  1.00  0.00     0.006 C 
BRANCH   8   9
ATOM      9  C   UNL     1     140.255 137.253 144.056  1.00  0.00     0.053 C 
BRANCH   9  10
ATOM     10  C   UNL     1     141.378 138.084 144.593  1.00  0.00     0.041 C 
ATOM     11  O   UNL     1     142.415 137.530 145.041  1.00  0.00    -0.550 OA
ATOM     12  O   UNL     1     141.298 139.469 144.554  1.00  0.00    -0.550 OA
ENDBRANCH   9  10
ENDBRANCH   8   9
ENDBRANCH   7   8
ENDBRANCH   6   7
ENDBRANCH   5   6
ENDBRANCH   4   5
ENDBRANCH   3   4
ENDBRANCH   1   3
BRANCH   2  13
ATOM     13  C   UNL     1     141.485 133.577 148.090  1.00  0.00     0.027 C 
BRANCH  13  14
ATOM     14  C   UNL     1     141.428 133.435 149.616  1.00  0.00     0.004 C 
BRANCH  14  15
ATOM     15  C   UNL     1     140.399 134.403 150.221  1.00  0.00     0.000 C 
BRANCH  15  16
ATOM     16  C   UNL     1     139.624 133.779 151.401  1.00  0.00     0.000 C 
BRANCH  16  17
ATOM     17  C   UNL     1     138.652 132.659 150.984  1.00  0.00    -0.000 C 
BRANCH  17  18
ATOM     18  C   UNL     1     137.334 133.141 150.349  1.00  0.00    -0.000 C 
BRANCH  18  19
ATOM     19  C   UNL     1     136.479 132.029 149.713  1.00  0.00    -0.003 C 
ATOM     20  C   UNL     1     136.727 130.657 150.338  1.00  0.00     0.004 C 
ENDBRANCH  18  19
ENDBRANCH  17  18
ENDBRANCH  16  17
ENDBRANCH  15  16
ENDBRANCH  14  15
ENDBRANCH  13  14
ENDBRANCH   2  13
TORSDOF 15
ENDMDL
MODEL 7
REMARK VINA RESULT:    -3.374      8.651     11.444
REMARK INTER + INTRA:          -9.368
REMARK INTER:                  -7.321
REMARK INTRA:                  -2.047
REMARK UNBOUND:                -3.035
REMARK SMILES CCCCCCCCC=CCCCCCCCC(=O)[O-]
REMARK SMILES IDX 10 1 9 2 11 3 12 4 13 5 14 6 15 7 16 8 17 9 18 10 19 11
REMARK SMILES IDX 20 12 8 13 7 14 6 15 5 16 4 17 3 18 2 19 1 20
REMARK H PARENT
REMARK Flexibility Score: inf
ROOT
ATOM      1  C   UNL     1     147.912 134.461 149.738  1.00  0.00    -0.031 C 
ATOM      2  C   UNL     1     146.714 134.089 150.212  1.00  0.00    -0.031 C 
ENDROOT
BRANCH   1   3
ATOM      3  C   UNL     1     149.173 134.254 150.533  1.00  0.00     0.027 C 
BRANCH   3   4
ATOM      4  C   UNL     1     150.412 134.817 149.820  1.00  0.00     0.004 C 
BRANCH   4   5
ATOM      5  C   UNL     1     151.630 133.890 149.957  1.00  0.00     0.000 C 
BRANCH   5   6
ATOM      6  C   UNL     1     151.405 132.842 151.056  1.00  0.00     0.000 C 
BRANCH   6   7
ATOM      7  C   UNL     1     152.004 133.278 152.409  1.00  0.00     0.000 C 
BRANCH   7   8
ATOM      8  C   UNL     1     151.319 132.630 153.625  1.00  0.00     0.006 C 
BRANCH   8   9
ATOM      9  C   UNL     1     150.093 131.793 153.244  1.00  0.00     0.053 C 
BRANCH   9  10
ATOM     10  C   UNL     1     148.867 132.323 153.919  1.00  0.00     0.041 C 
ATOM     11  O   UNL     1     148.056 131.532 154.468  1.00  0.00    -0.550 OA
ATOM     12  O   UNL     1     148.646 133.692 153.983  1.00  0.00    -0.550 OA
ENDBRANCH   9  10
ENDBRANCH   8   9
ENDBRANCH   7   8
ENDBRANCH   6   7
ENDBRANCH   5   6
ENDBRANCH   4   5
ENDBRANCH   3   4
ENDBRANCH   1   3
BRANCH   2  13
ATOM     13  C   UNL     1     145.453 134.293 149.417  1.00  0.00     0.027 C 
BRANCH  13  14
ATOM     14  C   UNL     1     144.989 135.754 149.478  1.00  0.00     0.004 C 
BRANCH  14  15
ATOM     15  C   UNL     1     144.678 136.291 148.072  1.00  0.00     0.000 C 
BRANCH  15  16
ATOM     16  C   UNL     1     145.739 135.874 147.032  1.00  0.00     0.000 C 
BRANCH  16  17
ATOM     17  C   UNL     1     146.599 137.045 146.518  1.00  0.00    -0.000 C 
BRANCH  17  18
ATOM     18  C   UNL     1     148.007 137.143 147.135  1.00  0.00    -0.000 C 
BRANCH  18  19
ATOM     19  C   UNL     1     148.060 137.809 148.522  1.00  0.00    -0.003 C 
ATOM     20  C   UNL     1     147.153 139.035 148.630  1.00  0.00     0.004 C 
ENDBRANCH  18  19
ENDBRANCH  17  18
ENDBRANCH  16  17
ENDBRANCH  15  16
ENDBRANCH  14  15
ENDBRANCH  13  14
ENDBRANCH   2  13
TORSDOF 15
ENDMDL
MODEL 8
REMARK VINA RESULT:    -3.369      4.922      7.594
REMARK INTER + INTRA:          -9.358
REMARK INTER:                  -7.337
REMARK INTRA:                  -2.021
REMARK UNBOUND:                -3.035
REMARK SMILES CCCCCCCCC=CCCCCCCCC(=O)[O-]
REMARK SMILES IDX 10 1 9 2 11 3 12 4 13 5 14 6 15 7 16 8 17 9 18 10 19 11
REMARK SMILES IDX 20 12 8 13 7 14 6 15 5 16 4 17 3 18 2 19 1 20
REMARK H PARENT
REMARK Flexibility Score: inf
ROOT
ATOM      1  C   UNL     1     141.789 133.604 149.534  1.00  0.00    -0.031 C 
ATOM      2  C   UNL     1     140.959 134.615 149.830  1.00  0.00    -0.031 C 
ENDROOT
BRANCH   1   3
ATOM      3  C   UNL     1     143.013 133.811 148.683  1.00  0.00     0.027 C 
BRANCH   3   4
ATOM      4  C   UNL     1     143.290 135.297 148.410  1.00  0.00     0.004 C 
BRANCH   4   5
ATOM      5  C   UNL     1     144.551 135.794 149.132  1.00  0.00     0.000 C 
BRANCH   5   6
ATOM      6  C   UNL     1     145.359 134.620 149.702  1.00  0.00     0.000 C 
BRANCH   6   7
ATOM      7  C   UNL     1     146.857 134.715 149.345  1.00  0.00     0.000 C 
BRANCH   7   8
ATOM      8  C   UNL     1     147.191 135.870 148.383  1.00  0.00     0.006 C 
BRANCH   8   9
ATOM      9  C   UNL     1     148.148 136.899 148.996  1.00  0.00     0.053 C 
BRANCH   9  10
ATOM     10  C   UNL     1     147.758 138.284 148.585  1.00  0.00     0.041 C 
ATOM     11  O   UNL     1     146.592 138.706 148.808  1.00  0.00    -0.550 OA
ATOM     12  O   UNL     1     148.693 139.125 147.998  1.00  0.00    -0.550 OA
ENDBRANCH   9  10
ENDBRANCH   8   9
ENDBRANCH   7   8
ENDBRANCH   6   7
ENDBRANCH   5   6
ENDBRANCH   4   5
ENDBRANCH   3   4
ENDBRANCH   1   3
BRANCH   2  13
ATOM     13  C   UNL     1     139.737 134.410 150.683  1.00  0.00     0.027 C 
BRANCH  13  14
ATOM     14  C   UNL     1     139.751 133.029 151.349  1.00  0.00     0.004 C 
BRANCH  14  15
ATOM     15  C   UNL     1     138.434 132.281 151.093  1.00  0.00     0.000 C 
BRANCH  15  16
ATOM     16  C   UNL     1     137.425 133.123 150.284  1.00  0.00     0.000 C 
BRANCH  16  17
ATOM     17  C   UNL     1     137.111 132.547 148.889  1.00  0.00    -0.000 C 
BRANCH  17  18
ATOM     18  C   UNL     1     137.657 133.368 147.706  1.00  0.00    -0.000 C 
BRANCH  18  19
ATOM     19  C   UNL     1     139.022 132.899 147.169  1.00  0.00    -0.003 C 
ATOM     20  C   UNL     1     139.735 133.965 146.339  1.00  0.00     0.004 C 
ENDBRANCH  18  19
ENDBRANCH  17  18
ENDBRANCH  16  17
ENDBRANCH  15  16
ENDBRANCH  14  15
ENDBRANCH  13  14
ENDBRANCH   2  13
TORSDOF 15
ENDMDL
MODEL 9
REMARK VINA RESULT:    -3.350      2.822      5.459
REMARK INTER + INTRA:          -9.323
REMARK INTER:                  -6.918
REMARK INTRA:                  -2.405
REMARK UNBOUND:                -3.035
REMARK SMILES CCCCCCCCC=CCCCCCCCC(=O)[O-]
REMARK SMILES IDX 10 1 9 2 11 3 12 4 13 5 14 6 15 7 16 8 17 9 18 10 19 11
REMARK SMILES IDX 20 12 8 13 7 14 6 15 5 16 4 17 3 18 2 19 1 20
REMARK H PARENT
REMARK Flexibility Score: inf
ROOT
ATOM      1  C   UNL     1     138.197 130.096 147.810  1.00  0.00    -0.031 C 
ATOM      2  C   UNL     1     137.974 131.160 147.023  1.00  0.00    -0.031 C 
ENDROOT
BRANCH   1   3
ATOM      3  C   UNL     1     137.081 129.426 148.565  1.00  0.00     0.027 C 
BRANCH   3   4
ATOM      4  C   UNL     1     136.110 130.438 149.191  1.00  0.00     0.004 C 
BRANCH   4   5
ATOM      5  C   UNL     1     136.702 131.114 150.437  1.00  0.00     0.000 C 
BRANCH   5   6
ATOM      6  C   UNL     1     136.720 132.641 150.279  1.00  0.00     0.000 C 
BRANCH   6   7
ATOM      7  C   UNL     1     138.136 133.180 149.987  1.00  0.00     0.000 C 
BRANCH   7   8
ATOM      8  C   UNL     1     138.983 133.409 151.252  1.00  0.00     0.006 C 
BRANCH   8   9
ATOM      9  C   UNL     1     140.483 133.207 151.010  1.00  0.00     0.053 C 
BRANCH   9  10
ATOM     10  C   UNL     1     140.946 134.050 149.864  1.00  0.00     0.041 C 
ATOM     11  O   UNL     1     141.427 133.507 148.834  1.00  0.00    -0.550 OA
ATOM     12  O   UNL     1     140.804 135.430 149.913  1.00  0.00    -0.550 OA
ENDBRANCH   9  10
ENDBRANCH   8   9
ENDBRANCH   7   8
ENDBRANCH   6   7
ENDBRANCH   5   6
ENDBRANCH   4   5
ENDBRANCH   3   4
ENDBRANCH   1   3
BRANCH   2  13
ATOM     13  C   UNL     1     139.088 131.829 146.266  1.00  0.00     0.027 C 
BRANCH  13  14
ATOM     14  C   UNL     1     138.941 133.355 146.295  1.00  0.00     0.004 C 
BRANCH  14  15
ATOM     15  C   UNL     1     137.468 133.763 146.457  1.00  0.00     0.000 C 
BRANCH  15  16
ATOM     16  C   UNL     1     136.971 134.653 145.299  1.00  0.00     0.000 C 
BRANCH  16  17
ATOM     17  C   UNL     1     137.196 134.041 143.903  1.00  0.00    -0.000 C 
BRANCH  17  18
ATOM     18  C   UNL     1     136.270 132.861 143.551  1.00  0.00    -0.000 C 
BRANCH  18  19
ATOM     19  C   UNL     1     136.998 131.547 143.214  1.00  0.00    -0.003 C 
ATOM     20  C   UNL     1     138.402 131.770 142.652  1.00  0.00     0.004 C 
ENDBRANCH  18  19
ENDBRANCH  17  18
ENDBRANCH  16  17
ENDBRANCH  15  16
ENDBRANCH  14  15
ENDBRANCH  13  14
ENDBRANCH   2  13
TORSDOF 15
ENDMDL
