MODEL 1
REMARK VINA RESULT:    -6.186      0.000      0.000
REMARK INTER + INTRA:         -10.234
REMARK INTER:                  -8.536
REMARK INTRA:                  -1.698
REMARK UNBOUND:                -1.698
REMARK SMILES C=C(CC[C@@H](C(=O)[O-])[C@@H]1CC[C@@]2(C)C3=C(CC[C@]12C)[C@@]1(C)CC[C@@H](O)C(C)(C)[C@@H]1CC3)C(C)C
REMARK SMILES IDX 4 1 5 2 6 3 7 4 8 5 9 6 10 7 18 8 11 9 12 10 17 11 19 12
REMARK SMILES IDX 13 13 14 14 16 15 15 16 31 17 20 18 30 19 29 20 22 21 21 22
REMARK SMILES IDX 26 23 23 24 24 25 27 26 28 27 25 28 3 30 2 31 1 32 32 33
REMARK SMILES IDX 33 34 34 35
REMARK H PARENT 25 29
REMARK Flexibility Score: inf
ROOT
ATOM      1  C   UNL     1     135.321 130.786 117.547  1.00  0.00     0.014 C 
ENDROOT
BRANCH   1   2
ATOM      2  C   UNL     1     136.518 129.971 118.103  1.00  0.00     0.039 C 
BRANCH   2   3
ATOM      3  C   UNL     1     136.082 129.117 119.275  1.00  0.00     0.045 C 
ATOM      4  O   UNL     1     134.880 128.747 119.388  1.00  0.00    -0.550 OA
ATOM      5  O   UNL     1     136.986 128.803 120.287  1.00  0.00    -0.550 OA
ENDBRANCH   2   3
BRANCH   2   6
ATOM      6  C   UNL     1     137.242 129.205 116.936  1.00  0.00     0.004 C 
ATOM      7  C   UNL     1     137.249 127.657 117.022  1.00  0.00     0.006 C 
ATOM      8  C   UNL     1     138.713 129.601 116.557  1.00  0.00    -0.020 C 
ATOM      9  C   UNL     1     138.674 127.193 116.672  1.00  0.00     0.012 C 
ATOM     10  C   UNL     1     139.576 128.390 117.019  1.00  0.00    -0.006 C 
ATOM     11  C   UNL     1     139.333 130.883 117.149  1.00  0.00     0.012 C 
ATOM     12  C   UNL     1     138.728 129.777 114.992  1.00  0.00     0.012 C 
ATOM     13  C   UNL     1     139.878 128.301 118.548  1.00  0.00     0.017 C 
ATOM     14  C   UNL     1     140.938 128.482 116.350  1.00  0.00    -0.064 C 
ATOM     15  C   UNL     1     140.862 130.980 116.844  1.00  0.00     0.032 C 
ATOM     16  C   UNL     1     141.579 129.696 116.339  1.00  0.00    -0.064 C 
ATOM     17  C   UNL     1     141.526 127.246 115.691  1.00  0.00     0.032 C 
ATOM     18  C   UNL     1     142.980 129.806 115.703  1.00  0.00    -0.008 C 
ATOM     19  C   UNL     1     143.056 127.235 115.511  1.00  0.00     0.009 C 
ATOM     20  C   UNL     1     143.766 128.490 116.070  1.00  0.00     0.007 C 
ATOM     21  C   UNL     1     143.745 131.030 116.284  1.00  0.00     0.014 C 
ATOM     22  C   UNL     1     142.745 130.019 114.182  1.00  0.00     0.016 C 
ATOM     23  C   UNL     1     145.332 128.493 115.832  1.00  0.00    -0.006 C 
ATOM     24  C   UNL     1     145.232 131.059 115.914  1.00  0.00     0.033 C 
ATOM     25  C   UNL     1     145.957 129.802 116.407  1.00  0.00     0.120 C 
ATOM     26  C   UNL     1     145.982 127.292 116.579  1.00  0.00     0.014 C 
ATOM     27  C   UNL     1     145.739 128.337 114.342  1.00  0.00     0.014 C 
BRANCH  25  28
ATOM     28  O   UNL     1     145.934 129.783 117.816  1.00  0.00    -0.393 OA
ATOM     29  H   UNL     1     145.257 130.451 118.105  1.00  0.00     0.210 HD
ENDBRANCH  25  28
ENDBRANCH   2   6
ENDBRANCH   1   2
BRANCH   1  30
ATOM     30  C   UNL     1     134.866 130.331 116.148  1.00  0.00     0.031 C 
BRANCH  30  31
ATOM     31  C   UNL     1     133.593 129.514 116.229  1.00  0.00    -0.075 C 
ATOM     32  C   UNL     1     132.545 129.993 116.926  1.00  0.00     0.008 C 
BRANCH  31  33
ATOM     33  C   UNL     1     133.510 128.169 115.518  1.00  0.00     0.008 C 
ATOM     34  C   UNL     1     132.198 128.023 114.736  1.00  0.00     0.012 C 
ATOM     35  C   UNL     1     133.701 127.011 116.505  1.00  0.00     0.012 C 
ENDBRANCH  31  33
ENDBRANCH  30  31
ENDBRANCH   1  30
TORSDOF 7
ENDMDL
MODEL 2
REMARK VINA RESULT:    -5.989      5.469      9.161
REMARK INTER + INTRA:          -9.963
REMARK INTER:                  -8.019
REMARK INTRA:                  -1.944
REMARK UNBOUND:                -1.698
REMARK SMILES C=C(CC[C@@H](C(=O)[O-])[C@@H]1CC[C@@]2(C)C3=C(CC[C@]12C)[C@@]1(C)CC[C@@H](O)C(C)(C)[C@@H]1CC3)C(C)C
REMARK SMILES IDX 4 1 5 2 6 3 7 4 8 5 9 6 10 7 18 8 11 9 12 10 17 11 19 12
REMARK SMILES IDX 13 13 14 14 16 15 15 16 31 17 20 18 30 19 29 20 22 21 21 22
REMARK SMILES IDX 26 23 23 24 24 25 27 26 28 27 25 28 3 30 2 31 1 32 32 33
REMARK SMILES IDX 33 34 34 35
REMARK H PARENT 25 29
REMARK Flexibility Score: inf
ROOT
ATOM      1  C   UNL     1     145.686 138.029 117.057  1.00  0.00     0.014 C 
ENDROOT
BRANCH   1   2
ATOM      2  C   UNL     1     145.415 136.812 117.981  1.00  0.00     0.039 C 
BRANCH   2   3
ATOM      3  C   UNL     1     145.283 137.256 119.422  1.00  0.00     0.045 C 
ATOM      4  O   UNL     1     144.852 138.409 119.702  1.00  0.00    -0.550 OA
ATOM      5  O   UNL     1     145.717 136.427 120.454  1.00  0.00    -0.550 OA
ENDBRANCH   2   3
BRANCH   2   6
ATOM      6  C   UNL     1     144.219 135.959 117.419  1.00  0.00     0.004 C 
ATOM      7  C   UNL     1     142.951 135.873 118.308  1.00  0.00     0.006 C 
ATOM      8  C   UNL     1     144.485 134.488 116.941  1.00  0.00    -0.020 C 
ATOM      9  C   UNL     1     142.499 134.402 118.307  1.00  0.00     0.012 C 
ATOM     10  C   UNL     1     143.774 133.597 118.003  1.00  0.00    -0.006 C 
ATOM     11  C   UNL     1     145.936 133.987 116.790  1.00  0.00     0.012 C 
ATOM     12  C   UNL     1     143.817 134.365 115.520  1.00  0.00     0.012 C 
ATOM     13  C   UNL     1     144.525 133.408 119.358  1.00  0.00     0.017 C 
ATOM     14  C   UNL     1     143.622 132.195 117.434  1.00  0.00    -0.064 C 
ATOM     15  C   UNL     1     145.991 132.447 116.534  1.00  0.00     0.032 C 
ATOM     16  C   UNL     1     144.701 131.624 116.808  1.00  0.00    -0.064 C 
ATOM     17  C   UNL     1     142.280 131.491 117.547  1.00  0.00     0.032 C 
ATOM     18  C   UNL     1     144.584 130.187 116.260  1.00  0.00    -0.008 C 
ATOM     19  C   UNL     1     142.310 129.954 117.454  1.00  0.00     0.009 C 
ATOM     20  C   UNL     1     143.729 129.359 117.292  1.00  0.00     0.007 C 
ATOM     21  C   UNL     1     145.993 129.537 116.135  1.00  0.00     0.014 C 
ATOM     22  C   UNL     1     143.949 130.317 114.847  1.00  0.00     0.016 C 
ATOM     23  C   UNL     1     143.743 127.782 117.144  1.00  0.00    -0.006 C 
ATOM     24  C   UNL     1     145.953 128.030 115.857  1.00  0.00     0.033 C 
ATOM     25  C   UNL     1     145.209 127.276 116.965  1.00  0.00     0.120 C 
ATOM     26  C   UNL     1     143.172 127.125 118.435  1.00  0.00     0.014 C 
ATOM     27  C   UNL     1     142.867 127.255 115.976  1.00  0.00     0.014 C 
BRANCH  25  28
ATOM     28  O   UNL     1     145.926 127.406 118.170  1.00  0.00    -0.393 OA
ATOM     29  H   UNL     1     145.353 127.033 118.892  1.00  0.00     0.210 HD
ENDBRANCH  25  28
ENDBRANCH   2   6
ENDBRANCH   1   2
BRANCH   1  30
ATOM     30  C   UNL     1     146.776 137.767 116.002  1.00  0.00     0.031 C 
BRANCH  30  31
ATOM     31  C   UNL     1     146.172 137.250 114.713  1.00  0.00    -0.075 C 
ATOM     32  C   UNL     1     146.826 136.307 114.008  1.00  0.00     0.008 C 
BRANCH  31  33
ATOM     33  C   UNL     1     144.834 137.797 114.232  1.00  0.00     0.008 C 
ATOM     34  C   UNL     1     144.338 137.058 112.982  1.00  0.00     0.012 C 
ATOM     35  C   UNL     1     144.910 139.310 113.990  1.00  0.00     0.012 C 
ENDBRANCH  31  33
ENDBRANCH  30  31
ENDBRANCH   1  30
TORSDOF 7
ENDMDL
MODEL 3
REMARK VINA RESULT:    -5.963      3.786      6.956
REMARK INTER + INTRA:          -9.926
REMARK INTER:                  -8.291
REMARK INTRA:                  -1.634
REMARK UNBOUND:                -1.698
REMARK SMILES C=C(CC[C@@H](C(=O)[O-])[C@@H]1CC[C@@]2(C)C3=C(CC[C@]12C)[C@@]1(C)CC[C@@H](O)C(C)(C)[C@@H]1CC3)C(C)C
REMARK SMILES IDX 4 1 5 2 6 3 7 4 8 5 9 6 10 7 18 8 11 9 12 10 17 11 19 12
REMARK SMILES IDX 13 13 14 14 16 15 15 16 31 17 20 18 30 19 29 20 22 21 21 22
REMARK SMILES IDX 26 23 23 24 24 25 27 26 28 27 25 28 3 30 2 31 1 32 32 33
REMARK SMILES IDX 33 34 34 35
REMARK H PARENT 25 29
REMARK Flexibility Score: inf
ROOT
ATOM      1  C   UNL     1     129.511 128.186 118.710  1.00  0.00     0.014 C 
ENDROOT
BRANCH   1   2
ATOM      2  C   UNL     1     130.292 128.630 117.445  1.00  0.00     0.039 C 
BRANCH   2   3
ATOM      3  C   UNL     1     129.347 129.191 116.405  1.00  0.00     0.045 C 
ATOM      4  O   UNL     1     129.495 128.911 115.183  1.00  0.00    -0.550 OA
ATOM      5  O   UNL     1     128.352 130.094 116.777  1.00  0.00    -0.550 OA
ENDBRANCH   2   3
BRANCH   2   6
ATOM      6  C   UNL     1     131.492 129.563 117.848  1.00  0.00     0.004 C 
ATOM      7  C   UNL     1     131.409 131.040 117.382  1.00  0.00     0.006 C 
ATOM      8  C   UNL     1     132.959 129.111 117.517  1.00  0.00    -0.020 C 
ATOM      9  C   UNL     1     132.796 131.418 116.832  1.00  0.00     0.012 C 
ATOM     10  C   UNL     1     133.424 130.084 116.393  1.00  0.00    -0.006 C 
ATOM     11  C   UNL     1     133.222 127.668 117.040  1.00  0.00     0.012 C 
ATOM     12  C   UNL     1     133.783 129.302 118.845  1.00  0.00     0.012 C 
ATOM     13  C   UNL     1     132.891 129.783 114.957  1.00  0.00     0.017 C 
ATOM     14  C   UNL     1     134.938 130.004 116.280  1.00  0.00    -0.064 C 
ATOM     15  C   UNL     1     134.691 127.482 116.543  1.00  0.00     0.032 C 
ATOM     16  C   UNL     1     135.528 128.765 116.272  1.00  0.00    -0.064 C 
ATOM     17  C   UNL     1     135.745 131.290 116.213  1.00  0.00     0.032 C 
ATOM     18  C   UNL     1     137.058 128.656 116.117  1.00  0.00    -0.008 C 
ATOM     19  C   UNL     1     137.148 131.179 115.586  1.00  0.00     0.009 C 
ATOM     20  C   UNL     1     137.504 129.759 115.084  1.00  0.00     0.007 C 
ATOM     21  C   UNL     1     137.449 127.256 115.561  1.00  0.00     0.014 C 
ATOM     22  C   UNL     1     137.648 128.827 117.544  1.00  0.00     0.016 C 
ATOM     23  C   UNL     1     138.968 129.645 114.489  1.00  0.00    -0.006 C 
ATOM     24  C   UNL     1     138.915 127.155 115.122  1.00  0.00     0.033 C 
ATOM     25  C   UNL     1     139.244 128.179 114.030  1.00  0.00     0.120 C 
ATOM     26  C   UNL     1     139.105 130.565 113.241  1.00  0.00     0.014 C 
ATOM     27  C   UNL     1     140.080 130.098 115.473  1.00  0.00     0.014 C 
BRANCH  25  28
ATOM     28  O   UNL     1     138.497 127.875 112.875  1.00  0.00    -0.393 OA
ATOM     29  H   UNL     1     137.558 128.144 113.057  1.00  0.00     0.210 HD
ENDBRANCH  25  28
ENDBRANCH   2   6
ENDBRANCH   1   2
BRANCH   1  30
ATOM     30  C   UNL     1     129.916 128.955 119.981  1.00  0.00     0.031 C 
BRANCH  30  31
ATOM     31  C   UNL     1     130.775 128.095 120.886  1.00  0.00    -0.075 C 
ATOM     32  C   UNL     1     131.164 126.877 120.464  1.00  0.00     0.008 C 
BRANCH  31  33
ATOM     33  C   UNL     1     131.191 128.618 122.255  1.00  0.00     0.008 C 
ATOM     34  C   UNL     1     130.257 128.111 123.361  1.00  0.00     0.012 C 
ATOM     35  C   UNL     1     131.276 130.150 122.258  1.00  0.00     0.012 C 
ENDBRANCH  31  33
ENDBRANCH  30  31
ENDBRANCH   1  30
TORSDOF 7
ENDMDL
MODEL 4
REMARK VINA RESULT:    -5.943      3.878      7.065
REMARK INTER + INTRA:          -9.899
REMARK INTER:                  -8.764
REMARK INTRA:                  -1.135
REMARK UNBOUND:                -1.698
REMARK SMILES C=C(CC[C@@H](C(=O)[O-])[C@@H]1CC[C@@]2(C)C3=C(CC[C@]12C)[C@@]1(C)CC[C@@H](O)C(C)(C)[C@@H]1CC3)C(C)C
REMARK SMILES IDX 4 1 5 2 6 3 7 4 8 5 9 6 10 7 18 8 11 9 12 10 17 11 19 12
REMARK SMILES IDX 13 13 14 14 16 15 15 16 31 17 20 18 30 19 29 20 22 21 21 22
REMARK SMILES IDX 26 23 23 24 24 25 27 26 28 27 25 28 3 30 2 31 1 32 32 33
REMARK SMILES IDX 33 34 34 35
REMARK H PARENT 25 29
REMARK Flexibility Score: inf
ROOT
ATOM      1  C   UNL     1     142.560 127.940 115.355  1.00  0.00     0.014 C 
ENDROOT
BRANCH   1   2
ATOM      2  C   UNL     1     143.396 127.759 116.650  1.00  0.00     0.039 C 
BRANCH   2   3
ATOM      3  C   UNL     1     144.803 127.312 116.316  1.00  0.00     0.045 C 
ATOM      4  O   UNL     1     145.135 127.069 115.122  1.00  0.00    -0.550 OA
ATOM      5  O   UNL     1     145.725 127.080 117.335  1.00  0.00    -0.550 OA
ENDBRANCH   2   3
BRANCH   2   6
ATOM      6  C   UNL     1     143.286 129.044 117.551  1.00  0.00     0.004 C 
ATOM      7  C   UNL     1     141.855 129.521 117.907  1.00  0.00     0.006 C 
ATOM      8  C   UNL     1     144.059 130.344 117.128  1.00  0.00    -0.020 C 
ATOM      9  C   UNL     1     141.829 131.048 117.720  1.00  0.00     0.012 C 
ATOM     10  C   UNL     1     142.941 131.340 116.698  1.00  0.00    -0.006 C 
ATOM     11  C   UNL     1     145.102 130.275 115.994  1.00  0.00     0.012 C 
ATOM     12  C   UNL     1     144.825 130.832 118.414  1.00  0.00     0.012 C 
ATOM     13  C   UNL     1     142.325 131.114 115.281  1.00  0.00     0.017 C 
ATOM     14  C   UNL     1     143.531 132.740 116.656  1.00  0.00    -0.064 C 
ATOM     15  C   UNL     1     145.585 131.698 115.567  1.00  0.00     0.032 C 
ATOM     16  C   UNL     1     144.749 132.918 116.049  1.00  0.00    -0.064 C 
ATOM     17  C   UNL     1     142.775 133.883 117.312  1.00  0.00     0.032 C 
ATOM     18  C   UNL     1     145.350 134.336 115.958  1.00  0.00    -0.008 C 
ATOM     19  C   UNL     1     143.113 135.299 116.808  1.00  0.00     0.009 C 
ATOM     20  C   UNL     1     144.161 135.330 115.671  1.00  0.00     0.007 C 
ATOM     21  C   UNL     1     146.371 134.418 114.786  1.00  0.00     0.014 C 
ATOM     22  C   UNL     1     146.088 134.577 117.303  1.00  0.00     0.016 C 
ATOM     23  C   UNL     1     144.541 136.793 115.196  1.00  0.00    -0.006 C 
ATOM     24  C   UNL     1     146.811 135.848 114.452  1.00  0.00     0.033 C 
ATOM     25  C   UNL     1     145.616 136.726 114.067  1.00  0.00     0.120 C 
ATOM     26  C   UNL     1     143.284 137.501 114.611  1.00  0.00     0.014 C 
ATOM     27  C   UNL     1     145.049 137.710 116.341  1.00  0.00     0.014 C 
BRANCH  25  28
ATOM     28  O   UNL     1     145.049 136.232 112.875  1.00  0.00    -0.393 OA
ATOM     29  H   UNL     1     145.369 136.816 112.137  1.00  0.00     0.210 HD
ENDBRANCH  25  28
ENDBRANCH   2   6
ENDBRANCH   1   2
BRANCH   1  30
ATOM     30  C   UNL     1     141.451 126.884 115.189  1.00  0.00     0.031 C 
BRANCH  30  31
ATOM     31  C   UNL     1     140.089 127.475 115.486  1.00  0.00    -0.075 C 
ATOM     32  C   UNL     1     139.297 126.883 116.401  1.00  0.00     0.008 C 
BRANCH  31  33
ATOM     33  C   UNL     1     139.633 128.732 114.756  1.00  0.00     0.008 C 
ATOM     34  C   UNL     1     138.815 129.652 115.671  1.00  0.00     0.012 C 
ATOM     35  C   UNL     1     138.854 128.379 113.483  1.00  0.00     0.012 C 
ENDBRANCH  31  33
ENDBRANCH  30  31
ENDBRANCH   1  30
TORSDOF 7
ENDMDL
MODEL 5
REMARK VINA RESULT:    -5.892      9.393     12.661
REMARK INTER + INTRA:          -9.828
REMARK INTER:                  -8.040
REMARK INTRA:                  -1.788
REMARK UNBOUND:                -1.698
REMARK SMILES C=C(CC[C@@H](C(=O)[O-])[C@@H]1CC[C@@]2(C)C3=C(CC[C@]12C)[C@@]1(C)CC[C@@H](O)C(C)(C)[C@@H]1CC3)C(C)C
REMARK SMILES IDX 4 1 5 2 6 3 7 4 8 5 9 6 10 7 18 8 11 9 12 10 17 11 19 12
REMARK SMILES IDX 13 13 14 14 16 15 15 16 31 17 20 18 30 19 29 20 22 21 21 22
REMARK SMILES IDX 26 23 23 24 24 25 27 26 28 27 25 28 3 30 2 31 1 32 32 33
REMARK SMILES IDX 33 34 34 35
REMARK H PARENT 25 29
REMARK Flexibility Score: inf
ROOT
ATOM      1  C   UNL     1     128.730 130.026 115.299  1.00  0.00     0.014 C 
ENDROOT
BRANCH   1   2
ATOM      2  C   UNL     1     129.407 129.206 116.429  1.00  0.00     0.039 C 
BRANCH   2   3
ATOM      3  C   UNL     1     130.345 128.171 115.846  1.00  0.00     0.045 C 
ATOM      4  O   UNL     1     130.972 128.402 114.775  1.00  0.00    -0.550 OA
ATOM      5  O   UNL     1     130.461 126.917 116.441  1.00  0.00    -0.550 OA
ENDBRANCH   2   3
BRANCH   2   6
ATOM      6  C   UNL     1     130.039 130.172 117.497  1.00  0.00     0.004 C 
ATOM      7  C   UNL     1     131.580 130.113 117.660  1.00  0.00     0.006 C 
ATOM      8  C   UNL     1     129.472 130.172 118.961  1.00  0.00    -0.020 C 
ATOM      9  C   UNL     1     131.874 130.110 119.171  1.00  0.00     0.012 C 
ATOM     10  C   UNL     1     130.604 129.533 119.819  1.00  0.00    -0.006 C 
ATOM     11  C   UNL     1     128.158 129.425 119.269  1.00  0.00     0.012 C 
ATOM     12  C   UNL     1     129.227 131.683 119.333  1.00  0.00     0.012 C 
ATOM     13  C   UNL     1     130.726 127.978 119.750  1.00  0.00     0.017 C 
ATOM     14  C   UNL     1     130.337 129.845 121.283  1.00  0.00    -0.064 C 
ATOM     15  C   UNL     1     127.886 129.344 120.805  1.00  0.00     0.032 C 
ATOM     16  C   UNL     1     129.063 129.678 121.764  1.00  0.00    -0.064 C 
ATOM     17  C   UNL     1     131.474 130.360 122.150  1.00  0.00     0.032 C 
ATOM     18  C   UNL     1     128.776 129.949 123.255  1.00  0.00    -0.008 C 
ATOM     19  C   UNL     1     131.313 130.159 123.669  1.00  0.00     0.009 C 
ATOM     20  C   UNL     1     130.015 129.422 124.074  1.00  0.00     0.007 C 
ATOM     21  C   UNL     1     127.504 129.178 123.712  1.00  0.00     0.014 C 
ATOM     22  C   UNL     1     128.522 131.478 123.372  1.00  0.00     0.016 C 
ATOM     23  C   UNL     1     129.834 129.268 125.641  1.00  0.00    -0.006 C 
ATOM     24  C   UNL     1     127.300 129.172 125.231  1.00  0.00     0.033 C 
ATOM     25  C   UNL     1     128.493 128.536 125.954  1.00  0.00     0.120 C 
ATOM     26  C   UNL     1     130.991 128.405 126.223  1.00  0.00     0.014 C 
ATOM     27  C   UNL     1     129.881 130.616 126.411  1.00  0.00     0.014 C 
BRANCH  25  28
ATOM     28  O   UNL     1     128.577 127.177 125.593  1.00  0.00    -0.393 OA
ATOM     29  H   UNL     1     127.966 126.677 126.196  1.00  0.00     0.210 HD
ENDBRANCH  25  28
ENDBRANCH   2   6
ENDBRANCH   1   2
BRANCH   1  30
ATOM     30  C   UNL     1     128.021 131.297 115.805  1.00  0.00     0.031 C 
BRANCH  30  31
ATOM     31  C   UNL     1     128.382 132.496 114.953  1.00  0.00    -0.075 C 
ATOM     32  C   UNL     1     128.385 132.376 113.612  1.00  0.00     0.008 C 
BRANCH  31  33
ATOM     33  C   UNL     1     128.731 133.820 115.620  1.00  0.00     0.008 C 
ATOM     34  C   UNL     1     130.115 133.772 116.282  1.00  0.00     0.012 C 
ATOM     35  C   UNL     1     127.649 134.234 116.625  1.00  0.00     0.012 C 
ENDBRANCH  31  33
ENDBRANCH  30  31
ENDBRANCH   1  30
TORSDOF 7
ENDMDL
MODEL 6
REMARK VINA RESULT:    -5.850      9.382     12.977
REMARK INTER + INTRA:          -9.770
REMARK INTER:                  -7.701
REMARK INTRA:                  -2.069
REMARK UNBOUND:                -1.698
REMARK SMILES C=C(CC[C@@H](C(=O)[O-])[C@@H]1CC[C@@]2(C)C3=C(CC[C@]12C)[C@@]1(C)CC[C@@H](O)C(C)(C)[C@@H]1CC3)C(C)C
REMARK SMILES IDX 4 1 5 2 6 3 7 4 8 5 9 6 10 7 18 8 11 9 12 10 17 11 19 12
REMARK SMILES IDX 13 13 14 14 16 15 15 16 31 17 20 18 30 19 29 20 22 21 21 22
REMARK SMILES IDX 26 23 23 24 24 25 27 26 28 27 25 28 3 30 2 31 1 32 32 33
REMARK SMILES IDX 33 34 34 35
REMARK H PARENT 25 29
REMARK Flexibility Score: inf
ROOT
ATOM      1  C   UNL     1     131.827 131.615 117.122  1.00  0.00     0.014 C 
ENDROOT
BRANCH   1   2
ATOM      2  C   UNL     1     130.760 132.141 118.117  1.00  0.00     0.039 C 
BRANCH   2   3
ATOM      3  C   UNL     1     129.989 133.294 117.510  1.00  0.00     0.045 C 
ATOM      4  O   UNL     1     129.727 133.313 116.276  1.00  0.00    -0.550 OA
ATOM      5  O   UNL     1     129.633 134.389 118.295  1.00  0.00    -0.550 OA
ENDBRANCH   2   3
BRANCH   2   6
ATOM      6  C   UNL     1     129.887 130.949 118.657  1.00  0.00     0.004 C 
ATOM      7  C   UNL     1     128.350 131.094 118.514  1.00  0.00     0.006 C 
ATOM      8  C   UNL     1     130.116 130.437 120.124  1.00  0.00    -0.020 C 
ATOM      9  C   UNL     1     127.729 130.647 119.849  1.00  0.00     0.012 C 
ATOM     10  C   UNL     1     128.835 130.873 120.895  1.00  0.00    -0.006 C 
ATOM     11  C   UNL     1     131.343 130.926 120.919  1.00  0.00     0.012 C 
ATOM     12  C   UNL     1     130.243 128.870 120.022  1.00  0.00     0.012 C 
ATOM     13  C   UNL     1     128.761 132.374 121.315  1.00  0.00     0.017 C 
ATOM     14  C   UNL     1     128.764 130.092 122.197  1.00  0.00    -0.064 C 
ATOM     15  C   UNL     1     131.270 130.494 122.419  1.00  0.00     0.032 C 
ATOM     16  C   UNL     1     129.903 129.982 122.955  1.00  0.00    -0.064 C 
ATOM     17  C   UNL     1     127.454 129.435 122.598  1.00  0.00     0.032 C 
ATOM     18  C   UNL     1     129.847 129.230 124.300  1.00  0.00    -0.008 C 
ATOM     19  C   UNL     1     127.278 129.131 124.098  1.00  0.00     0.009 C 
ATOM     20  C   UNL     1     128.468 129.582 124.977  1.00  0.00     0.007 C 
ATOM     21  C   UNL     1     131.001 129.699 125.233  1.00  0.00     0.014 C 
ATOM     22  C   UNL     1     130.039 127.726 123.959  1.00  0.00     0.016 C 
ATOM     23  C   UNL     1     128.300 129.217 126.510  1.00  0.00    -0.006 C 
ATOM     24  C   UNL     1     130.864 129.207 126.678  1.00  0.00     0.033 C 
ATOM     25  C   UNL     1     129.553 129.688 127.311  1.00  0.00     0.120 C 
ATOM     26  C   UNL     1     127.060 129.953 127.095  1.00  0.00     0.014 C 
ATOM     27  C   UNL     1     128.057 127.705 126.769  1.00  0.00     0.014 C 
BRANCH  25  28
ATOM     28  O   UNL     1     129.578 131.093 127.406  1.00  0.00    -0.393 OA
ATOM     29  H   UNL     1     128.679 131.380 127.717  1.00  0.00     0.210 HD
ENDBRANCH  25  28
ENDBRANCH   2   6
ENDBRANCH   1   2
BRANCH   1  30
ATOM     30  C   UNL     1     131.685 130.115 116.806  1.00  0.00     0.031 C 
BRANCH  30  31
ATOM     31  C   UNL     1     131.150 129.903 115.405  1.00  0.00    -0.075 C 
ATOM     32  C   UNL     1     131.783 130.475 114.363  1.00  0.00     0.008 C 
BRANCH  31  33
ATOM     33  C   UNL     1     129.910 129.044 115.190  1.00  0.00     0.008 C 
ATOM     34  C   UNL     1     128.649 129.903 115.024  1.00  0.00     0.012 C 
ATOM     35  C   UNL     1     129.741 128.024 116.324  1.00  0.00     0.012 C 
ENDBRANCH  31  33
ENDBRANCH  30  31
ENDBRANCH   1  30
TORSDOF 7
ENDMDL
MODEL 7
REMARK VINA RESULT:    -5.786     10.265     14.257
REMARK INTER + INTRA:          -9.682
REMARK INTER:                  -7.987
REMARK INTRA:                  -1.695
REMARK UNBOUND:                -1.698
REMARK SMILES C=C(CC[C@@H](C(=O)[O-])[C@@H]1CC[C@@]2(C)C3=C(CC[C@]12C)[C@@]1(C)CC[C@@H](O)C(C)(C)[C@@H]1CC3)C(C)C
REMARK SMILES IDX 4 1 5 2 6 3 7 4 8 5 9 6 10 7 18 8 11 9 12 10 17 11 19 12
REMARK SMILES IDX 13 13 14 14 16 15 15 16 31 17 20 18 30 19 29 20 22 21 21 22
REMARK SMILES IDX 26 23 23 24 24 25 27 26 28 27 25 28 3 30 2 31 1 32 32 33
REMARK SMILES IDX 33 34 34 35
REMARK H PARENT 25 29
REMARK Flexibility Score: inf
ROOT
ATOM      1  C   UNL     1     130.027 127.500 129.394  1.00  0.00     0.014 C 
ENDROOT
BRANCH   1   2
ATOM      2  C   UNL     1     129.115 127.674 128.151  1.00  0.00     0.039 C 
BRANCH   2   3
ATOM      3  C   UNL     1     127.663 127.459 128.521  1.00  0.00     0.045 C 
ATOM      4  O   UNL     1     126.876 126.875 127.725  1.00  0.00    -0.550 OA
ATOM      5  O   UNL     1     127.159 127.981 129.711  1.00  0.00    -0.550 OA
ENDBRANCH   2   3
BRANCH   2   6
ATOM      6  C   UNL     1     129.438 129.032 127.426  1.00  0.00     0.004 C 
ATOM      7  C   UNL     1     128.343 130.128 127.487  1.00  0.00     0.006 C 
ATOM      8  C   UNL     1     129.911 129.008 125.929  1.00  0.00    -0.020 C 
ATOM      9  C   UNL     1     128.224 130.725 126.073  1.00  0.00     0.012 C 
ATOM     10  C   UNL     1     128.718 129.613 125.132  1.00  0.00    -0.006 C 
ATOM     11  C   UNL     1     130.294 127.666 125.273  1.00  0.00     0.012 C 
ATOM     12  C   UNL     1     131.193 129.921 125.863  1.00  0.00     0.012 C 
ATOM     13  C   UNL     1     127.506 128.662 124.877  1.00  0.00     0.017 C 
ATOM     14  C   UNL     1     129.211 130.007 123.749  1.00  0.00    -0.064 C 
ATOM     15  C   UNL     1     130.510 127.816 123.733  1.00  0.00     0.032 C 
ATOM     16  C   UNL     1     129.995 129.119 123.057  1.00  0.00    -0.064 C 
ATOM     17  C   UNL     1     128.849 131.375 123.195  1.00  0.00     0.032 C 
ATOM     18  C   UNL     1     130.473 129.479 121.636  1.00  0.00    -0.008 C 
ATOM     19  C   UNL     1     128.901 131.523 121.662  1.00  0.00     0.009 C 
ATOM     20  C   UNL     1     129.286 130.223 120.916  1.00  0.00     0.007 C 
ATOM     21  C   UNL     1     130.819 128.188 120.837  1.00  0.00     0.014 C 
ATOM     22  C   UNL     1     131.759 130.331 121.819  1.00  0.00     0.016 C 
ATOM     23  C   UNL     1     129.388 130.399 119.345  1.00  0.00    -0.006 C 
ATOM     24  C   UNL     1     131.041 128.432 119.340  1.00  0.00     0.033 C 
ATOM     25  C   UNL     1     129.801 129.048 118.682  1.00  0.00     0.120 C 
ATOM     26  C   UNL     1     128.000 130.804 118.768  1.00  0.00     0.014 C 
ATOM     27  C   UNL     1     130.373 131.515 118.904  1.00  0.00     0.014 C 
BRANCH  25  28
ATOM     28  O   UNL     1     128.740 128.123 118.747  1.00  0.00    -0.393 OA
ATOM     29  H   UNL     1     129.144 127.216 118.736  1.00  0.00     0.210 HD
ENDBRANCH  25  28
ENDBRANCH   2   6
ENDBRANCH   1   2
BRANCH   1  30
ATOM     30  C   UNL     1     131.457 127.048 129.046  1.00  0.00     0.031 C 
BRANCH  30  31
ATOM     31  C   UNL     1     132.474 127.724 129.942  1.00  0.00    -0.075 C 
ATOM     32  C   UNL     1     132.629 127.293 131.209  1.00  0.00     0.008 C 
BRANCH  31  33
ATOM     33  C   UNL     1     133.311 128.877 129.401  1.00  0.00     0.008 C 
ATOM     34  C   UNL     1     132.511 130.185 129.362  1.00  0.00     0.012 C 
ATOM     35  C   UNL     1     133.891 128.538 128.023  1.00  0.00     0.012 C 
ENDBRANCH  31  33
ENDBRANCH  30  31
ENDBRANCH   1  30
TORSDOF 7
ENDMDL
MODEL 8
REMARK VINA RESULT:    -5.784      8.874     13.127
REMARK INTER + INTRA:          -9.680
REMARK INTER:                  -8.097
REMARK INTRA:                  -1.583
REMARK UNBOUND:                -1.698
REMARK SMILES C=C(CC[C@@H](C(=O)[O-])[C@@H]1CC[C@@]2(C)C3=C(CC[C@]12C)[C@@]1(C)CC[C@@H](O)C(C)(C)[C@@H]1CC3)C(C)C
REMARK SMILES IDX 4 1 5 2 6 3 7 4 8 5 9 6 10 7 18 8 11 9 12 10 17 11 19 12
REMARK SMILES IDX 13 13 14 14 16 15 15 16 31 17 20 18 30 19 29 20 22 21 21 22
REMARK SMILES IDX 26 23 23 24 24 25 27 26 28 27 25 28 3 30 2 31 1 32 32 33
REMARK SMILES IDX 33 34 34 35
REMARK H PARENT 25 29
REMARK Flexibility Score: inf
ROOT
ATOM      1  C   UNL     1     130.406 131.994 116.569  1.00  0.00     0.014 C 
ENDROOT
BRANCH   1   2
ATOM      2  C   UNL     1     129.382 131.635 117.678  1.00  0.00     0.039 C 
BRANCH   2   3
ATOM      3  C   UNL     1     128.073 131.183 117.067  1.00  0.00     0.045 C 
ATOM      4  O   UNL     1     128.042 130.694 115.904  1.00  0.00    -0.550 OA
ATOM      5  O   UNL     1     126.875 131.382 117.751  1.00  0.00    -0.550 OA
ENDBRANCH   2   3
BRANCH   2   6
ATOM      6  C   UNL     1     130.028 130.643 118.713  1.00  0.00     0.004 C 
ATOM      7  C   UNL     1     129.515 129.180 118.684  1.00  0.00     0.006 C 
ATOM      8  C   UNL     1     130.061 131.036 120.233  1.00  0.00    -0.020 C 
ATOM      9  C   UNL     1     129.294 128.751 120.146  1.00  0.00     0.012 C 
ATOM     10  C   UNL     1     129.050 130.063 120.911  1.00  0.00    -0.006 C 
ATOM     11  C   UNL     1     129.698 132.474 120.656  1.00  0.00     0.012 C 
ATOM     12  C   UNL     1     131.539 130.786 120.715  1.00  0.00     0.012 C 
ATOM     13  C   UNL     1     127.538 130.413 120.741  1.00  0.00     0.017 C 
ATOM     14  C   UNL     1     129.295 130.079 122.411  1.00  0.00    -0.064 C 
ATOM     15  C   UNL     1     129.563 132.604 122.207  1.00  0.00     0.032 C 
ATOM     16  C   UNL     1     129.460 131.291 123.033  1.00  0.00    -0.064 C 
ATOM     17  C   UNL     1     129.384 128.760 123.161  1.00  0.00     0.032 C 
ATOM     18  C   UNL     1     129.669 131.334 124.561  1.00  0.00    -0.008 C 
ATOM     19  C   UNL     1     129.105 128.820 124.675  1.00  0.00     0.009 C 
ATOM     20  C   UNL     1     128.739 130.231 125.193  1.00  0.00     0.007 C 
ATOM     21  C   UNL     1     129.258 132.725 125.125  1.00  0.00     0.014 C 
ATOM     22  C   UNL     1     131.189 131.113 124.792  1.00  0.00     0.016 C 
ATOM     23  C   UNL     1     128.505 130.292 126.759  1.00  0.00    -0.006 C 
ATOM     24  C   UNL     1     129.176 132.770 126.655  1.00  0.00     0.033 C 
ATOM     25  C   UNL     1     128.164 131.751 127.192  1.00  0.00     0.120 C 
ATOM     26  C   UNL     1     127.298 129.389 127.149  1.00  0.00     0.014 C 
ATOM     27  C   UNL     1     129.709 129.773 127.591  1.00  0.00     0.014 C 
BRANCH  25  28
ATOM     28  O   UNL     1     126.875 132.109 126.748  1.00  0.00    -0.393 OA
ATOM     29  H   UNL     1     126.531 132.797 127.377  1.00  0.00     0.210 HD
ENDBRANCH  25  28
ENDBRANCH   2   6
ENDBRANCH   1   2
BRANCH   1  30
ATOM     30  C   UNL     1     131.571 130.993 116.464  1.00  0.00     0.031 C 
BRANCH  30  31
ATOM     31  C   UNL     1     131.580 130.310 115.112  1.00  0.00    -0.075 C 
ATOM     32  C   UNL     1     131.548 131.059 113.993  1.00  0.00     0.008 C 
BRANCH  31  33
ATOM     33  C   UNL     1     131.631 128.789 115.032  1.00  0.00     0.008 C 
ATOM     34  C   UNL     1     130.229 128.172 115.125  1.00  0.00     0.012 C 
ATOM     35  C   UNL     1     132.564 128.211 116.103  1.00  0.00     0.012 C 
ENDBRANCH  31  33
ENDBRANCH  30  31
ENDBRANCH   1  30
TORSDOF 7
ENDMDL
MODEL 9
REMARK VINA RESULT:    -5.672     10.696     13.666
REMARK INTER + INTRA:          -9.524
REMARK INTER:                  -7.464
REMARK INTRA:                  -2.061
REMARK UNBOUND:                -1.698
REMARK SMILES C=C(CC[C@@H](C(=O)[O-])[C@@H]1CC[C@@]2(C)C3=C(CC[C@]12C)[C@@]1(C)CC[C@@H](O)C(C)(C)[C@@H]1CC3)C(C)C
REMARK SMILES IDX 4 1 5 2 6 3 7 4 8 5 9 6 10 7 18 8 11 9 12 10 17 11 19 12
REMARK SMILES IDX 13 13 14 14 16 15 15 16 31 17 20 18 30 19 29 20 22 21 21 22
REMARK SMILES IDX 26 23 23 24 24 25 27 26 28 27 25 28 3 30 2 31 1 32 32 33
REMARK SMILES IDX 33 34 34 35
REMARK H PARENT 25 29
REMARK Flexibility Score: inf
ROOT
ATOM      1  C   UNL     1     127.272 128.272 126.195  1.00  0.00     0.014 C 
ENDROOT
BRANCH   1   2
ATOM      2  C   UNL     1     127.542 129.729 125.737  1.00  0.00     0.039 C 
BRANCH   2   3
ATOM      3  C   UNL     1     127.462 130.680 126.912  1.00  0.00     0.045 C 
ATOM      4  O   UNL     1     127.831 130.313 128.062  1.00  0.00    -0.550 OA
ATOM      5  O   UNL     1     126.900 131.945 126.753  1.00  0.00    -0.550 OA
ENDBRANCH   2   3
BRANCH   2   6
ATOM      6  C   UNL     1     128.870 129.797 124.896  1.00  0.00     0.004 C 
ATOM      7  C   UNL     1     129.945 130.805 125.377  1.00  0.00     0.006 C 
ATOM      8  C   UNL     1     128.782 130.001 123.342  1.00  0.00    -0.020 C 
ATOM      9  C   UNL     1     130.469 131.535 124.128  1.00  0.00     0.012 C 
ATOM     10  C   UNL     1     129.323 131.442 123.106  1.00  0.00    -0.006 C 
ATOM     11  C   UNL     1     127.418 129.880 122.633  1.00  0.00     0.012 C 
ATOM     12  C   UNL     1     129.717 128.905 122.705  1.00  0.00     0.012 C 
ATOM     13  C   UNL     1     128.336 132.610 123.424  1.00  0.00     0.017 C 
ATOM     14  C   UNL     1     129.659 131.598 121.631  1.00  0.00    -0.064 C 
ATOM     15  C   UNL     1     127.497 130.342 121.143  1.00  0.00     0.032 C 
ATOM     16  C   UNL     1     128.754 131.145 120.704  1.00  0.00    -0.064 C 
ATOM     17  C   UNL     1     130.991 132.213 121.235  1.00  0.00     0.032 C 
ATOM     18  C   UNL     1     129.054 131.329 119.202  1.00  0.00    -0.008 C 
ATOM     19  C   UNL     1     131.064 132.821 119.821  1.00  0.00     0.009 C 
ATOM     20  C   UNL     1     129.738 132.737 119.029  1.00  0.00     0.007 C 
ATOM     21  C   UNL     1     127.733 131.304 118.379  1.00  0.00     0.014 C 
ATOM     22  C   UNL     1     129.941 130.121 118.791  1.00  0.00     0.016 C 
ATOM     23  C   UNL     1     129.839 133.317 117.558  1.00  0.00    -0.006 C 
ATOM     24  C   UNL     1     127.908 131.746 116.921  1.00  0.00     0.033 C 
ATOM     25  C   UNL     1     128.466 133.171 116.832  1.00  0.00     0.120 C 
ATOM     26  C   UNL     1     130.187 134.834 117.611  1.00  0.00     0.014 C 
ATOM     27  C   UNL     1     130.952 132.657 116.701  1.00  0.00     0.014 C 
BRANCH  25  28
ATOM     28  O   UNL     1     127.523 134.068 117.373  1.00  0.00    -0.393 OA
ATOM     29  H   UNL     1     128.026 134.869 117.677  1.00  0.00     0.210 HD
ENDBRANCH  25  28
ENDBRANCH   2   6
ENDBRANCH   1   2
BRANCH   1  30
ATOM     30  C   UNL     1     128.480 127.336 126.004  1.00  0.00     0.031 C 
BRANCH  30  31
ATOM     31  C   UNL     1     129.218 127.128 127.310  1.00  0.00    -0.075 C 
ATOM     32  C   UNL     1     128.517 126.886 128.434  1.00  0.00     0.008 C 
BRANCH  31  33
ATOM     33  C   UNL     1     130.740 127.188 127.337  1.00  0.00     0.008 C 
ATOM     34  C   UNL     1     131.243 128.416 128.107  1.00  0.00     0.012 C 
ATOM     35  C   UNL     1     131.319 127.147 125.917  1.00  0.00     0.012 C 
ENDBRANCH  31  33
ENDBRANCH  30  31
ENDBRANCH   1  30
TORSDOF 7
ENDMDL
