MODEL 1
REMARK VINA RESULT:    -6.227      0.000      0.000
REMARK INTER + INTRA:          -6.227
REMARK INTER:                  -6.227
REMARK INTRA:                   0.000
REMARK UNBOUND:                 0.000
REMARK SMILES CC1=CC(=O)[C@H]2C[C@@H]1C2(C)C
REMARK SMILES IDX 1 1 2 2 3 3 4 4 5 5 6 6 7 7 8 8 9 9 10 10 11 11
REMARK H PARENT
REMARK Flexibility Score: inf
ROOT
ATOM      1  C   UNL     1      -8.199  71.200  29.987  1.00  0.00     0.040 C 
ATOM      2  C   UNL     1      -9.282  72.213  30.182  1.00  0.00    -0.066 C 
ATOM      3  C   UNL     1      -9.885  72.382  31.391  1.00  0.00     0.047 C 
ATOM      4  C   UNL     1     -10.977  73.407  31.449  1.00  0.00     0.159 C 
ATOM      5  O   UNL     1     -11.636  73.628  32.499  1.00  0.00    -0.295 OA
ATOM      6  C   UNL     1     -11.235  74.163  30.146  1.00  0.00     0.067 C 
ATOM      7  C   UNL     1      -9.826  74.544  29.643  1.00  0.00     0.021 C 
ATOM      8  C   UNL     1      -9.757  73.125  29.031  1.00  0.00     0.022 C 
ATOM      9  C   UNL     1     -11.313  73.132  28.983  1.00  0.00    -0.019 C 
ATOM     10  C   UNL     1     -11.859  73.759  27.675  1.00  0.00     0.012 C 
ATOM     11  C   UNL     1     -12.062  71.792  29.232  1.00  0.00     0.012 C 
ENDROOT
TORSDOF 0
ENDMDL
MODEL 2
REMARK VINA RESULT:    -6.134      1.803      3.109
REMARK INTER + INTRA:          -6.134
REMARK INTER:                  -6.134
REMARK INTRA:                   0.000
REMARK UNBOUND:                 0.000
REMARK SMILES CC1=CC(=O)[C@H]2C[C@@H]1C2(C)C
REMARK SMILES IDX 1 1 2 2 3 3 4 4 5 5 6 6 7 7 8 8 9 9 10 10 11 11
REMARK H PARENT
REMARK Flexibility Score: inf
ROOT
ATOM      1  C   UNL     1      -8.174  71.130  29.985  1.00  0.00     0.040 C 
ATOM      2  C   UNL     1      -9.249  72.155  29.816  1.00  0.00    -0.066 C 
ATOM      3  C   UNL     1      -9.439  72.794  28.628  1.00  0.00     0.047 C 
ATOM      4  C   UNL     1     -10.528  73.822  28.595  1.00  0.00     0.159 C 
ATOM      5  O   UNL     1     -10.775  74.507  27.568  1.00  0.00    -0.295 OA
ATOM      6  C   UNL     1     -11.317  73.982  29.895  1.00  0.00     0.067 C 
ATOM      7  C   UNL     1     -11.616  72.533  30.337  1.00  0.00     0.021 C 
ATOM      8  C   UNL     1     -10.205  72.527  30.969  1.00  0.00     0.022 C 
ATOM      9  C   UNL     1     -10.309  74.077  31.076  1.00  0.00    -0.019 C 
ATOM     10  C   UNL     1     -10.986  74.532  32.394  1.00  0.00     0.012 C 
ATOM     11  C   UNL     1      -9.014  74.916  30.878  1.00  0.00     0.012 C 
ENDROOT
TORSDOF 0
ENDMDL
MODEL 3
REMARK VINA RESULT:    -6.112      1.700      3.298
REMARK INTER + INTRA:          -6.112
REMARK INTER:                  -6.112
REMARK INTRA:                   0.000
REMARK UNBOUND:                 0.000
REMARK SMILES CC1=CC(=O)[C@H]2C[C@@H]1C2(C)C
REMARK SMILES IDX 1 1 2 2 3 3 4 4 5 5 6 6 7 7 8 8 9 9 10 10 11 11
REMARK H PARENT
REMARK Flexibility Score: inf
ROOT
ATOM      1  C   UNL     1     -12.725  73.499  28.024  1.00  0.00     0.040 C 
ATOM      2  C   UNL     1     -11.518  73.399  28.901  1.00  0.00    -0.066 C 
ATOM      3  C   UNL     1     -10.648  72.356  28.793  1.00  0.00     0.047 C 
ATOM      4  C   UNL     1      -9.494  72.354  29.749  1.00  0.00     0.159 C 
ATOM      5  O   UNL     1      -8.645  71.425  29.775  1.00  0.00    -0.295 OA
ATOM      6  C   UNL     1      -9.422  73.556  30.691  1.00  0.00     0.067 C 
ATOM      7  C   UNL     1      -9.682  74.771  29.774  1.00  0.00     0.021 C 
ATOM      8  C   UNL     1     -11.189  74.476  29.956  1.00  0.00     0.022 C 
ATOM      9  C   UNL     1     -10.832  73.787  31.306  1.00  0.00    -0.019 C 
ATOM     10  C   UNL     1     -10.803  74.789  32.489  1.00  0.00     0.012 C 
ATOM     11  C   UNL     1     -11.663  72.546  31.739  1.00  0.00     0.012 C 
ENDROOT
TORSDOF 0
ENDMDL
MODEL 4
REMARK VINA RESULT:    -5.907      1.797      2.955
REMARK INTER + INTRA:          -5.907
REMARK INTER:                  -5.907
REMARK INTRA:                   0.000
REMARK UNBOUND:                 0.000
REMARK SMILES CC1=CC(=O)[C@H]2C[C@@H]1C2(C)C
REMARK SMILES IDX 1 1 2 2 3 3 4 4 5 5 6 6 7 7 8 8 9 9 10 10 11 11
REMARK H PARENT
REMARK Flexibility Score: inf
ROOT
ATOM      1  C   UNL     1     -10.469  75.335  31.884  1.00  0.00     0.040 C 
ATOM      2  C   UNL     1     -10.413  74.198  30.913  1.00  0.00    -0.066 C 
ATOM      3  C   UNL     1      -9.354  73.341  30.886  1.00  0.00     0.047 C 
ATOM      4  C   UNL     1      -9.402  72.262  29.847  1.00  0.00     0.159 C 
ATOM      5  O   UNL     1      -8.467  71.433  29.696  1.00  0.00    -0.295 OA
ATOM      6  C   UNL     1     -10.664  72.240  28.985  1.00  0.00     0.067 C 
ATOM      7  C   UNL     1     -11.818  72.409  29.997  1.00  0.00     0.021 C 
ATOM      8  C   UNL     1     -11.555  73.930  29.910  1.00  0.00     0.022 C 
ATOM      9  C   UNL     1     -10.954  73.688  28.495  1.00  0.00    -0.019 C 
ATOM     10  C   UNL     1     -12.033  73.729  27.382  1.00  0.00     0.012 C 
ATOM     11  C   UNL     1      -9.755  74.570  28.044  1.00  0.00     0.012 C 
ENDROOT
TORSDOF 0
ENDMDL
MODEL 5
REMARK VINA RESULT:    -5.446      2.022      3.282
REMARK INTER + INTRA:          -5.446
REMARK INTER:                  -5.446
REMARK INTRA:                   0.000
REMARK UNBOUND:                 0.000
REMARK SMILES CC1=CC(=O)[C@H]2C[C@@H]1C2(C)C
REMARK SMILES IDX 1 1 2 2 3 3 4 4 5 5 6 6 7 7 8 8 9 9 10 10 11 11
REMARK H PARENT
REMARK Flexibility Score: inf
ROOT
ATOM      1  C   UNL     1     -10.513  75.408  31.829  1.00  0.00     0.040 C 
ATOM      2  C   UNL     1     -10.214  74.516  30.666  1.00  0.00    -0.066 C 
ATOM      3  C   UNL     1      -9.549  74.978  29.571  1.00  0.00     0.047 C 
ATOM      4  C   UNL     1      -9.338  73.994  28.460  1.00  0.00     0.159 C 
ATOM      5  O   UNL     1      -8.771  74.311  27.381  1.00  0.00    -0.295 OA
ATOM      6  C   UNL     1      -9.858  72.583  28.729  1.00  0.00     0.067 C 
ATOM      7  C   UNL     1      -9.376  72.267  30.161  1.00  0.00     0.021 C 
ATOM      8  C   UNL     1     -10.626  73.029  30.657  1.00  0.00     0.022 C 
ATOM      9  C   UNL     1     -11.303  72.688  29.297  1.00  0.00    -0.019 C 
ATOM     10  C   UNL     1     -12.026  71.317  29.326  1.00  0.00     0.012 C 
ATOM     11  C   UNL     1     -12.268  73.736  28.673  1.00  0.00     0.012 C 
ENDROOT
TORSDOF 0
ENDMDL
MODEL 6
REMARK VINA RESULT:    -5.321      1.714      3.214
REMARK INTER + INTRA:          -5.321
REMARK INTER:                  -5.321
REMARK INTRA:                   0.000
REMARK UNBOUND:                 0.000
REMARK SMILES CC1=CC(=O)[C@H]2C[C@@H]1C2(C)C
REMARK SMILES IDX 1 1 2 2 3 3 4 4 5 5 6 6 7 7 8 8 9 9 10 10 11 11
REMARK H PARENT
REMARK Flexibility Score: inf
ROOT
ATOM      1  C   UNL     1     -10.555  75.543  31.922  1.00  0.00     0.040 C 
ATOM      2  C   UNL     1     -10.556  74.643  30.728  1.00  0.00    -0.066 C 
ATOM      3  C   UNL     1     -11.658  74.513  29.939  1.00  0.00     0.047 C 
ATOM      4  C   UNL     1     -11.542  73.557  28.790  1.00  0.00     0.159 C 
ATOM      5  O   UNL     1     -12.504  73.321  28.013  1.00  0.00    -0.295 OA
ATOM      6  C   UNL     1     -10.177  72.888  28.631  1.00  0.00     0.067 C 
ATOM      7  C   UNL     1      -9.167  74.045  28.796  1.00  0.00     0.021 C 
ATOM      8  C   UNL     1      -9.307  73.833  30.322  1.00  0.00     0.022 C 
ATOM      9  C   UNL     1      -9.719  72.362  30.021  1.00  0.00    -0.019 C 
ATOM     10  C   UNL     1      -8.495  71.416  29.919  1.00  0.00     0.012 C 
ATOM     11  C   UNL     1     -10.777  71.692  30.944  1.00  0.00     0.012 C 
ENDROOT
TORSDOF 0
ENDMDL
MODEL 7
REMARK VINA RESULT:    -5.320      1.654      2.806
REMARK INTER + INTRA:          -5.320
REMARK INTER:                  -5.320
REMARK INTRA:                   0.000
REMARK UNBOUND:                 0.000
REMARK SMILES CC1=CC(=O)[C@H]2C[C@@H]1C2(C)C
REMARK SMILES IDX 1 1 2 2 3 3 4 4 5 5 6 6 7 7 8 8 9 9 10 10 11 11
REMARK H PARENT
REMARK Flexibility Score: inf
ROOT
ATOM      1  C   UNL     1      -9.907  75.084  31.471  1.00  0.00     0.040 C 
ATOM      2  C   UNL     1     -10.399  74.210  30.361  1.00  0.00    -0.066 C 
ATOM      3  C   UNL     1     -11.297  73.212  30.589  1.00  0.00     0.047 C 
ATOM      4  C   UNL     1     -11.688  72.387  29.400  1.00  0.00     0.159 C 
ATOM      5  O   UNL     1     -12.479  71.412  29.490  1.00  0.00    -0.295 OA
ATOM      6  C   UNL     1     -11.058  72.811  28.074  1.00  0.00     0.067 C 
ATOM      7  C   UNL     1     -11.218  74.347  28.053  1.00  0.00     0.021 C 
ATOM      8  C   UNL     1      -9.928  74.406  28.904  1.00  0.00     0.022 C 
ATOM      9  C   UNL     1      -9.533  73.028  28.297  1.00  0.00    -0.019 C 
ATOM     10  C   UNL     1      -8.756  73.172  26.964  1.00  0.00     0.012 C 
ATOM     11  C   UNL     1      -8.768  72.020  29.201  1.00  0.00     0.012 C 
ENDROOT
TORSDOF 0
ENDMDL
MODEL 8
REMARK VINA RESULT:    -5.285      1.460      2.719
REMARK INTER + INTRA:          -5.285
REMARK INTER:                  -5.285
REMARK INTRA:                   0.000
REMARK UNBOUND:                 0.000
REMARK SMILES CC1=CC(=O)[C@H]2C[C@@H]1C2(C)C
REMARK SMILES IDX 1 1 2 2 3 3 4 4 5 5 6 6 7 7 8 8 9 9 10 10 11 11
REMARK H PARENT
REMARK Flexibility Score: inf
ROOT
ATOM      1  C   UNL     1      -9.116  74.202  26.550  1.00  0.00     0.040 C 
ATOM      2  C   UNL     1      -9.777  74.132  27.890  1.00  0.00    -0.066 C 
ATOM      3  C   UNL     1      -9.322  74.864  28.944  1.00  0.00     0.047 C 
ATOM      4  C   UNL     1     -10.050  74.683  30.241  1.00  0.00     0.159 C 
ATOM      5  O   UNL     1      -9.701  75.274  31.296  1.00  0.00    -0.295 OA
ATOM      6  C   UNL     1     -11.244  73.729  30.193  1.00  0.00     0.067 C 
ATOM      7  C   UNL     1     -12.006  74.140  28.914  1.00  0.00     0.021 C 
ATOM      8  C   UNL     1     -11.013  73.242  28.140  1.00  0.00     0.022 C 
ATOM      9  C   UNL     1     -10.811  72.431  29.453  1.00  0.00    -0.019 C 
ATOM     10  C   UNL     1     -11.849  71.290  29.607  1.00  0.00     0.012 C 
ATOM     11  C   UNL     1      -9.399  71.849  29.747  1.00  0.00     0.012 C 
ENDROOT
TORSDOF 0
ENDMDL
MODEL 9
REMARK VINA RESULT:    -5.143      1.542      3.435
REMARK INTER + INTRA:          -5.143
REMARK INTER:                  -5.143
REMARK INTRA:                   0.000
REMARK UNBOUND:                 0.000
REMARK SMILES CC1=CC(=O)[C@H]2C[C@@H]1C2(C)C
REMARK SMILES IDX 1 1 2 2 3 3 4 4 5 5 6 6 7 7 8 8 9 9 10 10 11 11
REMARK H PARENT
REMARK Flexibility Score: inf
ROOT
ATOM      1  C   UNL     1     -12.177  72.976  28.434  1.00  0.00     0.040 C 
ATOM      2  C   UNL     1     -11.340  73.411  29.595  1.00  0.00    -0.066 C 
ATOM      3  C   UNL     1     -10.363  74.349  29.452  1.00  0.00     0.047 C 
ATOM      4  C   UNL     1      -9.574  74.677  30.683  1.00  0.00     0.159 C 
ATOM      5  O   UNL     1      -8.620  75.498  30.671  1.00  0.00    -0.295 OA
ATOM      6  C   UNL     1     -10.007  73.943  31.953  1.00  0.00     0.067 C 
ATOM      7  C   UNL     1     -11.547  74.060  31.951  1.00  0.00     0.021 C 
ATOM      8  C   UNL     1     -11.552  72.833  31.010  1.00  0.00     0.022 C 
ATOM      9  C   UNL     1     -10.175  72.433  31.618  1.00  0.00    -0.019 C 
ATOM     10  C   UNL     1     -10.324  71.560  32.890  1.00  0.00     0.012 C 
ATOM     11  C   UNL     1      -9.128  71.761  30.685  1.00  0.00     0.012 C 
ENDROOT
TORSDOF 0
ENDMDL
