MODEL 1
REMARK VINA RESULT:    -5.371      0.000      0.000
REMARK INTER + INTRA:          -8.190
REMARK INTER:                  -7.256
REMARK INTRA:                  -0.935
REMARK UNBOUND:                -0.935
REMARK SMILES O=c1c(-c2ccc(O)cc2)coc2c([C@@H]3O[C@@H](CO)[C@@H](O)[C@H](O)[C@@H]3O)c(O)ccc12
REMARK SMILES IDX 3 1 11 2 12 3 13 4 30 5 2 6 1 7 29 8 28 9 26 10 14 11 4 12
REMARK SMILES IDX 5 13 6 14 7 15 10 16 9 17 8 18 15 20 24 21 16 22 22 23 17 24
REMARK SMILES IDX 20 25 25 26 23 28 18 30 19 31 21 33 27 35
REMARK H PARENT 8 19 25 27 23 29 19 32 21 34 27 36
REMARK Flexibility Score: inf
ROOT
ATOM      1  C   UNL     1      -1.054   1.265  36.709  1.00  0.00     0.065 A 
ATOM      2  C   UNL     1      -0.879   0.537  37.891  1.00  0.00     0.208 A 
ATOM      3  O   UNL     1      -1.922   0.082  38.573  1.00  0.00    -0.463 OA
ATOM      4  C   UNL     1      -3.184   0.273  38.207  1.00  0.00     0.147 A 
ATOM      5  C   UNL     1      -3.450   0.998  37.018  1.00  0.00     0.066 A 
ATOM      6  C   UNL     1      -2.369   1.505  36.273  1.00  0.00     0.200 A 
ATOM      7  O   UNL     1      -2.574   2.186  35.230  1.00  0.00    -0.288 OA
ATOM      8  C   UNL     1      -4.774   1.198  36.603  1.00  0.00     0.020 A 
ATOM      9  C   UNL     1      -5.825   0.673  37.342  1.00  0.00     0.047 A 
ATOM     10  C   UNL     1      -5.583  -0.046  38.515  1.00  0.00     0.125 A 
ATOM     11  C   UNL     1      -4.261  -0.244  38.988  1.00  0.00     0.069 A 
ENDROOT
BRANCH   1  12
ATOM     12  C   UNL     1       0.128   1.759  35.960  1.00  0.00    -0.011 A 
ATOM     13  C   UNL     1       0.648   3.039  36.221  1.00  0.00     0.013 A 
ATOM     14  C   UNL     1       1.767   3.505  35.522  1.00  0.00     0.047 A 
ATOM     15  C   UNL     1       2.383   2.697  34.562  1.00  0.00     0.115 A 
ATOM     16  C   UNL     1       0.756   0.950  34.996  1.00  0.00     0.013 A 
ATOM     17  C   UNL     1       1.875   1.418  34.300  1.00  0.00     0.047 A 
BRANCH  15  18
ATOM     18  O   UNL     1       3.498   3.173  33.875  1.00  0.00    -0.508 OA
ATOM     19  H   UNL     1       3.406   3.679  33.002  1.00  0.00     0.293 HD
ENDBRANCH  15  18
ENDBRANCH   1  12
BRANCH  11  20
ATOM     20  C   UNL     1      -4.115  -1.035  40.299  1.00  0.00     0.188 C 
ATOM     21  C   UNL     1      -4.135  -0.241  41.627  1.00  0.00     0.179 C 
ATOM     22  O   UNL     1      -5.122  -2.038  40.325  1.00  0.00    -0.362 OA
ATOM     23  C   UNL     1      -3.809  -1.203  42.785  1.00  0.00     0.177 C 
ATOM     24  C   UNL     1      -4.918  -3.018  41.339  1.00  0.00     0.176 C 
ATOM     25  C   UNL     1      -4.784  -2.395  42.757  1.00  0.00     0.177 C 
BRANCH  21  26
ATOM     26  O   UNL     1      -5.408   0.327  41.823  1.00  0.00    -0.387 OA
ATOM     27  H   UNL     1      -5.981  -0.380  42.220  1.00  0.00     0.211 HD
ENDBRANCH  21  26
BRANCH  23  28
ATOM     28  O   UNL     1      -3.919  -0.541  44.019  1.00  0.00    -0.387 OA
ATOM     29  H   UNL     1      -4.832  -0.724  44.362  1.00  0.00     0.211 HD
ENDBRANCH  23  28
BRANCH  24  30
ATOM     30  C   UNL     1      -3.848  -4.066  40.948  1.00  0.00     0.191 C 
BRANCH  30  31
ATOM     31  O   UNL     1      -4.117  -5.326  41.496  1.00  0.00    -0.394 OA
ATOM     32  H   UNL     1      -5.057  -5.295  41.812  1.00  0.00     0.210 HD
ENDBRANCH  30  31
ENDBRANCH  24  30
BRANCH  25  33
ATOM     33  O   UNL     1      -4.459  -3.363  43.725  1.00  0.00    -0.388 OA
ATOM     34  H   UNL     1      -3.784  -3.976  43.336  1.00  0.00     0.211 HD
ENDBRANCH  25  33
ENDBRANCH  11  20
BRANCH  10  35
ATOM     35  O   UNL     1      -6.667  -0.577  39.219  1.00  0.00    -0.507 OA
ATOM     36  H   UNL     1      -7.073  -0.099  40.014  1.00  0.00     0.293 HD
ENDBRANCH  10  35
TORSDOF 9
ENDMDL
MODEL 2
REMARK VINA RESULT:    -5.267      2.442      4.347
REMARK INTER + INTRA:          -8.049
REMARK INTER:                  -7.268
REMARK INTRA:                  -0.781
REMARK UNBOUND:                -0.935
REMARK SMILES O=c1c(-c2ccc(O)cc2)coc2c([C@@H]3O[C@@H](CO)[C@@H](O)[C@H](O)[C@@H]3O)c(O)ccc12
REMARK SMILES IDX 3 1 11 2 12 3 13 4 30 5 2 6 1 7 29 8 28 9 26 10 14 11 4 12
REMARK SMILES IDX 5 13 6 14 7 15 10 16 9 17 8 18 15 20 24 21 16 22 22 23 17 24
REMARK SMILES IDX 20 25 25 26 23 28 18 30 19 31 21 33 27 35
REMARK H PARENT 8 19 25 27 23 29 19 32 21 34 27 36
REMARK Flexibility Score: inf
ROOT
ATOM      1  C   UNL     1      -2.510   0.255  38.561  1.00  0.00     0.065 A 
ATOM      2  C   UNL     1      -3.012   1.159  39.503  1.00  0.00     0.208 A 
ATOM      3  O   UNL     1      -3.650   0.731  40.585  1.00  0.00    -0.463 OA
ATOM      4  C   UNL     1      -3.864  -0.550  40.859  1.00  0.00     0.147 A 
ATOM      5  C   UNL     1      -3.382  -1.533  39.957  1.00  0.00     0.066 A 
ATOM      6  C   UNL     1      -2.709  -1.117  38.793  1.00  0.00     0.200 A 
ATOM      7  O   UNL     1      -2.301  -1.966  37.952  1.00  0.00    -0.288 OA
ATOM      8  C   UNL     1      -3.581  -2.892  40.233  1.00  0.00     0.020 A 
ATOM      9  C   UNL     1      -4.231  -3.281  41.397  1.00  0.00     0.047 A 
ATOM     10  C   UNL     1      -4.710  -2.328  42.299  1.00  0.00     0.125 A 
ATOM     11  C   UNL     1      -4.559  -0.942  42.042  1.00  0.00     0.069 A 
ENDROOT
BRANCH   1  12
ATOM     12  C   UNL     1      -1.793   0.755  37.361  1.00  0.00    -0.011 A 
ATOM     13  C   UNL     1      -0.396   0.913  37.383  1.00  0.00     0.013 A 
ATOM     14  C   UNL     1       0.283   1.376  36.252  1.00  0.00     0.047 A 
ATOM     15  C   UNL     1      -0.422   1.679  35.084  1.00  0.00     0.115 A 
ATOM     16  C   UNL     1      -2.496   1.057  36.180  1.00  0.00     0.013 A 
ATOM     17  C   UNL     1      -1.814   1.519  35.050  1.00  0.00     0.047 A 
BRANCH  15  18
ATOM     18  O   UNL     1       0.267   2.138  33.963  1.00  0.00    -0.508 OA
ATOM     19  H   UNL     1       0.224   1.647  33.077  1.00  0.00     0.293 HD
ENDBRANCH  15  18
ENDBRANCH   1  12
BRANCH  11  20
ATOM     20  C   UNL     1      -5.141   0.016  43.095  1.00  0.00     0.188 C 
ATOM     21  C   UNL     1      -4.174   1.013  43.776  1.00  0.00     0.179 C 
ATOM     22  O   UNL     1      -6.220   0.726  42.498  1.00  0.00    -0.362 OA
ATOM     23  C   UNL     1      -4.931   1.748  44.899  1.00  0.00     0.177 C 
ATOM     24  C   UNL     1      -7.025   1.429  43.440  1.00  0.00     0.176 C 
ATOM     25  C   UNL     1      -6.199   2.406  44.324  1.00  0.00     0.177 C 
BRANCH  21  26
ATOM     26  O   UNL     1      -3.704   1.943  42.830  1.00  0.00    -0.387 OA
ATOM     27  H   UNL     1      -4.169   1.746  41.976  1.00  0.00     0.211 HD
ENDBRANCH  21  26
BRANCH  23  28
ATOM     28  O   UNL     1      -4.115   2.736  45.475  1.00  0.00    -0.387 OA
ATOM     29  H   UNL     1      -4.477   3.614  45.184  1.00  0.00     0.211 HD
ENDBRANCH  23  28
BRANCH  24  30
ATOM     30  C   UNL     1      -8.014   0.502  44.186  1.00  0.00     0.191 C 
BRANCH  30  31
ATOM     31  O   UNL     1      -9.156   1.187  44.620  1.00  0.00    -0.394 OA
ATOM     32  H   UNL     1      -9.100   1.217  45.610  1.00  0.00     0.210 HD
ENDBRANCH  30  31
ENDBRANCH  24  30
BRANCH  25  33
ATOM     33  O   UNL     1      -6.987   2.996  45.329  1.00  0.00    -0.388 OA
ATOM     34  H   UNL     1      -7.403   2.271  45.862  1.00  0.00     0.211 HD
ENDBRANCH  25  33
ENDBRANCH  11  20
BRANCH  10  35
ATOM     35  O   UNL     1      -5.340  -2.760  43.469  1.00  0.00    -0.507 OA
ATOM     36  H   UNL     1      -6.059  -2.211  43.922  1.00  0.00     0.293 HD
ENDBRANCH  10  35
TORSDOF 9
ENDMDL
MODEL 3
REMARK VINA RESULT:    -5.203      4.867      7.373
REMARK INTER + INTRA:          -7.962
REMARK INTER:                  -7.117
REMARK INTRA:                  -0.845
REMARK UNBOUND:                -0.935
REMARK SMILES O=c1c(-c2ccc(O)cc2)coc2c([C@@H]3O[C@@H](CO)[C@@H](O)[C@H](O)[C@@H]3O)c(O)ccc12
REMARK SMILES IDX 3 1 11 2 12 3 13 4 30 5 2 6 1 7 29 8 28 9 26 10 14 11 4 12
REMARK SMILES IDX 5 13 6 14 7 15 10 16 9 17 8 18 15 20 24 21 16 22 22 23 17 24
REMARK SMILES IDX 20 25 25 26 23 28 18 30 19 31 21 33 27 35
REMARK H PARENT 8 19 25 27 23 29 19 32 21 34 27 36
REMARK Flexibility Score: inf
ROOT
ATOM      1  C   UNL     1      -1.747   1.120  35.654  1.00  0.00     0.065 A 
ATOM      2  C   UNL     1      -0.881   1.490  36.689  1.00  0.00     0.208 A 
ATOM      3  O   UNL     1       0.273   0.861  36.869  1.00  0.00    -0.463 OA
ATOM      4  C   UNL     1       0.694  -0.144  36.111  1.00  0.00     0.147 A 
ATOM      5  C   UNL     1      -0.123  -0.580  35.036  1.00  0.00     0.066 A 
ATOM      6  C   UNL     1      -1.359   0.058  34.819  1.00  0.00     0.200 A 
ATOM      7  O   UNL     1      -2.125  -0.331  33.893  1.00  0.00    -0.288 OA
ATOM      8  C   UNL     1       0.308  -1.627  34.211  1.00  0.00     0.020 A 
ATOM      9  C   UNL     1       1.540  -2.229  34.431  1.00  0.00     0.047 A 
ATOM     10  C   UNL     1       2.359  -1.813  35.483  1.00  0.00     0.125 A 
ATOM     11  C   UNL     1       1.948  -0.779  36.361  1.00  0.00     0.069 A 
ENDROOT
BRANCH   1  12
ATOM     12  C   UNL     1      -3.031   1.841  35.466  1.00  0.00    -0.011 A 
ATOM     13  C   UNL     1      -4.175   1.451  36.184  1.00  0.00     0.013 A 
ATOM     14  C   UNL     1      -5.384   2.134  36.017  1.00  0.00     0.047 A 
ATOM     15  C   UNL     1      -5.463   3.218  35.138  1.00  0.00     0.115 A 
ATOM     16  C   UNL     1      -3.116   2.936  34.588  1.00  0.00     0.013 A 
ATOM     17  C   UNL     1      -4.326   3.618  34.423  1.00  0.00     0.047 A 
BRANCH  15  18
ATOM     18  O   UNL     1      -6.673   3.890  34.982  1.00  0.00    -0.508 OA
ATOM     19  H   UNL     1      -7.521   3.401  34.717  1.00  0.00     0.293 HD
ENDBRANCH  15  18
ENDBRANCH   1  12
BRANCH  11  20
ATOM     20  C   UNL     1       2.922  -0.415  37.494  1.00  0.00     0.188 C 
ATOM     21  C   UNL     1       3.583   0.983  37.457  1.00  0.00     0.179 C 
ATOM     22  O   UNL     1       2.245  -0.593  38.733  1.00  0.00    -0.362 OA
ATOM     23  C   UNL     1       4.633   1.064  38.582  1.00  0.00     0.177 C 
ATOM     24  C   UNL     1       3.115  -0.571  39.861  1.00  0.00     0.176 C 
ATOM     25  C   UNL     1       3.973   0.724  39.931  1.00  0.00     0.177 C 
BRANCH  21  26
ATOM     26  O   UNL     1       2.605   1.978  37.645  1.00  0.00    -0.387 OA
ATOM     27  H   UNL     1       2.149   2.101  36.772  1.00  0.00     0.211 HD
ENDBRANCH  21  26
BRANCH  23  28
ATOM     28  O   UNL     1       5.184   2.355  38.646  1.00  0.00    -0.387 OA
ATOM     29  H   UNL     1       5.856   2.343  39.376  1.00  0.00     0.211 HD
ENDBRANCH  23  28
BRANCH  24  30
ATOM     30  C   UNL     1       3.872  -1.906  40.054  1.00  0.00     0.191 C 
BRANCH  30  31
ATOM     31  O   UNL     1       3.059  -2.899  40.616  1.00  0.00    -0.394 OA
ATOM     32  H   UNL     1       2.134  -2.696  40.321  1.00  0.00     0.210 HD
ENDBRANCH  30  31
ENDBRANCH  24  30
BRANCH  25  33
ATOM     33  O   UNL     1       4.912   0.672  40.977  1.00  0.00    -0.388 OA
ATOM     34  H   UNL     1       4.957   1.568  41.398  1.00  0.00     0.211 HD
ENDBRANCH  25  33
ENDBRANCH  11  20
BRANCH  10  35
ATOM     35  O   UNL     1       3.600  -2.429  35.658  1.00  0.00    -0.507 OA
ATOM     36  H   UNL     1       4.451  -1.892  35.777  1.00  0.00     0.293 HD
ENDBRANCH  10  35
TORSDOF 9
ENDMDL
MODEL 4
REMARK VINA RESULT:    -5.187     10.305     13.711
REMARK INTER + INTRA:          -7.942
REMARK INTER:                  -7.197
REMARK INTRA:                  -0.745
REMARK UNBOUND:                -0.935
REMARK SMILES O=c1c(-c2ccc(O)cc2)coc2c([C@@H]3O[C@@H](CO)[C@@H](O)[C@H](O)[C@@H]3O)c(O)ccc12
REMARK SMILES IDX 3 1 11 2 12 3 13 4 30 5 2 6 1 7 29 8 28 9 26 10 14 11 4 12
REMARK SMILES IDX 5 13 6 14 7 15 10 16 9 17 8 18 15 20 24 21 16 22 22 23 17 24
REMARK SMILES IDX 20 25 25 26 23 28 18 30 19 31 21 33 27 35
REMARK H PARENT 8 19 25 27 23 29 19 32 21 34 27 36
REMARK Flexibility Score: inf
ROOT
ATOM      1  C   UNL     1       6.045  -4.209  46.547  1.00  0.00     0.065 A 
ATOM      2  C   UNL     1       5.395  -3.748  45.397  1.00  0.00     0.208 A 
ATOM      3  O   UNL     1       5.645  -2.538  44.912  1.00  0.00    -0.463 OA
ATOM      4  C   UNL     1       6.504  -1.686  45.458  1.00  0.00     0.147 A 
ATOM      5  C   UNL     1       7.209  -2.078  46.625  1.00  0.00     0.066 A 
ATOM      6  C   UNL     1       6.963  -3.350  47.174  1.00  0.00     0.200 A 
ATOM      7  O   UNL     1       7.547  -3.713  48.233  1.00  0.00    -0.288 OA
ATOM      8  C   UNL     1       8.133  -1.202  47.209  1.00  0.00     0.020 A 
ATOM      9  C   UNL     1       8.375   0.042  46.640  1.00  0.00     0.047 A 
ATOM     10  C   UNL     1       7.693   0.445  45.490  1.00  0.00     0.125 A 
ATOM     11  C   UNL     1       6.726  -0.398  44.885  1.00  0.00     0.069 A 
ENDROOT
BRANCH   1  12
ATOM     12  C   UNL     1       5.754  -5.568  47.068  1.00  0.00    -0.011 A 
ATOM     13  C   UNL     1       4.722  -5.763  48.004  1.00  0.00     0.013 A 
ATOM     14  C   UNL     1       4.440  -7.043  48.491  1.00  0.00     0.047 A 
ATOM     15  C   UNL     1       5.177  -8.144  48.045  1.00  0.00     0.115 A 
ATOM     16  C   UNL     1       6.488  -6.681  46.620  1.00  0.00     0.013 A 
ATOM     17  C   UNL     1       6.202  -7.960  47.107  1.00  0.00     0.047 A 
BRANCH  15  18
ATOM     18  O   UNL     1       4.884  -9.414  48.538  1.00  0.00    -0.508 OA
ATOM     19  H   UNL     1       5.133 -10.251  48.025  1.00  0.00     0.293 HD
ENDBRANCH  15  18
ENDBRANCH   1  12
BRANCH  11  20
ATOM     20  C   UNL     1       6.023   0.156  43.634  1.00  0.00     0.188 C 
ATOM     21  C   UNL     1       4.904  -0.701  42.996  1.00  0.00     0.179 C 
ATOM     22  O   UNL     1       5.519   1.448  43.945  1.00  0.00    -0.362 OA
ATOM     23  C   UNL     1       4.463  -0.039  41.677  1.00  0.00     0.177 C 
ATOM     24  C   UNL     1       5.104   2.185  42.799  1.00  0.00     0.176 C 
ATOM     25  C   UNL     1       4.054   1.422  41.943  1.00  0.00     0.177 C 
BRANCH  21  26
ATOM     26  O   UNL     1       3.808  -0.786  43.876  1.00  0.00    -0.387 OA
ATOM     27  H   UNL     1       3.155  -1.408  43.463  1.00  0.00     0.211 HD
ENDBRANCH  21  26
BRANCH  23  28
ATOM     28  O   UNL     1       3.377  -0.732  41.118  1.00  0.00    -0.387 OA
ATOM     29  H   UNL     1       3.423  -1.662  41.461  1.00  0.00     0.211 HD
ENDBRANCH  23  28
BRANCH  24  30
ATOM     30  C   UNL     1       6.293   2.807  42.029  1.00  0.00     0.191 C 
BRANCH  30  31
ATOM     31  O   UNL     1       5.935   3.988  41.366  1.00  0.00    -0.394 OA
ATOM     32  H   UNL     1       5.532   3.708  40.503  1.00  0.00     0.210 HD
ENDBRANCH  30  31
ENDBRANCH  24  30
BRANCH  25  33
ATOM     33  O   UNL     1       3.751   2.108  40.753  1.00  0.00    -0.388 OA
ATOM     34  H   UNL     1       4.217   2.983  40.773  1.00  0.00     0.211 HD
ENDBRANCH  25  33
ENDBRANCH  11  20
BRANCH  10  35
ATOM     35  O   UNL     1       7.980   1.694  44.936  1.00  0.00    -0.507 OA
ATOM     36  H   UNL     1       7.343   2.476  45.024  1.00  0.00     0.293 HD
ENDBRANCH  10  35
TORSDOF 9
ENDMDL
MODEL 5
REMARK VINA RESULT:    -5.175      6.217     12.298
REMARK INTER + INTRA:          -7.925
REMARK INTER:                  -7.301
REMARK INTRA:                  -0.624
REMARK UNBOUND:                -0.935
REMARK SMILES O=c1c(-c2ccc(O)cc2)coc2c([C@@H]3O[C@@H](CO)[C@@H](O)[C@H](O)[C@@H]3O)c(O)ccc12
REMARK SMILES IDX 3 1 11 2 12 3 13 4 30 5 2 6 1 7 29 8 28 9 26 10 14 11 4 12
REMARK SMILES IDX 5 13 6 14 7 15 10 16 9 17 8 18 15 20 24 21 16 22 22 23 17 24
REMARK SMILES IDX 20 25 25 26 23 28 18 30 19 31 21 33 27 35
REMARK H PARENT 8 19 25 27 23 29 19 32 21 34 27 36
REMARK Flexibility Score: inf
ROOT
ATOM      1  C   UNL     1      -7.008  -6.465  47.389  1.00  0.00     0.065 A 
ATOM      2  C   UNL     1      -6.326  -5.399  46.793  1.00  0.00     0.208 A 
ATOM      3  O   UNL     1      -6.482  -5.126  45.504  1.00  0.00    -0.463 OA
ATOM      4  C   UNL     1      -7.272  -5.819  44.692  1.00  0.00     0.147 A 
ATOM      5  C   UNL     1      -8.004  -6.914  45.218  1.00  0.00     0.066 A 
ATOM      6  C   UNL     1      -7.856  -7.240  46.580  1.00  0.00     0.200 A 
ATOM      7  O   UNL     1      -8.466  -8.232  47.069  1.00  0.00    -0.288 OA
ATOM      8  C   UNL     1      -8.857  -7.649  44.384  1.00  0.00     0.020 A 
ATOM      9  C   UNL     1      -9.002  -7.299  43.049  1.00  0.00     0.047 A 
ATOM     10  C   UNL     1      -8.292  -6.222  42.512  1.00  0.00     0.125 A 
ATOM     11  C   UNL     1      -7.394  -5.471  43.313  1.00  0.00     0.069 A 
ENDROOT
BRANCH   1  12
ATOM     12  C   UNL     1      -6.823  -6.749  48.835  1.00  0.00    -0.011 A 
ATOM     13  C   UNL     1      -6.984  -5.725  49.785  1.00  0.00     0.013 A 
ATOM     14  C   UNL     1      -6.819  -5.991  51.148  1.00  0.00     0.047 A 
ATOM     15  C   UNL     1      -6.499  -7.281  51.579  1.00  0.00     0.115 A 
ATOM     16  C   UNL     1      -6.506  -8.046  49.276  1.00  0.00     0.013 A 
ATOM     17  C   UNL     1      -6.342  -8.310  50.640  1.00  0.00     0.047 A 
BRANCH  15  18
ATOM     18  O   UNL     1      -6.339  -7.533  52.940  1.00  0.00    -0.508 OA
ATOM     19  H   UNL     1      -6.075  -8.450  53.282  1.00  0.00     0.293 HD
ENDBRANCH  15  18
ENDBRANCH   1  12
BRANCH  11  20
ATOM     20  C   UNL     1      -6.653  -4.320  42.613  1.00  0.00     0.188 C 
ATOM     21  C   UNL     1      -7.219  -2.890  42.780  1.00  0.00     0.179 C 
ATOM     22  O   UNL     1      -5.294  -4.349  43.034  1.00  0.00    -0.362 OA
ATOM     23  C   UNL     1      -6.426  -1.933  41.870  1.00  0.00     0.177 C 
ATOM     24  C   UNL     1      -4.440  -3.525  42.246  1.00  0.00     0.176 C 
ATOM     25  C   UNL     1      -4.922  -2.048  42.185  1.00  0.00     0.177 C 
BRANCH  21  26
ATOM     26  O   UNL     1      -7.097  -2.482  44.121  1.00  0.00    -0.387 OA
ATOM     27  H   UNL     1      -6.320  -2.968  44.501  1.00  0.00     0.211 HD
ENDBRANCH  21  26
BRANCH  23  28
ATOM     28  O   UNL     1      -6.843  -0.607  42.069  1.00  0.00    -0.387 OA
ATOM     29  H   UNL     1      -7.522  -0.625  42.793  1.00  0.00     0.211 HD
ENDBRANCH  23  28
BRANCH  24  30
ATOM     30  C   UNL     1      -4.063  -4.178  40.895  1.00  0.00     0.191 C 
BRANCH  30  31
ATOM     31  O   UNL     1      -3.008  -3.510  40.260  1.00  0.00    -0.394 OA
ATOM     32  H   UNL     1      -3.079  -2.559  40.534  1.00  0.00     0.210 HD
ENDBRANCH  30  31
ENDBRANCH  24  30
BRANCH  25  33
ATOM     33  O   UNL     1      -4.140  -1.279  41.303  1.00  0.00    -0.388 OA
ATOM     34  H   UNL     1      -4.616  -0.427  41.130  1.00  0.00     0.211 HD
ENDBRANCH  25  33
ENDBRANCH  11  20
BRANCH  10  35
ATOM     35  O   UNL     1      -8.482  -5.887  41.170  1.00  0.00    -0.507 OA
ATOM     36  H   UNL     1      -9.320  -6.155  40.667  1.00  0.00     0.293 HD
ENDBRANCH  10  35
TORSDOF 9
ENDMDL
MODEL 6
REMARK VINA RESULT:    -5.154      2.103      4.072
REMARK INTER + INTRA:          -7.897
REMARK INTER:                  -7.096
REMARK INTRA:                  -0.801
REMARK UNBOUND:                -0.935
REMARK SMILES O=c1c(-c2ccc(O)cc2)coc2c([C@@H]3O[C@@H](CO)[C@@H](O)[C@H](O)[C@@H]3O)c(O)ccc12
REMARK SMILES IDX 3 1 11 2 12 3 13 4 30 5 2 6 1 7 29 8 28 9 26 10 14 11 4 12
REMARK SMILES IDX 5 13 6 14 7 15 10 16 9 17 8 18 15 20 24 21 16 22 22 23 17 24
REMARK SMILES IDX 20 25 25 26 23 28 18 30 19 31 21 33 27 35
REMARK H PARENT 8 19 25 27 23 29 19 32 21 34 27 36
REMARK Flexibility Score: inf
ROOT
ATOM      1  C   UNL     1      -2.652   0.054  38.502  1.00  0.00     0.065 A 
ATOM      2  C   UNL     1      -3.077  -1.264  38.303  1.00  0.00     0.208 A 
ATOM      3  O   UNL     1      -3.782  -1.900  39.230  1.00  0.00    -0.463 OA
ATOM      4  C   UNL     1      -4.134  -1.360  40.391  1.00  0.00     0.147 A 
ATOM      5  C   UNL     1      -3.747  -0.025  40.670  1.00  0.00     0.066 A 
ATOM      6  C   UNL     1      -2.989   0.679  39.715  1.00  0.00     0.200 A 
ATOM      7  O   UNL     1      -2.598   1.856  39.951  1.00  0.00    -0.288 OA
ATOM      8  C   UNL     1      -4.121   0.572  41.882  1.00  0.00     0.020 A 
ATOM      9  C   UNL     1      -4.886  -0.133  42.802  1.00  0.00     0.047 A 
ATOM     10  C   UNL     1      -5.279  -1.448  42.544  1.00  0.00     0.125 A 
ATOM     11  C   UNL     1      -4.895  -2.101  41.345  1.00  0.00     0.069 A 
ENDROOT
BRANCH   1  12
ATOM     12  C   UNL     1      -1.868   0.748  37.450  1.00  0.00    -0.011 A 
ATOM     13  C   UNL     1      -0.486   0.949  37.612  1.00  0.00     0.013 A 
ATOM     14  C   UNL     1       0.257   1.595  36.618  1.00  0.00     0.047 A 
ATOM     15  C   UNL     1      -0.368   2.040  35.450  1.00  0.00     0.115 A 
ATOM     16  C   UNL     1      -2.489   1.193  36.269  1.00  0.00     0.013 A 
ATOM     17  C   UNL     1      -1.744   1.837  35.277  1.00  0.00     0.047 A 
BRANCH  15  18
ATOM     18  O   UNL     1       0.385   2.680  34.467  1.00  0.00    -0.508 OA
ATOM     19  H   UNL     1      -0.042   3.028  33.617  1.00  0.00     0.293 HD
ENDBRANCH  15  18
ENDBRANCH   1  12
BRANCH  11  20
ATOM     20  C   UNL     1      -5.369  -3.554  41.174  1.00  0.00     0.188 C 
ATOM     21  C   UNL     1      -4.418  -4.682  41.639  1.00  0.00     0.179 C 
ATOM     22  O   UNL     1      -6.626  -3.688  41.826  1.00  0.00    -0.362 OA
ATOM     23  C   UNL     1      -5.019  -6.039  41.224  1.00  0.00     0.177 C 
ATOM     24  C   UNL     1      -7.307  -4.896  41.498  1.00  0.00     0.176 C 
ATOM     25  C   UNL     1      -6.450  -6.163  41.781  1.00  0.00     0.177 C 
BRANCH  21  26
ATOM     26  O   UNL     1      -4.269  -4.635  43.038  1.00  0.00    -0.387 OA
ATOM     27  H   UNL     1      -4.289  -3.677  43.297  1.00  0.00     0.211 HD
ENDBRANCH  21  26
BRANCH  23  28
ATOM     28  O   UNL     1      -4.235  -7.095  41.718  1.00  0.00    -0.387 OA
ATOM     29  H   UNL     1      -3.305  -6.929  41.413  1.00  0.00     0.211 HD
ENDBRANCH  23  28
BRANCH  24  30
ATOM     30  C   UNL     1      -8.000  -4.833  40.116  1.00  0.00     0.191 C 
BRANCH  30  31
ATOM     31  O   UNL     1      -9.087  -5.712  40.030  1.00  0.00    -0.394 OA
ATOM     32  H   UNL     1      -8.995  -6.340  40.792  1.00  0.00     0.210 HD
ENDBRANCH  30  31
ENDBRANCH  24  30
BRANCH  25  33
ATOM     33  O   UNL     1      -7.087  -7.335  41.335  1.00  0.00    -0.388 OA
ATOM     34  H   UNL     1      -7.611  -7.113  40.523  1.00  0.00     0.211 HD
ENDBRANCH  25  33
ENDBRANCH  11  20
BRANCH  10  35
ATOM     35  O   UNL     1      -6.065  -2.116  43.485  1.00  0.00    -0.507 OA
ATOM     36  H   UNL     1      -6.597  -2.944  43.245  1.00  0.00     0.293 HD
ENDBRANCH  10  35
TORSDOF 9
ENDMDL
MODEL 7
REMARK VINA RESULT:    -5.094      6.411      8.678
REMARK INTER + INTRA:          -7.816
REMARK INTER:                  -7.162
REMARK INTRA:                  -0.654
REMARK UNBOUND:                -0.935
REMARK SMILES O=c1c(-c2ccc(O)cc2)coc2c([C@@H]3O[C@@H](CO)[C@@H](O)[C@H](O)[C@@H]3O)c(O)ccc12
REMARK SMILES IDX 3 1 11 2 12 3 13 4 30 5 2 6 1 7 29 8 28 9 26 10 14 11 4 12
REMARK SMILES IDX 5 13 6 14 7 15 10 16 9 17 8 18 15 20 24 21 16 22 22 23 17 24
REMARK SMILES IDX 20 25 25 26 23 28 18 30 19 31 21 33 27 35
REMARK H PARENT 8 19 25 27 23 29 19 32 21 34 27 36
REMARK Flexibility Score: inf
ROOT
ATOM      1  C   UNL     1       1.617  -1.342  38.007  1.00  0.00     0.065 A 
ATOM      2  C   UNL     1       2.254  -1.884  39.129  1.00  0.00     0.208 A 
ATOM      3  O   UNL     1       3.017  -1.130  39.910  1.00  0.00    -0.463 OA
ATOM      4  C   UNL     1       3.238   0.163  39.702  1.00  0.00     0.147 A 
ATOM      5  C   UNL     1       2.625   0.792  38.588  1.00  0.00     0.066 A 
ATOM      6  C   UNL     1       1.817   0.022  37.731  1.00  0.00     0.200 A 
ATOM      7  O   UNL     1       1.289   0.545  36.710  1.00  0.00    -0.288 OA
ATOM      8  C   UNL     1       2.831   2.159  38.358  1.00  0.00     0.020 A 
ATOM      9  C   UNL     1       3.616   2.904  39.228  1.00  0.00     0.047 A 
ATOM     10  C   UNL     1       4.225   2.303  40.332  1.00  0.00     0.125 A 
ATOM     11  C   UNL     1       4.071   0.916  40.583  1.00  0.00     0.069 A 
ENDROOT
BRANCH   1  12
ATOM     12  C   UNL     1       0.764  -2.202  37.150  1.00  0.00    -0.011 A 
ATOM     13  C   UNL     1       1.159  -2.508  35.835  1.00  0.00     0.013 A 
ATOM     14  C   UNL     1       0.362  -3.326  35.028  1.00  0.00     0.047 A 
ATOM     15  C   UNL     1      -0.833  -3.853  35.524  1.00  0.00     0.115 A 
ATOM     16  C   UNL     1      -0.437  -2.742  37.645  1.00  0.00     0.013 A 
ATOM     17  C   UNL     1      -1.232  -3.560  36.835  1.00  0.00     0.047 A 
BRANCH  15  18
ATOM     18  O   UNL     1      -1.617  -4.668  34.709  1.00  0.00    -0.508 OA
ATOM     19  H   UNL     1      -1.281  -5.564  34.376  1.00  0.00     0.293 HD
ENDBRANCH  15  18
ENDBRANCH   1  12
BRANCH  11  20
ATOM     20  C   UNL     1       4.801   0.359  41.816  1.00  0.00     0.188 C 
ATOM     21  C   UNL     1       6.322   0.103  41.700  1.00  0.00     0.179 C 
ATOM     22  O   UNL     1       4.544   1.227  42.913  1.00  0.00    -0.362 OA
ATOM     23  C   UNL     1       6.806  -0.602  42.981  1.00  0.00     0.177 C 
ATOM     24  C   UNL     1       4.918   0.675  44.172  1.00  0.00     0.176 C 
ATOM     25  C   UNL     1       6.408   0.232  44.213  1.00  0.00     0.177 C 
BRANCH  21  26
ATOM     26  O   UNL     1       7.001   1.327  41.545  1.00  0.00    -0.387 OA
ATOM     27  H   UNL     1       6.911   1.587  40.591  1.00  0.00     0.211 HD
ENDBRANCH  21  26
BRANCH  23  28
ATOM     28  O   UNL     1       8.202  -0.760  42.958  1.00  0.00    -0.387 OA
ATOM     29  H   UNL     1       8.492  -0.609  42.020  1.00  0.00     0.211 HD
ENDBRANCH  23  28
BRANCH  24  30
ATOM     30  C   UNL     1       3.885  -0.347  44.704  1.00  0.00     0.191 C 
BRANCH  30  31
ATOM     31  O   UNL     1       2.566   0.069  44.480  1.00  0.00    -0.394 OA
ATOM     32  H   UNL     1       2.572   1.058  44.556  1.00  0.00     0.210 HD
ENDBRANCH  30  31
ENDBRANCH  24  30
BRANCH  25  33
ATOM     33  O   UNL     1       6.725  -0.424  45.416  1.00  0.00    -0.388 OA
ATOM     34  H   UNL     1       5.902  -0.857  45.759  1.00  0.00     0.211 HD
ENDBRANCH  25  33
ENDBRANCH  11  20
BRANCH  10  35
ATOM     35  O   UNL     1       4.990   3.091  41.194  1.00  0.00    -0.507 OA
ATOM     36  H   UNL     1       5.480   3.917  40.871  1.00  0.00     0.293 HD
ENDBRANCH  10  35
TORSDOF 9
ENDMDL
MODEL 8
REMARK VINA RESULT:    -5.056      1.237      2.236
REMARK INTER + INTRA:          -7.764
REMARK INTER:                  -6.702
REMARK INTRA:                  -1.063
REMARK UNBOUND:                -0.935
REMARK SMILES O=c1c(-c2ccc(O)cc2)coc2c([C@@H]3O[C@@H](CO)[C@@H](O)[C@H](O)[C@@H]3O)c(O)ccc12
REMARK SMILES IDX 3 1 11 2 12 3 13 4 30 5 2 6 1 7 29 8 28 9 26 10 14 11 4 12
REMARK SMILES IDX 5 13 6 14 7 15 10 16 9 17 8 18 15 20 24 21 16 22 22 23 17 24
REMARK SMILES IDX 20 25 25 26 23 28 18 30 19 31 21 33 27 35
REMARK H PARENT 8 19 25 27 23 29 19 32 21 34 27 36
REMARK Flexibility Score: inf
ROOT
ATOM      1  C   UNL     1      -1.344   0.851  37.162  1.00  0.00     0.065 A 
ATOM      2  C   UNL     1      -1.420   0.100  38.341  1.00  0.00     0.208 A 
ATOM      3  O   UNL     1      -2.563  -0.457  38.720  1.00  0.00    -0.463 OA
ATOM      4  C   UNL     1      -3.698  -0.354  38.040  1.00  0.00     0.147 A 
ATOM      5  C   UNL     1      -3.706   0.387  36.831  1.00  0.00     0.066 A 
ATOM      6  C   UNL     1      -2.515   1.001  36.400  1.00  0.00     0.200 A 
ATOM      7  O   UNL     1      -2.500   1.698  35.347  1.00  0.00    -0.288 OA
ATOM      8  C   UNL     1      -4.889   0.496  36.087  1.00  0.00     0.020 A 
ATOM      9  C   UNL     1      -6.048  -0.134  36.519  1.00  0.00     0.047 A 
ATOM     10  C   UNL     1      -6.059  -0.870  37.706  1.00  0.00     0.125 A 
ATOM     11  C   UNL     1      -4.894  -0.979  38.506  1.00  0.00     0.069 A 
ENDROOT
BRANCH   1  12
ATOM     12  C   UNL     1      -0.054   1.461  36.753  1.00  0.00    -0.011 A 
ATOM     13  C   UNL     1       0.325   2.720  37.252  1.00  0.00     0.013 A 
ATOM     14  C   UNL     1       1.543   3.294  36.875  1.00  0.00     0.047 A 
ATOM     15  C   UNL     1       2.401   2.616  36.005  1.00  0.00     0.115 A 
ATOM     16  C   UNL     1       0.816   0.781  35.882  1.00  0.00     0.013 A 
ATOM     17  C   UNL     1       2.035   1.357  35.508  1.00  0.00     0.047 A 
BRANCH  15  18
ATOM     18  O   UNL     1       3.613   3.198  35.639  1.00  0.00    -0.508 OA
ATOM     19  H   UNL     1       4.192   2.801  34.909  1.00  0.00     0.293 HD
ENDBRANCH  15  18
ENDBRANCH   1  12
BRANCH  11  20
ATOM     20  C   UNL     1      -5.026  -1.799  39.801  1.00  0.00     0.188 C 
ATOM     21  C   UNL     1      -4.377  -3.202  39.836  1.00  0.00     0.179 C 
ATOM     22  O   UNL     1      -4.527  -1.012  40.875  1.00  0.00    -0.362 OA
ATOM     23  C   UNL     1      -4.773  -3.898  41.152  1.00  0.00     0.177 C 
ATOM     24  C   UNL     1      -4.856  -1.533  42.159  1.00  0.00     0.176 C 
ATOM     25  C   UNL     1      -4.389  -3.005  42.346  1.00  0.00     0.177 C 
BRANCH  21  26
ATOM     26  O   UNL     1      -2.976  -3.081  39.764  1.00  0.00    -0.387 OA
ATOM     27  H   UNL     1      -2.706  -3.396  38.862  1.00  0.00     0.211 HD
ENDBRANCH  21  26
BRANCH  23  28
ATOM     28  O   UNL     1      -4.119  -5.136  41.269  1.00  0.00    -0.387 OA
ATOM     29  H   UNL     1      -4.719  -5.817  40.866  1.00  0.00     0.211 HD
ENDBRANCH  23  28
BRANCH  24  30
ATOM     30  C   UNL     1      -6.313  -1.219  42.574  1.00  0.00     0.191 C 
BRANCH  30  31
ATOM     31  O   UNL     1      -6.433  -0.985  43.949  1.00  0.00    -0.394 OA
ATOM     32  H   UNL     1      -6.043  -0.087  44.111  1.00  0.00     0.210 HD
ENDBRANCH  30  31
ENDBRANCH  24  30
BRANCH  25  33
ATOM     33  O   UNL     1      -4.832  -3.542  43.569  1.00  0.00    -0.388 OA
ATOM     34  H   UNL     1      -5.727  -3.943  43.425  1.00  0.00     0.211 HD
ENDBRANCH  25  33
ENDBRANCH  11  20
BRANCH  10  35
ATOM     35  O   UNL     1      -7.239  -1.506  38.097  1.00  0.00    -0.507 OA
ATOM     36  H   UNL     1      -8.024  -1.612  37.464  1.00  0.00     0.293 HD
ENDBRANCH  10  35
TORSDOF 9
ENDMDL
MODEL 9
REMARK VINA RESULT:    -5.027      6.235      8.731
REMARK INTER + INTRA:          -7.724
REMARK INTER:                  -7.112
REMARK INTRA:                  -0.612
REMARK UNBOUND:                -0.935
REMARK SMILES O=c1c(-c2ccc(O)cc2)coc2c([C@@H]3O[C@@H](CO)[C@@H](O)[C@H](O)[C@@H]3O)c(O)ccc12
REMARK SMILES IDX 3 1 11 2 12 3 13 4 30 5 2 6 1 7 29 8 28 9 26 10 14 11 4 12
REMARK SMILES IDX 5 13 6 14 7 15 10 16 9 17 8 18 15 20 24 21 16 22 22 23 17 24
REMARK SMILES IDX 20 25 25 26 23 28 18 30 19 31 21 33 27 35
REMARK H PARENT 8 19 25 27 23 29 19 32 21 34 27 36
REMARK Flexibility Score: inf
ROOT
ATOM      1  C   UNL     1       1.829  -1.254  37.676  1.00  0.00     0.065 A 
ATOM      2  C   UNL     1       2.246  -1.518  38.985  1.00  0.00     0.208 A 
ATOM      3  O   UNL     1       3.104  -0.716  39.602  1.00  0.00    -0.463 OA
ATOM      4  C   UNL     1       3.627   0.372  39.050  1.00  0.00     0.147 A 
ATOM      5  C   UNL     1       3.253   0.715  37.725  1.00  0.00     0.066 A 
ATOM      6  C   UNL     1       2.352  -0.118  37.035  1.00  0.00     0.200 A 
ATOM      7  O   UNL     1       2.029   0.140  35.842  1.00  0.00    -0.288 OA
ATOM      8  C   UNL     1       3.780   1.867  37.127  1.00  0.00     0.020 A 
ATOM      9  C   UNL     1       4.652   2.686  37.833  1.00  0.00     0.047 A 
ATOM     10  C   UNL     1       5.030   2.367  39.139  1.00  0.00     0.125 A 
ATOM     11  C   UNL     1       4.546   1.192  39.770  1.00  0.00     0.069 A 
ENDROOT
BRANCH   1  12
ATOM     12  C   UNL     1       0.864  -2.162  37.007  1.00  0.00    -0.011 A 
ATOM     13  C   UNL     1       1.100  -2.604  35.693  1.00  0.00     0.013 A 
ATOM     14  C   UNL     1       0.198  -3.467  35.063  1.00  0.00     0.047 A 
ATOM     15  C   UNL     1      -0.946  -3.903  35.737  1.00  0.00     0.115 A 
ATOM     16  C   UNL     1      -0.286  -2.609  37.682  1.00  0.00     0.013 A 
ATOM     17  C   UNL     1      -1.187  -3.473  37.049  1.00  0.00     0.047 A 
BRANCH  15  18
ATOM     18  O   UNL     1      -1.836  -4.764  35.098  1.00  0.00    -0.508 OA
ATOM     19  H   UNL     1      -2.654  -4.414  34.612  1.00  0.00     0.293 HD
ENDBRANCH  15  18
ENDBRANCH   1  12
BRANCH  11  20
ATOM     20  C   UNL     1       5.043   0.931  41.202  1.00  0.00     0.188 C 
ATOM     21  C   UNL     1       4.009   1.006  42.350  1.00  0.00     0.179 C 
ATOM     22  O   UNL     1       5.690  -0.335  41.221  1.00  0.00    -0.362 OA
ATOM     23  C   UNL     1       4.750   0.878  43.694  1.00  0.00     0.177 C 
ATOM     24  C   UNL     1       6.445  -0.567  42.407  1.00  0.00     0.176 C 
ATOM     25  C   UNL     1       5.593  -0.411  43.699  1.00  0.00     0.177 C 
BRANCH  21  26
ATOM     26  O   UNL     1       3.075  -0.040  42.219  1.00  0.00    -0.387 OA
ATOM     27  H   UNL     1       2.253   0.248  42.695  1.00  0.00     0.211 HD
ENDBRANCH  21  26
BRANCH  23  28
ATOM     28  O   UNL     1       3.834   0.838  44.758  1.00  0.00    -0.387 OA
ATOM     29  H   UNL     1       3.144   0.165  44.518  1.00  0.00     0.211 HD
ENDBRANCH  23  28
BRANCH  24  30
ATOM     30  C   UNL     1       7.811   0.159  42.396  1.00  0.00     0.191 C 
BRANCH  30  31
ATOM     31  O   UNL     1       8.764  -0.494  43.187  1.00  0.00    -0.394 OA
ATOM     32  H   UNL     1       9.437   0.193  43.431  1.00  0.00     0.210 HD
ENDBRANCH  30  31
ENDBRANCH  24  30
BRANCH  25  33
ATOM     33  O   UNL     1       6.381  -0.519  44.860  1.00  0.00    -0.388 OA
ATOM     34  H   UNL     1       6.069  -1.308  45.373  1.00  0.00     0.211 HD
ENDBRANCH  25  33
ENDBRANCH  11  20
BRANCH  10  35
ATOM     35  O   UNL     1       5.892   3.226  39.823  1.00  0.00    -0.507 OA
ATOM     36  H   UNL     1       6.134   4.140  39.459  1.00  0.00     0.293 HD
ENDBRANCH  10  35
TORSDOF 9
ENDMDL
