MODEL 1
REMARK VINA RESULT:    -7.790      0.000      0.000
REMARK INTER + INTRA:          -9.452
REMARK INTER:                  -9.157
REMARK INTRA:                  -0.295
REMARK UNBOUND:                -0.295
REMARK SMILES O=c1cc(-c2ccc(O)c(O)c2)oc2cc(O)cc(O)c12
REMARK SMILES IDX 4 1 3 2 2 3 1 4 21 5 19 6 18 7 16 8 15 9 14 10 13 11 5 12
REMARK SMILES IDX 6 13 7 14 8 15 12 16 10 17 9 18 11 20 20 22 17 24
REMARK H PARENT 9 19 11 21 20 23 17 25
REMARK Flexibility Score: inf
ROOT
ATOM      1  C   UNL     1      23.895   4.785  24.923  1.00  0.00     0.138 A 
ATOM      2  C   UNL     1      23.426   3.589  25.484  1.00  0.00     0.100 A 
ATOM      3  C   UNL     1      22.714   2.688  24.691  1.00  0.00     0.197 A 
ATOM      4  O   UNL     1      22.252   1.652  25.237  1.00  0.00    -0.289 OA
ATOM      5  C   UNL     1      22.498   2.973  23.323  1.00  0.00     0.107 A 
ATOM      6  C   UNL     1      21.820   2.111  22.409  1.00  0.00     0.134 A 
ATOM      7  C   UNL     1      21.565   2.551  21.104  1.00  0.00     0.093 A 
ATOM      8  C   UNL     1      22.014   3.798  20.663  1.00  0.00     0.123 A 
ATOM      9  C   UNL     1      22.724   4.625  21.531  1.00  0.00     0.094 A 
ATOM     10  C   UNL     1      22.965   4.229  22.849  1.00  0.00     0.146 A 
ATOM     11  O   UNL     1      23.632   5.055  23.649  1.00  0.00    -0.456 OA
ENDROOT
BRANCH   1  12
ATOM     12  C   UNL     1      24.660   5.778  25.720  1.00  0.00     0.021 A 
ATOM     13  C   UNL     1      25.198   6.937  25.135  1.00  0.00     0.016 A 
ATOM     14  C   UNL     1      25.904   7.859  25.911  1.00  0.00     0.051 A 
ATOM     15  C   UNL     1      26.084   7.650  27.282  1.00  0.00     0.157 A 
ATOM     16  C   UNL     1      24.829   5.577  27.100  1.00  0.00     0.062 A 
ATOM     17  C   UNL     1      25.537   6.494  27.885  1.00  0.00     0.158 A 
BRANCH  15  18
ATOM     18  O   UNL     1      26.803   8.609  27.999  1.00  0.00    -0.504 OA
ATOM     19  H   UNL     1      26.712   9.605  27.859  1.00  0.00     0.293 HD
ENDBRANCH  15  18
BRANCH  17  20
ATOM     20  O   UNL     1      25.669   6.221  29.249  1.00  0.00    -0.504 OA
ATOM     21  H   UNL     1      25.496   5.317  29.663  1.00  0.00     0.293 HD
ENDBRANCH  17  20
ENDBRANCH   1  12
BRANCH   6  22
ATOM     22  O   UNL     1      21.405   0.813  22.722  1.00  0.00    -0.507 OA
ATOM     23  H   UNL     1      21.423   0.031  22.085  1.00  0.00     0.293 HD
ENDBRANCH   6  22
BRANCH   8  24
ATOM     24  O   UNL     1      21.769   4.221  19.359  1.00  0.00    -0.508 OA
ATOM     25  H   UNL     1      21.249   5.070  19.166  1.00  0.00     0.293 HD
ENDBRANCH   8  24
TORSDOF 5
ENDMDL
MODEL 2
REMARK VINA RESULT:    -7.743      2.637      7.413
REMARK INTER + INTRA:          -9.395
REMARK INTER:                  -9.088
REMARK INTRA:                  -0.307
REMARK UNBOUND:                -0.295
REMARK SMILES O=c1cc(-c2ccc(O)c(O)c2)oc2cc(O)cc(O)c12
REMARK SMILES IDX 4 1 3 2 2 3 1 4 21 5 19 6 18 7 16 8 15 9 14 10 13 11 5 12
REMARK SMILES IDX 6 13 7 14 8 15 12 16 10 17 9 18 11 20 20 22 17 24
REMARK H PARENT 9 19 11 21 20 23 17 25
REMARK Flexibility Score: inf
ROOT
ATOM      1  C   UNL     1      23.210   6.684  23.812  1.00  0.00     0.138 A 
ATOM      2  C   UNL     1      24.208   7.513  23.281  1.00  0.00     0.100 A 
ATOM      3  C   UNL     1      25.246   7.955  24.101  1.00  0.00     0.197 A 
ATOM      4  O   UNL     1      26.092   8.748  23.612  1.00  0.00    -0.289 OA
ATOM      5  C   UNL     1      25.301   7.540  25.452  1.00  0.00     0.107 A 
ATOM      6  C   UNL     1      26.334   7.895  26.371  1.00  0.00     0.134 A 
ATOM      7  C   UNL     1      26.222   7.518  27.715  1.00  0.00     0.093 A 
ATOM      8  C   UNL     1      25.144   6.749  28.161  1.00  0.00     0.123 A 
ATOM      9  C   UNL     1      24.158   6.352  27.260  1.00  0.00     0.094 A 
ATOM     10  C   UNL     1      24.224   6.740  25.920  1.00  0.00     0.146 A 
ATOM     11  O   UNL     1      23.255   6.352  25.098  1.00  0.00    -0.456 OA
ENDROOT
BRANCH   1  12
ATOM     12  C   UNL     1      22.083   6.183  22.984  1.00  0.00     0.021 A 
ATOM     13  C   UNL     1      22.225   5.960  21.603  1.00  0.00     0.016 A 
ATOM     14  C   UNL     1      21.151   5.478  20.851  1.00  0.00     0.051 A 
ATOM     15  C   UNL     1      19.920   5.203  21.456  1.00  0.00     0.157 A 
ATOM     16  C   UNL     1      20.851   5.892  23.593  1.00  0.00     0.062 A 
ATOM     17  C   UNL     1      19.769   5.411  22.846  1.00  0.00     0.158 A 
BRANCH  15  18
ATOM     18  O   UNL     1      18.887   4.727  20.646  1.00  0.00    -0.504 OA
ATOM     19  H   UNL     1      17.906   4.824  20.866  1.00  0.00     0.293 HD
ENDBRANCH  15  18
BRANCH  17  20
ATOM     20  O   UNL     1      18.574   5.153  23.521  1.00  0.00    -0.504 OA
ATOM     21  H   UNL     1      18.153   5.785  24.186  1.00  0.00     0.293 HD
ENDBRANCH  17  20
ENDBRANCH   1  12
BRANCH   6  22
ATOM     22  O   UNL     1      27.494   8.588  26.012  1.00  0.00    -0.507 OA
ATOM     23  H   UNL     1      28.423   8.196  26.007  1.00  0.00     0.293 HD
ENDBRANCH   6  22
BRANCH   8  24
ATOM     24  O   UNL     1      25.049   6.366  29.497  1.00  0.00    -0.508 OA
ATOM     25  H   UNL     1      24.606   6.961  30.188  1.00  0.00     0.293 HD
ENDBRANCH   8  24
TORSDOF 5
ENDMDL
MODEL 3
REMARK VINA RESULT:    -7.682      2.731      3.470
REMARK INTER + INTRA:          -9.324
REMARK INTER:                  -9.012
REMARK INTRA:                  -0.312
REMARK UNBOUND:                -0.295
REMARK SMILES O=c1cc(-c2ccc(O)c(O)c2)oc2cc(O)cc(O)c12
REMARK SMILES IDX 4 1 3 2 2 3 1 4 21 5 19 6 18 7 16 8 15 9 14 10 13 11 5 12
REMARK SMILES IDX 6 13 7 14 8 15 12 16 10 17 9 18 11 20 20 22 17 24
REMARK H PARENT 9 19 11 21 20 23 17 25
REMARK Flexibility Score: inf
ROOT
ATOM      1  C   UNL     1      23.948   6.878  24.593  1.00  0.00     0.138 A 
ATOM      2  C   UNL     1      24.456   7.040  23.296  1.00  0.00     0.100 A 
ATOM      3  C   UNL     1      23.628   6.806  22.198  1.00  0.00     0.197 A 
ATOM      4  O   UNL     1      24.129   6.899  21.046  1.00  0.00    -0.289 OA
ATOM      5  C   UNL     1      22.278   6.436  22.400  1.00  0.00     0.107 A 
ATOM      6  C   UNL     1      21.331   6.210  21.355  1.00  0.00     0.134 A 
ATOM      7  C   UNL     1      20.053   5.736  21.674  1.00  0.00     0.093 A 
ATOM      8  C   UNL     1      19.668   5.535  23.002  1.00  0.00     0.123 A 
ATOM      9  C   UNL     1      20.567   5.805  24.031  1.00  0.00     0.094 A 
ATOM     10  C   UNL     1      21.860   6.247  23.745  1.00  0.00     0.146 A 
ATOM     11  O   UNL     1      22.692   6.477  24.756  1.00  0.00    -0.456 OA
ENDROOT
BRANCH   1  12
ATOM     12  C   UNL     1      24.784   7.116  25.798  1.00  0.00     0.021 A 
ATOM     13  C   UNL     1      25.916   7.948  25.758  1.00  0.00     0.016 A 
ATOM     14  C   UNL     1      26.677   8.162  26.909  1.00  0.00     0.051 A 
ATOM     15  C   UNL     1      26.326   7.560  28.121  1.00  0.00     0.157 A 
ATOM     16  C   UNL     1      24.423   6.524  27.019  1.00  0.00     0.062 A 
ATOM     17  C   UNL     1      25.182   6.731  28.178  1.00  0.00     0.158 A 
BRANCH  15  18
ATOM     18  O   UNL     1      27.132   7.814  29.233  1.00  0.00    -0.504 OA
ATOM     19  H   UNL     1      26.864   8.415  29.999  1.00  0.00     0.293 HD
ENDBRANCH  15  18
BRANCH  17  20
ATOM     20  O   UNL     1      24.765   6.102  29.353  1.00  0.00    -0.504 OA
ATOM     21  H   UNL     1      25.183   6.260  30.257  1.00  0.00     0.293 HD
ENDBRANCH  17  20
ENDBRANCH   1  12
BRANCH   6  22
ATOM     22  O   UNL     1      21.586   6.459  20.004  1.00  0.00    -0.507 OA
ATOM     23  H   UNL     1      22.453   6.252  19.532  1.00  0.00     0.293 HD
ENDBRANCH   6  22
BRANCH   8  24
ATOM     24  O   UNL     1      18.388   5.078  23.309  1.00  0.00    -0.508 OA
ATOM     25  H   UNL     1      18.187   4.618  24.190  1.00  0.00     0.293 HD
ENDBRANCH   8  24
TORSDOF 5
ENDMDL
MODEL 4
REMARK VINA RESULT:    -7.543      8.661     12.061
REMARK INTER + INTRA:          -9.161
REMARK INTER:                  -8.856
REMARK INTRA:                  -0.304
REMARK UNBOUND:                -0.295
REMARK SMILES O=c1cc(-c2ccc(O)c(O)c2)oc2cc(O)cc(O)c12
REMARK SMILES IDX 4 1 3 2 2 3 1 4 21 5 19 6 18 7 16 8 15 9 14 10 13 11 5 12
REMARK SMILES IDX 6 13 7 14 8 15 12 16 10 17 9 18 11 20 20 22 17 24
REMARK H PARENT 9 19 11 21 20 23 17 25
REMARK Flexibility Score: inf
ROOT
ATOM      1  C   UNL     1      24.323  -3.382  19.283  1.00  0.00     0.138 A 
ATOM      2  C   UNL     1      24.635  -2.028  19.092  1.00  0.00     0.100 A 
ATOM      3  C   UNL     1      25.805  -1.505  19.643  1.00  0.00     0.197 A 
ATOM      4  O   UNL     1      26.027  -0.274  19.507  1.00  0.00    -0.289 OA
ATOM      5  C   UNL     1      26.683  -2.350  20.362  1.00  0.00     0.107 A 
ATOM      6  C   UNL     1      27.924  -1.937  20.933  1.00  0.00     0.134 A 
ATOM      7  C   UNL     1      28.653  -2.835  21.722  1.00  0.00     0.093 A 
ATOM      8  C   UNL     1      28.217  -4.148  21.912  1.00  0.00     0.123 A 
ATOM      9  C   UNL     1      27.034  -4.577  21.313  1.00  0.00     0.094 A 
ATOM     10  C   UNL     1      26.267  -3.696  20.548  1.00  0.00     0.146 A 
ATOM     11  O   UNL     1      25.137  -4.141  20.008  1.00  0.00    -0.456 OA
ENDROOT
BRANCH   1  12
ATOM     12  C   UNL     1      23.092  -3.990  18.717  1.00  0.00     0.021 A 
ATOM     13  C   UNL     1      21.913  -3.245  18.545  1.00  0.00     0.016 A 
ATOM     14  C   UNL     1      20.773  -3.842  18.001  1.00  0.00     0.051 A 
ATOM     15  C   UNL     1      20.784  -5.185  17.613  1.00  0.00     0.157 A 
ATOM     16  C   UNL     1      23.107  -5.336  18.314  1.00  0.00     0.062 A 
ATOM     17  C   UNL     1      21.968  -5.942  17.770  1.00  0.00     0.158 A 
BRANCH  15  18
ATOM     18  O   UNL     1      19.610  -5.720  17.080  1.00  0.00    -0.504 OA
ATOM     19  H   UNL     1      19.588  -6.446  16.378  1.00  0.00     0.293 HD
ENDBRANCH  15  18
BRANCH  17  20
ATOM     20  O   UNL     1      22.058  -7.286  17.400  1.00  0.00    -0.504 OA
ATOM     21  H   UNL     1      22.498  -7.998  17.963  1.00  0.00     0.293 HD
ENDBRANCH  17  20
ENDBRANCH   1  12
BRANCH   6  22
ATOM     22  O   UNL     1      28.492  -0.675  20.736  1.00  0.00    -0.507 OA
ATOM     23  H   UNL     1      29.213  -0.269  21.314  1.00  0.00     0.293 HD
ENDBRANCH   6  22
BRANCH   8  24
ATOM     24  O   UNL     1      28.957  -5.038  22.686  1.00  0.00    -0.508 OA
ATOM     25  H   UNL     1      28.686  -6.010  22.782  1.00  0.00     0.293 HD
ENDBRANCH   8  24
TORSDOF 5
ENDMDL
MODEL 5
REMARK VINA RESULT:    -7.483      1.396      2.386
REMARK INTER + INTRA:          -9.091
REMARK INTER:                  -8.815
REMARK INTRA:                  -0.276
REMARK UNBOUND:                -0.295
REMARK SMILES O=c1cc(-c2ccc(O)c(O)c2)oc2cc(O)cc(O)c12
REMARK SMILES IDX 4 1 3 2 2 3 1 4 21 5 19 6 18 7 16 8 15 9 14 10 13 11 5 12
REMARK SMILES IDX 6 13 7 14 8 15 12 16 10 17 9 18 11 20 20 22 17 24
REMARK H PARENT 9 19 11 21 20 23 17 25
REMARK Flexibility Score: inf
ROOT
ATOM      1  C   UNL     1      23.750   5.248  24.632  1.00  0.00     0.138 A 
ATOM      2  C   UNL     1      22.689   5.795  23.897  1.00  0.00     0.100 A 
ATOM      3  C   UNL     1      21.955   4.980  23.035  1.00  0.00     0.197 A 
ATOM      4  O   UNL     1      21.049   5.513  22.341  1.00  0.00    -0.289 OA
ATOM      5  C   UNL     1      22.265   3.604  22.933  1.00  0.00     0.107 A 
ATOM      6  C   UNL     1      21.559   2.668  22.117  1.00  0.00     0.134 A 
ATOM      7  C   UNL     1      22.029   1.354  22.009  1.00  0.00     0.093 A 
ATOM      8  C   UNL     1      23.146   0.926  22.732  1.00  0.00     0.123 A 
ATOM      9  C   UNL     1      23.809   1.817  23.572  1.00  0.00     0.094 A 
ATOM     10  C   UNL     1      23.385   3.143  23.676  1.00  0.00     0.146 A 
ATOM     11  O   UNL     1      24.056   3.964  24.478  1.00  0.00    -0.456 OA
ENDROOT
BRANCH   1  12
ATOM     12  C   UNL     1      24.563   6.069  25.565  1.00  0.00     0.021 A 
ATOM     13  C   UNL     1      25.307   7.175  25.119  1.00  0.00     0.016 A 
ATOM     14  C   UNL     1      26.055   7.936  26.021  1.00  0.00     0.051 A 
ATOM     15  C   UNL     1      26.073   7.616  27.382  1.00  0.00     0.157 A 
ATOM     16  C   UNL     1      24.571   5.757  26.935  1.00  0.00     0.062 A 
ATOM     17  C   UNL     1      25.320   6.513  27.846  1.00  0.00     0.158 A 
BRANCH  15  18
ATOM     18  O   UNL     1      26.844   8.415  28.229  1.00  0.00    -0.504 OA
ATOM     19  H   UNL     1      27.319   9.256  27.934  1.00  0.00     0.293 HD
ENDBRANCH  15  18
BRANCH  17  20
ATOM     20  O   UNL     1      25.284   6.137  29.191  1.00  0.00    -0.504 OA
ATOM     21  H   UNL     1      25.850   5.401  29.586  1.00  0.00     0.293 HD
ENDBRANCH  17  20
ENDBRANCH   1  12
BRANCH   6  22
ATOM     22  O   UNL     1      20.385   2.971  21.421  1.00  0.00    -0.507 OA
ATOM     23  H   UNL     1      19.497   2.513  21.559  1.00  0.00     0.293 HD
ENDBRANCH   6  22
BRANCH   8  24
ATOM     24  O   UNL     1      23.597  -0.388  22.629  1.00  0.00    -0.508 OA
ATOM     25  H   UNL     1      24.584  -0.605  22.547  1.00  0.00     0.293 HD
ENDBRANCH   8  24
TORSDOF 5
ENDMDL
MODEL 6
REMARK VINA RESULT:    -7.409      1.906      2.415
REMARK INTER + INTRA:          -9.003
REMARK INTER:                  -8.739
REMARK INTRA:                  -0.264
REMARK UNBOUND:                -0.295
REMARK SMILES O=c1cc(-c2ccc(O)c(O)c2)oc2cc(O)cc(O)c12
REMARK SMILES IDX 4 1 3 2 2 3 1 4 21 5 19 6 18 7 16 8 15 9 14 10 13 11 5 12
REMARK SMILES IDX 6 13 7 14 8 15 12 16 10 17 9 18 11 20 20 22 17 24
REMARK H PARENT 9 19 11 21 20 23 17 25
REMARK Flexibility Score: inf
ROOT
ATOM      1  C   UNL     1      22.858   5.635  23.720  1.00  0.00     0.138 A 
ATOM      2  C   UNL     1      21.517   6.045  23.692  1.00  0.00     0.100 A 
ATOM      3  C   UNL     1      20.623   5.418  22.823  1.00  0.00     0.197 A 
ATOM      4  O   UNL     1      19.441   5.849  22.776  1.00  0.00    -0.289 OA
ATOM      5  C   UNL     1      21.067   4.356  22.001  1.00  0.00     0.107 A 
ATOM      6  C   UNL     1      20.235   3.617  21.106  1.00  0.00     0.134 A 
ATOM      7  C   UNL     1      20.811   2.663  20.259  1.00  0.00     0.093 A 
ATOM      8  C   UNL     1      22.178   2.380  20.314  1.00  0.00     0.123 A 
ATOM      9  C   UNL     1      22.989   3.057  21.222  1.00  0.00     0.094 A 
ATOM     10  C   UNL     1      22.451   4.038  22.058  1.00  0.00     0.146 A 
ATOM     11  O   UNL     1      23.262   4.672  22.899  1.00  0.00    -0.456 OA
ENDROOT
BRANCH   1  12
ATOM     12  C   UNL     1      23.852   6.266  24.626  1.00  0.00     0.021 A 
ATOM     13  C   UNL     1      24.865   7.109  24.138  1.00  0.00     0.016 A 
ATOM     14  C   UNL     1      25.780   7.696  25.015  1.00  0.00     0.051 A 
ATOM     15  C   UNL     1      25.702   7.463  26.391  1.00  0.00     0.157 A 
ATOM     16  C   UNL     1      23.766   6.043  26.010  1.00  0.00     0.062 A 
ATOM     17  C   UNL     1      24.680   6.626  26.896  1.00  0.00     0.158 A 
BRANCH  15  18
ATOM     18  O   UNL     1      26.650   8.078  27.211  1.00  0.00    -0.504 OA
ATOM     19  H   UNL     1      27.256   7.579  27.847  1.00  0.00     0.293 HD
ENDBRANCH  15  18
BRANCH  17  20
ATOM     20  O   UNL     1      24.535   6.351  28.258  1.00  0.00    -0.504 OA
ATOM     21  H   UNL     1      25.271   5.980  28.840  1.00  0.00     0.293 HD
ENDBRANCH  17  20
ENDBRANCH   1  12
BRANCH   6  22
ATOM     22  O   UNL     1      18.847   3.763  21.031  1.00  0.00    -0.507 OA
ATOM     23  H   UNL     1      18.318   3.824  20.174  1.00  0.00     0.293 HD
ENDBRANCH   6  22
BRANCH   8  24
ATOM     24  O   UNL     1      22.739   1.418  19.477  1.00  0.00    -0.508 OA
ATOM     25  H   UNL     1      23.001   0.502  19.823  1.00  0.00     0.293 HD
ENDBRANCH   8  24
TORSDOF 5
ENDMDL
MODEL 7
REMARK VINA RESULT:    -7.378      8.804     10.239
REMARK INTER + INTRA:          -8.967
REMARK INTER:                  -8.688
REMARK INTRA:                  -0.279
REMARK UNBOUND:                -0.295
REMARK SMILES O=c1cc(-c2ccc(O)c(O)c2)oc2cc(O)cc(O)c12
REMARK SMILES IDX 4 1 3 2 2 3 1 4 21 5 19 6 18 7 16 8 15 9 14 10 13 11 5 12
REMARK SMILES IDX 6 13 7 14 8 15 12 16 10 17 9 18 11 20 20 22 17 24
REMARK H PARENT 9 19 11 21 20 23 17 25
REMARK Flexibility Score: inf
ROOT
ATOM      1  C   UNL     1      23.806  -4.801  23.769  1.00  0.00     0.138 A 
ATOM      2  C   UNL     1      24.493  -3.766  23.121  1.00  0.00     0.100 A 
ATOM      3  C   UNL     1      23.987  -3.242  21.930  1.00  0.00     0.197 A 
ATOM      4  O   UNL     1      24.658  -2.357  21.339  1.00  0.00    -0.289 OA
ATOM      5  C   UNL     1      22.772  -3.738  21.404  1.00  0.00     0.107 A 
ATOM      6  C   UNL     1      22.140  -3.253  20.218  1.00  0.00     0.134 A 
ATOM      7  C   UNL     1      20.998  -3.900  19.732  1.00  0.00     0.093 A 
ATOM      8  C   UNL     1      20.430  -4.976  20.418  1.00  0.00     0.123 A 
ATOM      9  C   UNL     1      21.008  -5.423  21.604  1.00  0.00     0.094 A 
ATOM     10  C   UNL     1      22.167  -4.820  22.098  1.00  0.00     0.146 A 
ATOM     11  O   UNL     1      22.695  -5.287  23.226  1.00  0.00    -0.456 OA
ENDROOT
BRANCH   1  12
ATOM     12  C   UNL     1      24.297  -5.394  25.039  1.00  0.00     0.021 A 
ATOM     13  C   UNL     1      24.263  -6.780  25.270  1.00  0.00     0.016 A 
ATOM     14  C   UNL     1      24.742  -7.310  26.470  1.00  0.00     0.051 A 
ATOM     15  C   UNL     1      25.269  -6.476  27.460  1.00  0.00     0.157 A 
ATOM     16  C   UNL     1      24.841  -4.558  26.029  1.00  0.00     0.062 A 
ATOM     17  C   UNL     1      25.321  -5.081  27.236  1.00  0.00     0.158 A 
BRANCH  15  18
ATOM     18  O   UNL     1      25.728  -7.070  28.638  1.00  0.00    -0.504 OA
ATOM     19  H   UNL     1      25.466  -7.997  28.941  1.00  0.00     0.293 HD
ENDBRANCH  15  18
BRANCH  17  20
ATOM     20  O   UNL     1      25.839  -4.185  28.175  1.00  0.00    -0.504 OA
ATOM     21  H   UNL     1      25.304  -3.445  28.604  1.00  0.00     0.293 HD
ENDBRANCH  17  20
ENDBRANCH   1  12
BRANCH   6  22
ATOM     22  O   UNL     1      22.577  -2.134  19.504  1.00  0.00    -0.507 OA
ATOM     23  H   UNL     1      23.454  -2.070  19.010  1.00  0.00     0.293 HD
ENDBRANCH   6  22
BRANCH   8  24
ATOM     24  O   UNL     1      19.285  -5.604  19.933  1.00  0.00    -0.508 OA
ATOM     25  H   UNL     1      18.360  -5.346  20.260  1.00  0.00     0.293 HD
ENDBRANCH   8  24
TORSDOF 5
ENDMDL
MODEL 8
REMARK VINA RESULT:    -7.375      8.720     10.625
REMARK INTER + INTRA:          -8.964
REMARK INTER:                  -8.694
REMARK INTRA:                  -0.270
REMARK UNBOUND:                -0.295
REMARK SMILES O=c1cc(-c2ccc(O)c(O)c2)oc2cc(O)cc(O)c12
REMARK SMILES IDX 4 1 3 2 2 3 1 4 21 5 19 6 18 7 16 8 15 9 14 10 13 11 5 12
REMARK SMILES IDX 6 13 7 14 8 15 12 16 10 17 9 18 11 20 20 22 17 24
REMARK H PARENT 9 19 11 21 20 23 17 25
REMARK Flexibility Score: inf
ROOT
ATOM      1  C   UNL     1      23.872  -4.304  20.371  1.00  0.00     0.138 A 
ATOM      2  C   UNL     1      23.110  -4.473  21.536  1.00  0.00     0.100 A 
ATOM      3  C   UNL     1      21.941  -5.234  21.491  1.00  0.00     0.197 A 
ATOM      4  O   UNL     1      21.246  -5.317  22.536  1.00  0.00    -0.289 OA
ATOM      5  C   UNL     1      21.551  -5.854  20.280  1.00  0.00     0.107 A 
ATOM      6  C   UNL     1      20.400  -6.685  20.126  1.00  0.00     0.134 A 
ATOM      7  C   UNL     1      20.051  -7.150  18.852  1.00  0.00     0.093 A 
ATOM      8  C   UNL     1      20.842  -6.862  17.737  1.00  0.00     0.123 A 
ATOM      9  C   UNL     1      21.996  -6.096  17.886  1.00  0.00     0.094 A 
ATOM     10  C   UNL     1      22.354  -5.590  19.138  1.00  0.00     0.146 A 
ATOM     11  O   UNL     1      23.454  -4.851  19.234  1.00  0.00    -0.456 OA
ENDROOT
BRANCH   1  12
ATOM     12  C   UNL     1      25.124  -3.506  20.362  1.00  0.00     0.021 A 
ATOM     13  C   UNL     1      26.347  -4.047  20.796  1.00  0.00     0.016 A 
ATOM     14  C   UNL     1      27.512  -3.276  20.767  1.00  0.00     0.051 A 
ATOM     15  C   UNL     1      27.485  -1.958  20.302  1.00  0.00     0.157 A 
ATOM     16  C   UNL     1      25.102  -2.186  19.881  1.00  0.00     0.062 A 
ATOM     17  C   UNL     1      26.264  -1.406  19.851  1.00  0.00     0.158 A 
BRANCH  15  18
ATOM     18  O   UNL     1      28.684  -1.242  20.303  1.00  0.00    -0.504 OA
ATOM     19  H   UNL     1      29.140  -0.902  19.468  1.00  0.00     0.293 HD
ENDBRANCH  15  18
BRANCH  17  20
ATOM     20  O   UNL     1      26.161  -0.100  19.367  1.00  0.00    -0.504 OA
ATOM     21  H   UNL     1      25.387   0.237  18.813  1.00  0.00     0.293 HD
ENDBRANCH  17  20
ENDBRANCH   1  12
BRANCH   6  22
ATOM     22  O   UNL     1      19.591  -7.102  21.186  1.00  0.00    -0.507 OA
ATOM     23  H   UNL     1      18.667  -6.746  21.382  1.00  0.00     0.293 HD
ENDBRANCH   6  22
BRANCH   8  24
ATOM     24  O   UNL     1      20.495  -7.341  16.476  1.00  0.00    -0.508 OA
ATOM     25  H   UNL     1      19.566  -7.202  16.093  1.00  0.00     0.293 HD
ENDBRANCH   8  24
TORSDOF 5
ENDMDL
MODEL 9
REMARK VINA RESULT:    -7.266      1.708      2.248
REMARK INTER + INTRA:          -8.835
REMARK INTER:                  -8.540
REMARK INTRA:                  -0.295
REMARK UNBOUND:                -0.295
REMARK SMILES O=c1cc(-c2ccc(O)c(O)c2)oc2cc(O)cc(O)c12
REMARK SMILES IDX 4 1 3 2 2 3 1 4 21 5 19 6 18 7 16 8 15 9 14 10 13 11 5 12
REMARK SMILES IDX 6 13 7 14 8 15 12 16 10 17 9 18 11 20 20 22 17 24
REMARK H PARENT 9 19 11 21 20 23 17 25
REMARK Flexibility Score: inf
ROOT
ATOM      1  C   UNL     1      23.806   5.566  25.322  1.00  0.00     0.138 A 
ATOM      2  C   UNL     1      23.798   4.168  25.220  1.00  0.00     0.100 A 
ATOM      3  C   UNL     1      22.947   3.548  24.304  1.00  0.00     0.197 A 
ATOM      4  O   UNL     1      22.917   2.290  24.278  1.00  0.00    -0.289 OA
ATOM      5  C   UNL     1      22.122   4.335  23.466  1.00  0.00     0.107 A 
ATOM      6  C   UNL     1      21.244   3.815  22.468  1.00  0.00     0.134 A 
ATOM      7  C   UNL     1      20.391   4.685  21.779  1.00  0.00     0.093 A 
ATOM      8  C   UNL     1      20.425   6.062  22.009  1.00  0.00     0.123 A 
ATOM      9  C   UNL     1      21.317   6.586  22.942  1.00  0.00     0.094 A 
ATOM     10  C   UNL     1      22.157   5.741  23.670  1.00  0.00     0.146 A 
ATOM     11  O   UNL     1      22.982   6.280  24.563  1.00  0.00    -0.456 OA
ENDROOT
BRANCH   1  12
ATOM     12  C   UNL     1      24.693   6.277  26.278  1.00  0.00     0.021 A 
ATOM     13  C   UNL     1      24.889   5.811  27.590  1.00  0.00     0.016 A 
ATOM     14  C   UNL     1      25.738   6.495  28.464  1.00  0.00     0.051 A 
ATOM     15  C   UNL     1      26.411   7.649  28.050  1.00  0.00     0.157 A 
ATOM     16  C   UNL     1      25.381   7.429  25.860  1.00  0.00     0.062 A 
ATOM     17  C   UNL     1      26.231   8.121  26.730  1.00  0.00     0.158 A 
BRANCH  15  18
ATOM     18  O   UNL     1      27.241   8.286  28.975  1.00  0.00    -0.504 OA
ATOM     19  H   UNL     1      27.500   9.261  28.924  1.00  0.00     0.293 HD
ENDBRANCH  15  18
BRANCH  17  20
ATOM     20  O   UNL     1      26.874   9.262  26.243  1.00  0.00    -0.504 OA
ATOM     21  H   UNL     1      27.389   9.909  26.821  1.00  0.00     0.293 HD
ENDBRANCH  17  20
ENDBRANCH   1  12
BRANCH   6  22
ATOM     22  O   UNL     1      21.191   2.467  22.102  1.00  0.00    -0.507 OA
ATOM     23  H   UNL     1      20.642   2.097  21.340  1.00  0.00     0.293 HD
ENDBRANCH   6  22
BRANCH   8  24
ATOM     24  O   UNL     1      19.583   6.921  21.306  1.00  0.00    -0.508 OA
ATOM     25  H   UNL     1      19.653   7.928  21.401  1.00  0.00     0.293 HD
ENDBRANCH   8  24
TORSDOF 5
ENDMDL
