MODEL 1
REMARK VINA RESULT:     4.405      0.000      0.000
REMARK INTER + INTRA:           5.373
REMARK INTER:                   4.791
REMARK INTRA:                   0.582
REMARK UNBOUND:                 0.582
REMARK SMILES Cc1ccc(C(C)C)c(O)c1
REMARK SMILES IDX 1 1 2 2 11 3 9 4 5 5 4 6 3 7 10 8 6 10 7 11 8 12
REMARK H PARENT 10 9
REMARK Flexibility Score: inf
ROOT
ATOM      1  C   UNL     1     -10.090  -3.502  -5.878  1.00  0.00     0.044 C 
ATOM      2  C   UNL     1      -9.653  -2.083  -6.102  1.00  0.00    -0.047 A 
ATOM      3  C   UNL     1     -10.604  -1.067  -6.256  1.00  0.00     0.049 A 
ATOM      4  C   UNL     1     -10.204   0.266  -6.429  1.00  0.00     0.119 A 
ATOM      5  C   UNL     1      -8.831   0.597  -6.435  1.00  0.00    -0.004 A 
ATOM      6  C   UNL     1      -7.884  -0.431  -6.259  1.00  0.00     0.008 A 
ATOM      7  C   UNL     1      -8.292  -1.755  -6.087  1.00  0.00     0.004 A 
ENDROOT
BRANCH   4   8
ATOM      8  O   UNL     1     -11.173   1.258  -6.590  1.00  0.00    -0.508 OA
ATOM      9  H   UNL     1     -12.163   1.050  -6.534  1.00  0.00     0.293 HD
ENDBRANCH   4   8
BRANCH   5  10
ATOM     10  C   UNL     1      -8.372   2.036  -6.620  1.00  0.00     0.017 C 
ATOM     11  C   UNL     1      -8.248   2.389  -8.107  1.00  0.00     0.012 C 
ATOM     12  C   UNL     1      -9.310   3.012  -5.898  1.00  0.00     0.012 C 
ENDBRANCH   5  10
TORSDOF 2
ENDMDL
MODEL 2
REMARK VINA RESULT:     5.539      2.371      3.239
REMARK INTER + INTRA:           6.606
REMARK INTER:                   6.791
REMARK INTRA:                  -0.185
REMARK UNBOUND:                 0.582
REMARK SMILES Cc1ccc(C(C)C)c(O)c1
REMARK SMILES IDX 1 1 2 2 11 3 9 4 5 5 4 6 3 7 10 8 6 10 7 11 8 12
REMARK H PARENT 10 9
REMARK Flexibility Score: inf
ROOT
ATOM      1  C   UNL     1     -12.368   0.106 -10.609  1.00  0.00     0.044 C 
ATOM      2  C   UNL     1     -11.550   0.499  -9.414  1.00  0.00    -0.047 A 
ATOM      3  C   UNL     1     -12.179   0.907  -8.230  1.00  0.00     0.049 A 
ATOM      4  C   UNL     1     -11.423   1.241  -7.098  1.00  0.00     0.119 A 
ATOM      5  C   UNL     1     -10.013   1.156  -7.138  1.00  0.00    -0.004 A 
ATOM      6  C   UNL     1      -9.393   0.724  -8.327  1.00  0.00     0.008 A 
ATOM      7  C   UNL     1     -10.154   0.394  -9.450  1.00  0.00     0.004 A 
ENDROOT
BRANCH   4   8
ATOM      8  O   UNL     1     -12.074   1.653  -5.935  1.00  0.00    -0.508 OA
ATOM      9  H   UNL     1     -11.687   1.474  -5.015  1.00  0.00     0.293 HD
ENDBRANCH   4   8
BRANCH   5  10
ATOM     10  C   UNL     1      -9.171   1.512  -5.922  1.00  0.00     0.017 C 
ATOM     11  C   UNL     1      -7.875   0.693  -5.888  1.00  0.00     0.012 C 
ATOM     12  C   UNL     1      -8.873   3.016  -5.877  1.00  0.00     0.012 C 
ENDBRANCH   5  10
TORSDOF 2
ENDMDL
MODEL 3
REMARK VINA RESULT:     6.557      2.591      3.695
REMARK INTER + INTRA:           7.713
REMARK INTER:                   7.342
REMARK INTRA:                   0.371
REMARK UNBOUND:                 0.582
REMARK SMILES Cc1ccc(C(C)C)c(O)c1
REMARK SMILES IDX 1 1 2 2 11 3 9 4 5 5 4 6 3 7 10 8 6 10 7 11 8 12
REMARK H PARENT 10 9
REMARK Flexibility Score: inf
ROOT
ATOM      1  C   UNL     1     -12.224   0.155 -10.795  1.00  0.00     0.044 C 
ATOM      2  C   UNL     1     -11.401   0.406  -9.565  1.00  0.00    -0.047 A 
ATOM      3  C   UNL     1     -10.020   0.617  -9.669  1.00  0.00     0.049 A 
ATOM      4  C   UNL     1      -9.250   0.888  -8.529  1.00  0.00     0.119 A 
ATOM      5  C   UNL     1      -9.868   0.963  -7.260  1.00  0.00    -0.004 A 
ATOM      6  C   UNL     1     -11.260   0.770  -7.170  1.00  0.00     0.008 A 
ATOM      7  C   UNL     1     -12.018   0.501  -8.311  1.00  0.00     0.004 A 
ENDROOT
BRANCH   4   8
ATOM      8  O   UNL     1      -7.875   1.085  -8.660  1.00  0.00    -0.508 OA
ATOM      9  H   UNL     1      -7.291   1.312  -7.863  1.00  0.00     0.293 HD
ENDBRANCH   4   8
BRANCH   5  10
ATOM     10  C   UNL     1      -9.054   1.257  -6.008  1.00  0.00     0.017 C 
ATOM     11  C   UNL     1      -7.876   0.285  -5.875  1.00  0.00     0.012 C 
ATOM     12  C   UNL     1      -8.572   2.713  -5.992  1.00  0.00     0.012 C 
ENDBRANCH   5  10
TORSDOF 2
ENDMDL
