MODEL 1
REMARK VINA RESULT:    -4.698      0.000      0.000
REMARK INTER + INTRA:         -13.538
REMARK INTER:                 -10.192
REMARK INTRA:                  -3.346
REMARK UNBOUND:                -3.346
REMARK SMILES CCCCCCCCCCCCCCCCCCCCCC(=O)[O-]
REMARK SMILES IDX 12 1 11 2 10 3 9 4 8 5 7 6 6 7 5 8 4 9 3 10 2 11 1 12 13 13
REMARK SMILES IDX 14 14 15 15 16 16 17 17 18 18 19 19 20 20 21 21 22 22 23 23
REMARK SMILES IDX 24 24
REMARK H PARENT
REMARK Flexibility Score: inf
ROOT
ATOM      1  C   UNL     1     182.087 179.444 180.684  1.00  0.00     0.000 C 
ENDROOT
BRANCH   1   2
ATOM      2  C   UNL     1     182.805 179.909 181.974  1.00  0.00     0.000 C 
BRANCH   2   3
ATOM      3  C   UNL     1     182.157 181.132 182.644  1.00  0.00     0.000 C 
BRANCH   3   4
ATOM      4  C   UNL     1     182.458 181.225 184.148  1.00  0.00    -0.000 C 
BRANCH   4   5
ATOM      5  C   UNL     1     181.696 182.395 184.787  1.00  0.00    -0.000 C 
BRANCH   5   6
ATOM      6  C   UNL     1     181.300 183.445 183.737  1.00  0.00    -0.000 C 
BRANCH   6   7
ATOM      7  C   UNL     1     179.769 183.556 183.562  1.00  0.00    -0.000 C 
BRANCH   7   8
ATOM      8  C   UNL     1     179.286 183.325 182.118  1.00  0.00    -0.000 C 
BRANCH   8   9
ATOM      9  C   UNL     1     177.788 182.988 182.025  1.00  0.00    -0.000 C 
BRANCH   9  10
ATOM     10  C   UNL     1     177.534 181.580 181.446  1.00  0.00    -0.000 C 
BRANCH  10  11
ATOM     11  C   UNL     1     177.543 180.469 182.509  1.00  0.00    -0.003 C 
ATOM     12  C   UNL     1     176.654 179.284 182.143  1.00  0.00     0.004 C 
ENDBRANCH  10  11
ENDBRANCH   9  10
ENDBRANCH   8   9
ENDBRANCH   7   8
ENDBRANCH   6   7
ENDBRANCH   5   6
ENDBRANCH   4   5
ENDBRANCH   3   4
ENDBRANCH   2   3
ENDBRANCH   1   2
BRANCH   1  13
ATOM     13  C   UNL     1     180.656 179.992 180.540  1.00  0.00     0.000 C 
BRANCH  13  14
ATOM     14  C   UNL     1     180.489 181.075 179.457  1.00  0.00     0.000 C 
BRANCH  14  15
ATOM     15  C   UNL     1     181.595 181.032 178.386  1.00  0.00     0.000 C 
BRANCH  15  16
ATOM     16  C   UNL     1     182.330 182.378 178.240  1.00  0.00     0.000 C 
BRANCH  16  17
ATOM     17  C   UNL     1     183.309 182.708 179.384  1.00  0.00     0.000 C 
BRANCH  17  18
ATOM     18  C   UNL     1     182.852 183.826 180.344  1.00  0.00     0.000 C 
BRANCH  18  19
ATOM     19  C   UNL     1     183.986 184.455 181.179  1.00  0.00     0.000 C 
BRANCH  19  20
ATOM     20  C   UNL     1     184.629 183.453 182.157  1.00  0.00     0.006 C 
BRANCH  20  21
ATOM     21  C   UNL     1     185.994 182.953 181.667  1.00  0.00     0.053 C 
BRANCH  21  22
ATOM     22  C   UNL     1     186.074 181.459 181.673  1.00  0.00     0.041 C 
ATOM     23  O   UNL     1     185.814 180.806 180.630  1.00  0.00    -0.550 OA
ATOM     24  O   UNL     1     186.425 180.786 182.836  1.00  0.00    -0.550 OA
ENDBRANCH  21  22
ENDBRANCH  20  21
ENDBRANCH  19  20
ENDBRANCH  18  19
ENDBRANCH  17  18
ENDBRANCH  16  17
ENDBRANCH  15  16
ENDBRANCH  14  15
ENDBRANCH  13  14
ENDBRANCH   1  13
TORSDOF 20
ENDMDL
MODEL 2
REMARK VINA RESULT:    -4.696      2.050      4.518
REMARK INTER + INTRA:         -13.532
REMARK INTER:                 -10.481
REMARK INTRA:                  -3.051
REMARK UNBOUND:                -3.346
REMARK SMILES CCCCCCCCCCCCCCCCCCCCCC(=O)[O-]
REMARK SMILES IDX 12 1 11 2 10 3 9 4 8 5 7 6 6 7 5 8 4 9 3 10 2 11 1 12 13 13
REMARK SMILES IDX 14 14 15 15 16 16 17 17 18 18 19 19 20 20 21 21 22 22 23 23
REMARK SMILES IDX 24 24
REMARK H PARENT
REMARK Flexibility Score: inf
ROOT
ATOM      1  C   UNL     1     181.838 183.685 180.281  1.00  0.00     0.000 C 
ENDROOT
BRANCH   1   2
ATOM      2  C   UNL     1     182.726 182.830 179.346  1.00  0.00     0.000 C 
BRANCH   2   3
ATOM      3  C   UNL     1     181.976 181.685 178.645  1.00  0.00     0.000 C 
BRANCH   3   4
ATOM      4  C   UNL     1     180.747 181.200 179.430  1.00  0.00    -0.000 C 
BRANCH   4   5
ATOM      5  C   UNL     1     181.137 180.106 180.435  1.00  0.00    -0.000 C 
BRANCH   5   6
ATOM      6  C   UNL     1     179.964 179.758 181.365  1.00  0.00    -0.000 C 
BRANCH   6   7
ATOM      7  C   UNL     1     179.344 181.008 182.028  1.00  0.00    -0.000 C 
BRANCH   7   8
ATOM      8  C   UNL     1     177.868 181.244 181.660  1.00  0.00    -0.000 C 
BRANCH   8   9
ATOM      9  C   UNL     1     177.463 182.727 181.694  1.00  0.00    -0.000 C 
BRANCH   9  10
ATOM     10  C   UNL     1     178.120 183.493 182.862  1.00  0.00    -0.000 C 
BRANCH  10  11
ATOM     11  C   UNL     1     177.107 184.053 183.874  1.00  0.00    -0.003 C 
ATOM     12  C   UNL     1     177.761 184.876 184.981  1.00  0.00     0.004 C 
ENDBRANCH  10  11
ENDBRANCH   9  10
ENDBRANCH   8   9
ENDBRANCH   7   8
ENDBRANCH   6   7
ENDBRANCH   5   6
ENDBRANCH   4   5
ENDBRANCH   3   4
ENDBRANCH   2   3
ENDBRANCH   1   2
BRANCH   1  13
ATOM     13  C   UNL     1     182.634 184.651 181.177  1.00  0.00     0.000 C 
BRANCH  13  14
ATOM     14  C   UNL     1     184.161 184.599 180.980  1.00  0.00     0.000 C 
BRANCH  14  15
ATOM     15  C   UNL     1     184.890 183.852 182.113  1.00  0.00     0.000 C 
BRANCH  15  16
ATOM     16  C   UNL     1     186.112 183.061 181.610  1.00  0.00     0.000 C 
BRANCH  16  17
ATOM     17  C   UNL     1     185.876 181.548 181.436  1.00  0.00     0.000 C 
BRANCH  17  18
ATOM     18  C   UNL     1     184.445 181.061 181.748  1.00  0.00     0.000 C 
BRANCH  18  19
ATOM     19  C   UNL     1     184.338 180.142 182.982  1.00  0.00     0.000 C 
BRANCH  19  20
ATOM     20  C   UNL     1     183.203 180.560 183.936  1.00  0.00     0.006 C 
BRANCH  20  21
ATOM     21  C   UNL     1     182.440 181.791 183.431  1.00  0.00     0.053 C 
BRANCH  21  22
ATOM     22  C   UNL     1     181.793 182.543 184.552  1.00  0.00     0.041 C 
ATOM     23  O   UNL     1     180.988 183.479 184.306  1.00  0.00    -0.550 OA
ATOM     24  O   UNL     1     182.090 182.219 185.870  1.00  0.00    -0.550 OA
ENDBRANCH  21  22
ENDBRANCH  20  21
ENDBRANCH  19  20
ENDBRANCH  18  19
ENDBRANCH  17  18
ENDBRANCH  16  17
ENDBRANCH  15  16
ENDBRANCH  14  15
ENDBRANCH  13  14
ENDBRANCH   1  13
TORSDOF 20
ENDMDL
MODEL 3
REMARK VINA RESULT:    -4.675      2.649      6.365
REMARK INTER + INTRA:         -13.488
REMARK INTER:                  -9.874
REMARK INTRA:                  -3.614
REMARK UNBOUND:                -3.346
REMARK SMILES CCCCCCCCCCCCCCCCCCCCCC(=O)[O-]
REMARK SMILES IDX 12 1 11 2 10 3 9 4 8 5 7 6 6 7 5 8 4 9 3 10 2 11 1 12 13 13
REMARK SMILES IDX 14 14 15 15 16 16 17 17 18 18 19 19 20 20 21 21 22 22 23 23
REMARK SMILES IDX 24 24
REMARK H PARENT
REMARK Flexibility Score: inf
ROOT
ATOM      1  C   UNL     1     181.854 181.721 178.826  1.00  0.00     0.000 C 
ENDROOT
BRANCH   1   2
ATOM      2  C   UNL     1     181.403 180.829 180.008  1.00  0.00     0.000 C 
BRANCH   2   3
ATOM      3  C   UNL     1     182.313 179.615 180.259  1.00  0.00     0.000 C 
BRANCH   3   4
ATOM      4  C   UNL     1     182.484 179.288 181.751  1.00  0.00    -0.000 C 
BRANCH   4   5
ATOM      5  C   UNL     1     182.172 180.516 182.620  1.00  0.00    -0.000 C 
BRANCH   5   6
ATOM      6  C   UNL     1     183.336 180.837 183.571  1.00  0.00    -0.000 C 
BRANCH   6   7
ATOM      7  C   UNL     1     184.603 180.014 183.253  1.00  0.00    -0.000 C 
BRANCH   7   8
ATOM      8  C   UNL     1     185.837 180.870 182.916  1.00  0.00    -0.000 C 
BRANCH   8   9
ATOM      9  C   UNL     1     186.076 181.024 181.405  1.00  0.00    -0.000 C 
BRANCH   9  10
ATOM     10  C   UNL     1     186.327 182.490 180.992  1.00  0.00    -0.000 C 
BRANCH  10  11
ATOM     11  C   UNL     1     186.386 183.460 182.184  1.00  0.00    -0.003 C 
ATOM     12  C   UNL     1     187.272 184.676 181.922  1.00  0.00     0.004 C 
ENDBRANCH  10  11
ENDBRANCH   9  10
ENDBRANCH   8   9
ENDBRANCH   7   8
ENDBRANCH   6   7
ENDBRANCH   5   6
ENDBRANCH   4   5
ENDBRANCH   3   4
ENDBRANCH   2   3
ENDBRANCH   1   2
BRANCH   1  13
ATOM     13  C   UNL     1     183.080 182.595 179.144  1.00  0.00     0.000 C 
BRANCH  13  14
ATOM     14  C   UNL     1     183.087 183.200 180.561  1.00  0.00     0.000 C 
BRANCH  14  15
ATOM     15  C   UNL     1     182.767 184.707 180.575  1.00  0.00     0.000 C 
BRANCH  15  16
ATOM     16  C   UNL     1     181.603 185.057 181.520  1.00  0.00     0.000 C 
BRANCH  16  17
ATOM     17  C   UNL     1     181.263 183.969 182.557  1.00  0.00     0.000 C 
BRANCH  17  18
ATOM     18  C   UNL     1     179.858 183.344 182.425  1.00  0.00     0.000 C 
BRANCH  18  19
ATOM     19  C   UNL     1     179.267 183.395 181.001  1.00  0.00     0.000 C 
BRANCH  19  20
ATOM     20  C   UNL     1     178.127 182.379 180.795  1.00  0.00     0.006 C 
BRANCH  20  21
ATOM     21  C   UNL     1     177.645 181.767 182.116  1.00  0.00     0.053 C 
BRANCH  21  22
ATOM     22  C   UNL     1     177.769 180.275 182.117  1.00  0.00     0.041 C 
ATOM     23  O   UNL     1     178.903 179.735 182.039  1.00  0.00    -0.550 OA
ATOM     24  O   UNL     1     176.632 179.482 182.191  1.00  0.00    -0.550 OA
ENDBRANCH  21  22
ENDBRANCH  20  21
ENDBRANCH  19  20
ENDBRANCH  18  19
ENDBRANCH  17  18
ENDBRANCH  16  17
ENDBRANCH  15  16
ENDBRANCH  14  15
ENDBRANCH  13  14
ENDBRANCH   1  13
TORSDOF 20
ENDMDL
MODEL 4
REMARK VINA RESULT:    -4.654      2.221      5.680
REMARK INTER + INTRA:         -13.441
REMARK INTER:                 -10.085
REMARK INTRA:                  -3.357
REMARK UNBOUND:                -3.346
REMARK SMILES CCCCCCCCCCCCCCCCCCCCCC(=O)[O-]
REMARK SMILES IDX 12 1 11 2 10 3 9 4 8 5 7 6 6 7 5 8 4 9 3 10 2 11 1 12 13 13
REMARK SMILES IDX 14 14 15 15 16 16 17 17 18 18 19 19 20 20 21 21 22 22 23 23
REMARK SMILES IDX 24 24
REMARK H PARENT
REMARK Flexibility Score: inf
ROOT
ATOM      1  C   UNL     1     180.181 183.458 182.657  1.00  0.00     0.000 C 
ENDROOT
BRANCH   1   2
ATOM      2  C   UNL     1     180.457 183.595 184.173  1.00  0.00     0.000 C 
BRANCH   2   3
ATOM      3  C   UNL     1     181.560 182.659 184.696  1.00  0.00     0.000 C 
BRANCH   3   4
ATOM      4  C   UNL     1     182.507 182.168 183.590  1.00  0.00    -0.000 C 
BRANCH   4   5
ATOM      5  C   UNL     1     182.738 180.654 183.699  1.00  0.00    -0.000 C 
BRANCH   5   6
ATOM      6  C   UNL     1     183.851 180.188 182.747  1.00  0.00    -0.000 C 
BRANCH   6   7
ATOM      7  C   UNL     1     185.226 180.098 183.445  1.00  0.00    -0.000 C 
BRANCH   7   8
ATOM      8  C   UNL     1     186.362 180.804 182.683  1.00  0.00    -0.000 C 
BRANCH   8   9
ATOM      9  C   UNL     1     185.986 181.177 181.239  1.00  0.00    -0.000 C 
BRANCH   9  10
ATOM     10  C   UNL     1     186.311 182.649 180.904  1.00  0.00    -0.000 C 
BRANCH  10  11
ATOM     11  C   UNL     1     186.532 183.525 182.148  1.00  0.00    -0.003 C 
ATOM     12  C   UNL     1     187.424 184.734 181.877  1.00  0.00     0.004 C 
ENDBRANCH  10  11
ENDBRANCH   9  10
ENDBRANCH   8   9
ENDBRANCH   7   8
ENDBRANCH   6   7
ENDBRANCH   5   6
ENDBRANCH   4   5
ENDBRANCH   3   4
ENDBRANCH   2   3
ENDBRANCH   1   2
BRANCH   1  13
ATOM     13  C   UNL     1     178.813 182.832 182.331  1.00  0.00     0.000 C 
BRANCH  13  14
ATOM     14  C   UNL     1     178.842 181.774 181.212  1.00  0.00     0.000 C 
BRANCH  14  15
ATOM     15  C   UNL     1     179.807 180.610 181.507  1.00  0.00     0.000 C 
BRANCH  15  16
ATOM     16  C   UNL     1     180.792 180.350 180.352  1.00  0.00     0.000 C 
BRANCH  16  17
ATOM     17  C   UNL     1     180.635 181.293 179.143  1.00  0.00     0.000 C 
BRANCH  17  18
ATOM     18  C   UNL     1     181.942 181.641 178.400  1.00  0.00     0.000 C 
BRANCH  18  19
ATOM     19  C   UNL     1     182.940 182.481 179.221  1.00  0.00     0.000 C 
BRANCH  19  20
ATOM     20  C   UNL     1     182.248 183.569 180.064  1.00  0.00     0.006 C 
BRANCH  20  21
ATOM     21  C   UNL     1     183.222 184.283 181.009  1.00  0.00     0.053 C 
BRANCH  21  22
ATOM     22  C   UNL     1     183.045 185.769 180.972  1.00  0.00     0.041 C 
ATOM     23  O   UNL     1     182.014 186.297 181.463  1.00  0.00    -0.550 OA
ATOM     24  O   UNL     1     184.014 186.571 180.382  1.00  0.00    -0.550 OA
ENDBRANCH  21  22
ENDBRANCH  20  21
ENDBRANCH  19  20
ENDBRANCH  18  19
ENDBRANCH  17  18
ENDBRANCH  16  17
ENDBRANCH  15  16
ENDBRANCH  14  15
ENDBRANCH  13  14
ENDBRANCH   1  13
TORSDOF 20
ENDMDL
MODEL 5
REMARK VINA RESULT:    -4.596      1.141      4.915
REMARK INTER + INTRA:         -13.315
REMARK INTER:                  -9.855
REMARK INTRA:                  -3.460
REMARK UNBOUND:                -3.346
REMARK SMILES CCCCCCCCCCCCCCCCCCCCCC(=O)[O-]
REMARK SMILES IDX 12 1 11 2 10 3 9 4 8 5 7 6 6 7 5 8 4 9 3 10 2 11 1 12 13 13
REMARK SMILES IDX 14 14 15 15 16 16 17 17 18 18 19 19 20 20 21 21 22 22 23 23
REMARK SMILES IDX 24 24
REMARK H PARENT
REMARK Flexibility Score: inf
ROOT
ATOM      1  C   UNL     1     177.490 181.336 181.394  1.00  0.00     0.000 C 
ENDROOT
BRANCH   1   2
ATOM      2  C   UNL     1     178.188 180.123 182.055  1.00  0.00     0.000 C 
BRANCH   2   3
ATOM      3  C   UNL     1     179.720 180.243 182.123  1.00  0.00     0.000 C 
BRANCH   3   4
ATOM      4  C   UNL     1     180.439 179.375 181.078  1.00  0.00    -0.000 C 
BRANCH   4   5
ATOM      5  C   UNL     1     181.337 180.235 180.176  1.00  0.00    -0.000 C 
BRANCH   5   6
ATOM      6  C   UNL     1     180.511 181.249 179.369  1.00  0.00    -0.000 C 
BRANCH   6   7
ATOM      7  C   UNL     1     181.394 182.186 178.516  1.00  0.00    -0.000 C 
BRANCH   7   8
ATOM      8  C   UNL     1     182.906 181.976 178.718  1.00  0.00    -0.000 C 
BRANCH   8   9
ATOM      9  C   UNL     1     183.541 183.005 179.668  1.00  0.00    -0.000 C 
BRANCH   9  10
ATOM     10  C   UNL     1     182.490 183.911 180.347  1.00  0.00    -0.000 C 
BRANCH  10  11
ATOM     11  C   UNL     1     183.097 185.149 181.027  1.00  0.00    -0.003 C 
ATOM     12  C   UNL     1     182.050 186.190 181.417  1.00  0.00     0.004 C 
ENDBRANCH  10  11
ENDBRANCH   9  10
ENDBRANCH   8   9
ENDBRANCH   7   8
ENDBRANCH   6   7
ENDBRANCH   5   6
ENDBRANCH   4   5
ENDBRANCH   3   4
ENDBRANCH   2   3
ENDBRANCH   1   2
BRANCH   1  13
ATOM     13  C   UNL     1     178.222 182.670 181.620  1.00  0.00     0.000 C 
BRANCH  13  14
ATOM     14  C   UNL     1     177.719 183.481 182.830  1.00  0.00     0.000 C 
BRANCH  14  15
ATOM     15  C   UNL     1     178.860 184.098 183.659  1.00  0.00     0.000 C 
BRANCH  15  16
ATOM     16  C   UNL     1     180.237 183.505 183.306  1.00  0.00     0.000 C 
BRANCH  16  17
ATOM     17  C   UNL     1     181.142 183.206 184.517  1.00  0.00     0.000 C 
BRANCH  17  18
ATOM     18  C   UNL     1     182.005 181.931 184.400  1.00  0.00     0.000 C 
BRANCH  18  19
ATOM     19  C   UNL     1     182.928 181.896 183.166  1.00  0.00     0.000 C 
BRANCH  19  20
ATOM     20  C   UNL     1     183.621 180.532 182.981  1.00  0.00     0.006 C 
BRANCH  20  21
ATOM     21  C   UNL     1     184.601 180.530 181.802  1.00  0.00     0.053 C 
BRANCH  21  22
ATOM     22  C   UNL     1     185.940 181.077 182.190  1.00  0.00     0.041 C 
ATOM     23  O   UNL     1     186.464 182.004 181.520  1.00  0.00    -0.550 OA
ATOM     24  O   UNL     1     186.615 180.553 183.284  1.00  0.00    -0.550 OA
ENDBRANCH  21  22
ENDBRANCH  20  21
ENDBRANCH  19  20
ENDBRANCH  18  19
ENDBRANCH  17  18
ENDBRANCH  16  17
ENDBRANCH  15  16
ENDBRANCH  14  15
ENDBRANCH  13  14
ENDBRANCH   1  13
TORSDOF 20
ENDMDL
MODEL 6
REMARK VINA RESULT:    -4.594      2.633      5.624
REMARK INTER + INTRA:         -13.312
REMARK INTER:                 -10.262
REMARK INTRA:                  -3.050
REMARK UNBOUND:                -3.346
REMARK SMILES CCCCCCCCCCCCCCCCCCCCCC(=O)[O-]
REMARK SMILES IDX 12 1 11 2 10 3 9 4 8 5 7 6 6 7 5 8 4 9 3 10 2 11 1 12 13 13
REMARK SMILES IDX 14 14 15 15 16 16 17 17 18 18 19 19 20 20 21 21 22 22 23 23
REMARK SMILES IDX 24 24
REMARK H PARENT
REMARK Flexibility Score: inf
ROOT
ATOM      1  C   UNL     1     186.157 182.644 181.809  1.00  0.00     0.000 C 
ENDROOT
BRANCH   1   2
ATOM      2  C   UNL     1     185.360 183.970 181.816  1.00  0.00     0.000 C 
BRANCH   2   3
ATOM      3  C   UNL     1     183.833 183.783 181.817  1.00  0.00     0.000 C 
BRANCH   3   4
ATOM      4  C   UNL     1     183.108 184.744 180.862  1.00  0.00    -0.000 C 
BRANCH   4   5
ATOM      5  C   UNL     1     182.123 183.983 179.963  1.00  0.00    -0.000 C 
BRANCH   5   6
ATOM      6  C   UNL     1     182.829 182.865 179.181  1.00  0.00    -0.000 C 
BRANCH   6   7
ATOM      7  C   UNL     1     181.875 182.122 178.220  1.00  0.00    -0.000 C 
BRANCH   7   8
ATOM      8  C   UNL     1     181.013 181.044 178.902  1.00  0.00    -0.000 C 
BRANCH   8   9
ATOM      9  C   UNL     1     181.639 180.494 180.195  1.00  0.00    -0.000 C 
BRANCH   9  10
ATOM     10  C   UNL     1     180.590 179.877 181.144  1.00  0.00    -0.000 C 
BRANCH  10  11
ATOM     11  C   UNL     1     180.527 178.343 181.072  1.00  0.00    -0.003 C 
ATOM     12  C   UNL     1     181.829 177.670 181.500  1.00  0.00     0.004 C 
ENDBRANCH  10  11
ENDBRANCH   9  10
ENDBRANCH   8   9
ENDBRANCH   7   8
ENDBRANCH   6   7
ENDBRANCH   5   6
ENDBRANCH   4   5
ENDBRANCH   3   4
ENDBRANCH   2   3
ENDBRANCH   1   2
BRANCH   1  13
ATOM     13  C   UNL     1     185.296 181.406 181.500  1.00  0.00     0.000 C 
BRANCH  13  14
ATOM     14  C   UNL     1     185.067 180.468 182.700  1.00  0.00     0.000 C 
BRANCH  14  15
ATOM     15  C   UNL     1     183.580 180.316 183.073  1.00  0.00     0.000 C 
BRANCH  15  16
ATOM     16  C   UNL     1     183.290 180.726 184.529  1.00  0.00     0.000 C 
BRANCH  16  17
ATOM     17  C   UNL     1     182.032 181.596 184.718  1.00  0.00     0.000 C 
BRANCH  17  18
ATOM     18  C   UNL     1     181.608 182.424 183.486  1.00  0.00     0.000 C 
BRANCH  18  19
ATOM     19  C   UNL     1     180.468 183.427 183.751  1.00  0.00     0.000 C 
BRANCH  19  20
ATOM     20  C   UNL     1     179.619 183.706 182.497  1.00  0.00     0.006 C 
BRANCH  20  21
ATOM     21  C   UNL     1     178.206 183.119 182.606  1.00  0.00     0.053 C 
BRANCH  21  22
ATOM     22  C   UNL     1     177.921 182.145 181.505  1.00  0.00     0.041 C 
ATOM     23  O   UNL     1     178.224 182.426 180.317  1.00  0.00    -0.550 OA
ATOM     24  O   UNL     1     177.310 180.931 181.791  1.00  0.00    -0.550 OA
ENDBRANCH  21  22
ENDBRANCH  20  21
ENDBRANCH  19  20
ENDBRANCH  18  19
ENDBRANCH  17  18
ENDBRANCH  16  17
ENDBRANCH  15  16
ENDBRANCH  14  15
ENDBRANCH  13  14
ENDBRANCH   1  13
TORSDOF 20
ENDMDL
MODEL 7
REMARK VINA RESULT:    -4.580      1.501      5.002
REMARK INTER + INTRA:         -13.282
REMARK INTER:                 -10.181
REMARK INTRA:                  -3.101
REMARK UNBOUND:                -3.346
REMARK SMILES CCCCCCCCCCCCCCCCCCCCCC(=O)[O-]
REMARK SMILES IDX 12 1 11 2 10 3 9 4 8 5 7 6 6 7 5 8 4 9 3 10 2 11 1 12 13 13
REMARK SMILES IDX 14 14 15 15 16 16 17 17 18 18 19 19 20 20 21 21 22 22 23 23
REMARK SMILES IDX 24 24
REMARK H PARENT
REMARK Flexibility Score: inf
ROOT
ATOM      1  C   UNL     1     177.420 183.494 182.921  1.00  0.00     0.000 C 
ENDROOT
BRANCH   1   2
ATOM      2  C   UNL     1     177.838 182.527 181.787  1.00  0.00     0.000 C 
BRANCH   2   3
ATOM      3  C   UNL     1     177.532 181.049 182.082  1.00  0.00     0.000 C 
BRANCH   3   4
ATOM      4  C   UNL     1     178.774 180.148 181.998  1.00  0.00    -0.000 C 
BRANCH   4   5
ATOM      5  C   UNL     1     179.872 180.806 181.149  1.00  0.00    -0.000 C 
BRANCH   5   6
ATOM      6  C   UNL     1     180.993 179.809 180.816  1.00  0.00    -0.000 C 
BRANCH   6   7
ATOM      7  C   UNL     1     182.089 180.431 179.923  1.00  0.00    -0.000 C 
BRANCH   7   8
ATOM      8  C   UNL     1     181.546 181.344 178.809  1.00  0.00    -0.000 C 
BRANCH   8   9
ATOM      9  C   UNL     1     182.262 182.703 178.735  1.00  0.00    -0.000 C 
BRANCH   9  10
ATOM     10  C   UNL     1     182.533 183.306 180.130  1.00  0.00    -0.000 C 
BRANCH  10  11
ATOM     11  C   UNL     1     181.631 184.505 180.466  1.00  0.00    -0.003 C 
ATOM     12  C   UNL     1     182.399 185.681 181.064  1.00  0.00     0.004 C 
ENDBRANCH  10  11
ENDBRANCH   9  10
ENDBRANCH   8   9
ENDBRANCH   7   8
ENDBRANCH   6   7
ENDBRANCH   5   6
ENDBRANCH   4   5
ENDBRANCH   3   4
ENDBRANCH   2   3
ENDBRANCH   1   2
BRANCH   1  13
ATOM     13  C   UNL     1     178.604 184.029 183.746  1.00  0.00     0.000 C 
BRANCH  13  14
ATOM     14  C   UNL     1     179.990 183.762 183.127  1.00  0.00     0.000 C 
BRANCH  14  15
ATOM     15  C   UNL     1     180.964 183.075 184.103  1.00  0.00     0.000 C 
BRANCH  15  16
ATOM     16  C   UNL     1     182.120 182.358 183.380  1.00  0.00     0.000 C 
BRANCH  16  17
ATOM     17  C   UNL     1     182.700 181.144 184.133  1.00  0.00     0.000 C 
BRANCH  17  18
ATOM     18  C   UNL     1     183.433 180.109 183.254  1.00  0.00     0.000 C 
BRANCH  18  19
ATOM     19  C   UNL     1     184.923 180.420 183.007  1.00  0.00     0.000 C 
BRANCH  19  20
ATOM     20  C   UNL     1     185.145 181.315 181.772  1.00  0.00     0.006 C 
BRANCH  20  21
ATOM     21  C   UNL     1     186.507 182.021 181.801  1.00  0.00     0.053 C 
BRANCH  21  22
ATOM     22  C   UNL     1     186.361 183.507 181.909  1.00  0.00     0.041 C 
ATOM     23  O   UNL     1     185.247 184.015 182.197  1.00  0.00    -0.550 OA
ATOM     24  O   UNL     1     187.454 184.332 181.677  1.00  0.00    -0.550 OA
ENDBRANCH  21  22
ENDBRANCH  20  21
ENDBRANCH  19  20
ENDBRANCH  18  19
ENDBRANCH  17  18
ENDBRANCH  16  17
ENDBRANCH  15  16
ENDBRANCH  14  15
ENDBRANCH  13  14
ENDBRANCH   1  13
TORSDOF 20
ENDMDL
MODEL 8
REMARK VINA RESULT:    -4.563      1.570      4.090
REMARK INTER + INTRA:         -13.243
REMARK INTER:                  -9.881
REMARK INTRA:                  -3.362
REMARK UNBOUND:                -3.346
REMARK SMILES CCCCCCCCCCCCCCCCCCCCCC(=O)[O-]
REMARK SMILES IDX 12 1 11 2 10 3 9 4 8 5 7 6 6 7 5 8 4 9 3 10 2 11 1 12 13 13
REMARK SMILES IDX 14 14 15 15 16 16 17 17 18 18 19 19 20 20 21 21 22 22 23 23
REMARK SMILES IDX 24 24
REMARK H PARENT
REMARK Flexibility Score: inf
ROOT
ATOM      1  C   UNL     1     182.380 179.315 181.960  1.00  0.00     0.000 C 
ENDROOT
BRANCH   1   2
ATOM      2  C   UNL     1     181.358 179.541 180.820  1.00  0.00     0.000 C 
BRANCH   2   3
ATOM      3  C   UNL     1     180.227 180.520 181.178  1.00  0.00     0.000 C 
BRANCH   3   4
ATOM      4  C   UNL     1     179.162 179.900 182.097  1.00  0.00    -0.000 C 
BRANCH   4   5
ATOM      5  C   UNL     1     177.847 180.689 182.020  1.00  0.00    -0.000 C 
BRANCH   5   6
ATOM      6  C   UNL     1     178.039 182.026 181.288  1.00  0.00    -0.000 C 
BRANCH   6   7
ATOM      7  C   UNL     1     177.449 183.219 182.072  1.00  0.00    -0.000 C 
BRANCH   7   8
ATOM      8  C   UNL     1     178.327 183.694 183.244  1.00  0.00    -0.000 C 
BRANCH   8   9
ATOM      9  C   UNL     1     179.830 183.696 182.914  1.00  0.00    -0.000 C 
BRANCH   9  10
ATOM     10  C   UNL     1     180.709 183.492 184.167  1.00  0.00    -0.000 C 
BRANCH  10  11
ATOM     11  C   UNL     1     181.594 182.237 184.095  1.00  0.00    -0.003 C 
ATOM     12  C   UNL     1     182.029 181.734 185.469  1.00  0.00     0.004 C 
ENDBRANCH  10  11
ENDBRANCH   9  10
ENDBRANCH   8   9
ENDBRANCH   7   8
ENDBRANCH   6   7
ENDBRANCH   5   6
ENDBRANCH   4   5
ENDBRANCH   3   4
ENDBRANCH   2   3
ENDBRANCH   1   2
BRANCH   1  13
ATOM     13  C   UNL     1     183.671 180.137 181.806  1.00  0.00     0.000 C 
BRANCH  13  14
ATOM     14  C   UNL     1     184.496 180.285 183.099  1.00  0.00     0.000 C 
BRANCH  14  15
ATOM     15  C   UNL     1     185.939 180.758 182.843  1.00  0.00     0.000 C 
BRANCH  15  16
ATOM     16  C   UNL     1     186.157 181.239 181.396  1.00  0.00     0.000 C 
BRANCH  16  17
ATOM     17  C   UNL     1     186.209 182.770 181.225  1.00  0.00     0.000 C 
BRANCH  17  18
ATOM     18  C   UNL     1     185.257 183.571 182.138  1.00  0.00     0.000 C 
BRANCH  18  19
ATOM     19  C   UNL     1     184.070 184.228 181.405  1.00  0.00     0.000 C 
BRANCH  19  20
ATOM     20  C   UNL     1     182.872 183.273 181.240  1.00  0.00     0.006 C 
BRANCH  20  21
ATOM     21  C   UNL     1     182.159 183.458 179.895  1.00  0.00     0.053 C 
BRANCH  21  22
ATOM     22  C   UNL     1     182.649 182.486 178.867  1.00  0.00     0.041 C 
ATOM     23  O   UNL     1     183.882 182.278 178.729  1.00  0.00    -0.550 OA
ATOM     24  O   UNL     1     181.743 181.819 178.053  1.00  0.00    -0.550 OA
ENDBRANCH  21  22
ENDBRANCH  20  21
ENDBRANCH  19  20
ENDBRANCH  18  19
ENDBRANCH  17  18
ENDBRANCH  16  17
ENDBRANCH  15  16
ENDBRANCH  14  15
ENDBRANCH  13  14
ENDBRANCH   1  13
TORSDOF 20
ENDMDL
MODEL 9
REMARK VINA RESULT:    -4.527      2.641      6.211
REMARK INTER + INTRA:         -13.166
REMARK INTER:                  -9.626
REMARK INTRA:                  -3.540
REMARK UNBOUND:                -3.346
REMARK SMILES CCCCCCCCCCCCCCCCCCCCCC(=O)[O-]
REMARK SMILES IDX 12 1 11 2 10 3 9 4 8 5 7 6 6 7 5 8 4 9 3 10 2 11 1 12 13 13
REMARK SMILES IDX 14 14 15 15 16 16 17 17 18 18 19 19 20 20 21 21 22 22 23 23
REMARK SMILES IDX 24 24
REMARK H PARENT
REMARK Flexibility Score: inf
ROOT
ATOM      1  C   UNL     1     181.359 184.483 181.978  1.00  0.00     0.000 C 
ENDROOT
BRANCH   1   2
ATOM      2  C   UNL     1     181.553 183.132 182.708  1.00  0.00     0.000 C 
BRANCH   2   3
ATOM      3  C   UNL     1     181.216 183.177 184.207  1.00  0.00     0.000 C 
BRANCH   3   4
ATOM      4  C   UNL     1     181.959 182.109 185.025  1.00  0.00    -0.000 C 
BRANCH   4   5
ATOM      5  C   UNL     1     182.363 180.923 184.137  1.00  0.00    -0.000 C 
BRANCH   5   6
ATOM      6  C   UNL     1     183.832 180.532 184.360  1.00  0.00    -0.000 C 
BRANCH   6   7
ATOM      7  C   UNL     1     184.539 180.119 183.051  1.00  0.00    -0.000 C 
BRANCH   7   8
ATOM      8  C   UNL     1     186.021 180.532 182.983  1.00  0.00    -0.000 C 
BRANCH   8   9
ATOM      9  C   UNL     1     186.375 181.318 181.709  1.00  0.00    -0.000 C 
BRANCH   9  10
ATOM     10  C   UNL     1     185.279 182.332 181.316  1.00  0.00    -0.000 C 
BRANCH  10  11
ATOM     11  C   UNL     1     185.420 183.690 182.022  1.00  0.00    -0.003 C 
ATOM     12  C   UNL     1     186.869 184.158 182.135  1.00  0.00     0.004 C 
ENDBRANCH  10  11
ENDBRANCH   9  10
ENDBRANCH   8   9
ENDBRANCH   7   8
ENDBRANCH   6   7
ENDBRANCH   5   6
ENDBRANCH   4   5
ENDBRANCH   3   4
ENDBRANCH   2   3
ENDBRANCH   1   2
BRANCH   1  13
ATOM     13  C   UNL     1     181.447 184.377 180.445  1.00  0.00     0.000 C 
BRANCH  13  14
ATOM     14  C   UNL     1     182.440 183.316 179.932  1.00  0.00     0.000 C 
BRANCH  14  15
ATOM     15  C   UNL     1     181.872 182.465 178.781  1.00  0.00     0.000 C 
BRANCH  15  16
ATOM     16  C   UNL     1     181.265 181.137 179.270  1.00  0.00     0.000 C 
BRANCH  16  17
ATOM     17  C   UNL     1     182.110 180.388 180.319  1.00  0.00     0.000 C 
BRANCH  17  18
ATOM     18  C   UNL     1     181.376 179.263 181.081  1.00  0.00     0.000 C 
BRANCH  18  19
ATOM     19  C   UNL     1     179.843 179.418 181.126  1.00  0.00     0.000 C 
BRANCH  19  20
ATOM     20  C   UNL     1     179.375 180.376 182.238  1.00  0.00     0.006 C 
BRANCH  20  21
ATOM     21  C   UNL     1     177.972 180.936 181.974  1.00  0.00     0.053 C 
BRANCH  21  22
ATOM     22  C   UNL     1     177.996 182.417 181.755  1.00  0.00     0.041 C 
ATOM     23  O   UNL     1     177.645 183.199 182.676  1.00  0.00    -0.550 OA
ATOM     24  O   UNL     1     178.396 182.933 180.529  1.00  0.00    -0.550 OA
ENDBRANCH  21  22
ENDBRANCH  20  21
ENDBRANCH  19  20
ENDBRANCH  18  19
ENDBRANCH  17  18
ENDBRANCH  16  17
ENDBRANCH  15  16
ENDBRANCH  14  15
ENDBRANCH  13  14
ENDBRANCH   1  13
TORSDOF 20
ENDMDL
