MODEL 1
REMARK VINA RESULT:    -3.271      0.000      0.000
REMARK INTER + INTRA:          -5.129
REMARK INTER:                  -4.992
REMARK INTRA:                  -0.137
REMARK UNBOUND:                -0.137
REMARK SMILES CC1=CCC[C@H](C)C(=O)C[C@@H](C(C)C)C(=O)C1
REMARK SMILES IDX 8 1 9 2 6 3 7 4 5 5 4 6 3 7 2 8 1 9 10 11 11 12 15 13 16 14
REMARK SMILES IDX 17 15 12 17 13 18 14 19
REMARK H PARENT
REMARK Flexibility Score: 70.00
ROOT
ATOM      1  C   UNL     1     -12.052  12.974 -21.575  1.00  0.00     0.136 C 
ATOM      2  O   UNL     1     -13.223  13.315 -21.513  1.00  0.00    -0.299 OA
ENDROOT
BRANCH   1   3
ATOM      3  C   UNL     1     -11.757  11.500 -21.837  1.00  0.00     0.053 C 
ATOM      4  C   UNL     1     -12.643  10.646 -20.920  1.00  0.00     0.016 C 
BRANCH   3   5
ATOM      5  C   UNL     1     -11.902  10.998 -23.302  1.00  0.00     0.015 C 
BRANCH   5   6
ATOM      6  C   UNL     1     -10.934  11.611 -24.330  1.00  0.00     0.028 C 
BRANCH   6   7
ATOM      7  C   UNL     1      -9.487  11.314 -24.023  1.00  0.00    -0.028 C 
ATOM      8  C   UNL     1      -8.488  12.229 -24.029  1.00  0.00    -0.070 CG0
ATOM      9  C   UNL     1      -7.094  11.759 -23.698  1.00  0.00     0.039 C 
ATOM     10  G   UNL     1      -8.718  13.701 -24.322  1.00  0.00     0.000 G0
ENDBRANCH   6   7
ENDBRANCH   5   6
ENDBRANCH   3   5
ENDBRANCH   1   3
BRANCH   1  11
ATOM     11  C   UNL     1     -10.997  14.050 -21.416  1.00  0.00     0.087 C 
BRANCH  11  12
ATOM     12  C   UNL     1     -10.549  14.734 -22.751  1.00  0.00     0.066 C 
BRANCH  12  13
ATOM     13  C   UNL     1      -9.084  14.494 -23.114  1.00  0.00     0.140 C 
ATOM     14  O   UNL     1      -8.195  14.940 -22.404  1.00  0.00    -0.299 OA
BRANCH  13  15
ATOM     15  C   UNL     1      -8.694  13.718 -24.346  1.00  0.00     0.106 CG0
ATOM     16  G   UNL     1      -8.488  12.252 -24.008  1.00  0.00     0.000 G0
ENDBRANCH  13  15
ENDBRANCH  12  13
BRANCH  12  17
ATOM     17  C   UNL     1     -10.963  16.237 -22.828  1.00  0.00    -0.006 C 
ATOM     18  C   UNL     1     -12.371  16.478 -23.399  1.00  0.00     0.008 C 
ATOM     19  C   UNL     1     -10.822  16.929 -21.464  1.00  0.00     0.008 C 
ENDBRANCH  12  17
ENDBRANCH  11  12
ENDBRANCH   1  11
TORSDOF 1
ENDMDL
MODEL 2
REMARK VINA RESULT:    -3.233      5.464      7.135
REMARK INTER + INTRA:          -5.071
REMARK INTER:                  -4.883
REMARK INTRA:                  -0.188
REMARK UNBOUND:                -0.137
REMARK SMILES CC1=CCC[C@H](C)C(=O)C[C@@H](C(C)C)C(=O)C1
REMARK SMILES IDX 8 1 9 2 6 3 7 4 5 5 4 6 3 7 2 8 1 9 10 11 11 12 15 13 16 14
REMARK SMILES IDX 17 15 12 17 13 18 14 19
REMARK H PARENT
REMARK Flexibility Score: 70.00
ROOT
ATOM      1  C   UNL     1      -5.609  13.267 -24.210  1.00  0.00     0.136 C 
ATOM      2  O   UNL     1      -6.311  13.707 -25.108  1.00  0.00    -0.299 OA
ENDROOT
BRANCH   1   3
ATOM      3  C   UNL     1      -5.457  11.752 -24.107  1.00  0.00     0.053 C 
ATOM      4  C   UNL     1      -6.839  11.104 -24.257  1.00  0.00     0.016 C 
BRANCH   3   5
ATOM      5  C   UNL     1      -4.463  11.073 -25.091  1.00  0.00     0.015 C 
BRANCH   5   6
ATOM      6  C   UNL     1      -2.977  11.440 -24.918  1.00  0.00     0.028 C 
BRANCH   6   7
ATOM      7  C   UNL     1      -2.467  11.179 -23.521  1.00  0.00    -0.028 C 
ATOM      8  C   UNL     1      -1.733  12.049 -22.789  1.00  0.00    -0.070 CG0
ATOM      9  C   UNL     1      -1.303  11.626 -21.407  1.00  0.00     0.039 C 
ATOM     10  G   UNL     1      -1.353  13.433 -23.285  1.00  0.00     0.000 G0
ENDBRANCH   6   7
ENDBRANCH   5   6
ENDBRANCH   3   5
ENDBRANCH   1   3
BRANCH   1  11
ATOM     11  C   UNL     1      -4.930  14.267 -23.295  1.00  0.00     0.087 C 
BRANCH  11  12
ATOM     12  C   UNL     1      -3.543  14.786 -23.804  1.00  0.00     0.066 C 
BRANCH  12  13
ATOM     13  C   UNL     1      -2.374  14.452 -22.880  1.00  0.00     0.140 C 
ATOM     14  O   UNL     1      -2.260  15.023 -21.805  1.00  0.00    -0.299 OA
BRANCH  13  15
ATOM     15  C   UNL     1      -1.334  13.429 -23.261  1.00  0.00     0.106 CG0
ATOM     16  G   UNL     1      -1.739  12.051 -22.769  1.00  0.00     0.000 G0
ENDBRANCH  13  15
ENDBRANCH  12  13
BRANCH  12  17
ATOM     17  C   UNL     1      -3.580  16.288 -24.231  1.00  0.00    -0.006 C 
ATOM     18  C   UNL     1      -3.558  16.514 -25.753  1.00  0.00     0.008 C 
ATOM     19  C   UNL     1      -4.778  17.020 -23.606  1.00  0.00     0.008 C 
ENDBRANCH  12  17
ENDBRANCH  11  12
ENDBRANCH   1  11
TORSDOF 1
ENDMDL
MODEL 3
REMARK VINA RESULT:    -3.204     10.634     12.166
REMARK INTER + INTRA:          -5.027
REMARK INTER:                  -4.818
REMARK INTRA:                  -0.208
REMARK UNBOUND:                -0.137
REMARK SMILES CC1=CCC[C@H](C)C(=O)C[C@@H](C(C)C)C(=O)C1
REMARK SMILES IDX 8 1 9 2 6 3 7 4 5 5 4 6 3 7 2 8 1 9 10 11 11 12 15 13 16 14
REMARK SMILES IDX 17 15 12 17 13 18 14 19
REMARK H PARENT
REMARK Flexibility Score: 70.00
ROOT
ATOM      1  C   UNL     1      -7.355  11.045 -11.021  1.00  0.00     0.136 C 
ATOM      2  O   UNL     1      -6.405  11.265 -10.284  1.00  0.00    -0.299 OA
ENDROOT
BRANCH   1   3
ATOM      3  C   UNL     1      -7.676   9.589 -11.346  1.00  0.00     0.053 C 
ATOM      4  C   UNL     1      -6.370   8.784 -11.357  1.00  0.00     0.016 C 
BRANCH   3   5
ATOM      5  C   UNL     1      -8.712   8.872 -10.435  1.00  0.00     0.015 C 
BRANCH   5   6
ATOM      6  C   UNL     1     -10.159   8.822 -10.958  1.00  0.00     0.028 C 
BRANCH   6   7
ATOM      7  C   UNL     1     -10.252   9.048 -12.447  1.00  0.00    -0.028 C 
ATOM      8  C   UNL     1     -10.891  10.086 -13.037  1.00  0.00    -0.070 CG0
ATOM      9  C   UNL     1     -10.888  10.158 -14.543  1.00  0.00     0.039 C 
ATOM     10  G   UNL     1     -11.577  11.188 -12.250  1.00  0.00     0.000 G0
ENDBRANCH   6   7
ENDBRANCH   5   6
ENDBRANCH   3   5
ENDBRANCH   1   3
BRANCH   1  11
ATOM     11  C   UNL     1      -8.147  12.236 -11.522  1.00  0.00     0.087 C 
BRANCH  11  12
ATOM     12  C   UNL     1      -9.607  12.335 -10.967  1.00  0.00     0.066 C 
BRANCH  12  13
ATOM     13  C   UNL     1     -10.686  12.362 -12.048  1.00  0.00     0.140 C 
ATOM     14  O   UNL     1     -10.829  13.354 -12.747  1.00  0.00    -0.299 OA
BRANCH  13  15
ATOM     15  C   UNL     1     -11.601  11.187 -12.278  1.00  0.00     0.106 CG0
ATOM     16  G   UNL     1     -10.875  10.087 -13.031  1.00  0.00     0.000 G0
ENDBRANCH  13  15
ENDBRANCH  12  13
BRANCH  12  17
ATOM     17  C   UNL     1      -9.773  13.467  -9.904  1.00  0.00    -0.006 C 
ATOM     18  C   UNL     1      -9.613  12.998  -8.448  1.00  0.00     0.008 C 
ATOM     19  C   UNL     1      -8.826  14.645 -10.185  1.00  0.00     0.008 C 
ENDBRANCH  12  17
ENDBRANCH  11  12
ENDBRANCH   1  11
TORSDOF 1
ENDMDL
MODEL 4
REMARK VINA RESULT:    -3.169      2.888      5.189
REMARK INTER + INTRA:          -4.973
REMARK INTER:                  -4.877
REMARK INTRA:                  -0.096
REMARK UNBOUND:                -0.137
REMARK SMILES CC1=CCC[C@H](C)C(=O)C[C@@H](C(C)C)C(=O)C1
REMARK SMILES IDX 8 1 9 2 6 3 7 4 5 5 4 6 3 7 2 8 1 9 10 11 11 12 15 13 16 14
REMARK SMILES IDX 17 15 12 17 13 18 14 19
REMARK H PARENT
REMARK Flexibility Score: 70.00
ROOT
ATOM      1  C   UNL     1     -11.797   9.952 -20.597  1.00  0.00     0.136 C 
ATOM      2  O   UNL     1     -10.580   9.862 -20.515  1.00  0.00    -0.299 OA
ENDROOT
BRANCH   1   3
ATOM      3  C   UNL     1     -12.630   9.267 -19.517  1.00  0.00     0.053 C 
ATOM      4  C   UNL     1     -11.887   8.014 -19.036  1.00  0.00     0.016 C 
BRANCH   3   5
ATOM      5  C   UNL     1     -13.037  10.126 -18.287  1.00  0.00     0.015 C 
BRANCH   5   6
ATOM      6  C   UNL     1     -13.792  11.433 -18.588  1.00  0.00     0.028 C 
BRANCH   6   7
ATOM      7  C   UNL     1     -12.922  12.659 -18.450  1.00  0.00    -0.028 C 
ATOM      8  C   UNL     1     -12.683  13.557 -19.435  1.00  0.00    -0.070 CG0
ATOM      9  C   UNL     1     -11.785  14.728 -19.125  1.00  0.00     0.039 C 
ATOM     10  G   UNL     1     -13.303  13.452 -20.817  1.00  0.00     0.000 G0
ENDBRANCH   6   7
ENDBRANCH   5   6
ENDBRANCH   3   5
ENDBRANCH   1   3
BRANCH   1  11
ATOM     11  C   UNL     1     -12.366  10.757 -21.747  1.00  0.00     0.087 C 
BRANCH  11  12
ATOM     12  C   UNL     1     -11.529  12.019 -22.143  1.00  0.00     0.066 C 
BRANCH  12  13
ATOM     13  C   UNL     1     -12.244  13.346 -21.896  1.00  0.00     0.140 C 
ATOM     14  O   UNL     1     -11.957  14.331 -22.561  1.00  0.00    -0.299 OA
BRANCH  13  15
ATOM     15  C   UNL     1     -13.306  13.484 -20.835  1.00  0.00     0.106 CG0
ATOM     16  G   UNL     1     -12.673  13.557 -19.456  1.00  0.00     0.000 G0
ENDBRANCH  13  15
ENDBRANCH  12  13
BRANCH  12  17
ATOM     17  C   UNL     1     -10.913  11.910 -23.573  1.00  0.00    -0.006 C 
ATOM     18  C   UNL     1      -9.533  11.230 -23.618  1.00  0.00     0.008 C 
ATOM     19  C   UNL     1     -11.875  11.215 -24.548  1.00  0.00     0.008 C 
ENDBRANCH  12  17
ENDBRANCH  11  12
ENDBRANCH   1  11
TORSDOF 1
ENDMDL
MODEL 5
REMARK VINA RESULT:    -3.009     12.581     13.895
REMARK INTER + INTRA:          -4.729
REMARK INTER:                  -4.613
REMARK INTRA:                  -0.116
REMARK UNBOUND:                -0.137
REMARK SMILES CC1=CCC[C@H](C)C(=O)C[C@@H](C(C)C)C(=O)C1
REMARK SMILES IDX 8 1 9 2 6 3 7 4 5 5 4 6 3 7 2 8 1 9 10 11 11 12 15 13 16 14
REMARK SMILES IDX 17 15 12 17 13 18 14 19
REMARK H PARENT
REMARK Flexibility Score: 70.00
ROOT
ATOM      1  C   UNL     1      -1.422  10.769 -13.297  1.00  0.00     0.136 C 
ATOM      2  O   UNL     1      -0.256  11.137 -13.304  1.00  0.00    -0.299 OA
ENDROOT
BRANCH   1   3
ATOM      3  C   UNL     1      -1.693   9.275 -13.446  1.00  0.00     0.053 C 
ATOM      4  C   UNL     1      -0.669   8.679 -14.421  1.00  0.00     0.016 C 
BRANCH   3   5
ATOM      5  C   UNL     1      -1.714   8.426 -12.144  1.00  0.00     0.015 C 
BRANCH   5   6
ATOM      6  C   UNL     1      -2.946   8.601 -11.237  1.00  0.00     0.028 C 
BRANCH   6   7
ATOM      7  C   UNL     1      -4.221   8.820 -12.015  1.00  0.00    -0.028 C 
ATOM      8  C   UNL     1      -5.111   9.812 -11.783  1.00  0.00    -0.070 CG0
ATOM      9  C   UNL     1      -6.337   9.885 -12.657  1.00  0.00     0.039 C 
ATOM     10  G   UNL     1      -4.912  10.865 -10.707  1.00  0.00     0.000 G0
ENDBRANCH   6   7
ENDBRANCH   5   6
ENDBRANCH   3   5
ENDBRANCH   1   3
BRANCH   1  11
ATOM     11  C   UNL     1      -2.491  11.826 -13.111  1.00  0.00     0.087 C 
BRANCH  11  12
ATOM     12  C   UNL     1      -2.805  12.189 -11.621  1.00  0.00     0.066 C 
BRANCH  12  13
ATOM     13  C   UNL     1      -4.288  12.120 -11.260  1.00  0.00     0.140 C 
ATOM     14  O   UNL     1      -5.004  13.097 -11.421  1.00  0.00    -0.299 OA
BRANCH  13  15
ATOM     15  C   UNL     1      -4.904  10.866 -10.696  1.00  0.00     0.106 CG0
ATOM     16  G   UNL     1      -5.106   9.833 -11.790  1.00  0.00     0.000 G0
ENDBRANCH  13  15
ENDBRANCH  12  13
BRANCH  12  17
ATOM     17  C   UNL     1      -2.123  13.518 -11.167  1.00  0.00    -0.006 C 
ATOM     18  C   UNL     1      -0.784  13.325 -10.434  1.00  0.00     0.008 C 
ATOM     19  C   UNL     1      -1.945  14.489 -12.344  1.00  0.00     0.008 C 
ENDBRANCH  12  17
ENDBRANCH  11  12
ENDBRANCH   1  11
TORSDOF 1
ENDMDL
MODEL 6
REMARK VINA RESULT:    -2.950      6.032      7.984
REMARK INTER + INTRA:          -4.638
REMARK INTER:                  -4.552
REMARK INTRA:                  -0.087
REMARK UNBOUND:                -0.137
REMARK SMILES CC1=CCC[C@H](C)C(=O)C[C@@H](C(C)C)C(=O)C1
REMARK SMILES IDX 8 1 9 2 6 3 7 4 5 5 4 6 3 7 2 8 1 9 10 11 11 12 15 13 16 14
REMARK SMILES IDX 17 15 12 17 13 18 14 19
REMARK H PARENT
REMARK Flexibility Score: 70.00
ROOT
ATOM      1  C   UNL     1     -12.481  10.539 -14.371  1.00  0.00     0.136 C 
ATOM      2  O   UNL     1     -12.871  10.687 -13.222  1.00  0.00    -0.299 OA
ENDROOT
BRANCH   1   3
ATOM      3  C   UNL     1     -12.327   9.112 -14.888  1.00  0.00     0.053 C 
ATOM      4  C   UNL     1     -11.372   8.349 -13.960  1.00  0.00     0.016 C 
BRANCH   3   5
ATOM      5  C   UNL     1     -13.629   8.283 -15.078  1.00  0.00     0.015 C 
BRANCH   5   6
ATOM      6  C   UNL     1     -14.257   8.314 -16.483  1.00  0.00     0.028 C 
BRANCH   6   7
ATOM      7  C   UNL     1     -13.257   8.645 -17.565  1.00  0.00    -0.028 C 
ATOM      8  C   UNL     1     -13.221   9.806 -18.259  1.00  0.00    -0.070 CG0
ATOM      9  C   UNL     1     -12.152   9.972 -19.310  1.00  0.00     0.039 C 
ATOM     10  G   UNL     1     -14.184  10.952 -18.005  1.00  0.00     0.000 G0
ENDBRANCH   6   7
ENDBRANCH   5   6
ENDBRANCH   3   5
ENDBRANCH   1   3
BRANCH   1  11
ATOM     11  C   UNL     1     -12.214  11.787 -15.188  1.00  0.00     0.087 C 
BRANCH  11  12
ATOM     12  C   UNL     1     -13.469  12.381 -15.910  1.00  0.00     0.066 C 
BRANCH  12  13
ATOM     13  C   UNL     1     -13.488  12.150 -17.420  1.00  0.00     0.140 C 
ATOM     14  O   UNL     1     -12.930  12.940 -18.168  1.00  0.00    -0.299 OA
BRANCH  13  15
ATOM     15  C   UNL     1     -14.191  10.964 -18.028  1.00  0.00     0.106 CG0
ATOM     16  G   UNL     1     -13.213   9.825 -18.255  1.00  0.00     0.000 G0
ENDBRANCH  13  15
ENDBRANCH  12  13
BRANCH  12  17
ATOM     17  C   UNL     1     -13.750  13.864 -15.512  1.00  0.00    -0.006 C 
ATOM     18  C   UNL     1     -15.034  14.067 -14.687  1.00  0.00     0.008 C 
ATOM     19  C   UNL     1     -12.550  14.486 -14.780  1.00  0.00     0.008 C 
ENDBRANCH  12  17
ENDBRANCH  11  12
ENDBRANCH   1  11
TORSDOF 1
ENDMDL
MODEL 7
REMARK VINA RESULT:    -2.825     10.479     11.780
REMARK INTER + INTRA:          -4.448
REMARK INTER:                  -4.456
REMARK INTRA:                   0.008
REMARK UNBOUND:                -0.137
REMARK SMILES CC1=CCC[C@H](C)C(=O)C[C@@H](C(C)C)C(=O)C1
REMARK SMILES IDX 8 1 9 2 6 3 7 4 5 5 4 6 3 7 2 8 1 9 10 11 11 12 15 13 16 14
REMARK SMILES IDX 17 15 12 17 13 18 14 19
REMARK H PARENT
REMARK Flexibility Score: 70.00
ROOT
ATOM      1  C   UNL     1     -10.815  11.948 -12.528  1.00  0.00     0.136 C 
ATOM      2  O   UNL     1     -10.330  12.497 -13.507  1.00  0.00    -0.299 OA
ENDROOT
BRANCH   1   3
ATOM      3  C   UNL     1     -11.922  10.925 -12.766  1.00  0.00     0.053 C 
ATOM      4  C   UNL     1     -12.997  11.557 -13.660  1.00  0.00     0.016 C 
BRANCH   3   5
ATOM      5  C   UNL     1     -11.501   9.553 -13.363  1.00  0.00     0.015 C 
BRANCH   5   6
ATOM      6  C   UNL     1     -10.630   8.658 -12.464  1.00  0.00     0.028 C 
BRANCH   6   7
ATOM      7  C   UNL     1      -9.154   8.803 -12.746  1.00  0.00    -0.028 C 
ATOM      8  C   UNL     1      -8.235   9.251 -11.858  1.00  0.00    -0.070 CG0
ATOM      9  C   UNL     1      -6.798   9.335 -12.307  1.00  0.00     0.039 C 
ATOM     10  G   UNL     1      -8.584   9.640 -10.433  1.00  0.00     0.000 G0
ENDBRANCH   6   7
ENDBRANCH   5   6
ENDBRANCH   3   5
ENDBRANCH   1   3
BRANCH   1  11
ATOM     11  C   UNL     1     -10.254  12.312 -11.168  1.00  0.00     0.087 C 
BRANCH  11  12
ATOM     12  C   UNL     1      -8.695  12.218 -11.054  1.00  0.00     0.066 C 
BRANCH  12  13
ATOM     13  C   UNL     1      -8.202  11.084 -10.157  1.00  0.00     0.140 C 
ATOM     14  O   UNL     1      -7.485  11.328  -9.198  1.00  0.00    -0.299 OA
BRANCH  13  15
ATOM     15  C   UNL     1      -8.572   9.648 -10.427  1.00  0.00     0.106 CG0
ATOM     16  G   UNL     1      -8.242   9.274 -11.861  1.00  0.00     0.000 G0
ENDBRANCH  13  15
ENDBRANCH  12  13
BRANCH  12  17
ATOM     17  C   UNL     1      -8.030  13.592 -10.729  1.00  0.00    -0.006 C 
ATOM     18  C   UNL     1      -7.677  14.435 -11.967  1.00  0.00     0.008 C 
ATOM     19  C   UNL     1      -8.889  14.417  -9.758  1.00  0.00     0.008 C 
ENDBRANCH  12  17
ENDBRANCH  11  12
ENDBRANCH   1  11
TORSDOF 1
ENDMDL
MODEL 8
REMARK VINA RESULT:    -2.781      5.408      7.757
REMARK INTER + INTRA:          -4.382
REMARK INTER:                  -4.225
REMARK INTRA:                  -0.156
REMARK UNBOUND:                -0.137
REMARK SMILES CC1=CCC[C@H](C)C(=O)C[C@@H](C(C)C)C(=O)C1
REMARK SMILES IDX 8 1 9 2 6 3 7 4 5 5 4 6 3 7 2 8 1 9 10 11 11 12 15 13 16 14
REMARK SMILES IDX 17 15 12 17 13 18 14 19
REMARK H PARENT
REMARK Flexibility Score: 70.00
ROOT
ATOM      1  C   UNL     1     -13.146   9.562 -17.687  1.00  0.00     0.136 C 
ATOM      2  O   UNL     1     -12.173   8.901 -18.021  1.00  0.00    -0.299 OA
ENDROOT
BRANCH   1   3
ATOM      3  C   UNL     1     -13.845   9.185 -16.384  1.00  0.00     0.053 C 
ATOM      4  C   UNL     1     -14.240   7.703 -16.444  1.00  0.00     0.016 C 
BRANCH   3   5
ATOM      5  C   UNL     1     -13.072   9.455 -15.063  1.00  0.00     0.015 C 
BRANCH   5   6
ATOM      6  C   UNL     1     -12.518  10.880 -14.877  1.00  0.00     0.028 C 
BRANCH   6   7
ATOM      7  C   UNL     1     -13.605  11.912 -14.694  1.00  0.00    -0.028 C 
ATOM      8  C   UNL     1     -13.679  13.088 -15.360  1.00  0.00    -0.070 CG0
ATOM      9  C   UNL     1     -14.835  14.006 -15.053  1.00  0.00     0.039 C 
ATOM     10  G   UNL     1     -12.672  13.503 -16.418  1.00  0.00     0.000 G0
ENDBRANCH   6   7
ENDBRANCH   5   6
ENDBRANCH   3   5
ENDBRANCH   1   3
BRANCH   1  11
ATOM     11  C   UNL     1     -13.554  10.714 -18.583  1.00  0.00     0.087 C 
BRANCH  11  12
ATOM     12  C   UNL     1     -12.585  11.943 -18.554  1.00  0.00     0.066 C 
BRANCH  12  13
ATOM     13  C   UNL     1     -13.138  13.157 -17.809  1.00  0.00     0.140 C 
ATOM     14  O   UNL     1     -13.983  13.866 -18.334  1.00  0.00    -0.299 OA
BRANCH  13  15
ATOM     15  C   UNL     1     -12.661  13.517 -16.425  1.00  0.00     0.106 CG0
ATOM     16  G   UNL     1     -13.677  13.086 -15.383  1.00  0.00     0.000 G0
ENDBRANCH  13  15
ENDBRANCH  12  13
BRANCH  12  17
ATOM     17  C   UNL     1     -12.014  12.296 -19.964  1.00  0.00    -0.006 C 
ATOM     18  C   UNL     1     -10.561  12.801 -19.951  1.00  0.00     0.008 C 
ATOM     19  C   UNL     1     -12.152  11.115 -20.937  1.00  0.00     0.008 C 
ENDBRANCH  12  17
ENDBRANCH  11  12
ENDBRANCH   1  11
TORSDOF 1
ENDMDL
MODEL 9
REMARK VINA RESULT:    -2.724      7.481     10.261
REMARK INTER + INTRA:          -4.293
REMARK INTER:                  -4.299
REMARK INTRA:                   0.005
REMARK UNBOUND:                -0.137
REMARK SMILES CC1=CCC[C@H](C)C(=O)C[C@@H](C(C)C)C(=O)C1
REMARK SMILES IDX 8 1 9 2 6 3 7 4 5 5 4 6 3 7 2 8 1 9 10 11 11 12 15 13 16 14
REMARK SMILES IDX 17 15 12 17 13 18 14 19
REMARK H PARENT
REMARK Flexibility Score: 70.00
ROOT
ATOM      1  C   UNL     1       0.002  10.495 -20.423  1.00  0.00     0.136 C 
ATOM      2  O   UNL     1      -0.170   9.916 -19.360  1.00  0.00    -0.299 OA
ENDROOT
BRANCH   1   3
ATOM      3  C   UNL     1      -0.300   9.723 -21.705  1.00  0.00     0.053 C 
ATOM      4  C   UNL     1       0.045   8.244 -21.487  1.00  0.00     0.016 C 
BRANCH   3   5
ATOM      5  C   UNL     1      -1.742   9.834 -22.275  1.00  0.00     0.015 C 
BRANCH   5   6
ATOM      6  C   UNL     1      -2.026  11.050 -23.176  1.00  0.00     0.028 C 
BRANCH   6   7
ATOM      7  C   UNL     1      -3.094  11.958 -22.616  1.00  0.00    -0.028 C 
ATOM      8  C   UNL     1      -2.863  13.143 -22.003  1.00  0.00    -0.070 CG0
ATOM      9  C   UNL     1      -4.049  13.925 -21.500  1.00  0.00     0.039 C 
ATOM     10  G   UNL     1      -1.471  13.726 -21.831  1.00  0.00     0.000 G0
ENDBRANCH   6   7
ENDBRANCH   5   6
ENDBRANCH   3   5
ENDBRANCH   1   3
BRANCH   1  11
ATOM     11  C   UNL     1       0.471  11.934 -20.372  1.00  0.00     0.087 C 
BRANCH  11  12
ATOM     12  C   UNL     1      -0.441  12.894 -19.537  1.00  0.00     0.066 C 
BRANCH  12  13
ATOM     13  C   UNL     1      -1.161  13.953 -20.370  1.00  0.00     0.140 C 
ATOM     14  O   UNL     1      -1.504  15.008 -19.856  1.00  0.00    -0.299 OA
BRANCH  13  15
ATOM     15  C   UNL     1      -1.474  13.732 -21.827  1.00  0.00     0.106 CG0
ATOM     16  G   UNL     1      -2.865  13.146 -21.990  1.00  0.00     0.000 G0
ENDBRANCH  13  15
ENDBRANCH  12  13
BRANCH  12  17
ATOM     17  C   UNL     1       0.286  13.484 -18.288  1.00  0.00    -0.006 C 
ATOM     18  C   UNL     1       0.431  12.498 -17.115  1.00  0.00     0.008 C 
ATOM     19  C   UNL     1       1.659  14.065 -18.660  1.00  0.00     0.008 C 
ENDBRANCH  12  17
ENDBRANCH  11  12
ENDBRANCH   1  11
TORSDOF 1
ENDMDL
