MODEL 1
REMARK VINA RESULT:    -1.832      0.000      0.000
REMARK INTER + INTRA:          -1.832
REMARK INTER:                  -1.832
REMARK INTRA:                   0.000
REMARK UNBOUND:                 0.000
REMARK SMILES CC(=O)[O-]
REMARK SMILES IDX 1 1 2 2 3 3 4 4
REMARK H PARENT
REMARK Flexibility Score: inf
ROOT
ATOM      1  C   UNL     1      20.203 -10.166  -1.357  1.00  0.00     0.063 C 
ATOM      2  C   UNL     1      18.954 -10.272  -2.166  1.00  0.00     0.038 C 
ATOM      3  O   UNL     1      18.464  -9.247  -2.708  1.00  0.00    -0.550 OA
ATOM      4  O   UNL     1      18.298 -11.491  -2.275  1.00  0.00    -0.550 OA
ENDROOT
TORSDOF 0
ENDMDL
MODEL 2
REMARK VINA RESULT:    -1.802     21.816     21.870
REMARK INTER + INTRA:          -1.802
REMARK INTER:                  -1.802
REMARK INTRA:                   0.000
REMARK UNBOUND:                 0.000
REMARK SMILES CC(=O)[O-]
REMARK SMILES IDX 1 1 2 2 3 3 4 4
REMARK H PARENT
REMARK Flexibility Score: inf
ROOT
ATOM      1  C   UNL     1       5.051  -8.452  15.190  1.00  0.00     0.063 C 
ATOM      2  C   UNL     1       4.950  -7.241  14.324  1.00  0.00     0.038 C 
ATOM      3  O   UNL     1       4.348  -6.217  14.739  1.00  0.00    -0.550 OA
ATOM      4  O   UNL     1       5.473  -7.261  13.038  1.00  0.00    -0.550 OA
ENDROOT
TORSDOF 0
ENDMDL
MODEL 3
REMARK VINA RESULT:    -1.787     13.489     13.980
REMARK INTER + INTRA:          -1.787
REMARK INTER:                  -1.787
REMARK INTRA:                   0.000
REMARK UNBOUND:                 0.000
REMARK SMILES CC(=O)[O-]
REMARK SMILES IDX 1 1 2 2 3 3 4 4
REMARK H PARENT
REMARK Flexibility Score: inf
ROOT
ATOM      1  C   UNL     1      17.840 -17.705   9.943  1.00  0.00     0.063 C 
ATOM      2  C   UNL     1      18.592 -16.455  10.256  1.00  0.00     0.038 C 
ATOM      3  O   UNL     1      19.130 -16.308  11.384  1.00  0.00    -0.550 OA
ATOM      4  O   UNL     1      18.653 -15.429   9.323  1.00  0.00    -0.550 OA
ENDROOT
TORSDOF 0
ENDMDL
MODEL 4
REMARK VINA RESULT:    -1.740     13.653     14.100
REMARK INTER + INTRA:          -1.740
REMARK INTER:                  -1.740
REMARK INTRA:                   0.000
REMARK UNBOUND:                 0.000
REMARK SMILES CC(=O)[O-]
REMARK SMILES IDX 1 1 2 2 3 3 4 4
REMARK H PARENT
REMARK Flexibility Score: inf
ROOT
ATOM      1  C   UNL     1      17.712 -17.750   9.986  1.00  0.00     0.063 C 
ATOM      2  C   UNL     1      18.629 -16.618  10.310  1.00  0.00     0.038 C 
ATOM      3  O   UNL     1      18.682 -15.614   9.553  1.00  0.00    -0.550 OA
ATOM      4  O   UNL     1      19.465 -16.695  11.415  1.00  0.00    -0.550 OA
ENDROOT
TORSDOF 0
ENDMDL
MODEL 5
REMARK VINA RESULT:    -1.721      1.408      2.157
REMARK INTER + INTRA:          -1.721
REMARK INTER:                  -1.721
REMARK INTRA:                   0.000
REMARK UNBOUND:                 0.000
REMARK SMILES CC(=O)[O-]
REMARK SMILES IDX 1 1 2 2 3 3 4 4
REMARK H PARENT
REMARK Flexibility Score: inf
ROOT
ATOM      1  C   UNL     1      18.584  -9.412  -2.955  1.00  0.00     0.063 C 
ATOM      2  C   UNL     1      19.122 -10.412  -1.988  1.00  0.00     0.038 C 
ATOM      3  O   UNL     1      18.603 -11.556  -1.909  1.00  0.00    -0.550 OA
ATOM      4  O   UNL     1      20.161 -10.065  -1.134  1.00  0.00    -0.550 OA
ENDROOT
TORSDOF 0
ENDMDL
MODEL 6
REMARK VINA RESULT:    -1.698     10.467     10.976
REMARK INTER + INTRA:          -1.698
REMARK INTER:                  -1.698
REMARK INTRA:                   0.000
REMARK UNBOUND:                 0.000
REMARK SMILES CC(=O)[O-]
REMARK SMILES IDX 1 1 2 2 3 3 4 4
REMARK H PARENT
REMARK Flexibility Score: inf
ROOT
ATOM      1  C   UNL     1      13.840   0.468  -2.394  1.00  0.00     0.063 C 
ATOM      2  C   UNL     1      15.071  -0.277  -2.002  1.00  0.00     0.038 C 
ATOM      3  O   UNL     1      15.377  -0.395  -0.787  1.00  0.00    -0.550 OA
ATOM      4  O   UNL     1      15.912  -0.793  -2.979  1.00  0.00    -0.550 OA
ENDROOT
TORSDOF 0
ENDMDL
MODEL 7
REMARK VINA RESULT:    -1.691      1.431      1.884
REMARK INTER + INTRA:          -1.691
REMARK INTER:                  -1.691
REMARK INTRA:                   0.000
REMARK UNBOUND:                 0.000
REMARK SMILES CC(=O)[O-]
REMARK SMILES IDX 1 1 2 2 3 3 4 4
REMARK H PARENT
REMARK Flexibility Score: inf
ROOT
ATOM      1  C   UNL     1      20.134 -10.212  -1.531  1.00  0.00     0.063 C 
ATOM      2  C   UNL     1      19.437 -11.530  -1.576  1.00  0.00     0.038 C 
ATOM      3  O   UNL     1      18.371 -11.658  -2.232  1.00  0.00    -0.550 OA
ATOM      4  O   UNL     1      19.933 -12.604  -0.849  1.00  0.00    -0.550 OA
ENDROOT
TORSDOF 0
ENDMDL
MODEL 8
REMARK VINA RESULT:    -1.688     10.632     11.173
REMARK INTER + INTRA:          -1.688
REMARK INTER:                  -1.688
REMARK INTRA:                   0.000
REMARK UNBOUND:                 0.000
REMARK SMILES CC(=O)[O-]
REMARK SMILES IDX 1 1 2 2 3 3 4 4
REMARK H PARENT
REMARK Flexibility Score: inf
ROOT
ATOM      1  C   UNL     1      15.243  -0.295  -1.326  1.00  0.00     0.063 C 
ATOM      2  C   UNL     1      14.050  -0.228  -2.220  1.00  0.00     0.038 C 
ATOM      3  O   UNL     1      13.405   0.846  -2.333  1.00  0.00    -0.550 OA
ATOM      4  O   UNL     1      13.617  -1.367  -2.887  1.00  0.00    -0.550 OA
ENDROOT
TORSDOF 0
ENDMDL
MODEL 9
REMARK VINA RESULT:    -1.605     11.635     11.991
REMARK INTER + INTRA:          -1.605
REMARK INTER:                  -1.605
REMARK INTRA:                   0.000
REMARK UNBOUND:                 0.000
REMARK SMILES CC(=O)[O-]
REMARK SMILES IDX 1 1 2 2 3 3 4 4
REMARK H PARENT
REMARK Flexibility Score: inf
ROOT
ATOM      1  C   UNL     1      15.165  -0.453  -1.551  1.00  0.00     0.063 C 
ATOM      2  C   UNL     1      15.062   0.957  -2.026  1.00  0.00     0.038 C 
ATOM      3  O   UNL     1      14.018   1.353  -2.607  1.00  0.00    -0.550 OA
ATOM      4  O   UNL     1      16.138   1.821  -1.877  1.00  0.00    -0.550 OA
ENDROOT
TORSDOF 0
ENDMDL
