MODEL 1
REMARK VINA RESULT:    -4.137      0.000      0.000
REMARK INTER + INTRA:          -7.670
REMARK INTER:                  -6.314
REMARK INTRA:                  -1.356
REMARK UNBOUND:                -1.356
REMARK SMILES CCCCCCCCCCC(=O)[O-]
REMARK SMILES IDX 7 1 8 2 9 3 10 4 11 5 12 6 13 7 6 8 5 9 4 10 3 11 2 12 1 13
REMARK H PARENT
REMARK Flexibility Score: inf
ROOT
ATOM      1  C   UNL     1     -39.024  18.823 -29.118  1.00  0.00     0.000 C 
ENDROOT
BRANCH   1   2
ATOM      2  C   UNL     1     -37.802  18.766 -28.193  1.00  0.00     0.000 C 
BRANCH   2   3
ATOM      3  C   UNL     1     -36.785  17.730 -28.686  1.00  0.00     0.006 C 
BRANCH   3   4
ATOM      4  C   UNL     1     -37.130  17.249 -30.098  1.00  0.00     0.053 C 
BRANCH   4   5
ATOM      5  C   UNL     1     -36.286  16.073 -30.472  1.00  0.00     0.041 C 
ATOM      6  O   UNL     1     -35.234  16.235 -31.143  1.00  0.00    -0.550 OA
ATOM      7  O   UNL     1     -36.688  14.789 -30.122  1.00  0.00    -0.550 OA
ENDBRANCH   4   5
ENDBRANCH   3   4
ENDBRANCH   2   3
ENDBRANCH   1   2
BRANCH   1   8
ATOM      8  C   UNL     1     -39.515  20.268 -29.291  1.00  0.00     0.000 C 
BRANCH   8   9
ATOM      9  C   UNL     1     -38.521  21.146 -30.068  1.00  0.00    -0.000 C 
BRANCH   9  10
ATOM     10  C   UNL     1     -38.408  20.742 -31.548  1.00  0.00    -0.000 C 
BRANCH  10  11
ATOM     11  C   UNL     1     -36.950  20.534 -31.992  1.00  0.00    -0.000 C 
BRANCH  11  12
ATOM     12  C   UNL     1     -35.938  20.907 -30.899  1.00  0.00    -0.003 C 
ATOM     13  C   UNL     1     -34.750  19.949 -30.901  1.00  0.00     0.004 C 
ENDBRANCH  11  12
ENDBRANCH  10  11
ENDBRANCH   9  10
ENDBRANCH   8   9
ENDBRANCH   1   8
TORSDOF 9
ENDMDL
MODEL 2
REMARK VINA RESULT:    -3.828      1.597      2.908
REMARK INTER + INTRA:          -7.197
REMARK INTER:                  -5.863
REMARK INTRA:                  -1.334
REMARK UNBOUND:                -1.356
REMARK SMILES CCCCCCCCCCC(=O)[O-]
REMARK SMILES IDX 7 1 8 2 9 3 10 4 11 5 12 6 13 7 6 8 5 9 4 10 3 11 2 12 1 13
REMARK H PARENT
REMARK Flexibility Score: inf
ROOT
ATOM      1  C   UNL     1     -35.100  20.260 -29.007  1.00  0.00     0.000 C 
ENDROOT
BRANCH   1   2
ATOM      2  C   UNL     1     -35.367  19.195 -27.936  1.00  0.00     0.000 C 
BRANCH   2   3
ATOM      3  C   UNL     1     -36.265  18.078 -28.480  1.00  0.00     0.006 C 
BRANCH   3   4
ATOM      4  C   UNL     1     -35.897  17.731 -29.926  1.00  0.00     0.053 C 
BRANCH   4   5
ATOM      5  C   UNL     1     -36.857  16.731 -30.485  1.00  0.00     0.041 C 
ATOM      6  O   UNL     1     -36.658  15.499 -30.319  1.00  0.00    -0.550 OA
ATOM      7  O   UNL     1     -37.947  17.156 -31.235  1.00  0.00    -0.550 OA
ENDBRANCH   4   5
ENDBRANCH   3   4
ENDBRANCH   2   3
ENDBRANCH   1   2
BRANCH   1   8
ATOM      8  C   UNL     1     -35.657  21.625 -28.577  1.00  0.00     0.000 C 
BRANCH   8   9
ATOM      9  C   UNL     1     -36.851  22.076 -29.433  1.00  0.00    -0.000 C 
BRANCH   9  10
ATOM     10  C   UNL     1     -37.135  21.118 -30.603  1.00  0.00    -0.000 C 
BRANCH  10  11
ATOM     11  C   UNL     1     -38.557  20.534 -30.554  1.00  0.00    -0.000 C 
BRANCH  11  12
ATOM     12  C   UNL     1     -39.171  20.584 -29.148  1.00  0.00    -0.003 C 
ATOM     13  C   UNL     1     -39.654  19.204 -28.710  1.00  0.00     0.004 C 
ENDBRANCH  11  12
ENDBRANCH  10  11
ENDBRANCH   9  10
ENDBRANCH   8   9
ENDBRANCH   1   8
TORSDOF 9
ENDMDL
MODEL 3
REMARK VINA RESULT:    -3.804     14.770     16.311
REMARK INTER + INTRA:          -7.162
REMARK INTER:                  -6.917
REMARK INTRA:                  -0.244
REMARK UNBOUND:                -1.356
REMARK SMILES CCCCCCCCCCC(=O)[O-]
REMARK SMILES IDX 7 1 8 2 9 3 10 4 11 5 12 6 13 7 6 8 5 9 4 10 3 11 2 12 1 13
REMARK H PARENT
REMARK Flexibility Score: inf
ROOT
ATOM      1  C   UNL     1     -52.933  20.766 -33.903  1.00  0.00     0.000 C 
ENDROOT
BRANCH   1   2
ATOM      2  C   UNL     1     -53.436  20.178 -32.578  1.00  0.00     0.000 C 
BRANCH   2   3
ATOM      3  C   UNL     1     -52.292  19.524 -31.795  1.00  0.00     0.006 C 
BRANCH   3   4
ATOM      4  C   UNL     1     -52.814  18.410 -30.884  1.00  0.00     0.053 C 
BRANCH   4   5
ATOM      5  C   UNL     1     -51.679  17.619 -30.318  1.00  0.00     0.041 C 
ATOM      6  O   UNL     1     -51.603  17.417 -29.078  1.00  0.00    -0.550 OA
ATOM      7  O   UNL     1     -50.675  17.146 -31.155  1.00  0.00    -0.550 OA
ENDBRANCH   4   5
ENDBRANCH   3   4
ENDBRANCH   2   3
ENDBRANCH   1   2
BRANCH   1   8
ATOM      8  C   UNL     1     -54.096  20.985 -34.883  1.00  0.00     0.000 C 
BRANCH   8   9
ATOM      9  C   UNL     1     -53.618  21.304 -36.309  1.00  0.00    -0.000 C 
BRANCH   9  10
ATOM     10  C   UNL     1     -53.448  22.814 -36.551  1.00  0.00    -0.000 C 
BRANCH  10  11
ATOM     11  C   UNL     1     -52.352  23.125 -37.583  1.00  0.00    -0.000 C 
BRANCH  11  12
ATOM     12  C   UNL     1     -52.617  22.469 -38.946  1.00  0.00    -0.003 C 
ATOM     13  C   UNL     1     -51.479  22.752 -39.923  1.00  0.00     0.004 C 
ENDBRANCH  11  12
ENDBRANCH  10  11
ENDBRANCH   9  10
ENDBRANCH   8   9
ENDBRANCH   1   8
TORSDOF 9
ENDMDL
MODEL 4
REMARK VINA RESULT:    -3.737      2.566      5.043
REMARK INTER + INTRA:          -7.060
REMARK INTER:                  -6.307
REMARK INTRA:                  -0.752
REMARK UNBOUND:                -1.356
REMARK SMILES CCCCCCCCCCC(=O)[O-]
REMARK SMILES IDX 7 1 8 2 9 3 10 4 11 5 12 6 13 7 6 8 5 9 4 10 3 11 2 12 1 13
REMARK H PARENT
REMARK Flexibility Score: inf
ROOT
ATOM      1  C   UNL     1     -37.584  18.397 -28.276  1.00  0.00     0.000 C 
ENDROOT
BRANCH   1   2
ATOM      2  C   UNL     1     -38.616  18.616 -29.388  1.00  0.00     0.000 C 
BRANCH   2   3
ATOM      3  C   UNL     1     -39.384  19.926 -29.178  1.00  0.00     0.006 C 
BRANCH   3   4
ATOM      4  C   UNL     1     -38.466  21.138 -29.369  1.00  0.00     0.053 C 
BRANCH   4   5
ATOM      5  C   UNL     1     -37.811  21.093 -30.711  1.00  0.00     0.041 C 
ATOM      6  O   UNL     1     -38.502  20.916 -31.749  1.00  0.00    -0.550 OA
ATOM      7  O   UNL     1     -36.429  21.197 -30.815  1.00  0.00    -0.550 OA
ENDBRANCH   4   5
ENDBRANCH   3   4
ENDBRANCH   2   3
ENDBRANCH   1   2
BRANCH   1   8
ATOM      8  C   UNL     1     -36.187  18.145 -28.865  1.00  0.00     0.000 C 
BRANCH   8   9
ATOM      9  C   UNL     1     -36.229  17.770 -30.355  1.00  0.00    -0.000 C 
BRANCH   9  10
ATOM     10  C   UNL     1     -35.784  16.320 -30.612  1.00  0.00    -0.000 C 
BRANCH  10  11
ATOM     11  C   UNL     1     -36.921  15.308 -30.396  1.00  0.00    -0.000 C 
BRANCH  11  12
ATOM     12  C   UNL     1     -36.487  14.098 -29.556  1.00  0.00    -0.003 C 
ATOM     13  C   UNL     1     -36.836  12.788 -30.257  1.00  0.00     0.004 C 
ENDBRANCH  11  12
ENDBRANCH  10  11
ENDBRANCH   9  10
ENDBRANCH   8   9
ENDBRANCH   1   8
TORSDOF 9
ENDMDL
MODEL 5
REMARK VINA RESULT:    -3.734      2.826      4.562
REMARK INTER + INTRA:          -7.054
REMARK INTER:                  -5.920
REMARK INTRA:                  -1.134
REMARK UNBOUND:                -1.356
REMARK SMILES CCCCCCCCCCC(=O)[O-]
REMARK SMILES IDX 7 1 8 2 9 3 10 4 11 5 12 6 13 7 6 8 5 9 4 10 3 11 2 12 1 13
REMARK H PARENT
REMARK Flexibility Score: inf
ROOT
ATOM      1  C   UNL     1     -38.875  21.043 -29.979  1.00  0.00     0.000 C 
ENDROOT
BRANCH   1   2
ATOM      2  C   UNL     1     -37.930  22.035 -29.290  1.00  0.00     0.000 C 
BRANCH   2   3
ATOM      3  C   UNL     1     -36.464  21.687 -29.570  1.00  0.00     0.006 C 
BRANCH   3   4
ATOM      4  C   UNL     1     -36.298  21.086 -30.969  1.00  0.00     0.053 C 
BRANCH   4   5
ATOM      5  C   UNL     1     -35.526  22.014 -31.850  1.00  0.00     0.041 C 
ATOM      6  O   UNL     1     -35.459  21.804 -33.090  1.00  0.00    -0.550 OA
ATOM      7  O   UNL     1     -34.837  23.087 -31.297  1.00  0.00    -0.550 OA
ENDBRANCH   4   5
ENDBRANCH   3   4
ENDBRANCH   2   3
ENDBRANCH   1   2
BRANCH   1   8
ATOM      8  C   UNL     1     -39.519  20.096 -28.956  1.00  0.00     0.000 C 
BRANCH   8   9
ATOM      9  C   UNL     1     -39.031  18.645 -29.100  1.00  0.00    -0.000 C 
BRANCH   9  10
ATOM     10  C   UNL     1     -37.844  18.327 -28.174  1.00  0.00    -0.000 C 
BRANCH  10  11
ATOM     11  C   UNL     1     -36.565  17.982 -28.953  1.00  0.00    -0.000 C 
BRANCH  11  12
ATOM     12  C   UNL     1     -36.855  17.443 -30.362  1.00  0.00    -0.003 C 
ATOM     13  C   UNL     1     -36.615  15.939 -30.435  1.00  0.00     0.004 C 
ENDBRANCH  11  12
ENDBRANCH  10  11
ENDBRANCH   9  10
ENDBRANCH   8   9
ENDBRANCH   1   8
TORSDOF 9
ENDMDL
MODEL 6
REMARK VINA RESULT:    -3.727      3.148      5.188
REMARK INTER + INTRA:          -7.044
REMARK INTER:                  -6.058
REMARK INTRA:                  -0.986
REMARK UNBOUND:                -1.356
REMARK SMILES CCCCCCCCCCC(=O)[O-]
REMARK SMILES IDX 7 1 8 2 9 3 10 4 11 5 12 6 13 7 6 8 5 9 4 10 3 11 2 12 1 13
REMARK H PARENT
REMARK Flexibility Score: inf
ROOT
ATOM      1  C   UNL     1     -34.413  18.125 -30.141  1.00  0.00     0.000 C 
ENDROOT
BRANCH   1   2
ATOM      2  C   UNL     1     -34.611  19.497 -30.797  1.00  0.00     0.000 C 
BRANCH   2   3
ATOM      3  C   UNL     1     -34.370  20.629 -29.791  1.00  0.00     0.006 C 
BRANCH   3   4
ATOM      4  C   UNL     1     -35.553  20.771 -28.828  1.00  0.00     0.053 C 
BRANCH   4   5
ATOM      5  C   UNL     1     -36.163  22.130 -28.945  1.00  0.00     0.041 C 
ATOM      6  O   UNL     1     -37.122  22.329 -29.736  1.00  0.00    -0.550 OA
ATOM      7  O   UNL     1     -35.642  23.192 -28.215  1.00  0.00    -0.550 OA
ENDBRANCH   4   5
ENDBRANCH   3   4
ENDBRANCH   2   3
ENDBRANCH   1   2
BRANCH   1   8
ATOM      8  C   UNL     1     -35.412  17.099 -30.699  1.00  0.00     0.000 C 
BRANCH   8   9
ATOM      9  C   UNL     1     -36.748  17.097 -29.939  1.00  0.00    -0.000 C 
BRANCH   9  10
ATOM     10  C   UNL     1     -37.896  17.708 -30.763  1.00  0.00    -0.000 C 
BRANCH  10  11
ATOM     11  C   UNL     1     -38.408  19.030 -30.168  1.00  0.00    -0.000 C 
BRANCH  11  12
ATOM     12  C   UNL     1     -38.773  18.910 -28.681  1.00  0.00    -0.003 C 
ATOM     13  C   UNL     1     -40.283  18.994 -28.478  1.00  0.00     0.004 C 
ENDBRANCH  11  12
ENDBRANCH  10  11
ENDBRANCH   9  10
ENDBRANCH   8   9
ENDBRANCH   1   8
TORSDOF 9
ENDMDL
MODEL 7
REMARK VINA RESULT:    -3.717      2.137      3.375
REMARK INTER + INTRA:          -7.029
REMARK INTER:                  -5.591
REMARK INTRA:                  -1.438
REMARK UNBOUND:                -1.356
REMARK SMILES CCCCCCCCCCC(=O)[O-]
REMARK SMILES IDX 7 1 8 2 9 3 10 4 11 5 12 6 13 7 6 8 5 9 4 10 3 11 2 12 1 13
REMARK H PARENT
REMARK Flexibility Score: inf
ROOT
ATOM      1  C   UNL     1     -34.767  21.353 -28.308  1.00  0.00     0.000 C 
ENDROOT
BRANCH   1   2
ATOM      2  C   UNL     1     -34.513  20.539 -29.583  1.00  0.00     0.000 C 
BRANCH   2   3
ATOM      3  C   UNL     1     -34.963  19.084 -29.407  1.00  0.00     0.006 C 
BRANCH   3   4
ATOM      4  C   UNL     1     -35.831  18.923 -28.156  1.00  0.00     0.053 C 
BRANCH   4   5
ATOM      5  C   UNL     1     -36.997  18.031 -28.438  1.00  0.00     0.041 C 
ATOM      6  O   UNL     1     -36.829  16.941 -29.044  1.00  0.00    -0.550 OA
ATOM      7  O   UNL     1     -38.279  18.426 -28.075  1.00  0.00    -0.550 OA
ENDBRANCH   4   5
ENDBRANCH   3   4
ENDBRANCH   2   3
ENDBRANCH   1   2
BRANCH   1   8
ATOM      8  C   UNL     1     -35.518  22.654 -28.628  1.00  0.00     0.000 C 
BRANCH   8   9
ATOM      9  C   UNL     1     -36.586  22.472 -29.719  1.00  0.00    -0.000 C 
BRANCH   9  10
ATOM     10  C   UNL     1     -37.930  21.981 -29.154  1.00  0.00    -0.000 C 
BRANCH  10  11
ATOM     11  C   UNL     1     -38.667  21.040 -30.121  1.00  0.00    -0.000 C 
BRANCH  11  12
ATOM     12  C   UNL     1     -37.864  20.755 -31.399  1.00  0.00    -0.003 C 
ATOM     13  C   UNL     1     -37.921  19.274 -31.765  1.00  0.00     0.004 C 
ENDBRANCH  11  12
ENDBRANCH  10  11
ENDBRANCH   9  10
ENDBRANCH   8   9
ENDBRANCH   1   8
TORSDOF 9
ENDMDL
MODEL 8
REMARK VINA RESULT:    -3.681      2.507      4.363
REMARK INTER + INTRA:          -6.974
REMARK INTER:                  -5.820
REMARK INTRA:                  -1.154
REMARK UNBOUND:                -1.356
REMARK SMILES CCCCCCCCCCC(=O)[O-]
REMARK SMILES IDX 7 1 8 2 9 3 10 4 11 5 12 6 13 7 6 8 5 9 4 10 3 11 2 12 1 13
REMARK H PARENT
REMARK Flexibility Score: inf
ROOT
ATOM      1  C   UNL     1     -36.750  21.740 -29.553  1.00  0.00     0.000 C 
ENDROOT
BRANCH   1   2
ATOM      2  C   UNL     1     -37.273  21.085 -30.838  1.00  0.00     0.000 C 
BRANCH   2   3
ATOM      3  C   UNL     1     -38.697  20.552 -30.645  1.00  0.00     0.006 C 
BRANCH   3   4
ATOM      4  C   UNL     1     -39.157  20.722 -29.194  1.00  0.00     0.053 C 
BRANCH   4   5
ATOM      5  C   UNL     1     -39.511  19.398 -28.597  1.00  0.00     0.041 C 
ATOM      6  O   UNL     1     -40.716  19.047 -28.502  1.00  0.00    -0.550 OA
ATOM      7  O   UNL     1     -38.512  18.569 -28.099  1.00  0.00    -0.550 OA
ENDBRANCH   4   5
ENDBRANCH   3   4
ENDBRANCH   2   3
ENDBRANCH   1   2
BRANCH   1   8
ATOM      8  C   UNL     1     -35.320  21.273 -29.241  1.00  0.00     0.000 C 
BRANCH   8   9
ATOM      9  C   UNL     1     -35.255  19.795 -28.825  1.00  0.00    -0.000 C 
BRANCH   9  10
ATOM     10  C   UNL     1     -34.257  18.987 -29.673  1.00  0.00    -0.000 C 
BRANCH  10  11
ATOM     11  C   UNL     1     -34.956  18.012 -30.636  1.00  0.00    -0.000 C 
BRANCH  11  12
ATOM     12  C   UNL     1     -36.153  17.297 -29.991  1.00  0.00    -0.003 C 
ATOM     13  C   UNL     1     -37.304  17.152 -30.982  1.00  0.00     0.004 C 
ENDBRANCH  11  12
ENDBRANCH  10  11
ENDBRANCH   9  10
ENDBRANCH   8   9
ENDBRANCH   1   8
TORSDOF 9
ENDMDL
MODEL 9
REMARK VINA RESULT:    -3.603      2.974      4.239
REMARK INTER + INTRA:          -6.854
REMARK INTER:                  -5.598
REMARK INTRA:                  -1.256
REMARK UNBOUND:                -1.356
REMARK SMILES CCCCCCCCCCC(=O)[O-]
REMARK SMILES IDX 7 1 8 2 9 3 10 4 11 5 12 6 13 7 6 8 5 9 4 10 3 11 2 12 1 13
REMARK H PARENT
REMARK Flexibility Score: inf
ROOT
ATOM      1  C   UNL     1     -36.585  18.145 -30.548  1.00  0.00     0.000 C 
ENDROOT
BRANCH   1   2
ATOM      2  C   UNL     1     -37.292  17.802 -29.232  1.00  0.00     0.000 C 
BRANCH   2   3
ATOM      3  C   UNL     1     -37.800  19.067 -28.531  1.00  0.00     0.006 C 
BRANCH   3   4
ATOM      4  C   UNL     1     -39.127  19.536 -29.135  1.00  0.00     0.053 C 
BRANCH   4   5
ATOM      5  C   UNL     1     -38.979  20.899 -29.731  1.00  0.00     0.041 C 
ATOM      6  O   UNL     1     -38.891  21.040 -30.979  1.00  0.00    -0.550 OA
ATOM      7  O   UNL     1     -38.888  22.014 -28.905  1.00  0.00    -0.550 OA
ENDBRANCH   4   5
ENDBRANCH   3   4
ENDBRANCH   2   3
ENDBRANCH   1   2
BRANCH   1   8
ATOM      8  C   UNL     1     -35.060  18.156 -30.366  1.00  0.00     0.000 C 
BRANCH   8   9
ATOM      9  C   UNL     1     -34.464  19.572 -30.432  1.00  0.00    -0.000 C 
BRANCH   9  10
ATOM     10  C   UNL     1     -35.400  20.575 -31.128  1.00  0.00    -0.000 C 
BRANCH  10  11
ATOM     11  C   UNL     1     -35.474  21.922 -30.390  1.00  0.00    -0.000 C 
BRANCH  11  12
ATOM     12  C   UNL     1     -35.327  21.773 -28.868  1.00  0.00    -0.003 C 
ATOM     13  C   UNL     1     -35.552  23.107 -28.162  1.00  0.00     0.004 C 
ENDBRANCH  11  12
ENDBRANCH  10  11
ENDBRANCH   9  10
ENDBRANCH   8   9
ENDBRANCH   1   8
TORSDOF 9
ENDMDL
