MODEL 1
REMARK VINA RESULT:    22.972      0.000      0.000
REMARK INTER + INTRA:          35.632
REMARK INTER:                  32.372
REMARK INTRA:                   3.260
REMARK UNBOUND:                 3.260
REMARK SMILES CC1=CCCC(C)=CCC(C)(C)C=CC1
REMARK SMILES IDX 2 1 3 2 1 3 4 4 5 5 6 6 7 7 8 8 15 10 14 11 13 12 10 13
REMARK SMILES IDX 11 14 12 15 9 16
REMARK H PARENT
REMARK Flexibility Score: 60.00
ROOT
ATOM      1  C   UNL     1       9.843   1.808  29.092  1.00  0.00    -0.074 C 
ATOM      2  C   UNL     1      11.029   1.289  29.498  1.00  0.00    -0.027 C 
ATOM      3  C   UNL     1       8.628   0.918  29.199  1.00  0.00     0.039 C 
ENDROOT
BRANCH   2   4
ATOM      4  C   UNL     1      12.362   2.001  29.517  1.00  0.00     0.032 C 
BRANCH   4   5
ATOM      5  C   UNL     1      13.418   1.353  28.598  1.00  0.00     0.034 C 
BRANCH   5   6
ATOM      6  C   UNL     1      14.409   2.329  27.982  1.00  0.00    -0.077 C 
ATOM      7  C   UNL     1      15.392   1.817  26.957  1.00  0.00     0.039 C 
ATOM      8  C   UNL     1      14.469   3.636  28.317  1.00  0.00    -0.027 CG0
ATOM      9  G   UNL     1      13.558   4.319  29.313  1.00  0.00     0.000 G0
ENDBRANCH   5   6
ENDBRANCH   4   5
ENDBRANCH   2   4
BRANCH   1  10
ATOM     10  C   UNL     1       9.650   3.232  28.589  1.00  0.00     0.057 C 
BRANCH  10  11
ATOM     11  C   UNL     1      10.614   3.549  27.470  1.00  0.00    -0.026 C 
ATOM     12  C   UNL     1      11.722   4.324  27.521  1.00  0.00    -0.024 C 
BRANCH  12  13
ATOM     13  C   UNL     1      12.325   5.072  28.720  1.00  0.00    -0.014 C 
ATOM     14  C   UNL     1      11.243   5.282  29.802  1.00  0.00     0.016 C 
ATOM     15  C   UNL     1      12.756   6.477  28.230  1.00  0.00     0.016 C 
BRANCH  13  16
ATOM     16  C   UNL     1      13.576   4.365  29.330  1.00  0.00     0.038 CG0
ATOM     17  G   UNL     1      14.435   3.684  28.287  1.00  0.00     0.000 G0
ENDBRANCH  13  16
ENDBRANCH  12  13
ENDBRANCH  10  11
ENDBRANCH   1  10
TORSDOF 0
ENDMDL
MODEL 2
REMARK VINA RESULT:    23.102      1.501      4.330
REMARK INTER + INTRA:          35.816
REMARK INTER:                  32.027
REMARK INTRA:                   3.789
REMARK UNBOUND:                 3.260
REMARK SMILES CC1=CCCC(C)=CCC(C)(C)C=CC1
REMARK SMILES IDX 2 1 3 2 1 3 4 4 5 5 6 6 7 7 8 8 15 10 14 11 13 12 10 13
REMARK SMILES IDX 11 14 12 15 9 16
REMARK H PARENT
REMARK Flexibility Score: 60.00
ROOT
ATOM      1  C   UNL     1      14.546   2.595  27.768  1.00  0.00    -0.074 C 
ATOM      2  C   UNL     1      14.608   3.594  28.684  1.00  0.00    -0.027 C 
ATOM      3  C   UNL     1      15.855   2.051  27.250  1.00  0.00     0.039 C 
ENDROOT
BRANCH   2   4
ATOM      4  C   UNL     1      13.437   4.263  29.366  1.00  0.00     0.032 C 
BRANCH   4   5
ATOM      5  C   UNL     1      13.370   5.784  29.118  1.00  0.00     0.034 C 
BRANCH   5   6
ATOM      6  C   UNL     1      11.962   6.346  28.989  1.00  0.00    -0.077 C 
ATOM      7  C   UNL     1      11.785   7.752  28.470  1.00  0.00     0.039 C 
ATOM      8  C   UNL     1      10.854   5.656  29.335  1.00  0.00    -0.027 CG0
ATOM      9  G   UNL     1      10.843   4.237  29.861  1.00  0.00     0.000 G0
ENDBRANCH   5   6
ENDBRANCH   4   5
ENDBRANCH   2   4
BRANCH   1  10
ATOM     10  C   UNL     1      13.255   1.958  27.270  1.00  0.00     0.057 C 
BRANCH  10  11
ATOM     11  C   UNL     1      12.273   3.010  26.807  1.00  0.00    -0.026 C 
ATOM     12  C   UNL     1      11.185   3.477  27.460  1.00  0.00    -0.024 C 
BRANCH  12  13
ATOM     13  C   UNL     1      10.656   3.098  28.852  1.00  0.00    -0.014 C 
ATOM     14  C   UNL     1      11.376   1.829  29.358  1.00  0.00     0.016 C 
ATOM     15  C   UNL     1       9.156   2.741  28.705  1.00  0.00     0.016 C 
BRANCH  13  16
ATOM     16  C   UNL     1      10.781   4.250  29.900  1.00  0.00     0.038 CG0
ATOM     17  G   UNL     1      10.858   5.620  29.263  1.00  0.00     0.000 G0
ENDBRANCH  13  16
ENDBRANCH  12  13
ENDBRANCH  10  11
ENDBRANCH   1  10
TORSDOF 0
ENDMDL
MODEL 3
REMARK VINA RESULT:    23.585      0.906      3.545
REMARK INTER + INTRA:          36.497
REMARK INTER:                  33.906
REMARK INTRA:                   2.590
REMARK UNBOUND:                 3.260
REMARK SMILES CC1=CCCC(C)=CCC(C)(C)C=CC1
REMARK SMILES IDX 2 1 3 2 1 3 4 4 5 5 6 6 7 7 8 8 15 10 14 11 13 12 10 13
REMARK SMILES IDX 11 14 12 15 9 16
REMARK H PARENT
REMARK Flexibility Score: 60.00
ROOT
ATOM      1  C   UNL     1      10.427   2.158  28.842  1.00  0.00    -0.074 C 
ATOM      2  C   UNL     1      10.136   2.774  27.669  1.00  0.00    -0.027 C 
ATOM      3  C   UNL     1       9.339   1.321  29.470  1.00  0.00     0.039 C 
ENDROOT
BRANCH   2   4
ATOM      4  C   UNL     1      11.075   3.625  26.845  1.00  0.00     0.032 C 
BRANCH   4   5
ATOM      5  C   UNL     1      11.234   5.061  27.385  1.00  0.00     0.034 C 
BRANCH   5   6
ATOM      6  C   UNL     1      12.320   5.227  28.439  1.00  0.00    -0.077 C 
ATOM      7  C   UNL     1      12.154   6.295  29.492  1.00  0.00     0.039 C 
ATOM      8  C   UNL     1      13.441   4.476  28.472  1.00  0.00    -0.027 CG0
ATOM      9  G   UNL     1      13.767   3.358  27.506  1.00  0.00     0.000 G0
ENDBRANCH   5   6
ENDBRANCH   4   5
ENDBRANCH   2   4
BRANCH   1  10
ATOM     10  C   UNL     1      11.782   2.213  29.536  1.00  0.00     0.057 C 
BRANCH  10  11
ATOM     11  C   UNL     1      12.634   1.024  29.159  1.00  0.00    -0.026 C 
ATOM     12  C   UNL     1      13.814   1.022  28.498  1.00  0.00    -0.024 C 
BRANCH  12  13
ATOM     13  C   UNL     1      14.630   2.213  27.971  1.00  0.00    -0.014 C 
ATOM     14  C   UNL     1      15.595   1.736  26.863  1.00  0.00     0.016 C 
ATOM     15  C   UNL     1      15.502   2.741  29.137  1.00  0.00     0.016 C 
BRANCH  13  16
ATOM     16  C   UNL     1      13.746   3.392  27.452  1.00  0.00     0.038 CG0
ATOM     17  G   UNL     1      13.475   4.436  28.513  1.00  0.00     0.000 G0
ENDBRANCH  13  16
ENDBRANCH  12  13
ENDBRANCH  10  11
ENDBRANCH   1  10
TORSDOF 0
ENDMDL
MODEL 4
REMARK VINA RESULT:    24.111      1.336      3.906
REMARK INTER + INTRA:          37.238
REMARK INTER:                  34.260
REMARK INTRA:                   2.979
REMARK UNBOUND:                 3.260
REMARK SMILES CC1=CCCC(C)=CCC(C)(C)C=CC1
REMARK SMILES IDX 2 1 3 2 1 3 4 4 5 5 6 6 7 7 8 8 15 10 14 11 13 12 10 13
REMARK SMILES IDX 11 14 12 15 9 16
REMARK H PARENT
REMARK Flexibility Score: 60.00
ROOT
ATOM      1  C   UNL     1      14.663   1.961  27.708  1.00  0.00    -0.074 C 
ATOM      2  C   UNL     1      14.142   0.879  28.340  1.00  0.00    -0.027 C 
ATOM      3  C   UNL     1      16.087   1.854  27.218  1.00  0.00     0.039 C 
ENDROOT
BRANCH   2   4
ATOM      4  C   UNL     1      12.737   0.744  28.879  1.00  0.00     0.032 C 
BRANCH   4   5
ATOM      5  C   UNL     1      12.147   2.073  29.394  1.00  0.00     0.034 C 
BRANCH   5   6
ATOM      6  C   UNL     1      10.702   2.327  28.989  1.00  0.00    -0.077 C 
ATOM      7  C   UNL     1       9.632   1.389  29.492  1.00  0.00     0.039 C 
ATOM      8  C   UNL     1      10.325   3.342  28.183  1.00  0.00    -0.027 CG0
ATOM      9  G   UNL     1      11.259   4.379  27.599  1.00  0.00     0.000 G0
ENDBRANCH   5   6
ENDBRANCH   4   5
ENDBRANCH   2   4
BRANCH   1  10
ATOM     10  C   UNL     1      13.897   3.245  27.417  1.00  0.00     0.057 C 
BRANCH  10  11
ATOM     11  C   UNL     1      14.144   4.280  28.490  1.00  0.00    -0.026 C 
ATOM     12  C   UNL     1      13.278   5.197  28.976  1.00  0.00    -0.024 C 
BRANCH  12  13
ATOM     13  C   UNL     1      11.805   5.430  28.603  1.00  0.00    -0.014 C 
ATOM     14  C   UNL     1      11.624   6.868  28.068  1.00  0.00     0.016 C 
ATOM     15  C   UNL     1      10.967   5.320  29.901  1.00  0.00     0.016 C 
BRANCH  13  16
ATOM     16  C   UNL     1      11.251   4.392  27.577  1.00  0.00     0.038 CG0
ATOM     17  G   UNL     1      10.335   3.368  28.210  1.00  0.00     0.000 G0
ENDBRANCH  13  16
ENDBRANCH  12  13
ENDBRANCH  10  11
ENDBRANCH   1  10
TORSDOF 0
ENDMDL
MODEL 5
REMARK VINA RESULT:    24.260      1.293      4.403
REMARK INTER + INTRA:          37.448
REMARK INTER:                  34.512
REMARK INTRA:                   2.936
REMARK UNBOUND:                 3.260
REMARK SMILES CC1=CCCC(C)=CCC(C)(C)C=CC1
REMARK SMILES IDX 2 1 3 2 1 3 4 4 5 5 6 6 7 7 8 8 15 10 14 11 13 12 10 13
REMARK SMILES IDX 11 14 12 15 9 16
REMARK H PARENT
REMARK Flexibility Score: 60.00
ROOT
ATOM      1  C   UNL     1      12.318   5.576  28.712  1.00  0.00    -0.074 C 
ATOM      2  C   UNL     1      11.604   5.433  27.567  1.00  0.00    -0.027 C 
ATOM      3  C   UNL     1      12.379   6.956  29.320  1.00  0.00     0.039 C 
ENDROOT
BRANCH   2   4
ATOM      4  C   UNL     1      11.374   4.148  26.806  1.00  0.00     0.032 C 
BRANCH   4   5
ATOM      5  C   UNL     1      10.311   3.235  27.450  1.00  0.00     0.034 C 
BRANCH   5   6
ATOM      6  C   UNL     1      10.843   2.302  28.528  1.00  0.00    -0.077 C 
ATOM      7  C   UNL     1       9.926   1.896  29.655  1.00  0.00     0.039 C 
ATOM      8  C   UNL     1      12.108   1.829  28.541  1.00  0.00    -0.027 CG0
ATOM      9  G   UNL     1      13.156   2.123  27.490  1.00  0.00     0.000 G0
ENDBRANCH   5   6
ENDBRANCH   4   5
ENDBRANCH   2   4
BRANCH   1  10
ATOM     10  C   UNL     1      13.013   4.436  29.445  1.00  0.00     0.057 C 
BRANCH  10  11
ATOM     11  C   UNL     1      14.483   4.382  29.098  1.00  0.00    -0.026 C 
ATOM     12  C   UNL     1      15.150   3.397  28.455  1.00  0.00    -0.024 C 
BRANCH  12  13
ATOM     13  C   UNL     1      14.610   2.079  27.878  1.00  0.00    -0.014 C 
ATOM     14  C   UNL     1      14.819   0.937  28.897  1.00  0.00     0.016 C 
ATOM     15  C   UNL     1      15.453   1.731  26.626  1.00  0.00     0.016 C 
BRANCH  13  16
ATOM     16  C   UNL     1      13.110   2.157  27.448  1.00  0.00     0.038 CG0
ATOM     17  G   UNL     1      12.157   1.797  28.566  1.00  0.00     0.000 G0
ENDBRANCH  13  16
ENDBRANCH  12  13
ENDBRANCH  10  11
ENDBRANCH   1  10
TORSDOF 0
ENDMDL
MODEL 6
REMARK VINA RESULT:    25.097      1.378      4.345
REMARK INTER + INTRA:          38.627
REMARK INTER:                  35.383
REMARK INTRA:                   3.244
REMARK UNBOUND:                 3.260
REMARK SMILES CC1=CCCC(C)=CCC(C)(C)C=CC1
REMARK SMILES IDX 2 1 3 2 1 3 4 4 5 5 6 6 7 7 8 8 15 10 14 11 13 12 10 13
REMARK SMILES IDX 11 14 12 15 9 16
REMARK H PARENT
REMARK Flexibility Score: 60.00
ROOT
ATOM      1  C   UNL     1      14.775   2.435  27.688  1.00  0.00    -0.074 C 
ATOM      2  C   UNL     1      14.889   3.531  28.479  1.00  0.00    -0.027 C 
ATOM      3  C   UNL     1      16.025   1.954  26.992  1.00  0.00     0.039 C 
ENDROOT
BRANCH   2   4
ATOM      4  C   UNL     1      13.788   4.167  29.298  1.00  0.00     0.032 C 
BRANCH   4   5
ATOM      5  C   UNL     1      13.677   5.692  29.098  1.00  0.00     0.034 C 
BRANCH   5   6
ATOM      6  C   UNL     1      12.278   6.188  28.764  1.00  0.00    -0.077 C 
ATOM      7  C   UNL     1      11.907   7.607  29.120  1.00  0.00     0.039 C 
ATOM      8  C   UNL     1      11.337   5.417  28.179  1.00  0.00    -0.027 CG0
ATOM      9  G   UNL     1      11.538   3.981  27.747  1.00  0.00     0.000 G0
ENDBRANCH   5   6
ENDBRANCH   4   5
ENDBRANCH   2   4
BRANCH   1  10
ATOM     10  C   UNL     1      13.493   1.635  27.498  1.00  0.00     0.057 C 
BRANCH  10  11
ATOM     11  C   UNL     1      12.812   1.377  28.822  1.00  0.00    -0.026 C 
ATOM     12  C   UNL     1      11.681   1.944  29.300  1.00  0.00    -0.024 C 
BRANCH  12  13
ATOM     13  C   UNL     1      10.761   2.980  28.635  1.00  0.00    -0.014 C 
ATOM     14  C   UNL     1       9.948   3.726  29.715  1.00  0.00     0.016 C 
ATOM     15  C   UNL     1       9.747   2.211  27.752  1.00  0.00     0.016 C 
BRANCH  13  16
ATOM     16  C   UNL     1      11.523   3.996  27.727  1.00  0.00     0.038 CG0
ATOM     17  G   UNL     1      11.334   5.433  28.162  1.00  0.00     0.000 G0
ENDBRANCH  13  16
ENDBRANCH  12  13
ENDBRANCH  10  11
ENDBRANCH   1  10
TORSDOF 0
ENDMDL
MODEL 7
REMARK VINA RESULT:    25.388      1.628      4.511
REMARK INTER + INTRA:          39.037
REMARK INTER:                  35.802
REMARK INTRA:                   3.236
REMARK UNBOUND:                 3.260
REMARK SMILES CC1=CCCC(C)=CCC(C)(C)C=CC1
REMARK SMILES IDX 2 1 3 2 1 3 4 4 5 5 6 6 7 7 8 8 15 10 14 11 13 12 10 13
REMARK SMILES IDX 11 14 12 15 9 16
REMARK H PARENT
REMARK Flexibility Score: 60.00
ROOT
ATOM      1  C   UNL     1      13.453   2.450  27.987  1.00  0.00    -0.074 C 
ATOM      2  C   UNL     1      12.992   2.947  26.812  1.00  0.00    -0.027 C 
ATOM      3  C   UNL     1      14.826   1.823  27.980  1.00  0.00     0.039 C 
ENDROOT
BRANCH   2   4
ATOM      4  C   UNL     1      11.671   3.647  26.589  1.00  0.00     0.032 C 
BRANCH   4   5
ATOM      5  C   UNL     1      11.636   5.083  27.150  1.00  0.00     0.034 C 
BRANCH   5   6
ATOM      6  C   UNL     1      11.270   5.180  28.624  1.00  0.00    -0.077 C 
ATOM      7  C   UNL     1      11.811   6.334  29.433  1.00  0.00     0.039 C 
ATOM      8  C   UNL     1      10.497   4.273  29.258  1.00  0.00    -0.027 CG0
ATOM      9  G   UNL     1       9.863   3.064  28.604  1.00  0.00     0.000 G0
ENDBRANCH   5   6
ENDBRANCH   4   5
ENDBRANCH   2   4
BRANCH   1  10
ATOM     10  C   UNL     1      12.705   2.528  29.312  1.00  0.00     0.057 C 
BRANCH  10  11
ATOM     11  C   UNL     1      12.047   1.209  29.643  1.00  0.00    -0.026 C 
ATOM     12  C   UNL     1      10.726   0.938  29.734  1.00  0.00    -0.024 C 
BRANCH  12  13
ATOM     13  C   UNL     1       9.528   1.873  29.504  1.00  0.00    -0.014 C 
ATOM     14  C   UNL     1       8.996   2.383  30.861  1.00  0.00     0.016 C 
ATOM     15  C   UNL     1       8.396   1.038  28.856  1.00  0.00     0.016 C 
BRANCH  13  16
ATOM     16  C   UNL     1       9.849   3.073  28.558  1.00  0.00     0.038 CG0
ATOM     17  G   UNL     1      10.491   4.237  29.280  1.00  0.00     0.000 G0
ENDBRANCH  13  16
ENDBRANCH  12  13
ENDBRANCH  10  11
ENDBRANCH   1  10
TORSDOF 0
ENDMDL
