MODEL 1
REMARK VINA RESULT:    39.529      0.000      0.000
REMARK INTER + INTRA:          55.698
REMARK INTER:                  55.706
REMARK INTRA:                  -0.007
REMARK UNBOUND:                -0.007
REMARK SMILES OC[C@@H]1O[C@@H](O[C@H]2OC=C[C@@H]3[C@@H](O)[C@@H]4O[C@]4(CO)[C@H]23)[C@H](O)[C@H](O)[C@H]1O
REMARK SMILES IDX 6 1 7 2 10 3 9 4 11 5 8 6 19 7 12 8 16 9 14 10 15 11 13 12
REMARK SMILES IDX 17 14 18 15 5 17 20 18 4 19 22 20 3 21 24 22 21 23 23 25
REMARK SMILES IDX 2 27 1 28 25 30
REMARK H PARENT 13 13 18 16 21 24 23 26 1 29 25 31
REMARK Flexibility Score: inf
ROOT
ATOM      1  O   UNL     1       8.806  67.819   5.681  1.00  0.00    -0.310 OA
ENDROOT
BRANCH   1   2
ATOM      2  C   UNL     1       9.531  67.594   6.876  1.00  0.00     0.315 C 
ATOM      3  C   UNL     1       7.432  66.189   8.192  1.00  0.00     0.018 C 
ATOM      4  C   UNL     1       7.663  67.473   8.473  1.00  0.00     0.186 C 
ATOM      5  C   UNL     1       8.418  65.338   7.414  1.00  0.00     0.059 C 
ATOM      6  O   UNL     1       8.798  68.118   7.981  1.00  0.00    -0.472 OA
ATOM      7  C   UNL     1       9.726  66.077   7.045  1.00  0.00     0.105 C 
ATOM      8  C   UNL     1       8.872  64.146   8.279  1.00  0.00     0.154 C 
ATOM      9  C   UNL     1      10.734  65.716   8.139  1.00  0.00     0.130 C 
ATOM     10  C   UNL     1      10.242  64.515   8.833  1.00  0.00     0.183 C 
ATOM     11  O   UNL     1      10.267  65.778   9.468  1.00  0.00    -0.360 OA
BRANCH   8  12
ATOM     12  O   UNL     1       9.005  62.995   7.488  1.00  0.00    -0.390 OA
ATOM     13  H   UNL     1       9.648  63.222   6.766  1.00  0.00     0.211 HD
ENDBRANCH   8  12
BRANCH   9  14
ATOM     14  C   UNL     1      12.253  65.807   7.956  1.00  0.00     0.195 C 
BRANCH  14  15
ATOM     15  O   UNL     1      12.726  64.713   7.219  1.00  0.00    -0.393 OA
ATOM     16  H   UNL     1      12.832  65.030   6.283  1.00  0.00     0.210 HD
ENDBRANCH  14  15
ENDBRANCH   9  14
ENDBRANCH   1   2
BRANCH   1  17
ATOM     17  C   UNL     1       8.699  69.206   5.384  1.00  0.00     0.286 C 
ATOM     18  C   UNL     1       9.936  69.973   5.908  1.00  0.00     0.202 C 
ATOM     19  O   UNL     1       8.538  69.396   3.987  1.00  0.00    -0.341 OA
ATOM     20  C   UNL     1      11.197  69.591   5.111  1.00  0.00     0.179 C 
ATOM     21  C   UNL     1       9.642  68.886   3.252  1.00  0.00     0.178 C 
ATOM     22  C   UNL     1      10.936  69.659   3.594  1.00  0.00     0.177 C 
BRANCH  18  23
ATOM     23  O   UNL     1       9.717  71.364   5.888  1.00  0.00    -0.385 OA
ATOM     24  H   UNL     1       9.578  71.669   6.822  1.00  0.00     0.211 HD
ENDBRANCH  18  23
BRANCH  20  25
ATOM     25  O   UNL     1      12.252  70.451   5.464  1.00  0.00    -0.387 OA
ATOM     26  H   UNL     1      13.094  69.939   5.352  1.00  0.00     0.211 HD
ENDBRANCH  20  25
BRANCH  21  27
ATOM     27  C   UNL     1       9.319  69.008   1.755  1.00  0.00     0.191 C 
BRANCH  27  28
ATOM     28  O   UNL     1       9.699  70.269   1.275  1.00  0.00    -0.394 OA
ATOM     29  H   UNL     1      10.685  70.326   1.371  1.00  0.00     0.210 HD
ENDBRANCH  27  28
ENDBRANCH  21  27
BRANCH  22  30
ATOM     30  O   UNL     1      12.018  69.085   2.904  1.00  0.00    -0.387 OA
ATOM     31  H   UNL     1      11.755  68.158   2.670  1.00  0.00     0.211 HD
ENDBRANCH  22  30
ENDBRANCH   1  17
TORSDOF 10
ENDMDL
MODEL 2
REMARK VINA RESULT:    39.565      4.780      8.946
REMARK INTER + INTRA:          55.748
REMARK INTER:                  56.467
REMARK INTRA:                  -0.718
REMARK UNBOUND:                -0.007
REMARK SMILES OC[C@@H]1O[C@@H](O[C@H]2OC=C[C@@H]3[C@@H](O)[C@@H]4O[C@]4(CO)[C@H]23)[C@H](O)[C@H](O)[C@H]1O
REMARK SMILES IDX 6 1 7 2 10 3 9 4 11 5 8 6 19 7 12 8 16 9 14 10 15 11 13 12
REMARK SMILES IDX 17 14 18 15 5 17 20 18 4 19 22 20 3 21 24 22 21 23 23 25
REMARK SMILES IDX 2 27 1 28 25 30
REMARK H PARENT 13 13 18 16 21 24 23 26 1 29 25 31
REMARK Flexibility Score: inf
ROOT
ATOM      1  O   UNL     1       9.964  73.276   4.877  1.00  0.00    -0.310 OA
ENDROOT
BRANCH   1   2
ATOM      2  C   UNL     1       9.339  74.473   4.453  1.00  0.00     0.315 C 
ATOM      3  C   UNL     1      10.692  76.149   6.316  1.00  0.00     0.018 C 
ATOM      4  C   UNL     1       9.439  75.755   6.551  1.00  0.00     0.186 C 
ATOM      5  C   UNL     1      11.352  75.993   4.959  1.00  0.00     0.059 C 
ATOM      6  O   UNL     1       8.702  75.097   5.566  1.00  0.00    -0.472 OA
ATOM      7  C   UNL     1      10.418  75.406   3.875  1.00  0.00     0.105 C 
ATOM      8  C   UNL     1      11.760  77.377   4.418  1.00  0.00     0.154 C 
ATOM      9  C   UNL     1       9.840  76.608   3.124  1.00  0.00     0.130 C 
ATOM     10  C   UNL     1      10.692  77.774   3.407  1.00  0.00     0.183 C 
ATOM     11  O   UNL     1       9.376  77.679   3.917  1.00  0.00    -0.360 OA
BRANCH   8  12
ATOM     12  O   UNL     1      12.994  77.295   3.754  1.00  0.00    -0.390 OA
ATOM     13  H   UNL     1      13.310  76.360   3.863  1.00  0.00     0.211 HD
ENDBRANCH   8  12
BRANCH   9  14
ATOM     14  C   UNL     1       9.267  76.526   1.705  1.00  0.00     0.195 C 
BRANCH  14  15
ATOM     15  O   UNL     1       9.649  75.326   1.090  1.00  0.00    -0.393 OA
ATOM     16  H   UNL     1       8.906  75.075   0.479  1.00  0.00     0.210 HD
ENDBRANCH  14  15
ENDBRANCH   9  14
ENDBRANCH   1   2
BRANCH   1  17
ATOM     17  C   UNL     1       9.020  72.231   5.074  1.00  0.00     0.286 C 
ATOM     18  C   UNL     1       9.099  71.202   3.921  1.00  0.00     0.202 C 
ATOM     19  O   UNL     1       9.240  71.605   6.329  1.00  0.00    -0.341 OA
ATOM     20  C   UNL     1      10.426  70.423   3.969  1.00  0.00     0.179 C 
ATOM     21  C   UNL     1      10.537  71.032   6.416  1.00  0.00     0.178 C 
ATOM     22  C   UNL     1      10.705  69.891   5.388  1.00  0.00     0.177 C 
BRANCH  18  23
ATOM     23  O   UNL     1       7.991  70.332   3.941  1.00  0.00    -0.385 OA
ATOM     24  H   UNL     1       7.547  70.374   3.055  1.00  0.00     0.211 HD
ENDBRANCH  18  23
BRANCH  20  25
ATOM     25  O   UNL     1      10.378  69.360   3.050  1.00  0.00    -0.387 OA
ATOM     26  H   UNL     1      11.297  68.993   2.983  1.00  0.00     0.211 HD
ENDBRANCH  20  25
BRANCH  21  27
ATOM     27  C   UNL     1      10.733  70.504   7.846  1.00  0.00     0.191 C 
BRANCH  27  28
ATOM     28  O   UNL     1       9.614  70.803   8.635  1.00  0.00    -0.394 OA
ATOM     29  H   UNL     1       9.596  70.134   9.369  1.00  0.00     0.210 HD
ENDBRANCH  27  28
ENDBRANCH  21  27
BRANCH  22  30
ATOM     30  O   UNL     1      12.019  69.393   5.453  1.00  0.00    -0.387 OA
ATOM     31  H   UNL     1      12.006  68.619   6.074  1.00  0.00     0.211 HD
ENDBRANCH  22  30
ENDBRANCH   1  17
TORSDOF 10
ENDMDL
MODEL 3
REMARK VINA RESULT:    39.665      4.272      6.452
REMARK INTER + INTRA:          55.889
REMARK INTER:                  56.657
REMARK INTRA:                  -0.768
REMARK UNBOUND:                -0.007
REMARK SMILES OC[C@@H]1O[C@@H](O[C@H]2OC=C[C@@H]3[C@@H](O)[C@@H]4O[C@]4(CO)[C@H]23)[C@H](O)[C@H](O)[C@H]1O
REMARK SMILES IDX 6 1 7 2 10 3 9 4 11 5 8 6 19 7 12 8 16 9 14 10 15 11 13 12
REMARK SMILES IDX 17 14 18 15 5 17 20 18 4 19 22 20 3 21 24 22 21 23 23 25
REMARK SMILES IDX 2 27 1 28 25 30
REMARK H PARENT 13 13 18 16 21 24 23 26 1 29 25 31
REMARK Flexibility Score: inf
ROOT
ATOM      1  O   UNL     1       9.834  73.482   5.108  1.00  0.00    -0.310 OA
ENDROOT
BRANCH   1   2
ATOM      2  C   UNL     1      10.268  72.244   5.640  1.00  0.00     0.315 C 
ATOM      3  C   UNL     1       8.119  70.724   4.553  1.00  0.00     0.018 C 
ATOM      4  C   UNL     1       8.100  71.096   5.835  1.00  0.00     0.186 C 
ATOM      5  C   UNL     1       9.369  70.816   3.699  1.00  0.00     0.059 C 
ATOM      6  O   UNL     1       9.225  71.673   6.426  1.00  0.00    -0.472 OA
ATOM      7  C   UNL     1      10.617  71.309   4.469  1.00  0.00     0.105 C 
ATOM      8  C   UNL     1       9.753  69.412   3.189  1.00  0.00     0.154 C 
ATOM      9  C   UNL     1      11.367  70.048   4.906  1.00  0.00     0.130 C 
ATOM     10  C   UNL     1      10.885  68.925   4.084  1.00  0.00     0.183 C 
ATOM     11  O   UNL     1      10.585  69.015   5.464  1.00  0.00    -0.360 OA
BRANCH   8  12
ATOM     12  O   UNL     1      10.229  69.489   1.871  1.00  0.00    -0.390 OA
ATOM     13  H   UNL     1       9.516  69.111   1.292  1.00  0.00     0.211 HD
ENDBRANCH   8  12
BRANCH   9  14
ATOM     14  C   UNL     1      12.858  70.027   5.258  1.00  0.00     0.195 C 
BRANCH  14  15
ATOM     15  O   UNL     1      13.190  71.130   6.056  1.00  0.00    -0.393 OA
ATOM     16  H   UNL     1      13.708  70.774   6.826  1.00  0.00     0.210 HD
ENDBRANCH  14  15
ENDBRANCH   9  14
ENDBRANCH   1   2
BRANCH   1  17
ATOM     17  C   UNL     1      10.133  74.565   5.982  1.00  0.00     0.286 C 
ATOM     18  C   UNL     1      11.533  75.145   5.670  1.00  0.00     0.202 C 
ATOM     19  O   UNL     1       9.133  75.567   5.878  1.00  0.00    -0.341 OA
ATOM     20  C   UNL     1      11.543  75.850   4.301  1.00  0.00     0.179 C 
ATOM     21  C   UNL     1       9.044  76.092   4.561  1.00  0.00     0.178 C 
ATOM     22  C   UNL     1      10.351  76.817   4.167  1.00  0.00     0.177 C 
BRANCH  18  23
ATOM     23  O   UNL     1      11.965  76.007   6.695  1.00  0.00    -0.385 OA
ATOM     24  H   UNL     1      12.886  76.307   6.482  1.00  0.00     0.211 HD
ENDBRANCH  18  23
BRANCH  20  25
ATOM     25  O   UNL     1      12.755  76.544   4.142  1.00  0.00    -0.387 OA
ATOM     26  H   UNL     1      12.716  77.337   4.737  1.00  0.00     0.211 HD
ENDBRANCH  20  25
BRANCH  21  27
ATOM     27  C   UNL     1       7.853  77.061   4.510  1.00  0.00     0.191 C 
BRANCH  27  28
ATOM     28  O   UNL     1       8.302  78.388   4.508  1.00  0.00    -0.394 OA
ATOM     29  H   UNL     1       7.815  78.853   3.778  1.00  0.00     0.210 HD
ENDBRANCH  27  28
ENDBRANCH  21  27
BRANCH  22  30
ATOM     30  O   UNL     1      10.255  77.263   2.837  1.00  0.00    -0.387 OA
ATOM     31  H   UNL     1      10.492  78.226   2.836  1.00  0.00     0.211 HD
ENDBRANCH  22  30
ENDBRANCH   1  17
TORSDOF 10
ENDMDL
MODEL 4
REMARK VINA RESULT:    40.519      1.065      2.601
REMARK INTER + INTRA:          57.093
REMARK INTER:                  57.238
REMARK INTRA:                  -0.145
REMARK UNBOUND:                -0.007
REMARK SMILES OC[C@@H]1O[C@@H](O[C@H]2OC=C[C@@H]3[C@@H](O)[C@@H]4O[C@]4(CO)[C@H]23)[C@H](O)[C@H](O)[C@H]1O
REMARK SMILES IDX 6 1 7 2 10 3 9 4 11 5 8 6 19 7 12 8 16 9 14 10 15 11 13 12
REMARK SMILES IDX 17 14 18 15 5 17 20 18 4 19 22 20 3 21 24 22 21 23 23 25
REMARK SMILES IDX 2 27 1 28 25 30
REMARK H PARENT 13 13 18 16 21 24 23 26 1 29 25 31
REMARK Flexibility Score: inf
ROOT
ATOM      1  O   UNL     1       9.296  67.961   5.719  1.00  0.00    -0.310 OA
ENDROOT
BRANCH   1   2
ATOM      2  C   UNL     1       9.951  67.618   6.926  1.00  0.00     0.315 C 
ATOM      3  C   UNL     1       7.661  66.434   8.137  1.00  0.00     0.018 C 
ATOM      4  C   UNL     1       8.031  67.673   8.465  1.00  0.00     0.186 C 
ATOM      5  C   UNL     1       8.564  65.495   7.360  1.00  0.00     0.059 C 
ATOM      6  O   UNL     1       9.250  68.193   8.027  1.00  0.00    -0.472 OA
ATOM      7  C   UNL     1       9.961  66.084   7.053  1.00  0.00     0.105 C 
ATOM      8  C   UNL     1       8.847  64.234   8.200  1.00  0.00     0.154 C 
ATOM      9  C   UNL     1      10.884  65.576   8.162  1.00  0.00     0.130 C 
ATOM     10  C   UNL     1      10.233  64.422   8.803  1.00  0.00     0.183 C 
ATOM     11  O   UNL     1      10.385  65.655   9.479  1.00  0.00    -0.360 OA
BRANCH   8  12
ATOM     12  O   UNL     1       8.869  63.098   7.376  1.00  0.00    -0.390 OA
ATOM     13  H   UNL     1       8.213  63.263   6.650  1.00  0.00     0.211 HD
ENDBRANCH   8  12
BRANCH   9  14
ATOM     14  C   UNL     1      12.409  65.492   8.025  1.00  0.00     0.195 C 
BRANCH  14  15
ATOM     15  O   UNL     1      12.763  64.549   7.051  1.00  0.00    -0.393 OA
ATOM     16  H   UNL     1      13.724  64.344   7.196  1.00  0.00     0.210 HD
ENDBRANCH  14  15
ENDBRANCH   9  14
ENDBRANCH   1   2
BRANCH   1  17
ATOM     17  C   UNL     1      10.223  68.324   4.702  1.00  0.00     0.286 C 
ATOM     18  C   UNL     1       9.487  68.942   3.490  1.00  0.00     0.202 C 
ATOM     19  O   UNL     1      11.190  69.224   5.222  1.00  0.00    -0.341 OA
ATOM     20  C   UNL     1       8.885  70.312   3.852  1.00  0.00     0.179 C 
ATOM     21  C   UNL     1      10.595  70.420   5.706  1.00  0.00     0.178 C 
ATOM     22  C   UNL     1       9.924  71.206   4.556  1.00  0.00     0.177 C 
BRANCH  18  23
ATOM     23  O   UNL     1      10.339  69.034   2.373  1.00  0.00    -0.385 OA
ATOM     24  H   UNL     1       9.943  68.502   1.635  1.00  0.00     0.211 HD
ENDBRANCH  18  23
BRANCH  20  25
ATOM     25  O   UNL     1       8.412  70.938   2.685  1.00  0.00    -0.387 OA
ATOM     26  H   UNL     1       7.480  70.628   2.547  1.00  0.00     0.211 HD
ENDBRANCH  20  25
BRANCH  21  27
ATOM     27  C   UNL     1      11.692  71.267   6.370  1.00  0.00     0.191 C 
BRANCH  27  28
ATOM     28  O   UNL     1      12.944  70.967   5.816  1.00  0.00    -0.394 OA
ATOM     29  H   UNL     1      12.882  71.168   4.846  1.00  0.00     0.210 HD
ENDBRANCH  27  28
ENDBRANCH  21  27
BRANCH  22  30
ATOM     30  O   UNL     1       9.287  72.345   5.078  1.00  0.00    -0.387 OA
ATOM     31  H   UNL     1       8.939  72.098   5.974  1.00  0.00     0.211 HD
ENDBRANCH  22  30
ENDBRANCH   1  17
TORSDOF 10
ENDMDL
MODEL 5
REMARK VINA RESULT:    41.729      4.308      6.614
REMARK INTER + INTRA:          58.798
REMARK INTER:                  58.797
REMARK INTRA:                   0.001
REMARK UNBOUND:                -0.007
REMARK SMILES OC[C@@H]1O[C@@H](O[C@H]2OC=C[C@@H]3[C@@H](O)[C@@H]4O[C@]4(CO)[C@H]23)[C@H](O)[C@H](O)[C@H]1O
REMARK SMILES IDX 6 1 7 2 10 3 9 4 11 5 8 6 19 7 12 8 16 9 14 10 15 11 13 12
REMARK SMILES IDX 17 14 18 15 5 17 20 18 4 19 22 20 3 21 24 22 21 23 23 25
REMARK SMILES IDX 2 27 1 28 25 30
REMARK H PARENT 13 13 18 16 21 24 23 26 1 29 25 31
REMARK Flexibility Score: inf
ROOT
ATOM      1  O   UNL     1       9.495  73.551   4.771  1.00  0.00    -0.310 OA
ENDROOT
BRANCH   1   2
ATOM      2  C   UNL     1      10.279  72.394   4.548  1.00  0.00     0.315 C 
ATOM      3  C   UNL     1       9.203  70.925   6.738  1.00  0.00     0.018 C 
ATOM      4  C   UNL     1      10.390  71.524   6.848  1.00  0.00     0.186 C 
ATOM      5  C   UNL     1       8.510  70.733   5.403  1.00  0.00     0.059 C 
ATOM      6  O   UNL     1      11.013  72.083   5.731  1.00  0.00    -0.472 OA
ATOM      7  C   UNL     1       9.336  71.231   4.193  1.00  0.00     0.105 C 
ATOM      8  C   UNL     1       8.297  69.229   5.139  1.00  0.00     0.154 C 
ATOM      9  C   UNL     1      10.071  70.002   3.652  1.00  0.00     0.130 C 
ATOM     10  C   UNL     1       9.397  68.802   4.176  1.00  0.00     0.183 C 
ATOM     11  O   UNL     1      10.692  69.171   4.608  1.00  0.00    -0.360 OA
BRANCH   8  12
ATOM     12  O   UNL     1       7.055  69.016   4.521  1.00  0.00    -0.390 OA
ATOM     13  H   UNL     1       7.079  69.513   3.662  1.00  0.00     0.211 HD
ENDBRANCH   8  12
BRANCH   9  14
ATOM     14  C   UNL     1      10.606  69.896   2.220  1.00  0.00     0.195 C 
BRANCH  14  15
ATOM     15  O   UNL     1       9.558  69.989   1.295  1.00  0.00    -0.393 OA
ATOM     16  H   UNL     1       9.217  70.921   1.350  1.00  0.00     0.210 HD
ENDBRANCH  14  15
ENDBRANCH   9  14
ENDBRANCH   1   2
BRANCH   1  17
ATOM     17  C   UNL     1      10.148  74.470   5.640  1.00  0.00     0.286 C 
ATOM     18  C   UNL     1      11.496  74.926   5.035  1.00  0.00     0.202 C 
ATOM     19  O   UNL     1       9.304  75.582   5.896  1.00  0.00    -0.341 OA
ATOM     20  C   UNL     1      11.272  75.799   3.786  1.00  0.00     0.179 C 
ATOM     21  C   UNL     1       8.971  76.282   4.706  1.00  0.00     0.178 C 
ATOM     22  C   UNL     1      10.232  76.902   4.060  1.00  0.00     0.177 C 
BRANCH  18  23
ATOM     23  O   UNL     1      12.282  75.594   5.994  1.00  0.00    -0.385 OA
ATOM     24  H   UNL     1      12.048  75.238   6.890  1.00  0.00     0.211 HD
ENDBRANCH  18  23
BRANCH  20  25
ATOM     25  O   UNL     1      12.494  76.368   3.388  1.00  0.00    -0.387 OA
ATOM     26  H   UNL     1      12.775  76.987   4.111  1.00  0.00     0.211 HD
ENDBRANCH  20  25
BRANCH  21  27
ATOM     27  C   UNL     1       7.953  77.376   5.061  1.00  0.00     0.191 C 
BRANCH  27  28
ATOM     28  O   UNL     1       8.480  78.644   4.781  1.00  0.00    -0.394 OA
ATOM     29  H   UNL     1       9.061  78.542   3.983  1.00  0.00     0.210 HD
ENDBRANCH  27  28
ENDBRANCH  21  27
BRANCH  22  30
ATOM     30  O   UNL     1       9.878  77.526   2.851  1.00  0.00    -0.387 OA
ATOM     31  H   UNL     1       8.918  77.329   2.692  1.00  0.00     0.211 HD
ENDBRANCH  22  30
ENDBRANCH   1  17
TORSDOF 10
ENDMDL
