MODEL 1
REMARK VINA RESULT:    -8.243      0.000      0.000
REMARK INTER + INTRA:          -9.537
REMARK INTER:                  -9.448
REMARK INTRA:                  -0.089
REMARK UNBOUND:                -0.089
REMARK SMILES C=C(C)[C@H]1CC[C@@]2(C(=O)[O-])CC[C@]3(C)[C@@H](CC[C@@H]4[C@@]5(C)CC[C@@H](O)C(C)(C)[C@H]5CC[C@@]43C)[C@@H]12
REMARK SMILES IDX 7 1 6 2 33 3 11 4 5 5 15 6 4 7 12 8 16 9 13 10 17 11 31 12
REMARK SMILES IDX 14 13 18 14 30 15 32 16 19 17 29 18 21 19 20 20 28 21 22 22
REMARK SMILES IDX 25 23 23 24 26 25 27 26 8 27 9 28 10 29 2 30 3 31 1 32 24 33
REMARK H PARENT 24 34
REMARK Flexibility Score: inf
ROOT
ATOM      1  C   UNL     1      52.646   5.012   4.951  1.00  0.00     0.014 C 
ATOM      2  C   UNL     1      53.133   3.988   6.016  1.00  0.00     0.014 C 
ATOM      3  C   UNL     1      52.764   6.419   5.629  1.00  0.00     0.012 C 
ATOM      4  C   UNL     1      51.182   4.690   4.565  1.00  0.00     0.014 C 
ATOM      5  C   UNL     1      53.201   4.719   7.348  1.00  0.00     0.009 C 
ATOM      6  C   UNL     1      51.435   7.278   5.616  1.00  0.00     0.000 C 
ATOM      7  C   UNL     1      53.479   6.176   6.988  1.00  0.00     0.018 C 
ATOM      8  C   UNL     1      50.469   5.793   3.747  1.00  0.00     0.008 C 
ATOM      9  C   UNL     1      50.452   6.995   6.787  1.00  0.00     0.005 C 
ATOM     10  C   UNL     1      50.737   7.280   4.199  1.00  0.00    -0.024 C 
ATOM     11  C   UNL     1      48.998   6.742   6.390  1.00  0.00     0.005 C 
ATOM     12  C   UNL     1      49.384   8.182   4.229  1.00  0.00    -0.024 C 
ATOM     13  C   UNL     1      51.751   7.887   3.166  1.00  0.00     0.012 C 
ATOM     14  C   UNL     1      48.410   7.819   5.446  1.00  0.00     0.002 C 
ATOM     15  C   UNL     1      48.613   8.072   2.874  1.00  0.00     0.008 C 
ATOM     16  C   UNL     1      49.782   9.696   4.388  1.00  0.00     0.012 C 
ATOM     17  C   UNL     1      46.858   7.553   5.121  1.00  0.00    -0.026 C 
ATOM     18  C   UNL     1      47.318   8.880   2.862  1.00  0.00     0.005 C 
ATOM     19  C   UNL     1      46.039   7.800   6.443  1.00  0.00     0.010 C 
ATOM     20  C   UNL     1      46.606   6.052   4.737  1.00  0.00     0.012 C 
ATOM     21  C   UNL     1      46.282   8.457   3.935  1.00  0.00     0.003 C 
ATOM     22  C   UNL     1      44.535   7.947   6.230  1.00  0.00     0.033 C 
ATOM     23  C   UNL     1      45.327   9.640   4.369  1.00  0.00    -0.006 C 
ATOM     24  C   UNL     1      44.145   9.051   5.223  1.00  0.00     0.120 C 
ATOM     25  C   UNL     1      44.676  10.291   3.112  1.00  0.00     0.014 C 
ATOM     26  C   UNL     1      46.097  10.772   5.114  1.00  0.00     0.014 C 
ENDROOT
BRANCH   1  27
ATOM     27  C   UNL     1      53.558   4.902   3.732  1.00  0.00     0.048 C 
ATOM     28  O   UNL     1      54.125   5.932   3.273  1.00  0.00    -0.550 OA
ATOM     29  O   UNL     1      53.833   3.671   3.145  1.00  0.00    -0.550 OA
ENDBRANCH   1  27
BRANCH   7  30
ATOM     30  C   UNL     1      53.239   7.199   8.098  1.00  0.00    -0.077 C 
ATOM     31  C   UNL     1      52.297   6.913   9.247  1.00  0.00     0.039 C 
ATOM     32  C   UNL     1      53.971   8.324   8.116  1.00  0.00     0.008 C 
ENDBRANCH   7  30
BRANCH  24  33
ATOM     33  O   UNL     1      43.445  10.076   5.894  1.00  0.00    -0.393 OA
ATOM     34  H   UNL     1      43.316   9.784   6.836  1.00  0.00     0.210 HD
ENDBRANCH  24  33
TORSDOF 3
ENDMDL
MODEL 2
REMARK VINA RESULT:    -8.226      1.805      3.297
REMARK INTER + INTRA:          -9.518
REMARK INTER:                  -9.077
REMARK INTRA:                  -0.441
REMARK UNBOUND:                -0.089
REMARK SMILES C=C(C)[C@H]1CC[C@@]2(C(=O)[O-])CC[C@]3(C)[C@@H](CC[C@@H]4[C@@]5(C)CC[C@@H](O)C(C)(C)[C@H]5CC[C@@]43C)[C@@H]12
REMARK SMILES IDX 7 1 6 2 33 3 11 4 5 5 15 6 4 7 12 8 16 9 13 10 17 11 31 12
REMARK SMILES IDX 14 13 18 14 30 15 32 16 19 17 29 18 21 19 20 20 28 21 22 22
REMARK SMILES IDX 25 23 23 24 26 25 27 26 8 27 9 28 10 29 2 30 3 31 1 32 24 33
REMARK H PARENT 24 34
REMARK Flexibility Score: inf
ROOT
ATOM      1  C   UNL     1      52.617   7.343   4.470  1.00  0.00     0.014 C 
ATOM      2  C   UNL     1      53.799   7.984   5.251  1.00  0.00     0.014 C 
ATOM      3  C   UNL     1      52.217   8.387   3.374  1.00  0.00     0.012 C 
ATOM      4  C   UNL     1      51.447   7.070   5.448  1.00  0.00     0.014 C 
ATOM      5  C   UNL     1      53.857   9.452   4.861  1.00  0.00     0.009 C 
ATOM      6  C   UNL     1      50.689   8.801   3.375  1.00  0.00     0.000 C 
ATOM      7  C   UNL     1      53.291   9.509   3.444  1.00  0.00     0.018 C 
ATOM      8  C   UNL     1      50.104   6.715   4.769  1.00  0.00     0.008 C 
ATOM      9  C   UNL     1      50.315   9.951   4.352  1.00  0.00     0.005 C 
ATOM     10  C   UNL     1      49.730   7.551   3.484  1.00  0.00    -0.024 C 
ATOM     11  C   UNL     1      49.118   9.688   5.265  1.00  0.00     0.005 C 
ATOM     12  C   UNL     1      48.173   8.021   3.471  1.00  0.00    -0.024 C 
ATOM     13  C   UNL     1      50.009   6.623   2.249  1.00  0.00     0.012 C 
ATOM     14  C   UNL     1      47.857   9.190   4.517  1.00  0.00     0.002 C 
ATOM     15  C   UNL     1      47.223   6.806   3.722  1.00  0.00     0.008 C 
ATOM     16  C   UNL     1      47.816   8.570   2.039  1.00  0.00     0.012 C 
ATOM     17  C   UNL     1      46.604   9.004   5.506  1.00  0.00    -0.026 C 
ATOM     18  C   UNL     1      45.748   7.201   3.747  1.00  0.00     0.005 C 
ATOM     19  C   UNL     1      46.152  10.433   5.987  1.00  0.00     0.010 C 
ATOM     20  C   UNL     1      47.016   8.227   6.807  1.00  0.00     0.012 C 
ATOM     21  C   UNL     1      45.372   8.225   4.849  1.00  0.00     0.003 C 
ATOM     22  C   UNL     1      44.769  10.470   6.631  1.00  0.00     0.033 C 
ATOM     23  C   UNL     1      44.119   9.110   4.467  1.00  0.00    -0.006 C 
ATOM     24  C   UNL     1      43.644   9.895   5.743  1.00  0.00     0.120 C 
ATOM     25  C   UNL     1      42.929   8.197   4.045  1.00  0.00     0.014 C 
ATOM     26  C   UNL     1      44.414  10.051   3.260  1.00  0.00     0.014 C 
ENDROOT
BRANCH   1  27
ATOM     27  C   UNL     1      53.108   6.040   3.846  1.00  0.00     0.048 C 
ATOM     28  O   UNL     1      53.471   6.016   2.638  1.00  0.00    -0.550 OA
ATOM     29  O   UNL     1      53.226   4.877   4.602  1.00  0.00    -0.550 OA
ENDBRANCH   1  27
BRANCH   7  30
ATOM     30  C   UNL     1      52.891  10.894   2.936  1.00  0.00    -0.077 C 
ATOM     31  C   UNL     1      52.679  12.054   3.884  1.00  0.00     0.039 C 
ATOM     32  C   UNL     1      52.845  11.113   1.612  1.00  0.00     0.008 C 
ENDBRANCH   7  30
BRANCH  24  33
ATOM     33  O   UNL     1      42.742  10.925   5.398  1.00  0.00    -0.393 OA
ATOM     34  H   UNL     1      43.162  11.789   5.654  1.00  0.00     0.210 HD
ENDBRANCH  24  33
TORSDOF 3
ENDMDL
MODEL 3
REMARK VINA RESULT:    -8.059     16.022     18.963
REMARK INTER + INTRA:          -9.326
REMARK INTER:                  -8.935
REMARK INTRA:                  -0.391
REMARK UNBOUND:                -0.089
REMARK SMILES C=C(C)[C@H]1CC[C@@]2(C(=O)[O-])CC[C@]3(C)[C@@H](CC[C@@H]4[C@@]5(C)CC[C@@H](O)C(C)(C)[C@H]5CC[C@@]43C)[C@@H]12
REMARK SMILES IDX 7 1 6 2 33 3 11 4 5 5 15 6 4 7 12 8 16 9 13 10 17 11 31 12
REMARK SMILES IDX 14 13 18 14 30 15 32 16 19 17 29 18 21 19 20 20 28 21 22 22
REMARK SMILES IDX 25 23 23 24 26 25 27 26 8 27 9 28 10 29 2 30 3 31 1 32 24 33
REMARK H PARENT 24 34
REMARK Flexibility Score: inf
ROOT
ATOM      1  C   UNL     1      38.035  13.570  17.499  1.00  0.00     0.014 C 
ATOM      2  C   UNL     1      36.821  12.851  16.845  1.00  0.00     0.014 C 
ATOM      3  C   UNL     1      37.481  14.930  18.042  1.00  0.00     0.012 C 
ATOM      4  C   UNL     1      39.134  13.791  16.430  1.00  0.00     0.014 C 
ATOM      5  C   UNL     1      35.708  13.877  16.708  1.00  0.00     0.009 C 
ATOM      6  C   UNL     1      38.260  16.214  17.540  1.00  0.00     0.000 C 
ATOM      7  C   UNL     1      35.940  14.871  17.843  1.00  0.00     0.018 C 
ATOM      8  C   UNL     1      40.268  14.753  16.855  1.00  0.00     0.008 C 
ATOM      9  C   UNL     1      37.794  16.777  16.168  1.00  0.00     0.005 C 
ATOM     10  C   UNL     1      39.826  16.044  17.647  1.00  0.00    -0.024 C 
ATOM     11  C   UNL     1      38.899  17.048  15.149  1.00  0.00     0.005 C 
ATOM     12  C   UNL     1      40.584  17.388  17.132  1.00  0.00    -0.024 C 
ATOM     13  C   UNL     1      40.179  15.787  19.155  1.00  0.00     0.012 C 
ATOM     14  C   UNL     1      40.070  17.895  15.704  1.00  0.00     0.002 C 
ATOM     15  C   UNL     1      42.132  17.175  17.100  1.00  0.00     0.008 C 
ATOM     16  C   UNL     1      40.321  18.550  18.161  1.00  0.00     0.012 C 
ATOM     17  C   UNL     1      41.168  18.221  14.576  1.00  0.00    -0.026 C 
ATOM     18  C   UNL     1      42.889  18.402  16.596  1.00  0.00     0.005 C 
ATOM     19  C   UNL     1      40.515  19.211  13.540  1.00  0.00     0.010 C 
ATOM     20  C   UNL     1      41.542  16.934  13.758  1.00  0.00     0.012 C 
ATOM     21  C   UNL     1      42.525  18.837  15.153  1.00  0.00     0.003 C 
ATOM     22  C   UNL     1      41.516  19.902  12.618  1.00  0.00     0.033 C 
ATOM     23  C   UNL     1      42.744  20.383  14.902  1.00  0.00    -0.006 C 
ATOM     24  C   UNL     1      42.634  20.667  13.359  1.00  0.00     0.120 C 
ATOM     25  C   UNL     1      44.188  20.793  15.321  1.00  0.00     0.014 C 
ATOM     26  C   UNL     1      41.766  21.257  15.743  1.00  0.00     0.014 C 
ENDROOT
BRANCH   1  27
ATOM     27  C   UNL     1      38.558  12.689  18.631  1.00  0.00     0.048 C 
ATOM     28  O   UNL     1      39.031  11.548  18.375  1.00  0.00    -0.550 OA
ATOM     29  O   UNL     1      38.584  13.143  19.946  1.00  0.00    -0.550 OA
ENDBRANCH   1  27
BRANCH   7  30
ATOM     30  C   UNL     1      35.196  16.201  17.734  1.00  0.00    -0.077 C 
ATOM     31  C   UNL     1      34.336  16.530  16.534  1.00  0.00     0.039 C 
ATOM     32  C   UNL     1      35.211  17.044  18.780  1.00  0.00     0.008 C 
ENDBRANCH   7  30
BRANCH  24  33
ATOM     33  O   UNL     1      42.507  22.050  13.107  1.00  0.00    -0.393 OA
ATOM     34  H   UNL     1      43.334  22.492  13.439  1.00  0.00     0.210 HD
ENDBRANCH  24  33
TORSDOF 3
ENDMDL
MODEL 4
REMARK VINA RESULT:    -7.119     16.705     20.762
REMARK INTER + INTRA:          -8.249
REMARK INTER:                  -7.712
REMARK INTRA:                  -0.537
REMARK UNBOUND:                -0.089
REMARK SMILES C=C(C)[C@H]1CC[C@@]2(C(=O)[O-])CC[C@]3(C)[C@@H](CC[C@@H]4[C@@]5(C)CC[C@@H](O)C(C)(C)[C@H]5CC[C@@]43C)[C@@H]12
REMARK SMILES IDX 7 1 6 2 33 3 11 4 5 5 15 6 4 7 12 8 16 9 13 10 17 11 31 12
REMARK SMILES IDX 14 13 18 14 30 15 32 16 19 17 29 18 21 19 20 20 28 21 22 22
REMARK SMILES IDX 25 23 23 24 26 25 27 26 8 27 9 28 10 29 2 30 3 31 1 32 24 33
REMARK H PARENT 24 34
REMARK Flexibility Score: inf
ROOT
ATOM      1  C   UNL     1      36.705  21.431  16.281  1.00  0.00     0.014 C 
ATOM      2  C   UNL     1      35.356  22.049  15.813  1.00  0.00     0.014 C 
ATOM      3  C   UNL     1      37.325  20.753  15.013  1.00  0.00     0.012 C 
ATOM      4  C   UNL     1      36.431  20.397  17.401  1.00  0.00     0.014 C 
ATOM      5  C   UNL     1      35.045  21.469  14.443  1.00  0.00     0.009 C 
ATOM      6  C   UNL     1      37.706  19.228  15.194  1.00  0.00     0.000 C 
ATOM      7  C   UNL     1      36.406  21.154  13.825  1.00  0.00     0.018 C 
ATOM      8  C   UNL     1      37.634  19.491  17.755  1.00  0.00     0.008 C 
ATOM      9  C   UNL     1      36.547  18.222  14.945  1.00  0.00     0.005 C 
ATOM     10  C   UNL     1      38.488  18.960  16.539  1.00  0.00    -0.024 C 
ATOM     11  C   UNL     1      36.334  17.169  16.032  1.00  0.00     0.005 C 
ATOM     12  C   UNL     1      38.868  17.385  16.677  1.00  0.00    -0.024 C 
ATOM     13  C   UNL     1      39.803  19.818  16.508  1.00  0.00     0.012 C 
ATOM     14  C   UNL     1      37.623  16.411  16.432  1.00  0.00     0.002 C 
ATOM     15  C   UNL     1      39.514  17.089  18.069  1.00  0.00     0.008 C 
ATOM     16  C   UNL     1      39.959  17.025  15.601  1.00  0.00     0.012 C 
ATOM     17  C   UNL     1      37.334  15.262  17.519  1.00  0.00    -0.026 C 
ATOM     18  C   UNL     1      39.864  15.615  18.260  1.00  0.00     0.005 C 
ATOM     19  C   UNL     1      36.499  14.129  16.812  1.00  0.00     0.010 C 
ATOM     20  C   UNL     1      36.428  15.796  18.685  1.00  0.00     0.012 C 
ATOM     21  C   UNL     1      38.655  14.648  18.177  1.00  0.00     0.003 C 
ATOM     22  C   UNL     1      36.452  12.813  17.583  1.00  0.00     0.033 C 
ATOM     23  C   UNL     1      39.058  13.197  17.695  1.00  0.00    -0.006 C 
ATOM     24  C   UNL     1      37.840  12.230  17.924  1.00  0.00     0.120 C 
ATOM     25  C   UNL     1      40.224  12.648  18.570  1.00  0.00     0.014 C 
ATOM     26  C   UNL     1      39.560  13.189  16.220  1.00  0.00     0.014 C 
ENDROOT
BRANCH   1  27
ATOM     27  C   UNL     1      37.592  22.560  16.800  1.00  0.00     0.048 C 
ATOM     28  O   UNL     1      38.475  23.064  16.052  1.00  0.00    -0.550 OA
ATOM     29  O   UNL     1      37.408  23.097  18.071  1.00  0.00    -0.550 OA
ENDBRANCH   1  27
BRANCH   7  30
ATOM     30  C   UNL     1      36.393  20.232  12.607  1.00  0.00    -0.077 C 
ATOM     31  C   UNL     1      35.127  19.540  12.151  1.00  0.00     0.039 C 
ATOM     32  C   UNL     1      37.502  20.129  11.856  1.00  0.00     0.008 C 
ENDBRANCH   7  30
BRANCH  24  33
ATOM     33  O   UNL     1      38.023  11.012  17.234  1.00  0.00    -0.393 OA
ATOM     34  H   UNL     1      38.560  11.207  16.420  1.00  0.00     0.210 HD
ENDBRANCH  24  33
TORSDOF 3
ENDMDL
MODEL 5
REMARK VINA RESULT:    -6.765     16.566     19.474
REMARK INTER + INTRA:          -7.843
REMARK INTER:                  -7.340
REMARK INTRA:                  -0.504
REMARK UNBOUND:                -0.089
REMARK SMILES C=C(C)[C@H]1CC[C@@]2(C(=O)[O-])CC[C@]3(C)[C@@H](CC[C@@H]4[C@@]5(C)CC[C@@H](O)C(C)(C)[C@H]5CC[C@@]43C)[C@@H]12
REMARK SMILES IDX 7 1 6 2 33 3 11 4 5 5 15 6 4 7 12 8 16 9 13 10 17 11 31 12
REMARK SMILES IDX 14 13 18 14 30 15 32 16 19 17 29 18 21 19 20 20 28 21 22 22
REMARK SMILES IDX 25 23 23 24 26 25 27 26 8 27 9 28 10 29 2 30 3 31 1 32 24 33
REMARK H PARENT 24 34
REMARK Flexibility Score: inf
ROOT
ATOM      1  C   UNL     1      36.659  15.861  17.909  1.00  0.00     0.014 C 
ATOM      2  C   UNL     1      36.480  15.000  19.192  1.00  0.00     0.014 C 
ATOM      3  C   UNL     1      37.703  15.096  17.027  1.00  0.00     0.012 C 
ATOM      4  C   UNL     1      37.174  17.267  18.305  1.00  0.00     0.014 C 
ATOM      5  C   UNL     1      37.605  13.979  19.212  1.00  0.00     0.009 C 
ATOM      6  C   UNL     1      38.953  15.956  16.578  1.00  0.00     0.000 C 
ATOM      7  C   UNL     1      37.952  13.739  17.745  1.00  0.00     0.018 C 
ATOM      8  C   UNL     1      37.681  18.128  17.124  1.00  0.00     0.008 C 
ATOM      9  C   UNL     1      40.123  16.007  17.602  1.00  0.00     0.005 C 
ATOM     10  C   UNL     1      38.538  17.378  16.032  1.00  0.00    -0.024 C 
ATOM     11  C   UNL     1      40.660  17.399  17.931  1.00  0.00     0.005 C 
ATOM     12  C   UNL     1      39.851  18.221  15.574  1.00  0.00    -0.024 C 
ATOM     13  C   UNL     1      37.595  17.160  14.796  1.00  0.00     0.012 C 
ATOM     14  C   UNL     1      41.002  18.251  16.684  1.00  0.00     0.002 C 
ATOM     15  C   UNL     1      39.461  19.679  15.167  1.00  0.00     0.008 C 
ATOM     16  C   UNL     1      40.463  17.554  14.286  1.00  0.00     0.012 C 
ATOM     17  C   UNL     1      41.636  19.674  17.081  1.00  0.00    -0.026 C 
ATOM     18  C   UNL     1      40.665  20.522  14.755  1.00  0.00     0.005 C 
ATOM     19  C   UNL     1      43.062  19.412  17.696  1.00  0.00     0.010 C 
ATOM     20  C   UNL     1      40.804  20.371  18.216  1.00  0.00     0.012 C 
ATOM     21  C   UNL     1      41.739  20.699  15.859  1.00  0.00     0.003 C 
ATOM     22  C   UNL     1      43.942  20.655  17.788  1.00  0.00     0.033 C 
ATOM     23  C   UNL     1      43.189  20.937  15.277  1.00  0.00    -0.006 C 
ATOM     24  C   UNL     1      44.137  21.392  16.446  1.00  0.00     0.120 C 
ATOM     25  C   UNL     1      43.167  22.109  14.250  1.00  0.00     0.014 C 
ATOM     26  C   UNL     1      43.729  19.686  14.520  1.00  0.00     0.014 C 
ENDROOT
BRANCH   1  27
ATOM     27  C   UNL     1      35.306  15.963  17.210  1.00  0.00     0.048 C 
ATOM     28  O   UNL     1      34.949  15.070  16.393  1.00  0.00    -0.550 OA
ATOM     29  O   UNL     1      34.420  16.996  17.500  1.00  0.00    -0.550 OA
ENDBRANCH   1  27
BRANCH   7  30
ATOM     30  C   UNL     1      39.283  13.039  17.476  1.00  0.00    -0.077 C 
ATOM     31  C   UNL     1      40.216  12.652  18.603  1.00  0.00     0.039 C 
ATOM     32  C   UNL     1      39.574  12.651  16.223  1.00  0.00     0.008 C 
ENDBRANCH   7  30
BRANCH  24  33
ATOM     33  O   UNL     1      45.492  21.316  16.057  1.00  0.00    -0.393 OA
ATOM     34  H   UNL     1      45.515  21.046  15.101  1.00  0.00     0.210 HD
ENDBRANCH  24  33
TORSDOF 3
ENDMDL
MODEL 6
REMARK VINA RESULT:    -6.424     16.854     19.321
REMARK INTER + INTRA:          -7.452
REMARK INTER:                  -6.915
REMARK INTRA:                  -0.537
REMARK UNBOUND:                -0.089
REMARK SMILES C=C(C)[C@H]1CC[C@@]2(C(=O)[O-])CC[C@]3(C)[C@@H](CC[C@@H]4[C@@]5(C)CC[C@@H](O)C(C)(C)[C@H]5CC[C@@]43C)[C@@H]12
REMARK SMILES IDX 7 1 6 2 33 3 11 4 5 5 15 6 4 7 12 8 16 9 13 10 17 11 31 12
REMARK SMILES IDX 14 13 18 14 30 15 32 16 19 17 29 18 21 19 20 20 28 21 22 22
REMARK SMILES IDX 25 23 23 24 26 25 27 26 8 27 9 28 10 29 2 30 3 31 1 32 24 33
REMARK H PARENT 24 34
REMARK Flexibility Score: inf
ROOT
ATOM      1  C   UNL     1      42.343  21.314  16.767  1.00  0.00     0.014 C 
ATOM      2  C   UNL     1      42.010  22.780  16.371  1.00  0.00     0.014 C 
ATOM      3  C   UNL     1      42.269  20.487  15.439  1.00  0.00     0.012 C 
ATOM      4  C   UNL     1      41.305  20.817  17.804  1.00  0.00     0.014 C 
ATOM      5  C   UNL     1      41.437  22.749  14.963  1.00  0.00     0.009 C 
ATOM      6  C   UNL     1      41.306  19.232  15.490  1.00  0.00     0.000 C 
ATOM      7  C   UNL     1      42.073  21.528  14.302  1.00  0.00     0.018 C 
ATOM      8  C   UNL     1      41.328  19.292  18.064  1.00  0.00     0.008 C 
ATOM      9  C   UNL     1      39.812  19.530  15.177  1.00  0.00     0.005 C 
ATOM     10  C   UNL     1      41.512  18.370  16.797  1.00  0.00    -0.024 C 
ATOM     11  C   UNL     1      38.799  18.976  16.178  1.00  0.00     0.005 C 
ATOM     12  C   UNL     1      40.513  17.088  16.801  1.00  0.00    -0.024 C 
ATOM     13  C   UNL     1      43.002  17.876  16.816  1.00  0.00     0.012 C 
ATOM     14  C   UNL     1      38.990  17.473  16.497  1.00  0.00     0.002 C 
ATOM     15  C   UNL     1      40.609  16.313  18.155  1.00  0.00     0.008 C 
ATOM     16  C   UNL     1      40.970  16.079  15.683  1.00  0.00     0.012 C 
ATOM     17  C   UNL     1      37.854  16.918  17.491  1.00  0.00    -0.026 C 
ATOM     18  C   UNL     1      39.667  15.113  18.220  1.00  0.00     0.005 C 
ATOM     19  C   UNL     1      36.489  16.913  16.707  1.00  0.00     0.010 C 
ATOM     20  C   UNL     1      37.643  17.886  18.709  1.00  0.00     0.012 C 
ATOM     21  C   UNL     1      38.163  15.464  18.077  1.00  0.00     0.003 C 
ATOM     22  C   UNL     1      35.390  16.086  17.369  1.00  0.00     0.033 C 
ATOM     23  C   UNL     1      37.308  14.279  17.473  1.00  0.00    -0.006 C 
ATOM     24  C   UNL     1      35.782  14.617  17.641  1.00  0.00     0.120 C 
ATOM     25  C   UNL     1      37.559  12.972  18.283  1.00  0.00     0.014 C 
ATOM     26  C   UNL     1      37.694  13.973  15.995  1.00  0.00     0.014 C 
ENDROOT
BRANCH   1  27
ATOM     27  C   UNL     1      43.748  21.288  17.362  1.00  0.00     0.048 C 
ATOM     28  O   UNL     1      44.740  21.025  16.628  1.00  0.00    -0.550 OA
ATOM     29  O   UNL     1      43.973  21.612  18.697  1.00  0.00    -0.550 OA
ENDBRANCH   1  27
BRANCH   7  30
ATOM     30  C   UNL     1      41.412  21.042  13.013  1.00  0.00    -0.077 C 
ATOM     31  C   UNL     1      40.111  21.636  12.518  1.00  0.00     0.039 C 
ATOM     32  C   UNL     1      42.061  20.154  12.243  1.00  0.00     0.008 C 
ENDBRANCH   7  30
BRANCH  24  33
ATOM     33  O   UNL     1      34.984  13.761  16.852  1.00  0.00    -0.393 OA
ATOM     34  H   UNL     1      34.091  14.188  16.757  1.00  0.00     0.210 HD
ENDBRANCH  24  33
TORSDOF 3
ENDMDL
MODEL 7
REMARK VINA RESULT:    -6.231     15.431     19.111
REMARK INTER + INTRA:          -7.231
REMARK INTER:                  -6.813
REMARK INTRA:                  -0.418
REMARK UNBOUND:                -0.089
REMARK SMILES C=C(C)[C@H]1CC[C@@]2(C(=O)[O-])CC[C@]3(C)[C@@H](CC[C@@H]4[C@@]5(C)CC[C@@H](O)C(C)(C)[C@H]5CC[C@@]43C)[C@@H]12
REMARK SMILES IDX 7 1 6 2 33 3 11 4 5 5 15 6 4 7 12 8 16 9 13 10 17 11 31 12
REMARK SMILES IDX 14 13 18 14 30 15 32 16 19 17 29 18 21 19 20 20 28 21 22 22
REMARK SMILES IDX 25 23 23 24 26 25 27 26 8 27 9 28 10 29 2 30 3 31 1 32 24 33
REMARK H PARENT 24 34
REMARK Flexibility Score: inf
ROOT
ATOM      1  C   UNL     1      40.745  18.115  17.755  1.00  0.00     0.014 C 
ATOM      2  C   UNL     1      42.038  18.738  18.355  1.00  0.00     0.014 C 
ATOM      3  C   UNL     1      41.151  17.575  16.342  1.00  0.00     0.012 C 
ATOM      4  C   UNL     1      39.652  19.207  17.653  1.00  0.00     0.014 C 
ATOM      5  C   UNL     1      43.046  18.864  17.225  1.00  0.00     0.009 C 
ATOM      6  C   UNL     1      40.260  18.104  15.146  1.00  0.00     0.000 C 
ATOM      7  C   UNL     1      42.694  17.743  16.250  1.00  0.00     0.018 C 
ATOM      8  C   UNL     1      38.420  18.813  16.803  1.00  0.00     0.008 C 
ATOM      9  C   UNL     1      40.695  19.473  14.551  1.00  0.00     0.005 C 
ATOM     10  C   UNL     1      38.716  18.026  15.469  1.00  0.00    -0.024 C 
ATOM     11  C   UNL     1      39.589  20.516  14.398  1.00  0.00     0.005 C 
ATOM     12  C   UNL     1      37.840  18.569  14.211  1.00  0.00    -0.024 C 
ATOM     13  C   UNL     1      38.360  16.523  15.748  1.00  0.00     0.012 C 
ATOM     14  C   UNL     1      38.329  19.991  13.667  1.00  0.00     0.002 C 
ATOM     15  C   UNL     1      36.321  18.629  14.576  1.00  0.00     0.008 C 
ATOM     16  C   UNL     1      37.966  17.547  13.020  1.00  0.00     0.012 C 
ATOM     17  C   UNL     1      37.228  21.144  13.460  1.00  0.00    -0.026 C 
ATOM     18  C   UNL     1      35.457  19.160  13.435  1.00  0.00     0.005 C 
ATOM     19  C   UNL     1      37.800  22.177  12.419  1.00  0.00     0.010 C 
ATOM     20  C   UNL     1      36.999  21.957  14.784  1.00  0.00     0.012 C 
ATOM     21  C   UNL     1      35.805  20.599  12.977  1.00  0.00     0.003 C 
ATOM     22  C   UNL     1      36.755  23.125  11.837  1.00  0.00     0.033 C 
ATOM     23  C   UNL     1      35.440  20.870  11.462  1.00  0.00    -0.006 C 
ATOM     24  C   UNL     1      35.553  22.413  11.181  1.00  0.00     0.120 C 
ATOM     25  C   UNL     1      33.954  20.483  11.194  1.00  0.00     0.014 C 
ATOM     26  C   UNL     1      36.309  20.019  10.489  1.00  0.00     0.014 C 
ENDROOT
BRANCH   1  27
ATOM     27  C   UNL     1      40.289  16.985  18.674  1.00  0.00     0.048 C 
ATOM     28  O   UNL     1      40.549  15.786  18.377  1.00  0.00    -0.550 OA
ATOM     29  O   UNL     1      39.640  17.250  19.876  1.00  0.00    -0.550 OA
ENDBRANCH   1  27
BRANCH   7  30
ATOM     30  C   UNL     1      43.305  17.851  14.854  1.00  0.00    -0.077 C 
ATOM     31  C   UNL     1      43.017  16.822  13.782  1.00  0.00     0.039 C 
ATOM     32  C   UNL     1      44.014  18.946  14.536  1.00  0.00     0.008 C 
ENDBRANCH   7  30
BRANCH  24  33
ATOM     33  O   UNL     1      35.547  22.676   9.794  1.00  0.00    -0.393 OA
ATOM     34  H   UNL     1      36.156  22.020   9.362  1.00  0.00     0.210 HD
ENDBRANCH  24  33
TORSDOF 3
ENDMDL
MODEL 8
REMARK VINA RESULT:    -5.868     17.190     19.968
REMARK INTER + INTRA:          -6.815
REMARK INTER:                  -6.283
REMARK INTRA:                  -0.532
REMARK UNBOUND:                -0.089
REMARK SMILES C=C(C)[C@H]1CC[C@@]2(C(=O)[O-])CC[C@]3(C)[C@@H](CC[C@@H]4[C@@]5(C)CC[C@@H](O)C(C)(C)[C@H]5CC[C@@]43C)[C@@H]12
REMARK SMILES IDX 7 1 6 2 33 3 11 4 5 5 15 6 4 7 12 8 16 9 13 10 17 11 31 12
REMARK SMILES IDX 14 13 18 14 30 15 32 16 19 17 29 18 21 19 20 20 28 21 22 22
REMARK SMILES IDX 25 23 23 24 26 25 27 26 8 27 9 28 10 29 2 30 3 31 1 32 24 33
REMARK H PARENT 24 34
REMARK Flexibility Score: inf
ROOT
ATOM      1  C   UNL     1      38.122  14.921  17.323  1.00  0.00     0.014 C 
ATOM      2  C   UNL     1      36.858  14.885  16.416  1.00  0.00     0.014 C 
ATOM      3  C   UNL     1      37.842  16.023  18.399  1.00  0.00     0.012 C 
ATOM      4  C   UNL     1      39.359  15.271  16.460  1.00  0.00     0.014 C 
ATOM      5  C   UNL     1      36.041  16.127  16.732  1.00  0.00     0.009 C 
ATOM      6  C   UNL     1      38.953  17.146  18.506  1.00  0.00     0.000 C 
ATOM      7  C   UNL     1      36.364  16.458  18.187  1.00  0.00     0.018 C 
ATOM      8  C   UNL     1      40.629  15.635  17.265  1.00  0.00     0.008 C 
ATOM      9  C   UNL     1      38.795  18.330  17.511  1.00  0.00     0.005 C 
ATOM     10  C   UNL     1      40.412  16.544  18.536  1.00  0.00    -0.024 C 
ATOM     11  C   UNL     1      40.046  18.702  16.715  1.00  0.00     0.005 C 
ATOM     12  C   UNL     1      41.518  17.729  18.657  1.00  0.00    -0.024 C 
ATOM     13  C   UNL     1      40.515  15.599  19.785  1.00  0.00     0.012 C 
ATOM     14  C   UNL     1      41.309  18.901  17.588  1.00  0.00     0.002 C 
ATOM     15  C   UNL     1      42.966  17.153  18.543  1.00  0.00     0.008 C 
ATOM     16  C   UNL     1      41.416  18.381  20.087  1.00  0.00     0.012 C 
ATOM     17  C   UNL     1      42.577  19.368  16.717  1.00  0.00    -0.026 C 
ATOM     18  C   UNL     1      44.043  18.232  18.623  1.00  0.00     0.005 C 
ATOM     19  C   UNL     1      42.300  20.832  16.210  1.00  0.00     0.010 C 
ATOM     20  C   UNL     1      42.733  18.491  15.423  1.00  0.00     0.012 C 
ATOM     21  C   UNL     1      43.963  19.308  17.510  1.00  0.00     0.003 C 
ATOM     22  C   UNL     1      43.536  21.557  15.683  1.00  0.00     0.033 C 
ATOM     23  C   UNL     1      44.566  20.701  17.954  1.00  0.00    -0.006 C 
ATOM     24  C   UNL     1      44.706  21.621  16.687  1.00  0.00     0.120 C 
ATOM     25  C   UNL     1      46.006  20.505  18.516  1.00  0.00     0.014 C 
ATOM     26  C   UNL     1      43.727  21.367  19.087  1.00  0.00     0.014 C 
ENDROOT
BRANCH   1  27
ATOM     27  C   UNL     1      38.288  13.545  17.963  1.00  0.00     0.048 C 
ATOM     28  O   UNL     1      37.770  13.307  19.089  1.00  0.00    -0.550 OA
ATOM     29  O   UNL     1      38.951  12.516  17.302  1.00  0.00    -0.550 OA
ENDBRANCH   1  27
BRANCH   7  30
ATOM     30  C   UNL     1      35.970  17.856  18.662  1.00  0.00    -0.077 C 
ATOM     31  C   UNL     1      35.434  18.895  17.701  1.00  0.00     0.039 C 
ATOM     32  C   UNL     1      35.987  18.126  19.977  1.00  0.00     0.008 C 
ENDBRANCH   7  30
BRANCH  24  33
ATOM     33  O   UNL     1      44.938  22.963  17.058  1.00  0.00    -0.393 OA
ATOM     34  H   UNL     1      44.090  23.320  17.434  1.00  0.00     0.210 HD
ENDBRANCH  24  33
TORSDOF 3
ENDMDL
MODEL 9
REMARK VINA RESULT:    -5.708     17.155     19.443
REMARK INTER + INTRA:          -6.631
REMARK INTER:                  -7.008
REMARK INTRA:                   0.377
REMARK UNBOUND:                -0.089
REMARK SMILES C=C(C)[C@H]1CC[C@@]2(C(=O)[O-])CC[C@]3(C)[C@@H](CC[C@@H]4[C@@]5(C)CC[C@@H](O)C(C)(C)[C@H]5CC[C@@]43C)[C@@H]12
REMARK SMILES IDX 7 1 6 2 33 3 11 4 5 5 15 6 4 7 12 8 16 9 13 10 17 11 31 12
REMARK SMILES IDX 14 13 18 14 30 15 32 16 19 17 29 18 21 19 20 20 28 21 22 22
REMARK SMILES IDX 25 23 23 24 26 25 27 26 8 27 9 28 10 29 2 30 3 31 1 32 24 33
REMARK H PARENT 24 34
REMARK Flexibility Score: inf
ROOT
ATOM      1  C   UNL     1      39.208  14.524  18.279  1.00  0.00     0.014 C 
ATOM      2  C   UNL     1      38.533  13.141  18.056  1.00  0.00     0.014 C 
ATOM      3  C   UNL     1      38.046  15.514  18.628  1.00  0.00     0.012 C 
ATOM      4  C   UNL     1      39.945  14.948  16.984  1.00  0.00     0.014 C 
ATOM      5  C   UNL     1      37.037  13.382  17.940  1.00  0.00     0.009 C 
ATOM      6  C   UNL     1      37.978  16.807  17.719  1.00  0.00     0.000 C 
ATOM      7  C   UNL     1      36.770  14.636  18.769  1.00  0.00     0.018 C 
ATOM      8  C   UNL     1      40.407  16.423  16.954  1.00  0.00     0.008 C 
ATOM      9  C   UNL     1      37.195  16.639  16.385  1.00  0.00     0.005 C 
ATOM     10  C   UNL     1      39.392  17.484  17.532  1.00  0.00    -0.024 C 
ATOM     11  C   UNL     1      37.912  17.122  15.126  1.00  0.00     0.005 C 
ATOM     12  C   UNL     1      39.273  18.813  16.601  1.00  0.00    -0.024 C 
ATOM     13  C   UNL     1      39.924  17.884  18.953  1.00  0.00     0.012 C 
ATOM     14  C   UNL     1      38.476  18.559  15.237  1.00  0.00     0.002 C 
ATOM     15  C   UNL     1      40.686  19.405  16.295  1.00  0.00     0.008 C 
ATOM     16  C   UNL     1      38.492  19.925  17.396  1.00  0.00     0.012 C 
ATOM     17  C   UNL     1      39.151  19.050  13.863  1.00  0.00    -0.026 C 
ATOM     18  C   UNL     1      40.630  20.640  15.399  1.00  0.00     0.005 C 
ATOM     19  C   UNL     1      38.003  19.235  12.801  1.00  0.00     0.010 C 
ATOM     20  C   UNL     1      40.105  17.952  13.273  1.00  0.00     0.012 C 
ATOM     21  C   UNL     1      39.997  20.399  14.005  1.00  0.00     0.003 C 
ATOM     22  C   UNL     1      38.413  20.035  11.568  1.00  0.00     0.033 C 
ATOM     23  C   UNL     1      39.333  21.699  13.396  1.00  0.00    -0.006 C 
ATOM     24  C   UNL     1      38.988  21.432  11.885  1.00  0.00     0.120 C 
ATOM     25  C   UNL     1      40.352  22.877  13.411  1.00  0.00     0.014 C 
ATOM     26  C   UNL     1      38.094  22.165  14.219  1.00  0.00     0.014 C 
ENDROOT
BRANCH   1  27
ATOM     27  C   UNL     1      40.195  14.392  19.436  1.00  0.00     0.048 C 
ATOM     28  O   UNL     1      40.223  13.335  20.124  1.00  0.00    -0.550 OA
ATOM     29  O   UNL     1      41.117  15.396  19.717  1.00  0.00    -0.550 OA
ENDBRANCH   1  27
BRANCH   7  30
ATOM     30  C   UNL     1      35.422  15.318  18.541  1.00  0.00    -0.077 C 
ATOM     31  C   UNL     1      34.974  16.490  19.387  1.00  0.00     0.039 C 
ATOM     32  C   UNL     1      34.674  14.946  17.490  1.00  0.00     0.008 C 
ENDBRANCH   7  30
BRANCH  24  33
ATOM     33  O   UNL     1      38.121  22.426  11.381  1.00  0.00    -0.393 OA
ATOM     34  H   UNL     1      37.822  22.980  12.150  1.00  0.00     0.210 HD
ENDBRANCH  24  33
TORSDOF 3
ENDMDL
