MODEL 1
REMARK VINA RESULT:    -3.991      0.000      0.000
REMARK INTER + INTRA:          -3.991
REMARK INTER:                  -3.991
REMARK INTRA:                   0.000
REMARK UNBOUND:                 0.000
REMARK SMILES CC1=CC(=O)[C@H]2C[C@@H]1C2(C)C
REMARK SMILES IDX 1 1 2 2 3 3 4 4 5 5 6 6 7 7 8 8 9 9 10 10 11 11
REMARK H PARENT
REMARK Flexibility Score: inf
ROOT
ATOM      1  C   UNL     1      88.125  28.896  64.810  1.00  0.00     0.040 C 
ATOM      2  C   UNL     1      87.592  30.218  65.263  1.00  0.00    -0.066 C 
ATOM      3  C   UNL     1      87.455  30.511  66.586  1.00  0.00     0.047 C 
ATOM      4  C   UNL     1      86.880  31.857  66.910  1.00  0.00     0.159 C 
ATOM      5  O   UNL     1      86.668  32.230  68.093  1.00  0.00    -0.295 OA
ATOM      6  C   UNL     1      86.565  32.742  65.704  1.00  0.00     0.067 C 
ATOM      7  C   UNL     1      87.817  32.618  64.807  1.00  0.00     0.021 C 
ATOM      8  C   UNL     1      87.185  31.318  64.258  1.00  0.00     0.022 C 
ATOM      9  C   UNL     1      85.795  31.893  64.653  1.00  0.00    -0.019 C 
ATOM     10  C   UNL     1      84.707  30.904  65.158  1.00  0.00     0.012 C 
ATOM     11  C   UNL     1      85.176  32.764  63.530  1.00  0.00     0.012 C 
ENDROOT
TORSDOF 0
ENDMDL
MODEL 2
REMARK VINA RESULT:    -3.924      2.044      3.449
REMARK INTER + INTRA:          -3.924
REMARK INTER:                  -3.924
REMARK INTRA:                   0.000
REMARK UNBOUND:                 0.000
REMARK SMILES CC1=CC(=O)[C@H]2C[C@@H]1C2(C)C
REMARK SMILES IDX 1 1 2 2 3 3 4 4 5 5 6 6 7 7 8 8 9 9 10 10 11 11
REMARK H PARENT
REMARK Flexibility Score: inf
ROOT
ATOM      1  C   UNL     1      84.217  31.625  68.023  1.00  0.00     0.040 C 
ATOM      2  C   UNL     1      85.054  31.714  66.786  1.00  0.00    -0.066 C 
ATOM      3  C   UNL     1      84.552  32.222  65.626  1.00  0.00     0.047 C 
ATOM      4  C   UNL     1      85.481  32.228  64.450  1.00  0.00     0.159 C 
ATOM      5  O   UNL     1      85.123  32.635  63.314  1.00  0.00    -0.295 OA
ATOM      6  C   UNL     1      86.890  31.703  64.724  1.00  0.00     0.067 C 
ATOM      7  C   UNL     1      87.296  32.385  66.049  1.00  0.00     0.021 C 
ATOM      8  C   UNL     1      86.527  31.252  66.766  1.00  0.00     0.022 C 
ATOM      9  C   UNL     1      86.776  30.366  65.512  1.00  0.00    -0.019 C 
ATOM     10  C   UNL     1      85.670  29.356  65.094  1.00  0.00     0.012 C 
ATOM     11  C   UNL     1      88.125  29.607  65.583  1.00  0.00     0.012 C 
ENDROOT
TORSDOF 0
ENDMDL
MODEL 3
REMARK VINA RESULT:    -3.900      1.616      3.345
REMARK INTER + INTRA:          -3.900
REMARK INTER:                  -3.900
REMARK INTRA:                   0.000
REMARK UNBOUND:                 0.000
REMARK SMILES CC1=CC(=O)[C@H]2C[C@@H]1C2(C)C
REMARK SMILES IDX 1 1 2 2 3 3 4 4 5 5 6 6 7 7 8 8 9 9 10 10 11 11
REMARK H PARENT
REMARK Flexibility Score: inf
ROOT
ATOM      1  C   UNL     1      83.645  30.324  64.322  1.00  0.00     0.040 C 
ATOM      2  C   UNL     1      84.784  31.157  64.817  1.00  0.00    -0.066 C 
ATOM      3  C   UNL     1      85.076  32.364  64.257  1.00  0.00     0.047 C 
ATOM      4  C   UNL     1      86.261  33.087  64.822  1.00  0.00     0.159 C 
ATOM      5  O   UNL     1      86.655  34.192  64.364  1.00  0.00    -0.295 OA
ATOM      6  C   UNL     1      86.959  32.389  65.989  1.00  0.00     0.067 C 
ATOM      7  C   UNL     1      85.801  31.941  66.907  1.00  0.00     0.021 C 
ATOM      8  C   UNL     1      85.674  30.700  65.993  1.00  0.00     0.022 C 
ATOM      9  C   UNL     1      87.171  30.894  65.618  1.00  0.00    -0.019 C 
ATOM     10  C   UNL     1      87.615  30.550  64.168  1.00  0.00     0.012 C 
ATOM     11  C   UNL     1      88.125  30.171  66.602  1.00  0.00     0.012 C 
ENDROOT
TORSDOF 0
ENDMDL
MODEL 4
REMARK VINA RESULT:    -3.871      1.477      2.237
REMARK INTER + INTRA:          -3.871
REMARK INTER:                  -3.871
REMARK INTRA:                   0.000
REMARK UNBOUND:                 0.000
REMARK SMILES CC1=CC(=O)[C@H]2C[C@@H]1C2(C)C
REMARK SMILES IDX 1 1 2 2 3 3 4 4 5 5 6 6 7 7 8 8 9 9 10 10 11 11
REMARK H PARENT
REMARK Flexibility Score: inf
ROOT
ATOM      1  C   UNL     1      88.013  29.036  65.120  1.00  0.00     0.040 C 
ATOM      2  C   UNL     1      87.375  30.389  65.109  1.00  0.00    -0.066 C 
ATOM      3  C   UNL     1      88.125  31.526  65.078  1.00  0.00     0.047 C 
ATOM      4  C   UNL     1      87.368  32.819  65.103  1.00  0.00     0.159 C 
ATOM      5  O   UNL     1      87.947  33.937  65.117  1.00  0.00    -0.295 OA
ATOM      6  C   UNL     1      85.845  32.687  65.114  1.00  0.00     0.067 C 
ATOM      7  C   UNL     1      85.551  31.625  64.032  1.00  0.00     0.021 C 
ATOM      8  C   UNL     1      85.842  30.565  65.119  1.00  0.00     0.022 C 
ATOM      9  C   UNL     1      85.447  31.629  66.182  1.00  0.00    -0.019 C 
ATOM     10  C   UNL     1      86.207  31.629  67.539  1.00  0.00     0.012 C 
ATOM     11  C   UNL     1      83.926  31.633  66.478  1.00  0.00     0.012 C 
ENDROOT
TORSDOF 0
ENDMDL
MODEL 5
REMARK VINA RESULT:    -3.817      1.785      3.090
REMARK INTER + INTRA:          -3.817
REMARK INTER:                  -3.817
REMARK INTRA:                   0.000
REMARK UNBOUND:                 0.000
REMARK SMILES CC1=CC(=O)[C@H]2C[C@@H]1C2(C)C
REMARK SMILES IDX 1 1 2 2 3 3 4 4 5 5 6 6 7 7 8 8 9 9 10 10 11 11
REMARK H PARENT
REMARK Flexibility Score: inf
ROOT
ATOM      1  C   UNL     1      88.125  34.160  65.038  1.00  0.00     0.040 C 
ATOM      2  C   UNL     1      87.590  32.785  65.286  1.00  0.00    -0.066 C 
ATOM      3  C   UNL     1      88.065  31.706  64.603  1.00  0.00     0.047 C 
ATOM      4  C   UNL     1      87.426  30.388  64.920  1.00  0.00     0.159 C 
ATOM      5  O   UNL     1      87.749  29.325  64.329  1.00  0.00    -0.295 OA
ATOM      6  C   UNL     1      86.352  30.425  66.008  1.00  0.00     0.067 C 
ATOM      7  C   UNL     1      86.979  31.284  67.128  1.00  0.00     0.021 C 
ATOM      8  C   UNL     1      86.489  32.518  66.335  1.00  0.00     0.022 C 
ATOM      9  C   UNL     1      85.389  31.611  65.713  1.00  0.00    -0.019 C 
ATOM     10  C   UNL     1      84.968  31.871  64.240  1.00  0.00     0.012 C 
ATOM     11  C   UNL     1      84.107  31.559  66.582  1.00  0.00     0.012 C 
ENDROOT
TORSDOF 0
ENDMDL
MODEL 6
REMARK VINA RESULT:    -3.537      1.834      3.241
REMARK INTER + INTRA:          -3.537
REMARK INTER:                  -3.537
REMARK INTRA:                   0.000
REMARK UNBOUND:                 0.000
REMARK SMILES CC1=CC(=O)[C@H]2C[C@@H]1C2(C)C
REMARK SMILES IDX 1 1 2 2 3 3 4 4 5 5 6 6 7 7 8 8 9 9 10 10 11 11
REMARK H PARENT
REMARK Flexibility Score: inf
ROOT
ATOM      1  C   UNL     1      83.476  31.323  65.588  1.00  0.00     0.040 C 
ATOM      2  C   UNL     1      84.931  31.097  65.320  1.00  0.00    -0.066 C 
ATOM      3  C   UNL     1      85.439  29.841  65.181  1.00  0.00     0.047 C 
ATOM      4  C   UNL     1      86.917  29.747  64.947  1.00  0.00     0.159 C 
ATOM      5  O   UNL     1      87.511  28.643  64.842  1.00  0.00    -0.295 OA
ATOM      6  C   UNL     1      87.651  31.084  64.849  1.00  0.00     0.067 C 
ATOM      7  C   UNL     1      86.760  31.937  63.919  1.00  0.00     0.021 C 
ATOM      8  C   UNL     1      85.922  32.272  65.174  1.00  0.00     0.022 C 
ATOM      9  C   UNL     1      87.192  31.990  66.028  1.00  0.00    -0.019 C 
ATOM     10  C   UNL     1      87.005  31.341  67.428  1.00  0.00     0.012 C 
ATOM     11  C   UNL     1      88.085  33.245  66.190  1.00  0.00     0.012 C 
ENDROOT
TORSDOF 0
ENDMDL
MODEL 7
REMARK VINA RESULT:    -3.508      1.781      3.343
REMARK INTER + INTRA:          -3.508
REMARK INTER:                  -3.508
REMARK INTRA:                   0.000
REMARK UNBOUND:                 0.000
REMARK SMILES CC1=CC(=O)[C@H]2C[C@@H]1C2(C)C
REMARK SMILES IDX 1 1 2 2 3 3 4 4 5 5 6 6 7 7 8 8 9 9 10 10 11 11
REMARK H PARENT
REMARK Flexibility Score: inf
ROOT
ATOM      1  C   UNL     1      84.899  33.296  63.429  1.00  0.00     0.040 C 
ATOM      2  C   UNL     1      85.542  32.245  64.277  1.00  0.00    -0.066 C 
ATOM      3  C   UNL     1      85.219  30.928  64.140  1.00  0.00     0.047 C 
ATOM      4  C   UNL     1      85.909  29.977  65.069  1.00  0.00     0.159 C 
ATOM      5  O   UNL     1      85.668  28.742  65.068  1.00  0.00    -0.295 OA
ATOM      6  C   UNL     1      86.923  30.611  66.022  1.00  0.00     0.067 C 
ATOM      7  C   UNL     1      87.741  31.564  65.123  1.00  0.00     0.021 C 
ATOM      8  C   UNL     1      86.609  32.595  65.336  1.00  0.00     0.022 C 
ATOM      9  C   UNL     1      86.275  31.868  66.670  1.00  0.00    -0.019 C 
ATOM     10  C   UNL     1      84.786  31.787  67.109  1.00  0.00     0.012 C 
ATOM     11  C   UNL     1      87.104  32.411  67.861  1.00  0.00     0.012 C 
ENDROOT
TORSDOF 0
ENDMDL
MODEL 8
REMARK VINA RESULT:    -3.465      1.214      3.152
REMARK INTER + INTRA:          -3.465
REMARK INTER:                  -3.465
REMARK INTRA:                   0.000
REMARK UNBOUND:                 0.000
REMARK SMILES CC1=CC(=O)[C@H]2C[C@@H]1C2(C)C
REMARK SMILES IDX 1 1 2 2 3 3 4 4 5 5 6 6 7 7 8 8 9 9 10 10 11 11
REMARK H PARENT
REMARK Flexibility Score: inf
ROOT
ATOM      1  C   UNL     1      85.084  33.357  63.063  1.00  0.00     0.040 C 
ATOM      2  C   UNL     1      85.709  32.703  64.255  1.00  0.00    -0.066 C 
ATOM      3  C   UNL     1      86.650  33.344  65.003  1.00  0.00     0.047 C 
ATOM      4  C   UNL     1      87.222  32.571  66.152  1.00  0.00     0.159 C 
ATOM      5  O   UNL     1      88.125  33.039  66.894  1.00  0.00    -0.295 OA
ATOM      6  C   UNL     1      86.636  31.174  66.359  1.00  0.00     0.067 C 
ATOM      7  C   UNL     1      85.110  31.383  66.234  1.00  0.00     0.021 C 
ATOM      8  C   UNL     1      85.311  31.281  64.704  1.00  0.00     0.022 C 
ATOM      9  C   UNL     1      86.593  30.446  64.985  1.00  0.00    -0.019 C 
ATOM     10  C   UNL     1      87.803  30.614  64.023  1.00  0.00     0.012 C 
ATOM     11  C   UNL     1      86.293  28.933  65.128  1.00  0.00     0.012 C 
ENDROOT
TORSDOF 0
ENDMDL
MODEL 9
REMARK VINA RESULT:    -3.426      1.146      2.760
REMARK INTER + INTRA:          -3.426
REMARK INTER:                  -3.426
REMARK INTRA:                   0.000
REMARK UNBOUND:                 0.000
REMARK SMILES CC1=CC(=O)[C@H]2C[C@@H]1C2(C)C
REMARK SMILES IDX 1 1 2 2 3 3 4 4 5 5 6 6 7 7 8 8 9 9 10 10 11 11
REMARK H PARENT
REMARK Flexibility Score: inf
ROOT
ATOM      1  C   UNL     1      83.220  30.900  64.857  1.00  0.00     0.040 C 
ATOM      2  C   UNL     1      84.597  31.048  65.422  1.00  0.00    -0.066 C 
ATOM      3  C   UNL     1      84.811  31.667  66.616  1.00  0.00     0.047 C 
ATOM      4  C   UNL     1      86.238  31.780  67.058  1.00  0.00     0.159 C 
ATOM      5  O   UNL     1      86.568  32.364  68.123  1.00  0.00    -0.295 OA
ATOM      6  C   UNL     1      87.266  31.140  66.123  1.00  0.00     0.067 C 
ATOM      7  C   UNL     1      86.656  29.764  65.779  1.00  0.00     0.021 C 
ATOM      8  C   UNL     1      85.839  30.496  64.690  1.00  0.00     0.022 C 
ATOM      9  C   UNL     1      86.953  31.582  64.665  1.00  0.00    -0.019 C 
ATOM     10  C   UNL     1      86.534  33.058  64.416  1.00  0.00     0.012 C 
ATOM     11  C   UNL     1      88.099  31.231  63.684  1.00  0.00     0.012 C 
ENDROOT
TORSDOF 0
ENDMDL
