MODEL 1
REMARK VINA RESULT:    -3.033      0.000      0.000
REMARK INTER + INTRA:          -3.700
REMARK INTER:                  -3.565
REMARK INTRA:                  -0.135
REMARK UNBOUND:                -0.135
REMARK SMILES CCCCC(=O)[O-]
REMARK SMILES IDX 4 1 5 2 6 3 7 4 3 5 2 6 1 7
REMARK H PARENT
REMARK Flexibility Score: inf
ROOT
ATOM      1  C   UNL     1       7.725 -15.622   6.818  1.00  0.00     0.053 C 
ENDROOT
BRANCH   1   2
ATOM      2  C   UNL     1       7.411 -15.666   5.356  1.00  0.00     0.041 C 
ATOM      3  O   UNL     1       6.226 -15.838   4.967  1.00  0.00    -0.550 OA
ATOM      4  O   UNL     1       8.435 -15.564   4.422  1.00  0.00    -0.550 OA
ENDBRANCH   1   2
BRANCH   1   5
ATOM      5  C   UNL     1       8.738 -14.513   7.115  1.00  0.00     0.006 C 
BRANCH   5   6
ATOM      6  C   UNL     1       8.089 -13.129   6.991  1.00  0.00    -0.003 C 
ATOM      7  C   UNL     1       8.878 -12.234   6.039  1.00  0.00     0.004 C 
ENDBRANCH   5   6
ENDBRANCH   1   5
TORSDOF 3
ENDMDL
MODEL 2
REMARK VINA RESULT:    -3.020     10.333     11.670
REMARK INTER + INTRA:          -3.684
REMARK INTER:                  -3.555
REMARK INTRA:                  -0.128
REMARK UNBOUND:                -0.135
REMARK SMILES CCCCC(=O)[O-]
REMARK SMILES IDX 4 1 5 2 6 3 7 4 3 5 2 6 1 7
REMARK H PARENT
REMARK Flexibility Score: inf
ROOT
ATOM      1  C   UNL     1      14.668  -7.785  -0.882  1.00  0.00     0.053 C 
ENDROOT
BRANCH   1   2
ATOM      2  C   UNL     1      13.668  -8.743  -0.316  1.00  0.00     0.041 C 
ATOM      3  O   UNL     1      13.485  -9.864  -0.860  1.00  0.00    -0.550 OA
ATOM      4  O   UNL     1      12.903  -8.378   0.785  1.00  0.00    -0.550 OA
ENDBRANCH   1   2
BRANCH   1   5
ATOM      5  C   UNL     1      14.487  -7.656  -2.398  1.00  0.00     0.006 C 
BRANCH   5   6
ATOM      6  C   UNL     1      13.189  -6.913  -2.735  1.00  0.00    -0.003 C 
ATOM      7  C   UNL     1      12.348  -7.700  -3.736  1.00  0.00     0.004 C 
ENDBRANCH   5   6
ENDBRANCH   1   5
TORSDOF 3
ENDMDL
MODEL 3
REMARK VINA RESULT:    -3.018     10.151     11.475
REMARK INTER + INTRA:          -3.682
REMARK INTER:                  -3.553
REMARK INTRA:                  -0.129
REMARK UNBOUND:                -0.135
REMARK SMILES CCCCC(=O)[O-]
REMARK SMILES IDX 4 1 5 2 6 3 7 4 3 5 2 6 1 7
REMARK H PARENT
REMARK Flexibility Score: inf
ROOT
ATOM      1  C   UNL     1       3.510 -18.623  -4.873  1.00  0.00     0.053 C 
ENDROOT
BRANCH   1   2
ATOM      2  C   UNL     1       4.489 -17.493  -4.808  1.00  0.00     0.041 C 
ATOM      3  O   UNL     1       5.475 -17.553  -4.027  1.00  0.00    -0.550 OA
ATOM      4  O   UNL     1       4.286 -16.353  -5.575  1.00  0.00    -0.550 OA
ENDBRANCH   1   2
BRANCH   1   5
ATOM      5  C   UNL     1       3.117 -19.073  -3.463  1.00  0.00     0.006 C 
BRANCH   5   6
ATOM      6  C   UNL     1       2.212 -18.036  -2.787  1.00  0.00    -0.003 C 
ATOM      7  C   UNL     1       2.746 -17.652  -1.411  1.00  0.00     0.004 C 
ENDBRANCH   5   6
ENDBRANCH   1   5
TORSDOF 3
ENDMDL
MODEL 4
REMARK VINA RESULT:    -3.015     13.292     14.300
REMARK INTER + INTRA:          -3.678
REMARK INTER:                  -3.551
REMARK INTRA:                  -0.127
REMARK UNBOUND:                -0.135
REMARK SMILES CCCCC(=O)[O-]
REMARK SMILES IDX 4 1 5 2 6 3 7 4 3 5 2 6 1 7
REMARK H PARENT
REMARK Flexibility Score: inf
ROOT
ATOM      1  C   UNL     1       7.434 -14.397  -9.103  1.00  0.00     0.053 C 
ENDROOT
BRANCH   1   2
ATOM      2  C   UNL     1       8.069 -13.714  -7.933  1.00  0.00     0.041 C 
ATOM      3  O   UNL     1       8.489 -14.389  -6.957  1.00  0.00    -0.550 OA
ATOM      4  O   UNL     1       8.154 -12.327  -7.900  1.00  0.00    -0.550 OA
ENDBRANCH   1   2
BRANCH   1   5
ATOM      5  C   UNL     1       6.335 -15.355  -8.633  1.00  0.00     0.006 C 
BRANCH   5   6
ATOM      6  C   UNL     1       5.126 -14.581  -8.094  1.00  0.00    -0.003 C 
ATOM      7  C   UNL     1       4.635 -15.175  -6.777  1.00  0.00     0.004 C 
ENDBRANCH   5   6
ENDBRANCH   1   5
TORSDOF 3
ENDMDL
MODEL 5
REMARK VINA RESULT:    -3.005      5.082      6.494
REMARK INTER + INTRA:          -3.667
REMARK INTER:                  -3.540
REMARK INTRA:                  -0.126
REMARK UNBOUND:                -0.135
REMARK SMILES CCCCC(=O)[O-]
REMARK SMILES IDX 4 1 5 2 6 3 7 4 3 5 2 6 1 7
REMARK H PARENT
REMARK Flexibility Score: inf
ROOT
ATOM      1  C   UNL     1      12.532 -10.483   5.515  1.00  0.00     0.053 C 
ENDROOT
BRANCH   1   2
ATOM      2  C   UNL     1      11.511 -11.330   4.825  1.00  0.00     0.041 C 
ATOM      3  O   UNL     1      11.781 -11.878   3.723  1.00  0.00    -0.550 OA
ATOM      4  O   UNL     1      10.243 -11.477   5.374  1.00  0.00    -0.550 OA
ENDBRANCH   1   2
BRANCH   1   5
ATOM      5  C   UNL     1      13.260  -9.590   4.505  1.00  0.00     0.006 C 
BRANCH   5   6
ATOM      6  C   UNL     1      12.376  -8.413   4.076  1.00  0.00    -0.003 C 
ATOM      7  C   UNL     1      12.244  -8.348   2.557  1.00  0.00     0.004 C 
ENDBRANCH   5   6
ENDBRANCH   1   5
TORSDOF 3
ENDMDL
MODEL 6
REMARK VINA RESULT:    -2.957      2.066      3.246
REMARK INTER + INTRA:          -3.611
REMARK INTER:                  -3.499
REMARK INTRA:                  -0.111
REMARK UNBOUND:                -0.135
REMARK SMILES CCCCC(=O)[O-]
REMARK SMILES IDX 4 1 5 2 6 3 7 4 3 5 2 6 1 7
REMARK H PARENT
REMARK Flexibility Score: inf
ROOT
ATOM      1  C   UNL     1       8.844 -14.653   7.175  1.00  0.00     0.053 C 
ENDROOT
BRANCH   1   2
ATOM      2  C   UNL     1       8.624 -13.261   6.672  1.00  0.00     0.041 C 
ATOM      3  O   UNL     1       7.625 -12.599   7.057  1.00  0.00    -0.550 OA
ATOM      4  O   UNL     1       9.498 -12.713   5.741  1.00  0.00    -0.550 OA
ENDBRANCH   1   2
BRANCH   1   5
ATOM      5  C   UNL     1       7.661 -15.551   6.799  1.00  0.00     0.006 C 
BRANCH   5   6
ATOM      6  C   UNL     1       7.639 -15.829   5.291  1.00  0.00    -0.003 C 
ATOM      7  C   UNL     1       6.210 -15.863   4.759  1.00  0.00     0.004 C 
ENDBRANCH   5   6
ENDBRANCH   1   5
TORSDOF 3
ENDMDL
MODEL 7
REMARK VINA RESULT:    -2.944      5.811      7.258
REMARK INTER + INTRA:          -3.595
REMARK INTER:                  -3.474
REMARK INTRA:                  -0.121
REMARK UNBOUND:                -0.135
REMARK SMILES CCCCC(=O)[O-]
REMARK SMILES IDX 4 1 5 2 6 3 7 4 3 5 2 6 1 7
REMARK H PARENT
REMARK Flexibility Score: inf
ROOT
ATOM      1  C   UNL     1      13.336  -9.579   4.386  1.00  0.00     0.053 C 
ENDROOT
BRANCH   1   2
ATOM      2  C   UNL     1      12.455  -8.724   3.532  1.00  0.00     0.041 C 
ATOM      3  O   UNL     1      11.541  -8.033   4.056  1.00  0.00    -0.550 OA
ATOM      4  O   UNL     1      12.611  -8.727   2.151  1.00  0.00    -0.550 OA
ENDBRANCH   1   2
BRANCH   1   5
ATOM      5  C   UNL     1      12.500 -10.371   5.396  1.00  0.00     0.006 C 
BRANCH   5   6
ATOM      6  C   UNL     1      11.721 -11.495   4.702  1.00  0.00    -0.003 C 
ATOM      7  C   UNL     1      10.272 -11.537   5.179  1.00  0.00     0.004 C 
ENDBRANCH   5   6
ENDBRANCH   1   5
TORSDOF 3
ENDMDL
MODEL 8
REMARK VINA RESULT:    -2.942     10.482     11.919
REMARK INTER + INTRA:          -3.593
REMARK INTER:                  -3.484
REMARK INTRA:                  -0.109
REMARK UNBOUND:                -0.135
REMARK SMILES CCCCC(=O)[O-]
REMARK SMILES IDX 4 1 5 2 6 3 7 4 3 5 2 6 1 7
REMARK H PARENT
REMARK Flexibility Score: inf
ROOT
ATOM      1  C   UNL     1      14.568  -7.780  -2.424  1.00  0.00     0.053 C 
ENDROOT
BRANCH   1   2
ATOM      2  C   UNL     1      13.237  -7.458  -3.027  1.00  0.00     0.041 C 
ATOM      3  O   UNL     1      12.671  -6.364  -2.767  1.00  0.00    -0.550 OA
ATOM      4  O   UNL     1      12.600  -8.389  -3.838  1.00  0.00    -0.550 OA
ENDBRANCH   1   2
BRANCH   1   5
ATOM      5  C   UNL     1      14.476  -7.785  -0.895  1.00  0.00     0.006 C 
BRANCH   5   6
ATOM      6  C   UNL     1      13.658  -8.983  -0.398  1.00  0.00    -0.003 C 
ATOM      7  C   UNL     1      12.857  -8.623   0.849  1.00  0.00     0.004 C 
ENDBRANCH   5   6
ENDBRANCH   1   5
TORSDOF 3
ENDMDL
MODEL 9
REMARK VINA RESULT:    -2.917      5.033      6.330
REMARK INTER + INTRA:          -3.563
REMARK INTER:                  -3.433
REMARK INTRA:                  -0.130
REMARK UNBOUND:                -0.135
REMARK SMILES CCCCC(=O)[O-]
REMARK SMILES IDX 4 1 5 2 6 3 7 4 3 5 2 6 1 7
REMARK H PARENT
REMARK Flexibility Score: inf
ROOT
ATOM      1  C   UNL     1       3.531 -19.014   2.141  1.00  0.00     0.053 C 
ENDROOT
BRANCH   1   2
ATOM      2  C   UNL     1       4.349 -18.336   1.087  1.00  0.00     0.041 C 
ATOM      3  O   UNL     1       3.806 -17.931   0.026  1.00  0.00    -0.550 OA
ATOM      4  O   UNL     1       5.721 -18.194   1.257  1.00  0.00    -0.550 OA
ENDBRANCH   1   2
BRANCH   1   5
ATOM      5  C   UNL     1       4.035 -18.635   3.537  1.00  0.00     0.006 C 
BRANCH   5   6
ATOM      6  C   UNL     1       3.549 -17.236   3.935  1.00  0.00    -0.003 C 
ATOM      7  C   UNL     1       4.722 -16.318   4.263  1.00  0.00     0.004 C 
ENDBRANCH   5   6
ENDBRANCH   1   5
TORSDOF 3
ENDMDL
