MODEL 1
REMARK VINA RESULT:    -4.217      0.000      0.000
REMARK INTER + INTRA:          -7.672
REMARK INTER:                  -6.189
REMARK INTRA:                  -1.483
REMARK UNBOUND:                -1.483
REMARK SMILES O=c1c(O[C@@H]2O[C@@H](CO)[C@@H](O)[C@H](O)[C@@H]2O)c(-c2ccc(O)c(O)c2)oc2cc(O)cc(O)c12
REMARK SMILES IDX 4 1 3 2 16 3 25 4 2 5 26 6 1 7 33 8 27 9 31 10 28 11 30 12
REMARK SMILES IDX 17 13 18 14 19 15 20 16 24 17 22 18 21 19 23 21 32 23 29 25
REMARK SMILES IDX 5 27 14 28 6 29 12 30 7 31 10 32 15 33 13 35 8 37 9 38 11 40
REMARK H PARENT 21 20 23 22 32 24 29 26 15 34 13 36 9 39 11 41
REMARK Flexibility Score: inf
ROOT
ATOM      1  O   UNL     1      18.612  33.919  43.600  1.00  0.00    -0.454 OA
ENDROOT
BRANCH   1   2
ATOM      2  C   UNL     1      17.556  34.277  42.732  1.00  0.00     0.214 A 
ATOM      3  C   UNL     1      17.782  34.098  41.354  1.00  0.00     0.180 A 
ATOM      4  O   UNL     1      16.855  34.427  40.462  1.00  0.00    -0.452 OA
ATOM      5  C   UNL     1      16.293  34.770  43.137  1.00  0.00     0.239 A 
ATOM      6  C   UNL     1      15.666  34.907  40.799  1.00  0.00     0.146 A 
ATOM      7  O   UNL     1      16.013  34.891  44.357  1.00  0.00    -0.285 OA
ATOM      8  C   UNL     1      15.328  35.101  42.159  1.00  0.00     0.111 A 
ATOM      9  C   UNL     1      14.739  35.193  39.792  1.00  0.00     0.094 A 
ATOM     10  C   UNL     1      14.038  35.592  42.481  1.00  0.00     0.134 A 
ATOM     11  C   UNL     1      13.460  35.652  40.119  1.00  0.00     0.123 A 
ATOM     12  C   UNL     1      13.117  35.853  41.457  1.00  0.00     0.093 A 
BRANCH   3  13
ATOM     13  C   UNL     1      19.047  33.515  40.876  1.00  0.00     0.025 A 
ATOM     14  C   UNL     1      19.253  32.129  40.954  1.00  0.00     0.016 A 
ATOM     15  C   UNL     1      20.457  31.572  40.521  1.00  0.00     0.051 A 
ATOM     16  C   UNL     1      21.472  32.394  40.010  1.00  0.00     0.157 A 
ATOM     17  C   UNL     1      20.050  34.335  40.338  1.00  0.00     0.062 A 
ATOM     18  C   UNL     1      21.266  33.782  39.916  1.00  0.00     0.158 A 
BRANCH  16  19
ATOM     19  O   UNL     1      22.679  31.837  39.596  1.00  0.00    -0.504 OA
ATOM     20  H   UNL     1      22.705  31.004  39.017  1.00  0.00     0.293 HD
ENDBRANCH  16  19
BRANCH  18  21
ATOM     21  O   UNL     1      22.259  34.626  39.416  1.00  0.00    -0.504 OA
ATOM     22  H   UNL     1      22.196  35.633  39.491  1.00  0.00     0.293 HD
ENDBRANCH  18  21
ENDBRANCH   3  13
BRANCH  10  23
ATOM     23  O   UNL     1      13.664  35.828  43.806  1.00  0.00    -0.507 OA
ATOM     24  H   UNL     1      13.600  35.077  44.485  1.00  0.00     0.293 HD
ENDBRANCH  10  23
BRANCH  11  25
ATOM     25  O   UNL     1      12.520  35.898  39.120  1.00  0.00    -0.508 OA
ATOM     26  H   UNL     1      12.120  35.146  38.565  1.00  0.00     0.293 HD
ENDBRANCH  11  25
ENDBRANCH   1   2
BRANCH   1  27
ATOM     27  C   UNL     1      19.759  34.655  44.045  1.00  0.00     0.339 C 
ATOM     28  C   UNL     1      19.374  36.046  44.598  1.00  0.00     0.214 C 
ATOM     29  O   UNL     1      20.532  33.886  44.951  1.00  0.00    -0.332 OA
ATOM     30  C   UNL     1      20.657  36.818  44.951  1.00  0.00     0.180 C 
ATOM     31  C   UNL     1      21.756  34.516  45.317  1.00  0.00     0.179 C 
ATOM     32  C   UNL     1      21.559  35.958  45.866  1.00  0.00     0.177 C 
BRANCH  28  33
ATOM     33  O   UNL     1      18.544  35.922  45.726  1.00  0.00    -0.384 OA
ATOM     34  H   UNL     1      17.811  36.586  45.624  1.00  0.00     0.211 HD
ENDBRANCH  28  33
BRANCH  30  35
ATOM     35  O   UNL     1      20.358  38.064  45.535  1.00  0.00    -0.387 OA
ATOM     36  H   UNL     1      21.138  38.347  46.080  1.00  0.00     0.211 HD
ENDBRANCH  30  35
BRANCH  31  37
ATOM     37  C   UNL     1      22.859  34.332  44.245  1.00  0.00     0.191 C 
BRANCH  37  38
ATOM     38  O   UNL     1      24.127  34.699  44.710  1.00  0.00    -0.394 OA
ATOM     39  H   UNL     1      24.374  35.523  44.215  1.00  0.00     0.210 HD
ENDBRANCH  37  38
ENDBRANCH  31  37
BRANCH  32  40
ATOM     40  O   UNL     1      22.789  36.588  46.124  1.00  0.00    -0.387 OA
ATOM     41  H   UNL     1      23.515  35.999  45.786  1.00  0.00     0.211 HD
ENDBRANCH  32  40
ENDBRANCH   1  27
TORSDOF 12
ENDMDL
MODEL 2
REMARK VINA RESULT:    -3.915      3.158      6.015
REMARK INTER + INTRA:          -7.229
REMARK INTER:                  -6.383
REMARK INTRA:                  -0.846
REMARK UNBOUND:                -1.483
REMARK SMILES O=c1c(O[C@@H]2O[C@@H](CO)[C@@H](O)[C@H](O)[C@@H]2O)c(-c2ccc(O)c(O)c2)oc2cc(O)cc(O)c12
REMARK SMILES IDX 4 1 3 2 16 3 25 4 2 5 26 6 1 7 33 8 27 9 31 10 28 11 30 12
REMARK SMILES IDX 17 13 18 14 19 15 20 16 24 17 22 18 21 19 23 21 32 23 29 25
REMARK SMILES IDX 5 27 14 28 6 29 12 30 7 31 10 32 15 33 13 35 8 37 9 38 11 40
REMARK H PARENT 21 20 23 22 32 24 29 26 15 34 13 36 9 39 11 41
REMARK Flexibility Score: inf
ROOT
ATOM      1  O   UNL     1      20.912  33.268  43.107  1.00  0.00    -0.454 OA
ENDROOT
BRANCH   1   2
ATOM      2  C   UNL     1      21.426  33.447  41.803  1.00  0.00     0.214 A 
ATOM      3  C   UNL     1      22.794  33.171  41.619  1.00  0.00     0.180 A 
ATOM      4  O   UNL     1      23.369  33.332  40.433  1.00  0.00    -0.452 OA
ATOM      5  C   UNL     1      20.674  33.851  40.674  1.00  0.00     0.239 A 
ATOM      6  C   UNL     1      22.705  33.724  39.354  1.00  0.00     0.146 A 
ATOM      7  O   UNL     1      19.436  34.050  40.766  1.00  0.00    -0.285 OA
ATOM      8  C   UNL     1      21.319  34.002  39.425  1.00  0.00     0.111 A 
ATOM      9  C   UNL     1      23.387  33.832  38.138  1.00  0.00     0.094 A 
ATOM     10  C   UNL     1      20.639  34.394  38.246  1.00  0.00     0.134 A 
ATOM     11  C   UNL     1      22.703  34.194  36.975  1.00  0.00     0.123 A 
ATOM     12  C   UNL     1      21.337  34.477  37.033  1.00  0.00     0.093 A 
BRANCH   3  13
ATOM     13  C   UNL     1      23.611  32.672  42.738  1.00  0.00     0.025 A 
ATOM     14  C   UNL     1      23.549  31.318  43.101  1.00  0.00     0.016 A 
ATOM     15  C   UNL     1      24.305  30.842  44.173  1.00  0.00     0.051 A 
ATOM     16  C   UNL     1      25.128  31.715  44.899  1.00  0.00     0.157 A 
ATOM     17  C   UNL     1      24.455  33.541  43.445  1.00  0.00     0.062 A 
ATOM     18  C   UNL     1      25.205  33.071  44.532  1.00  0.00     0.158 A 
BRANCH  16  19
ATOM     19  O   UNL     1      25.867  31.241  45.979  1.00  0.00    -0.504 OA
ATOM     20  H   UNL     1      26.671  31.748  46.333  1.00  0.00     0.293 HD
ENDBRANCH  16  19
BRANCH  18  21
ATOM     21  O   UNL     1      26.011  33.964  45.239  1.00  0.00    -0.504 OA
ATOM     22  H   UNL     1      26.684  34.561  44.775  1.00  0.00     0.293 HD
ENDBRANCH  18  21
ENDBRANCH   3  13
BRANCH  10  23
ATOM     23  O   UNL     1      19.277  34.707  38.267  1.00  0.00    -0.507 OA
ATOM     24  H   UNL     1      18.840  35.244  37.525  1.00  0.00     0.293 HD
ENDBRANCH  10  23
BRANCH  11  25
ATOM     25  O   UNL     1      23.371  34.261  35.753  1.00  0.00    -0.508 OA
ATOM     26  H   UNL     1      22.868  34.322  34.872  1.00  0.00     0.293 HD
ENDBRANCH  11  25
ENDBRANCH   1   2
BRANCH   1  27
ATOM     27  C   UNL     1      20.400  34.211  44.057  1.00  0.00     0.339 C 
ATOM     28  C   UNL     1      21.433  35.311  44.393  1.00  0.00     0.214 C 
ATOM     29  O   UNL     1      19.149  34.726  43.634  1.00  0.00    -0.332 OA
ATOM     30  C   UNL     1      20.859  36.218  45.495  1.00  0.00     0.180 C 
ATOM     31  C   UNL     1      18.530  35.563  44.607  1.00  0.00     0.179 C 
ATOM     32  C   UNL     1      19.452  36.718  45.093  1.00  0.00     0.177 C 
BRANCH  28  33
ATOM     33  O   UNL     1      21.750  36.063  43.248  1.00  0.00    -0.384 OA
ATOM     34  H   UNL     1      22.740  36.060  43.161  1.00  0.00     0.211 HD
ENDBRANCH  28  33
BRANCH  30  35
ATOM     35  O   UNL     1      21.730  37.287  45.781  1.00  0.00    -0.387 OA
ATOM     36  H   UNL     1      22.381  37.366  45.035  1.00  0.00     0.211 HD
ENDBRANCH  30  35
BRANCH  31  37
ATOM     37  C   UNL     1      17.805  34.751  45.709  1.00  0.00     0.191 C 
BRANCH  37  38
ATOM     38  O   UNL     1      16.718  34.023  45.213  1.00  0.00    -0.394 OA
ATOM     39  H   UNL     1      16.621  34.287  44.262  1.00  0.00     0.210 HD
ENDBRANCH  37  38
ENDBRANCH  31  37
BRANCH  32  40
ATOM     40  O   UNL     1      18.852  37.464  46.123  1.00  0.00    -0.387 OA
ATOM     41  H   UNL     1      17.866  37.375  46.033  1.00  0.00     0.211 HD
ENDBRANCH  32  40
ENDBRANCH   1  27
TORSDOF 12
ENDMDL
MODEL 3
REMARK VINA RESULT:    -3.840      1.188      2.155
REMARK INTER + INTRA:          -7.119
REMARK INTER:                  -5.499
REMARK INTRA:                  -1.620
REMARK UNBOUND:                -1.483
REMARK SMILES O=c1c(O[C@@H]2O[C@@H](CO)[C@@H](O)[C@H](O)[C@@H]2O)c(-c2ccc(O)c(O)c2)oc2cc(O)cc(O)c12
REMARK SMILES IDX 4 1 3 2 16 3 25 4 2 5 26 6 1 7 33 8 27 9 31 10 28 11 30 12
REMARK SMILES IDX 17 13 18 14 19 15 20 16 24 17 22 18 21 19 23 21 32 23 29 25
REMARK SMILES IDX 5 27 14 28 6 29 12 30 7 31 10 32 15 33 13 35 8 37 9 38 11 40
REMARK H PARENT 21 20 23 22 32 24 29 26 15 34 13 36 9 39 11 41
REMARK Flexibility Score: inf
ROOT
ATOM      1  O   UNL     1      18.809  33.332  42.926  1.00  0.00    -0.454 OA
ENDROOT
BRANCH   1   2
ATOM      2  C   UNL     1      17.852  34.014  42.142  1.00  0.00     0.214 A 
ATOM      3  C   UNL     1      18.125  34.126  40.765  1.00  0.00     0.180 A 
ATOM      4  O   UNL     1      17.293  34.769  39.955  1.00  0.00    -0.452 OA
ATOM      5  C   UNL     1      16.640  34.564  42.623  1.00  0.00     0.239 A 
ATOM      6  C   UNL     1      16.157  35.313  40.368  1.00  0.00     0.146 A 
ATOM      7  O   UNL     1      16.315  34.440  43.832  1.00  0.00    -0.285 OA
ATOM      8  C   UNL     1      15.775  35.234  41.728  1.00  0.00     0.111 A 
ATOM      9  C   UNL     1      15.326  35.941  39.435  1.00  0.00     0.094 A 
ATOM     10  C   UNL     1      14.542  35.806  42.127  1.00  0.00     0.134 A 
ATOM     11  C   UNL     1      14.098  36.478  39.832  1.00  0.00     0.123 A 
ATOM     12  C   UNL     1      13.714  36.413  41.173  1.00  0.00     0.093 A 
BRANCH   3  13
ATOM     13  C   UNL     1      19.332  33.505  40.192  1.00  0.00     0.025 A 
ATOM     14  C   UNL     1      19.369  32.119  39.972  1.00  0.00     0.016 A 
ATOM     15  C   UNL     1      20.516  31.522  39.448  1.00  0.00     0.051 A 
ATOM     16  C   UNL     1      21.641  32.301  39.142  1.00  0.00     0.157 A 
ATOM     17  C   UNL     1      20.446  34.290  39.860  1.00  0.00     0.062 A 
ATOM     18  C   UNL     1      21.605  33.692  39.348  1.00  0.00     0.158 A 
BRANCH  16  19
ATOM     19  O   UNL     1      22.790  31.699  38.636  1.00  0.00    -0.504 OA
ATOM     20  H   UNL     1      23.004  30.726  38.826  1.00  0.00     0.293 HD
ENDBRANCH  16  19
BRANCH  18  21
ATOM     21  O   UNL     1      22.711  34.493  39.057  1.00  0.00    -0.504 OA
ATOM     22  H   UNL     1      22.705  35.492  39.212  1.00  0.00     0.293 HD
ENDBRANCH  18  21
ENDBRANCH   3  13
BRANCH  10  23
ATOM     23  O   UNL     1      14.131  35.780  43.463  1.00  0.00    -0.507 OA
ATOM     24  H   UNL     1      13.769  34.937  43.894  1.00  0.00     0.293 HD
ENDBRANCH  10  23
BRANCH  11  25
ATOM     25  O   UNL     1      13.248  37.067  38.898  1.00  0.00    -0.508 OA
ATOM     26  H   UNL     1      12.248  36.891  38.899  1.00  0.00     0.293 HD
ENDBRANCH  11  25
ENDBRANCH   1   2
BRANCH   1  27
ATOM     27  C   UNL     1      19.803  33.817  43.838  1.00  0.00     0.339 C 
ATOM     28  C   UNL     1      20.954  32.803  44.032  1.00  0.00     0.214 C 
ATOM     29  O   UNL     1      20.250  35.107  43.457  1.00  0.00    -0.332 OA
ATOM     30  C   UNL     1      21.920  33.341  45.101  1.00  0.00     0.180 C 
ATOM     31  C   UNL     1      21.135  35.695  44.406  1.00  0.00     0.179 C 
ATOM     32  C   UNL     1      22.349  34.785  44.752  1.00  0.00     0.177 C 
BRANCH  28  33
ATOM     33  O   UNL     1      21.630  32.580  42.819  1.00  0.00    -0.384 OA
ATOM     34  H   UNL     1      22.168  33.394  42.631  1.00  0.00     0.211 HD
ENDBRANCH  28  33
BRANCH  30  35
ATOM     35  O   UNL     1      23.032  32.490  45.257  1.00  0.00    -0.387 OA
ATOM     36  H   UNL     1      23.851  33.050  45.280  1.00  0.00     0.211 HD
ENDBRANCH  30  35
BRANCH  31  37
ATOM     37  C   UNL     1      20.384  36.327  45.604  1.00  0.00     0.191 C 
BRANCH  37  38
ATOM     38  O   UNL     1      21.046  37.444  46.125  1.00  0.00    -0.394 OA
ATOM     39  H   UNL     1      20.809  38.204  45.533  1.00  0.00     0.210 HD
ENDBRANCH  37  38
ENDBRANCH  31  37
BRANCH  32  40
ATOM     40  O   UNL     1      23.149  35.348  45.762  1.00  0.00    -0.387 OA
ATOM     41  H   UNL     1      24.030  35.581  45.364  1.00  0.00     0.211 HD
ENDBRANCH  32  40
ENDBRANCH   1  27
TORSDOF 12
ENDMDL
MODEL 4
REMARK VINA RESULT:    -3.805      2.164      6.553
REMARK INTER + INTRA:          -7.067
REMARK INTER:                  -5.318
REMARK INTRA:                  -1.749
REMARK UNBOUND:                -1.483
REMARK SMILES O=c1c(O[C@@H]2O[C@@H](CO)[C@@H](O)[C@H](O)[C@@H]2O)c(-c2ccc(O)c(O)c2)oc2cc(O)cc(O)c12
REMARK SMILES IDX 4 1 3 2 16 3 25 4 2 5 26 6 1 7 33 8 27 9 31 10 28 11 30 12
REMARK SMILES IDX 17 13 18 14 19 15 20 16 24 17 22 18 21 19 23 21 32 23 29 25
REMARK SMILES IDX 5 27 14 28 6 29 12 30 7 31 10 32 15 33 13 35 8 37 9 38 11 40
REMARK H PARENT 21 20 23 22 32 24 29 26 15 34 13 36 9 39 11 41
REMARK Flexibility Score: inf
ROOT
ATOM      1  O   UNL     1      17.225  33.965  40.814  1.00  0.00    -0.454 OA
ENDROOT
BRANCH   1   2
ATOM      2  C   UNL     1      18.322  34.189  41.676  1.00  0.00     0.214 A 
ATOM      3  C   UNL     1      19.604  33.949  41.146  1.00  0.00     0.180 A 
ATOM      4  O   UNL     1      20.692  34.111  41.889  1.00  0.00    -0.452 OA
ATOM      5  C   UNL     1      18.235  34.657  43.009  1.00  0.00     0.239 A 
ATOM      6  C   UNL     1      20.652  34.531  43.146  1.00  0.00     0.146 A 
ATOM      7  O   UNL     1      17.120  34.947  43.515  1.00  0.00    -0.285 OA
ATOM      8  C   UNL     1      19.415  34.826  43.767  1.00  0.00     0.111 A 
ATOM      9  C   UNL     1      21.853  34.707  43.841  1.00  0.00     0.094 A 
ATOM     10  C   UNL     1      19.416  35.297  45.104  1.00  0.00     0.134 A 
ATOM     11  C   UNL     1      21.846  35.197  45.150  1.00  0.00     0.123 A 
ATOM     12  C   UNL     1      20.631  35.485  45.776  1.00  0.00     0.093 A 
BRANCH   3  13
ATOM     13  C   UNL     1      19.763  33.537  39.741  1.00  0.00     0.025 A 
ATOM     14  C   UNL     1      19.658  32.181  39.392  1.00  0.00     0.016 A 
ATOM     15  C   UNL     1      19.827  31.781  38.067  1.00  0.00     0.051 A 
ATOM     16  C   UNL     1      20.110  32.730  37.073  1.00  0.00     0.157 A 
ATOM     17  C   UNL     1      20.017  34.490  38.744  1.00  0.00     0.062 A 
ATOM     18  C   UNL     1      20.203  34.091  37.414  1.00  0.00     0.158 A 
BRANCH  16  19
ATOM     19  O   UNL     1      20.297  32.325  35.755  1.00  0.00    -0.504 OA
ATOM     20  H   UNL     1      19.759  31.563  35.355  1.00  0.00     0.293 HD
ENDBRANCH  16  19
BRANCH  18  21
ATOM     21  O   UNL     1      20.488  35.058  36.448  1.00  0.00    -0.504 OA
ATOM     22  H   UNL     1      21.204  35.759  36.585  1.00  0.00     0.293 HD
ENDBRANCH  18  21
ENDBRANCH   3  13
BRANCH  10  23
ATOM     23  O   UNL     1      18.221  35.575  45.772  1.00  0.00    -0.507 OA
ATOM     24  H   UNL     1      18.079  36.445  46.275  1.00  0.00     0.293 HD
ENDBRANCH  10  23
BRANCH  11  25
ATOM     25  O   UNL     1      23.042  35.413  45.831  1.00  0.00    -0.508 OA
ATOM     26  H   UNL     1      23.933  35.461  45.345  1.00  0.00     0.293 HD
ENDBRANCH  11  25
ENDBRANCH   1   2
BRANCH   1  27
ATOM     27  C   UNL     1      16.483  34.863  39.979  1.00  0.00     0.339 C 
ATOM     28  C   UNL     1      15.049  35.094  40.511  1.00  0.00     0.214 C 
ATOM     29  O   UNL     1      17.202  36.065  39.765  1.00  0.00    -0.332 OA
ATOM     30  C   UNL     1      14.280  35.974  39.512  1.00  0.00     0.180 C 
ATOM     31  C   UNL     1      16.572  36.936  38.830  1.00  0.00     0.179 C 
ATOM     32  C   UNL     1      15.092  37.251  39.193  1.00  0.00     0.177 C 
BRANCH  28  33
ATOM     33  O   UNL     1      15.081  35.697  41.781  1.00  0.00    -0.384 OA
ATOM     34  H   UNL     1      14.146  35.947  42.009  1.00  0.00     0.211 HD
ENDBRANCH  28  33
BRANCH  30  35
ATOM     35  O   UNL     1      12.991  36.282  39.990  1.00  0.00    -0.387 OA
ATOM     36  H   UNL     1      12.532  35.431  40.218  1.00  0.00     0.211 HD
ENDBRANCH  30  35
BRANCH  31  37
ATOM     37  C   UNL     1      16.848  36.528  37.362  1.00  0.00     0.191 C 
BRANCH  37  38
ATOM     38  O   UNL     1      16.644  37.581  36.464  1.00  0.00    -0.394 OA
ATOM     39  H   UNL     1      17.141  38.357  36.832  1.00  0.00     0.210 HD
ENDBRANCH  37  38
ENDBRANCH  31  37
BRANCH  32  40
ATOM     40  O   UNL     1      14.468  38.030  38.202  1.00  0.00    -0.387 OA
ATOM     41  H   UNL     1      15.099  38.122  37.440  1.00  0.00     0.211 HD
ENDBRANCH  32  40
ENDBRANCH   1  27
TORSDOF 12
ENDMDL
MODEL 5
REMARK VINA RESULT:    -3.651      3.074      6.975
REMARK INTER + INTRA:          -6.842
REMARK INTER:                  -5.048
REMARK INTRA:                  -1.794
REMARK UNBOUND:                -1.483
REMARK SMILES O=c1c(O[C@@H]2O[C@@H](CO)[C@@H](O)[C@H](O)[C@@H]2O)c(-c2ccc(O)c(O)c2)oc2cc(O)cc(O)c12
REMARK SMILES IDX 4 1 3 2 16 3 25 4 2 5 26 6 1 7 33 8 27 9 31 10 28 11 30 12
REMARK SMILES IDX 17 13 18 14 19 15 20 16 24 17 22 18 21 19 23 21 32 23 29 25
REMARK SMILES IDX 5 27 14 28 6 29 12 30 7 31 10 32 15 33 13 35 8 37 9 38 11 40
REMARK H PARENT 21 20 23 22 32 24 29 26 15 34 13 36 9 39 11 41
REMARK Flexibility Score: inf
ROOT
ATOM      1  O   UNL     1      21.746  32.676  39.699  1.00  0.00    -0.454 OA
ENDROOT
BRANCH   1   2
ATOM      2  C   UNL     1      21.684  33.513  38.562  1.00  0.00     0.214 A 
ATOM      3  C   UNL     1      20.429  34.076  38.259  1.00  0.00     0.180 A 
ATOM      4  O   UNL     1      20.270  34.858  37.198  1.00  0.00    -0.452 OA
ATOM      5  C   UNL     1      22.778  33.848  37.730  1.00  0.00     0.239 A 
ATOM      6  C   UNL     1      21.266  35.183  36.384  1.00  0.00     0.146 A 
ATOM      7  O   UNL     1      23.934  33.424  37.988  1.00  0.00    -0.285 OA
ATOM      8  C   UNL     1      22.572  34.691  36.614  1.00  0.00     0.111 A 
ATOM      9  C   UNL     1      21.011  36.042  35.310  1.00  0.00     0.094 A 
ATOM     10  C   UNL     1      23.614  35.080  35.737  1.00  0.00     0.134 A 
ATOM     11  C   UNL     1      22.050  36.442  34.465  1.00  0.00     0.123 A 
ATOM     12  C   UNL     1      23.342  35.958  34.678  1.00  0.00     0.093 A 
BRANCH   3  13
ATOM     13  C   UNL     1      19.270  33.828  39.134  1.00  0.00     0.025 A 
ATOM     14  C   UNL     1      18.477  32.687  38.937  1.00  0.00     0.016 A 
ATOM     15  C   UNL     1      17.366  32.456  39.749  1.00  0.00     0.051 A 
ATOM     16  C   UNL     1      17.031  33.365  40.764  1.00  0.00     0.157 A 
ATOM     17  C   UNL     1      18.954  34.723  40.166  1.00  0.00     0.062 A 
ATOM     18  C   UNL     1      17.830  34.503  40.974  1.00  0.00     0.158 A 
BRANCH  16  19
ATOM     19  O   UNL     1      15.911  33.140  41.560  1.00  0.00    -0.504 OA
ATOM     20  H   UNL     1      15.985  33.078  42.569  1.00  0.00     0.293 HD
ENDBRANCH  16  19
BRANCH  18  21
ATOM     21  O   UNL     1      17.519  35.427  41.973  1.00  0.00    -0.504 OA
ATOM     22  H   UNL     1      18.236  35.929  42.480  1.00  0.00     0.293 HD
ENDBRANCH  18  21
ENDBRANCH   3  13
BRANCH  10  23
ATOM     23  O   UNL     1      24.916  34.601  35.903  1.00  0.00    -0.507 OA
ATOM     24  H   UNL     1      25.464  34.259  35.120  1.00  0.00     0.293 HD
ENDBRANCH  10  23
BRANCH  11  25
ATOM     25  O   UNL     1      21.809  37.331  33.420  1.00  0.00    -0.508 OA
ATOM     26  H   UNL     1      22.160  38.284  33.437  1.00  0.00     0.293 HD
ENDBRANCH  11  25
ENDBRANCH   1   2
BRANCH   1  27
ATOM     27  C   UNL     1      22.115  32.953  41.056  1.00  0.00     0.339 C 
ATOM     28  C   UNL     1      23.487  32.338  41.418  1.00  0.00     0.214 C 
ATOM     29  O   UNL     1      22.033  34.341  41.329  1.00  0.00    -0.332 OA
ATOM     30  C   UNL     1      23.765  32.579  42.912  1.00  0.00     0.180 C 
ATOM     31  C   UNL     1      22.255  34.657  42.700  1.00  0.00     0.179 C 
ATOM     32  C   UNL     1      23.590  34.078  43.250  1.00  0.00     0.177 C 
BRANCH  28  33
ATOM     33  O   UNL     1      24.507  32.896  40.628  1.00  0.00    -0.384 OA
ATOM     34  H   UNL     1      24.397  33.884  40.664  1.00  0.00     0.211 HD
ENDBRANCH  28  33
BRANCH  30  35
ATOM     35  O   UNL     1      25.042  32.108  43.275  1.00  0.00    -0.387 OA
ATOM     36  H   UNL     1      25.065  32.000  44.262  1.00  0.00     0.211 HD
ENDBRANCH  30  35
BRANCH  31  37
ATOM     37  C   UNL     1      20.995  34.427  43.571  1.00  0.00     0.191 C 
BRANCH  37  38
ATOM     38  O   UNL     1      20.104  35.505  43.522  1.00  0.00    -0.394 OA
ATOM     39  H   UNL     1      20.646  36.318  43.693  1.00  0.00     0.210 HD
ENDBRANCH  37  38
ENDBRANCH  31  37
BRANCH  32  40
ATOM     40  O   UNL     1      23.733  34.320  44.628  1.00  0.00    -0.387 OA
ATOM     41  H   UNL     1      23.855  35.297  44.758  1.00  0.00     0.211 HD
ENDBRANCH  32  40
ENDBRANCH   1  27
TORSDOF 12
ENDMDL
MODEL 6
REMARK VINA RESULT:    -3.623      2.112      6.789
REMARK INTER + INTRA:          -6.800
REMARK INTER:                  -5.469
REMARK INTRA:                  -1.331
REMARK UNBOUND:                -1.483
REMARK SMILES O=c1c(O[C@@H]2O[C@@H](CO)[C@@H](O)[C@H](O)[C@@H]2O)c(-c2ccc(O)c(O)c2)oc2cc(O)cc(O)c12
REMARK SMILES IDX 4 1 3 2 16 3 25 4 2 5 26 6 1 7 33 8 27 9 31 10 28 11 30 12
REMARK SMILES IDX 17 13 18 14 19 15 20 16 24 17 22 18 21 19 23 21 32 23 29 25
REMARK SMILES IDX 5 27 14 28 6 29 12 30 7 31 10 32 15 33 13 35 8 37 9 38 11 40
REMARK H PARENT 21 20 23 22 32 24 29 26 15 34 13 36 9 39 11 41
REMARK Flexibility Score: inf
ROOT
ATOM      1  O   UNL     1      17.285  34.423  40.810  1.00  0.00    -0.454 OA
ENDROOT
BRANCH   1   2
ATOM      2  C   UNL     1      18.362  34.393  41.723  1.00  0.00     0.214 A 
ATOM      3  C   UNL     1      19.620  34.028  41.207  1.00  0.00     0.180 A 
ATOM      4  O   UNL     1      20.686  33.951  41.995  1.00  0.00    -0.452 OA
ATOM      5  C   UNL     1      18.282  34.725  43.097  1.00  0.00     0.239 A 
ATOM      6  C   UNL     1      20.649  34.237  43.290  1.00  0.00     0.146 A 
ATOM      7  O   UNL     1      17.198  35.117  43.599  1.00  0.00    -0.285 OA
ATOM      8  C   UNL     1      19.440  34.641  43.903  1.00  0.00     0.111 A 
ATOM      9  C   UNL     1      21.831  34.163  44.034  1.00  0.00     0.094 A 
ATOM     10  C   UNL     1      19.446  34.962  45.283  1.00  0.00     0.134 A 
ATOM     11  C   UNL     1      21.834  34.508  45.389  1.00  0.00     0.123 A 
ATOM     12  C   UNL     1      20.645  34.900  46.007  1.00  0.00     0.093 A 
BRANCH   3  13
ATOM     13  C   UNL     1      19.783  33.748  39.770  1.00  0.00     0.025 A 
ATOM     14  C   UNL     1      19.339  32.526  39.240  1.00  0.00     0.016 A 
ATOM     15  C   UNL     1      19.508  32.246  37.884  1.00  0.00     0.051 A 
ATOM     16  C   UNL     1      20.127  33.180  37.041  1.00  0.00     0.157 A 
ATOM     17  C   UNL     1      20.377  34.695  38.923  1.00  0.00     0.062 A 
ATOM     18  C   UNL     1      20.562  34.412  37.563  1.00  0.00     0.158 A 
BRANCH  16  19
ATOM     19  O   UNL     1      20.310  32.890  35.692  1.00  0.00    -0.504 OA
ATOM     20  H   UNL     1      20.747  32.025  35.392  1.00  0.00     0.293 HD
ENDBRANCH  16  19
BRANCH  18  21
ATOM     21  O   UNL     1      21.186  35.360  36.751  1.00  0.00    -0.504 OA
ATOM     22  H   UNL     1      21.591  36.206  37.128  1.00  0.00     0.293 HD
ENDBRANCH  18  21
ENDBRANCH   3  13
BRANCH  10  23
ATOM     23  O   UNL     1      18.274  35.338  45.943  1.00  0.00    -0.507 OA
ATOM     24  H   UNL     1      17.469  34.722  45.994  1.00  0.00     0.293 HD
ENDBRANCH  10  23
BRANCH  11  25
ATOM     25  O   UNL     1      23.017  34.475  46.124  1.00  0.00    -0.508 OA
ATOM     26  H   UNL     1      23.199  35.137  46.873  1.00  0.00     0.293 HD
ENDBRANCH  11  25
ENDBRANCH   1   2
BRANCH   1  27
ATOM     27  C   UNL     1      16.428  35.494  40.396  1.00  0.00     0.339 C 
ATOM     28  C   UNL     1      16.982  36.230  39.154  1.00  0.00     0.214 C 
ATOM     29  O   UNL     1      15.096  35.040  40.230  1.00  0.00    -0.332 OA
ATOM     30  C   UNL     1      16.074  37.430  38.836  1.00  0.00     0.180 C 
ATOM     31  C   UNL     1      14.176  36.093  39.954  1.00  0.00     0.179 C 
ATOM     32  C   UNL     1      14.600  36.970  38.742  1.00  0.00     0.177 C 
BRANCH  28  33
ATOM     33  O   UNL     1      17.059  35.360  38.052  1.00  0.00    -0.384 OA
ATOM     34  H   UNL     1      17.552  35.840  37.335  1.00  0.00     0.211 HD
ENDBRANCH  28  33
BRANCH  30  35
ATOM     35  O   UNL     1      16.491  38.088  37.662  1.00  0.00    -0.387 OA
ATOM     36  H   UNL     1      15.735  38.084  37.018  1.00  0.00     0.211 HD
ENDBRANCH  30  35
BRANCH  31  37
ATOM     37  C   UNL     1      13.742  36.850  41.234  1.00  0.00     0.191 C 
BRANCH  37  38
ATOM     38  O   UNL     1      12.364  37.088  41.276  1.00  0.00    -0.394 OA
ATOM     39  H   UNL     1      12.035  36.658  42.108  1.00  0.00     0.210 HD
ENDBRANCH  37  38
ENDBRANCH  31  37
BRANCH  32  40
ATOM     40  O   UNL     1      13.728  38.058  38.556  1.00  0.00    -0.387 OA
ATOM     41  H   UNL     1      12.847  37.817  38.950  1.00  0.00     0.211 HD
ENDBRANCH  32  40
ENDBRANCH   1  27
TORSDOF 12
ENDMDL
MODEL 7
REMARK VINA RESULT:    -3.583      2.489      4.555
REMARK INTER + INTRA:          -6.742
REMARK INTER:                  -4.932
REMARK INTRA:                  -1.810
REMARK UNBOUND:                -1.483
REMARK SMILES O=c1c(O[C@@H]2O[C@@H](CO)[C@@H](O)[C@H](O)[C@@H]2O)c(-c2ccc(O)c(O)c2)oc2cc(O)cc(O)c12
REMARK SMILES IDX 4 1 3 2 16 3 25 4 2 5 26 6 1 7 33 8 27 9 31 10 28 11 30 12
REMARK SMILES IDX 17 13 18 14 19 15 20 16 24 17 22 18 21 19 23 21 32 23 29 25
REMARK SMILES IDX 5 27 14 28 6 29 12 30 7 31 10 32 15 33 13 35 8 37 9 38 11 40
REMARK H PARENT 21 20 23 22 32 24 29 26 15 34 13 36 9 39 11 41
REMARK Flexibility Score: inf
ROOT
ATOM      1  O   UNL     1      18.133  33.314  41.120  1.00  0.00    -0.454 OA
ENDROOT
BRANCH   1   2
ATOM      2  C   UNL     1      16.993  34.131  40.954  1.00  0.00     0.214 A 
ATOM      3  C   UNL     1      15.836  33.755  41.663  1.00  0.00     0.180 A 
ATOM      4  O   UNL     1      14.711  34.451  41.552  1.00  0.00    -0.452 OA
ATOM      5  C   UNL     1      16.931  35.302  40.160  1.00  0.00     0.239 A 
ATOM      6  C   UNL     1      14.607  35.543  40.806  1.00  0.00     0.146 A 
ATOM      7  O   UNL     1      17.951  35.720  39.554  1.00  0.00    -0.285 OA
ATOM      8  C   UNL     1      15.718  36.022  40.074  1.00  0.00     0.111 A 
ATOM      9  C   UNL     1      13.390  36.231  40.778  1.00  0.00     0.094 A 
ATOM     10  C   UNL     1      15.575  37.206  39.309  1.00  0.00     0.134 A 
ATOM     11  C   UNL     1      13.265  37.413  40.042  1.00  0.00     0.123 A 
ATOM     12  C   UNL     1      14.352  37.892  39.309  1.00  0.00     0.093 A 
BRANCH   3  13
ATOM     13  C   UNL     1      15.862  32.592  42.567  1.00  0.00     0.025 A 
ATOM     14  C   UNL     1      15.499  31.324  42.086  1.00  0.00     0.016 A 
ATOM     15  C   UNL     1      15.502  30.222  42.941  1.00  0.00     0.051 A 
ATOM     16  C   UNL     1      15.861  30.374  44.288  1.00  0.00     0.157 A 
ATOM     17  C   UNL     1      16.249  32.741  43.906  1.00  0.00     0.062 A 
ATOM     18  C   UNL     1      16.238  31.639  44.773  1.00  0.00     0.158 A 
BRANCH  16  19
ATOM     19  O   UNL     1      15.844  29.275  45.143  1.00  0.00    -0.504 OA
ATOM     20  H   UNL     1      15.090  29.132  45.806  1.00  0.00     0.293 HD
ENDBRANCH  16  19
BRANCH  18  21
ATOM     21  O   UNL     1      16.596  31.822  46.109  1.00  0.00    -0.504 OA
ATOM     22  H   UNL     1      17.379  31.336  46.526  1.00  0.00     0.293 HD
ENDBRANCH  18  21
ENDBRANCH   3  13
BRANCH  10  23
ATOM     23  O   UNL     1      16.632  37.705  38.544  1.00  0.00    -0.507 OA
ATOM     24  H   UNL     1      16.865  37.318  37.636  1.00  0.00     0.293 HD
ENDBRANCH  10  23
BRANCH  11  25
ATOM     25  O   UNL     1      12.066  38.125  40.045  1.00  0.00    -0.508 OA
ATOM     26  H   UNL     1      12.015  39.083  40.378  1.00  0.00     0.293 HD
ENDBRANCH  11  25
ENDBRANCH   1   2
BRANCH   1  27
ATOM     27  C   UNL     1      19.298  33.474  41.940  1.00  0.00     0.339 C 
ATOM     28  C   UNL     1      20.587  33.594  41.095  1.00  0.00     0.214 C 
ATOM     29  O   UNL     1      19.127  34.541  42.857  1.00  0.00    -0.332 OA
ATOM     30  C   UNL     1      21.801  33.651  42.038  1.00  0.00     0.180 C 
ATOM     31  C   UNL     1      20.199  34.655  43.789  1.00  0.00     0.179 C 
ATOM     32  C   UNL     1      21.593  34.751  43.106  1.00  0.00     0.177 C 
BRANCH  28  33
ATOM     33  O   UNL     1      20.542  34.736  40.276  1.00  0.00    -0.384 OA
ATOM     34  H   UNL     1      20.116  34.465  39.420  1.00  0.00     0.211 HD
ENDBRANCH  28  33
BRANCH  30  35
ATOM     35  O   UNL     1      22.997  33.842  41.319  1.00  0.00    -0.387 OA
ATOM     36  H   UNL     1      23.349  32.951  41.058  1.00  0.00     0.211 HD
ENDBRANCH  30  35
BRANCH  31  37
ATOM     37  C   UNL     1      20.073  33.650  44.960  1.00  0.00     0.191 C 
BRANCH  37  38
ATOM     38  O   UNL     1      20.706  34.099  46.125  1.00  0.00    -0.394 OA
ATOM     39  H   UNL     1      21.675  34.133  45.916  1.00  0.00     0.210 HD
ENDBRANCH  37  38
ENDBRANCH  31  37
BRANCH  32  40
ATOM     40  O   UNL     1      22.635  34.761  44.050  1.00  0.00    -0.387 OA
ATOM     41  H   UNL     1      22.413  35.434  44.747  1.00  0.00     0.211 HD
ENDBRANCH  32  40
ENDBRANCH   1  27
TORSDOF 12
ENDMDL
MODEL 8
REMARK VINA RESULT:    -3.480      3.568      6.624
REMARK INTER + INTRA:          -6.590
REMARK INTER:                  -4.739
REMARK INTRA:                  -1.851
REMARK UNBOUND:                -1.483
REMARK SMILES O=c1c(O[C@@H]2O[C@@H](CO)[C@@H](O)[C@H](O)[C@@H]2O)c(-c2ccc(O)c(O)c2)oc2cc(O)cc(O)c12
REMARK SMILES IDX 4 1 3 2 16 3 25 4 2 5 26 6 1 7 33 8 27 9 31 10 28 11 30 12
REMARK SMILES IDX 17 13 18 14 19 15 20 16 24 17 22 18 21 19 23 21 32 23 29 25
REMARK SMILES IDX 5 27 14 28 6 29 12 30 7 31 10 32 15 33 13 35 8 37 9 38 11 40
REMARK H PARENT 21 20 23 22 32 24 29 26 15 34 13 36 9 39 11 41
REMARK Flexibility Score: inf
ROOT
ATOM      1  O   UNL     1      22.585  32.048  42.560  1.00  0.00    -0.454 OA
ENDROOT
BRANCH   1   2
ATOM      2  C   UNL     1      22.174  32.694  41.373  1.00  0.00     0.214 A 
ATOM      3  C   UNL     1      20.920  33.334  41.402  1.00  0.00     0.180 A 
ATOM      4  O   UNL     1      20.443  33.949  40.327  1.00  0.00    -0.452 OA
ATOM      5  C   UNL     1      22.929  32.772  40.178  1.00  0.00     0.239 A 
ATOM      6  C   UNL     1      21.110  34.030  39.183  1.00  0.00     0.146 A 
ATOM      7  O   UNL     1      24.081  32.272  40.114  1.00  0.00    -0.285 OA
ATOM      8  C   UNL     1      22.391  33.443  39.056  1.00  0.00     0.111 A 
ATOM      9  C   UNL     1      20.542  34.729  38.113  1.00  0.00     0.094 A 
ATOM     10  C   UNL     1      23.084  33.572  37.827  1.00  0.00     0.134 A 
ATOM     11  C   UNL     1      21.244  34.874  36.914  1.00  0.00     0.123 A 
ATOM     12  C   UNL     1      22.506  34.294  36.774  1.00  0.00     0.093 A 
BRANCH   3  13
ATOM     13  C   UNL     1      20.123  33.356  42.640  1.00  0.00     0.025 A 
ATOM     14  C   UNL     1      19.151  32.368  42.865  1.00  0.00     0.016 A 
ATOM     15  C   UNL     1      18.379  32.394  44.026  1.00  0.00     0.051 A 
ATOM     16  C   UNL     1      18.565  33.410  44.976  1.00  0.00     0.157 A 
ATOM     17  C   UNL     1      20.330  34.356  43.602  1.00  0.00     0.062 A 
ATOM     18  C   UNL     1      19.547  34.394  44.763  1.00  0.00     0.158 A 
BRANCH  16  19
ATOM     19  O   UNL     1      17.780  33.443  46.125  1.00  0.00    -0.504 OA
ATOM     20  H   UNL     1      18.055  33.985  46.937  1.00  0.00     0.293 HD
ENDBRANCH  16  19
BRANCH  18  21
ATOM     21  O   UNL     1      19.751  35.420  45.687  1.00  0.00    -0.504 OA
ATOM     22  H   UNL     1      18.985  35.962  46.065  1.00  0.00     0.293 HD
ENDBRANCH  18  21
ENDBRANCH   3  13
BRANCH  10  23
ATOM     23  O   UNL     1      24.339  32.987  37.640  1.00  0.00    -0.507 OA
ATOM     24  H   UNL     1      25.131  33.519  37.295  1.00  0.00     0.293 HD
ENDBRANCH  10  23
BRANCH  11  25
ATOM     25  O   UNL     1      20.699  35.606  35.860  1.00  0.00    -0.508 OA
ATOM     26  H   UNL     1      21.009  36.550  35.649  1.00  0.00     0.293 HD
ENDBRANCH  11  25
ENDBRANCH   1   2
BRANCH   1  27
ATOM     27  C   UNL     1      23.489  32.458  43.594  1.00  0.00     0.339 C 
ATOM     28  C   UNL     1      24.736  31.547  43.665  1.00  0.00     0.214 C 
ATOM     29  O   UNL     1      23.806  33.834  43.471  1.00  0.00    -0.332 OA
ATOM     30  C   UNL     1      25.602  31.976  44.862  1.00  0.00     0.180 C 
ATOM     31  C   UNL     1      24.590  34.326  44.554  1.00  0.00     0.179 C 
ATOM     32  C   UNL     1      25.883  33.495  44.796  1.00  0.00     0.177 C 
BRANCH  28  33
ATOM     33  O   UNL     1      25.473  31.616  42.470  1.00  0.00    -0.384 OA
ATOM     34  H   UNL     1      26.293  32.143  42.662  1.00  0.00     0.211 HD
ENDBRANCH  28  33
BRANCH  30  35
ATOM     35  O   UNL     1      26.794  31.228  44.923  1.00  0.00    -0.387 OA
ATOM     36  H   UNL     1      27.091  31.192  45.870  1.00  0.00     0.211 HD
ENDBRANCH  30  35
BRANCH  31  37
ATOM     37  C   UNL     1      23.736  34.651  45.804  1.00  0.00     0.191 C 
BRANCH  37  38
ATOM     38  O   UNL     1      22.861  35.722  45.594  1.00  0.00    -0.394 OA
ATOM     39  H   UNL     1      22.496  35.958  46.485  1.00  0.00     0.210 HD
ENDBRANCH  37  38
ENDBRANCH  31  37
BRANCH  32  40
ATOM     40  O   UNL     1      26.584  33.944  45.930  1.00  0.00    -0.387 OA
ATOM     41  H   UNL     1      25.960  34.484  46.484  1.00  0.00     0.211 HD
ENDBRANCH  32  40
ENDBRANCH   1  27
TORSDOF 12
ENDMDL
MODEL 9
REMARK VINA RESULT:    -3.479      2.243      2.994
REMARK INTER + INTRA:          -6.589
REMARK INTER:                  -5.090
REMARK INTRA:                  -1.499
REMARK UNBOUND:                -1.483
REMARK SMILES O=c1c(O[C@@H]2O[C@@H](CO)[C@@H](O)[C@H](O)[C@@H]2O)c(-c2ccc(O)c(O)c2)oc2cc(O)cc(O)c12
REMARK SMILES IDX 4 1 3 2 16 3 25 4 2 5 26 6 1 7 33 8 27 9 31 10 28 11 30 12
REMARK SMILES IDX 17 13 18 14 19 15 20 16 24 17 22 18 21 19 23 21 32 23 29 25
REMARK SMILES IDX 5 27 14 28 6 29 12 30 7 31 10 32 15 33 13 35 8 37 9 38 11 40
REMARK H PARENT 21 20 23 22 32 24 29 26 15 34 13 36 9 39 11 41
REMARK Flexibility Score: inf
ROOT
ATOM      1  O   UNL     1      19.444  33.180  40.803  1.00  0.00    -0.454 OA
ENDROOT
BRANCH   1   2
ATOM      2  C   UNL     1      18.406  34.042  40.383  1.00  0.00     0.214 A 
ATOM      3  C   UNL     1      18.458  34.493  39.050  1.00  0.00     0.180 A 
ATOM      4  O   UNL     1      17.538  35.323  38.574  1.00  0.00    -0.452 OA
ATOM      5  C   UNL     1      17.314  34.459  41.180  1.00  0.00     0.239 A 
ATOM      6  C   UNL     1      16.509  35.751  39.293  1.00  0.00     0.146 A 
ATOM      7  O   UNL     1      17.182  34.038  42.358  1.00  0.00    -0.285 OA
ATOM      8  C   UNL     1      16.348  35.336  40.636  1.00  0.00     0.111 A 
ATOM      9  C   UNL     1      15.568  36.596  38.696  1.00  0.00     0.094 A 
ATOM     10  C   UNL     1      15.222  35.795  41.364  1.00  0.00     0.134 A 
ATOM     11  C   UNL     1      14.447  37.022  39.413  1.00  0.00     0.123 A 
ATOM     12  C   UNL     1      14.281  36.625  40.741  1.00  0.00     0.093 A 
BRANCH   3  13
ATOM     13  C   UNL     1      19.527  34.030  38.148  1.00  0.00     0.025 A 
ATOM     14  C   UNL     1      19.369  32.833  37.432  1.00  0.00     0.016 A 
ATOM     15  C   UNL     1      20.385  32.379  36.591  1.00  0.00     0.051 A 
ATOM     16  C   UNL     1      21.573  33.112  36.459  1.00  0.00     0.157 A 
ATOM     17  C   UNL     1      20.702  34.779  37.996  1.00  0.00     0.062 A 
ATOM     18  C   UNL     1      21.732  34.319  37.164  1.00  0.00     0.158 A 
BRANCH  16  19
ATOM     19  O   UNL     1      22.592  32.646  35.633  1.00  0.00    -0.504 OA
ATOM     20  H   UNL     1      23.511  32.423  36.002  1.00  0.00     0.293 HD
ENDBRANCH  16  19
BRANCH  18  21
ATOM     21  O   UNL     1      22.905  35.068  37.056  1.00  0.00    -0.504 OA
ATOM     22  H   UNL     1      23.023  35.781  36.348  1.00  0.00     0.293 HD
ENDBRANCH  18  21
ENDBRANCH   3  13
BRANCH  10  23
ATOM     23  O   UNL     1      15.032  35.437  42.701  1.00  0.00    -0.507 OA
ATOM     24  H   UNL     1      14.384  35.937  43.301  1.00  0.00     0.293 HD
ENDBRANCH  10  23
BRANCH  11  25
ATOM     25  O   UNL     1      13.486  37.831  38.808  1.00  0.00    -0.508 OA
ATOM     26  H   UNL     1      13.702  38.404  37.998  1.00  0.00     0.293 HD
ENDBRANCH  11  25
ENDBRANCH   1   2
BRANCH   1  27
ATOM     27  C   UNL     1      20.726  33.458  41.380  1.00  0.00     0.339 C 
ATOM     28  C   UNL     1      20.608  34.301  42.671  1.00  0.00     0.214 C 
ATOM     29  O   UNL     1      21.470  32.265  41.556  1.00  0.00    -0.332 OA
ATOM     30  C   UNL     1      22.019  34.653  43.170  1.00  0.00     0.180 C 
ATOM     31  C   UNL     1      22.805  32.497  41.997  1.00  0.00     0.179 C 
ATOM     32  C   UNL     1      22.878  33.372  43.282  1.00  0.00     0.177 C 
BRANCH  28  33
ATOM     33  O   UNL     1      19.892  33.602  43.658  1.00  0.00    -0.384 OA
ATOM     34  H   UNL     1      19.368  34.274  44.170  1.00  0.00     0.211 HD
ENDBRANCH  28  33
BRANCH  30  35
ATOM     35  O   UNL     1      21.968  35.354  44.391  1.00  0.00    -0.387 OA
ATOM     36  H   UNL     1      22.725  35.997  44.413  1.00  0.00     0.211 HD
ENDBRANCH  30  35
BRANCH  31  37
ATOM     37  C   UNL     1      23.750  32.896  40.837  1.00  0.00     0.191 C 
BRANCH  37  38
ATOM     38  O   UNL     1      25.099  32.854  41.204  1.00  0.00    -0.394 OA
ATOM     39  H   UNL     1      25.561  33.520  40.632  1.00  0.00     0.210 HD
ENDBRANCH  37  38
ENDBRANCH  31  37
BRANCH  32  40
ATOM     40  O   UNL     1      24.207  33.666  43.634  1.00  0.00    -0.387 OA
ATOM     41  H   UNL     1      24.246  33.781  44.621  1.00  0.00     0.211 HD
ENDBRANCH  32  40
ENDBRANCH   1  27
TORSDOF 12
ENDMDL
