MODEL 1
REMARK VINA RESULT:    -6.563      0.000      0.000
REMARK INTER + INTRA:          -9.435
REMARK INTER:                  -8.865
REMARK INTRA:                  -0.569
REMARK UNBOUND:                -0.569
REMARK SMILES COc1ccc(-c2cc(=O)c3c(OC)c(OC)c(OC)c(OC)c3o2)cc1
REMARK SMILES IDX 7 1 8 2 9 3 10 4 11 5 24 6 25 7 21 8 18 9 15 10 12 11 6 12
REMARK SMILES IDX 3 13 4 14 27 15 5 16 26 17 2 18 1 19 22 20 23 21 13 22 14 23
REMARK SMILES IDX 19 24 20 25 16 26 17 27
REMARK H PARENT
REMARK Flexibility Score: inf
ROOT
ATOM      1  C   UNL     1      30.822 -12.585   0.205  1.00  0.00     0.138 A 
ATOM      2  C   UNL     1      30.310 -13.866  -0.021  1.00  0.00     0.100 A 
ATOM      3  C   UNL     1      29.258 -14.329   0.764  1.00  0.00     0.197 A 
ATOM      4  O   UNL     1      28.812 -15.488   0.545  1.00  0.00    -0.289 OA
ATOM      5  C   UNL     1      28.717 -13.501   1.777  1.00  0.00     0.115 A 
ATOM      6  C   UNL     1      29.274 -12.208   1.931  1.00  0.00     0.188 A 
ATOM      7  O   UNL     1      30.281 -11.823   1.149  1.00  0.00    -0.452 OA
ATOM      8  C   UNL     1      28.772 -11.333   2.918  1.00  0.00     0.209 A 
ATOM      9  C   UNL     1      27.707 -11.744   3.736  1.00  0.00     0.211 A 
ATOM     10  C   UNL     1      27.177 -13.054   3.633  1.00  0.00     0.208 A 
ATOM     11  C   UNL     1      27.664 -13.927   2.626  1.00  0.00     0.179 A 
ENDROOT
BRANCH   1  12
ATOM     12  C   UNL     1      31.955 -12.051  -0.594  1.00  0.00     0.018 A 
ATOM     13  C   UNL     1      34.100 -10.979  -2.088  1.00  0.00     0.118 A 
ATOM     14  C   UNL     1      34.249 -12.186  -1.399  1.00  0.00     0.047 A 
ATOM     15  C   UNL     1      32.868 -10.303  -2.023  1.00  0.00     0.047 A 
ATOM     16  C   UNL     1      33.192 -12.720  -0.655  1.00  0.00     0.016 A 
ATOM     17  C   UNL     1      31.810 -10.834  -1.281  1.00  0.00     0.016 A 
BRANCH  13  18
ATOM     18  O   UNL     1      35.191 -10.487  -2.821  1.00  0.00    -0.497 OA
ATOM     19  C   UNL     1      36.555 -10.741  -2.499  1.00  0.00     0.278 C 
ENDBRANCH  13  18
ENDBRANCH   1  12
BRANCH   8  20
ATOM     20  O   UNL     1      29.306 -10.051   3.161  1.00  0.00    -0.490 OA
ATOM     21  C   UNL     1      29.090  -8.875   2.391  1.00  0.00     0.278 C 
ENDBRANCH   8  20
BRANCH  11  22
ATOM     22  O   UNL     1      27.147 -15.226   2.432  1.00  0.00    -0.492 OA
ATOM     23  C   UNL     1      25.919 -15.587   1.806  1.00  0.00     0.278 C 
ENDBRANCH  11  22
BRANCH   9  24
ATOM     24  O   UNL     1      27.191 -10.844   4.672  1.00  0.00    -0.490 OA
ATOM     25  C   UNL     1      26.110  -9.966   4.373  1.00  0.00     0.279 C 
ENDBRANCH   9  24
BRANCH  10  26
ATOM     26  O   UNL     1      26.178 -13.531   4.503  1.00  0.00    -0.490 OA
ATOM     27  C   UNL     1      24.770 -13.365   4.382  1.00  0.00     0.278 C 
ENDBRANCH  10  26
TORSDOF 6
ENDMDL
MODEL 2
REMARK VINA RESULT:    -6.388      2.074      7.766
REMARK INTER + INTRA:          -9.198
REMARK INTER:                  -8.645
REMARK INTRA:                  -0.553
REMARK UNBOUND:                -0.569
REMARK SMILES COc1ccc(-c2cc(=O)c3c(OC)c(OC)c(OC)c(OC)c3o2)cc1
REMARK SMILES IDX 7 1 8 2 9 3 10 4 11 5 24 6 25 7 21 8 18 9 15 10 12 11 6 12
REMARK SMILES IDX 3 13 4 14 27 15 5 16 26 17 2 18 1 19 22 20 23 21 13 22 14 23
REMARK SMILES IDX 19 24 20 25 16 26 17 27
REMARK H PARENT
REMARK Flexibility Score: inf
ROOT
ATOM      1  C   UNL     1      27.140 -13.827   2.002  1.00  0.00     0.138 A 
ATOM      2  C   UNL     1      27.379 -14.884   1.119  1.00  0.00     0.100 A 
ATOM      3  C   UNL     1      28.553 -14.896   0.371  1.00  0.00     0.197 A 
ATOM      4  O   UNL     1      28.748 -15.858  -0.421  1.00  0.00    -0.289 OA
ATOM      5  C   UNL     1      29.490 -13.845   0.512  1.00  0.00     0.115 A 
ATOM      6  C   UNL     1      29.187 -12.820   1.442  1.00  0.00     0.188 A 
ATOM      7  O   UNL     1      28.047 -12.865   2.129  1.00  0.00    -0.452 OA
ATOM      8  C   UNL     1      30.086 -11.749   1.634  1.00  0.00     0.209 A 
ATOM      9  C   UNL     1      31.288 -11.712   0.910  1.00  0.00     0.211 A 
ATOM     10  C   UNL     1      31.580 -12.698  -0.065  1.00  0.00     0.208 A 
ATOM     11  C   UNL     1      30.689 -13.787  -0.243  1.00  0.00     0.179 A 
ENDROOT
BRANCH   1  12
ATOM     12  C   UNL     1      25.896 -13.759   2.811  1.00  0.00     0.018 A 
ATOM     13  C   UNL     1      23.555 -13.584   4.385  1.00  0.00     0.118 A 
ATOM     14  C   UNL     1      23.471 -13.617   2.989  1.00  0.00     0.047 A 
ATOM     15  C   UNL     1      24.822 -13.633   4.994  1.00  0.00     0.047 A 
ATOM     16  C   UNL     1      24.627 -13.700   2.205  1.00  0.00     0.016 A 
ATOM     17  C   UNL     1      25.978 -13.717   4.213  1.00  0.00     0.016 A 
BRANCH  13  18
ATOM     18  O   UNL     1      22.366 -13.501   5.124  1.00  0.00    -0.497 OA
ATOM     19  C   UNL     1      21.079 -13.280   4.556  1.00  0.00     0.278 C 
ENDBRANCH  13  18
ENDBRANCH   1  12
BRANCH   8  20
ATOM     20  O   UNL     1      29.832 -10.671   2.506  1.00  0.00    -0.490 OA
ATOM     21  C   UNL     1      29.093  -9.492   2.214  1.00  0.00     0.278 C 
ENDBRANCH   8  20
BRANCH  11  22
ATOM     22  O   UNL     1      30.941 -14.833  -1.158  1.00  0.00    -0.492 OA
ATOM     23  C   UNL     1      31.044 -14.739  -2.575  1.00  0.00     0.278 C 
ENDBRANCH  11  22
BRANCH   9  24
ATOM     24  O   UNL     1      32.188 -10.670   1.152  1.00  0.00    -0.490 OA
ATOM     25  C   UNL     1      32.311  -9.548   0.283  1.00  0.00     0.279 C 
ENDBRANCH   9  24
BRANCH  10  26
ATOM     26  O   UNL     1      32.728 -12.635  -0.877  1.00  0.00    -0.490 OA
ATOM     27  C   UNL     1      34.069 -12.936  -0.509  1.00  0.00     0.278 C 
ENDBRANCH  10  26
TORSDOF 6
ENDMDL
MODEL 3
REMARK VINA RESULT:    -5.876      0.892      3.426
REMARK INTER + INTRA:          -8.507
REMARK INTER:                  -8.038
REMARK INTRA:                  -0.469
REMARK UNBOUND:                -0.569
REMARK SMILES COc1ccc(-c2cc(=O)c3c(OC)c(OC)c(OC)c(OC)c3o2)cc1
REMARK SMILES IDX 7 1 8 2 9 3 10 4 11 5 24 6 25 7 21 8 18 9 15 10 12 11 6 12
REMARK SMILES IDX 3 13 4 14 27 15 5 16 26 17 2 18 1 19 22 20 23 21 13 22 14 23
REMARK SMILES IDX 19 24 20 25 16 26 17 27
REMARK H PARENT
REMARK Flexibility Score: inf
ROOT
ATOM      1  C   UNL     1      30.877 -11.353   0.955  1.00  0.00     0.138 A 
ATOM      2  C   UNL     1      30.520 -10.251   1.738  1.00  0.00     0.100 A 
ATOM      3  C   UNL     1      29.449 -10.359   2.621  1.00  0.00     0.197 A 
ATOM      4  O   UNL     1      29.142  -9.353   3.316  1.00  0.00    -0.289 OA
ATOM      5  C   UNL     1      28.738 -11.579   2.720  1.00  0.00     0.115 A 
ATOM      6  C   UNL     1      29.173 -12.657   1.911  1.00  0.00     0.188 A 
ATOM      7  O   UNL     1      30.204 -12.491   1.085  1.00  0.00    -0.452 OA
ATOM      8  C   UNL     1      28.509 -13.902   1.971  1.00  0.00     0.209 A 
ATOM      9  C   UNL     1      27.426 -14.071   2.848  1.00  0.00     0.211 A 
ATOM     10  C   UNL     1      26.943 -12.987   3.622  1.00  0.00     0.208 A 
ATOM     11  C   UNL     1      27.623 -11.742   3.580  1.00  0.00     0.179 A 
ENDROOT
BRANCH   1  12
ATOM     12  C   UNL     1      32.000 -11.284  -0.014  1.00  0.00     0.018 A 
ATOM     13  C   UNL     1      34.169 -11.119  -1.818  1.00  0.00     0.118 A 
ATOM     14  C   UNL     1      33.537 -12.343  -1.578  1.00  0.00     0.047 A 
ATOM     15  C   UNL     1      33.713  -9.971  -1.145  1.00  0.00     0.047 A 
ATOM     16  C   UNL     1      32.466 -12.431  -0.683  1.00  0.00     0.016 A 
ATOM     17  C   UNL     1      32.642 -10.056  -0.251  1.00  0.00     0.016 A 
BRANCH  13  18
ATOM     18  O   UNL     1      35.239 -11.085  -2.725  1.00  0.00    -0.497 OA
ATOM     19  C   UNL     1      36.573 -10.721  -2.382  1.00  0.00     0.278 C 
ENDBRANCH  13  18
ENDBRANCH   1  12
BRANCH   8  20
ATOM     20  O   UNL     1      28.855 -15.004   1.163  1.00  0.00    -0.490 OA
ATOM     21  C   UNL     1      28.423 -15.257  -0.168  1.00  0.00     0.278 C 
ENDBRANCH   8  20
BRANCH  11  22
ATOM     22  O   UNL     1      27.228 -10.635   4.363  1.00  0.00    -0.492 OA
ATOM     23  C   UNL     1      26.068  -9.825   4.199  1.00  0.00     0.278 C 
ENDBRANCH  11  22
BRANCH   9  24
ATOM     24  O   UNL     1      26.816 -15.325   2.930  1.00  0.00    -0.490 OA
ATOM     25  C   UNL     1      25.743 -15.711   2.077  1.00  0.00     0.279 C 
ENDBRANCH   9  24
BRANCH  10  26
ATOM     26  O   UNL     1      25.799 -13.095   4.435  1.00  0.00    -0.490 OA
ATOM     27  C   UNL     1      24.437 -13.000   4.034  1.00  0.00     0.278 C 
ENDBRANCH  10  26
TORSDOF 6
ENDMDL
MODEL 4
REMARK VINA RESULT:    -5.553      1.772      8.414
REMARK INTER + INTRA:          -8.070
REMARK INTER:                  -8.139
REMARK INTRA:                   0.069
REMARK UNBOUND:                -0.569
REMARK SMILES COc1ccc(-c2cc(=O)c3c(OC)c(OC)c(OC)c(OC)c3o2)cc1
REMARK SMILES IDX 7 1 8 2 9 3 10 4 11 5 24 6 25 7 21 8 18 9 15 10 12 11 6 12
REMARK SMILES IDX 3 13 4 14 27 15 5 16 26 17 2 18 1 19 22 20 23 21 13 22 14 23
REMARK SMILES IDX 19 24 20 25 16 26 17 27
REMARK H PARENT
REMARK Flexibility Score: inf
ROOT
ATOM      1  C   UNL     1      30.263 -11.791   0.796  1.00  0.00     0.138 A 
ATOM      2  C   UNL     1      29.919 -10.680   0.020  1.00  0.00     0.100 A 
ATOM      3  C   UNL     1      30.830 -10.185  -0.908  1.00  0.00     0.197 A 
ATOM      4  O   UNL     1      30.500  -9.181  -1.596  1.00  0.00    -0.289 OA
ATOM      5  C   UNL     1      32.091 -10.811  -1.061  1.00  0.00     0.115 A 
ATOM      6  C   UNL     1      32.359 -11.945  -0.255  1.00  0.00     0.188 A 
ATOM      7  O   UNL     1      31.446 -12.370   0.616  1.00  0.00    -0.452 OA
ATOM      8  C   UNL     1      33.595 -12.618  -0.367  1.00  0.00     0.209 A 
ATOM      9  C   UNL     1      34.551 -12.167  -1.292  1.00  0.00     0.211 A 
ATOM     10  C   UNL     1      34.321 -11.001  -2.064  1.00  0.00     0.208 A 
ATOM     11  C   UNL     1      33.070 -10.338  -1.969  1.00  0.00     0.179 A 
ENDROOT
BRANCH   1  12
ATOM     12  C   UNL     1      29.334 -12.346   1.812  1.00  0.00     0.018 A 
ATOM     13  C   UNL     1      27.527 -13.356   3.735  1.00  0.00     0.118 A 
ATOM     14  C   UNL     1      28.098 -14.206   2.783  1.00  0.00     0.047 A 
ATOM     15  C   UNL     1      27.861 -11.990   3.720  1.00  0.00     0.047 A 
ATOM     16  C   UNL     1      28.990 -13.711   1.826  1.00  0.00     0.016 A 
ATOM     17  C   UNL     1      28.754 -11.493   2.766  1.00  0.00     0.016 A 
BRANCH  13  18
ATOM     18  O   UNL     1      26.639 -13.904   4.673  1.00  0.00    -0.497 OA
ATOM     19  C   UNL     1      25.286 -13.488   4.837  1.00  0.00     0.278 C 
ENDBRANCH  13  18
ENDBRANCH   1  12
BRANCH   8  20
ATOM     20  O   UNL     1      33.952 -13.722   0.432  1.00  0.00    -0.490 OA
ATOM     21  C   UNL     1      34.991 -13.776   1.402  1.00  0.00     0.278 C 
ENDBRANCH   8  20
BRANCH  11  22
ATOM     22  O   UNL     1      32.753  -9.202  -2.747  1.00  0.00    -0.492 OA
ATOM     23  C   UNL     1      32.190  -9.176  -4.055  1.00  0.00     0.278 C 
ENDBRANCH  11  22
BRANCH   9  24
ATOM     24  O   UNL     1      35.747 -12.877  -1.424  1.00  0.00    -0.490 OA
ATOM     25  C   UNL     1      35.919 -13.912  -2.387  1.00  0.00     0.279 C 
ENDBRANCH   9  24
BRANCH  10  26
ATOM     26  O   UNL     1      35.297 -10.466  -2.926  1.00  0.00    -0.490 OA
ATOM     27  C   UNL     1      36.664 -10.203  -2.632  1.00  0.00     0.278 C 
ENDBRANCH  10  26
TORSDOF 6
ENDMDL
MODEL 5
REMARK VINA RESULT:    -5.411      1.834      7.989
REMARK INTER + INTRA:          -7.879
REMARK INTER:                  -7.803
REMARK INTRA:                  -0.075
REMARK UNBOUND:                -0.569
REMARK SMILES COc1ccc(-c2cc(=O)c3c(OC)c(OC)c(OC)c(OC)c3o2)cc1
REMARK SMILES IDX 7 1 8 2 9 3 10 4 11 5 24 6 25 7 21 8 18 9 15 10 12 11 6 12
REMARK SMILES IDX 3 13 4 14 27 15 5 16 26 17 2 18 1 19 22 20 23 21 13 22 14 23
REMARK SMILES IDX 19 24 20 25 16 26 17 27
REMARK H PARENT
REMARK Flexibility Score: inf
ROOT
ATOM      1  C   UNL     1      30.626 -13.140   1.099  1.00  0.00     0.138 A 
ATOM      2  C   UNL     1      31.743 -13.931   1.386  1.00  0.00     0.100 A 
ATOM      3  C   UNL     1      32.947 -13.674   0.736  1.00  0.00     0.197 A 
ATOM      4  O   UNL     1      33.941 -14.401   1.008  1.00  0.00    -0.289 OA
ATOM      5  C   UNL     1      33.030 -12.617  -0.202  1.00  0.00     0.115 A 
ATOM      6  C   UNL     1      31.863 -11.846  -0.423  1.00  0.00     0.188 A 
ATOM      7  O   UNL     1      30.740 -12.142   0.229  1.00  0.00    -0.452 OA
ATOM      8  C   UNL     1      31.885 -10.773  -1.340  1.00  0.00     0.209 A 
ATOM      9  C   UNL     1      33.074 -10.464  -2.020  1.00  0.00     0.211 A 
ATOM     10  C   UNL     1      34.234 -11.260  -1.853  1.00  0.00     0.208 A 
ATOM     11  C   UNL     1      34.220 -12.325  -0.915  1.00  0.00     0.179 A 
ENDROOT
BRANCH   1  12
ATOM     12  C   UNL     1      29.315 -13.383   1.752  1.00  0.00     0.018 A 
ATOM     13  C   UNL     1      26.838 -13.904   3.009  1.00  0.00     0.118 A 
ATOM     14  C   UNL     1      27.520 -12.707   3.252  1.00  0.00     0.047 A 
ATOM     15  C   UNL     1      27.405 -14.847   2.133  1.00  0.00     0.047 A 
ATOM     16  C   UNL     1      28.748 -12.447   2.636  1.00  0.00     0.016 A 
ATOM     17  C   UNL     1      28.631 -14.588   1.514  1.00  0.00     0.016 A 
BRANCH  13  18
ATOM     18  O   UNL     1      25.609 -14.116   3.652  1.00  0.00    -0.497 OA
ATOM     19  C   UNL     1      24.342 -14.055   3.005  1.00  0.00     0.278 C 
ENDBRANCH  13  18
ENDBRANCH   1  12
BRANCH   8  20
ATOM     20  O   UNL     1      30.752  -9.992  -1.647  1.00  0.00    -0.490 OA
ATOM     21  C   UNL     1      30.258  -8.879  -0.913  1.00  0.00     0.278 C 
ENDBRANCH   8  20
BRANCH  11  22
ATOM     22  O   UNL     1      35.354 -13.126  -0.659  1.00  0.00    -0.492 OA
ATOM     23  C   UNL     1      36.022 -14.000  -1.564  1.00  0.00     0.278 C 
ENDBRANCH  11  22
BRANCH   9  24
ATOM     24  O   UNL     1      33.088  -9.366  -2.885  1.00  0.00    -0.490 OA
ATOM     25  C   UNL     1      32.208  -9.259  -3.999  1.00  0.00     0.279 C 
ENDBRANCH   9  24
BRANCH  10  26
ATOM     26  O   UNL     1      35.410 -11.039  -2.594  1.00  0.00    -0.490 OA
ATOM     27  C   UNL     1      36.596 -10.381  -2.163  1.00  0.00     0.278 C 
ENDBRANCH  10  26
TORSDOF 6
ENDMDL
MODEL 6
REMARK VINA RESULT:    -5.362      1.875      7.809
REMARK INTER + INTRA:          -7.812
REMARK INTER:                  -7.386
REMARK INTRA:                  -0.426
REMARK UNBOUND:                -0.569
REMARK SMILES COc1ccc(-c2cc(=O)c3c(OC)c(OC)c(OC)c(OC)c3o2)cc1
REMARK SMILES IDX 7 1 8 2 9 3 10 4 11 5 24 6 25 7 21 8 18 9 15 10 12 11 6 12
REMARK SMILES IDX 3 13 4 14 27 15 5 16 26 17 2 18 1 19 22 20 23 21 13 22 14 23
REMARK SMILES IDX 19 24 20 25 16 26 17 27
REMARK H PARENT
REMARK Flexibility Score: inf
ROOT
ATOM      1  C   UNL     1      29.789 -13.194   1.501  1.00  0.00     0.138 A 
ATOM      2  C   UNL     1      30.785 -14.152   1.711  1.00  0.00     0.100 A 
ATOM      3  C   UNL     1      32.022 -13.997   1.092  1.00  0.00     0.197 A 
ATOM      4  O   UNL     1      32.907 -14.873   1.294  1.00  0.00    -0.289 OA
ATOM      5  C   UNL     1      32.260 -12.875   0.263  1.00  0.00     0.115 A 
ATOM      6  C   UNL     1      31.209 -11.937   0.116  1.00  0.00     0.188 A 
ATOM      7  O   UNL     1      30.048 -12.141   0.734  1.00  0.00    -0.452 OA
ATOM      8  C   UNL     1      31.388 -10.792  -0.692  1.00  0.00     0.209 A 
ATOM      9  C   UNL     1      32.617 -10.582  -1.336  1.00  0.00     0.211 A 
ATOM     10  C   UNL     1      33.658 -11.538  -1.245  1.00  0.00     0.208 A 
ATOM     11  C   UNL     1      33.489 -12.677  -0.416  1.00  0.00     0.179 A 
ENDROOT
BRANCH   1  12
ATOM     12  C   UNL     1      28.447 -13.322   2.125  1.00  0.00     0.018 A 
ATOM     13  C   UNL     1      25.899 -13.626   3.309  1.00  0.00     0.118 A 
ATOM     14  C   UNL     1      26.813 -12.698   3.819  1.00  0.00     0.047 A 
ATOM     15  C   UNL     1      26.268 -14.410   2.201  1.00  0.00     0.047 A 
ATOM     16  C   UNL     1      28.077 -12.546   3.239  1.00  0.00     0.016 A 
ATOM     17  C   UNL     1      27.530 -14.259   1.619  1.00  0.00     0.016 A 
BRANCH  13  18
ATOM     18  O   UNL     1      24.645 -13.739   3.927  1.00  0.00    -0.497 OA
ATOM     19  C   UNL     1      23.403 -13.749   3.231  1.00  0.00     0.278 C 
ENDBRANCH  13  18
ENDBRANCH   1  12
BRANCH   8  20
ATOM     20  O   UNL     1      30.374  -9.841  -0.923  1.00  0.00    -0.490 OA
ATOM     21  C   UNL     1      29.883  -8.875  -0.002  1.00  0.00     0.278 C 
ENDBRANCH   8  20
BRANCH  11  22
ATOM     22  O   UNL     1      34.502 -13.644  -0.237  1.00  0.00    -0.492 OA
ATOM     23  C   UNL     1      35.677 -13.533   0.561  1.00  0.00     0.278 C 
ENDBRANCH  11  22
BRANCH   9  24
ATOM     24  O   UNL     1      32.791  -9.417  -2.089  1.00  0.00    -0.490 OA
ATOM     25  C   UNL     1      32.358  -9.309  -3.442  1.00  0.00     0.279 C 
ENDBRANCH   9  24
BRANCH  10  26
ATOM     26  O   UNL     1      34.865 -11.406  -1.958  1.00  0.00    -0.490 OA
ATOM     27  C   UNL     1      36.027 -10.682  -1.570  1.00  0.00     0.278 C 
ENDBRANCH  10  26
TORSDOF 6
ENDMDL
MODEL 7
REMARK VINA RESULT:    -5.018      2.145      7.678
REMARK INTER + INTRA:          -7.347
REMARK INTER:                  -7.110
REMARK INTRA:                  -0.238
REMARK UNBOUND:                -0.569
REMARK SMILES COc1ccc(-c2cc(=O)c3c(OC)c(OC)c(OC)c(OC)c3o2)cc1
REMARK SMILES IDX 7 1 8 2 9 3 10 4 11 5 24 6 25 7 21 8 18 9 15 10 12 11 6 12
REMARK SMILES IDX 3 13 4 14 27 15 5 16 26 17 2 18 1 19 22 20 23 21 13 22 14 23
REMARK SMILES IDX 19 24 20 25 16 26 17 27
REMARK H PARENT
REMARK Flexibility Score: inf
ROOT
ATOM      1  C   UNL     1      29.716 -13.718   0.199  1.00  0.00     0.138 A 
ATOM      2  C   UNL     1      30.152 -14.350  -0.970  1.00  0.00     0.100 A 
ATOM      3  C   UNL     1      31.366 -13.973  -1.537  1.00  0.00     0.197 A 
ATOM      4  O   UNL     1      31.740 -14.555  -2.592  1.00  0.00    -0.289 OA
ATOM      5  C   UNL     1      32.145 -12.961  -0.927  1.00  0.00     0.115 A 
ATOM      6  C   UNL     1      31.648 -12.383   0.266  1.00  0.00     0.188 A 
ATOM      7  O   UNL     1      30.479 -12.786   0.760  1.00  0.00    -0.452 OA
ATOM      8  C   UNL     1      32.384 -11.374   0.926  1.00  0.00     0.209 A 
ATOM      9  C   UNL     1      33.618 -10.959   0.401  1.00  0.00     0.211 A 
ATOM     10  C   UNL     1      34.103 -11.486  -0.821  1.00  0.00     0.208 A 
ATOM     11  C   UNL     1      33.376 -12.516  -1.473  1.00  0.00     0.179 A 
ENDROOT
BRANCH   1  12
ATOM     12  C   UNL     1      28.421 -14.071   0.834  1.00  0.00     0.018 A 
ATOM     13  C   UNL     1      25.945 -14.682   2.051  1.00  0.00     0.118 A 
ATOM     14  C   UNL     1      26.338 -15.331   0.876  1.00  0.00     0.047 A 
ATOM     15  C   UNL     1      26.798 -13.717   2.616  1.00  0.00     0.047 A 
ATOM     16  C   UNL     1      27.561 -15.029   0.268  1.00  0.00     0.016 A 
ATOM     17  C   UNL     1      28.021 -13.415   2.011  1.00  0.00     0.016 A 
BRANCH  13  18
ATOM     18  O   UNL     1      24.709 -15.022   2.621  1.00  0.00    -0.497 OA
ATOM     19  C   UNL     1      23.857 -14.104   3.301  1.00  0.00     0.278 C 
ENDBRANCH  13  18
ENDBRANCH   1  12
BRANCH   8  20
ATOM     20  O   UNL     1      31.931 -10.721   2.090  1.00  0.00    -0.490 OA
ATOM     21  C   UNL     1      30.709 -10.012   2.251  1.00  0.00     0.278 C 
ENDBRANCH   8  20
BRANCH  11  22
ATOM     22  O   UNL     1      33.825 -13.124  -2.666  1.00  0.00    -0.492 OA
ATOM     23  C   UNL     1      35.066 -13.788  -2.888  1.00  0.00     0.278 C 
ENDBRANCH  11  22
BRANCH   9  24
ATOM     24  O   UNL     1      34.355  -9.996   1.097  1.00  0.00    -0.490 OA
ATOM     25  C   UNL     1      35.101 -10.305   2.271  1.00  0.00     0.279 C 
ENDBRANCH   9  24
BRANCH  10  26
ATOM     26  O   UNL     1      35.286 -11.020  -1.424  1.00  0.00    -0.490 OA
ATOM     27  C   UNL     1      36.626 -11.287  -1.027  1.00  0.00     0.278 C 
ENDBRANCH  10  26
TORSDOF 6
ENDMDL
MODEL 8
REMARK VINA RESULT:    -4.723      2.379      8.436
REMARK INTER + INTRA:          -6.949
REMARK INTER:                  -7.954
REMARK INTRA:                   1.005
REMARK UNBOUND:                -0.569
REMARK SMILES COc1ccc(-c2cc(=O)c3c(OC)c(OC)c(OC)c(OC)c3o2)cc1
REMARK SMILES IDX 7 1 8 2 9 3 10 4 11 5 24 6 25 7 21 8 18 9 15 10 12 11 6 12
REMARK SMILES IDX 3 13 4 14 27 15 5 16 26 17 2 18 1 19 22 20 23 21 13 22 14 23
REMARK SMILES IDX 19 24 20 25 16 26 17 27
REMARK H PARENT
REMARK Flexibility Score: inf
ROOT
ATOM      1  C   UNL     1      31.569 -13.426   0.487  1.00  0.00     0.138 A 
ATOM      2  C   UNL     1      32.569 -14.057   1.233  1.00  0.00     0.100 A 
ATOM      3  C   UNL     1      33.905 -13.791   0.947  1.00  0.00     0.197 A 
ATOM      4  O   UNL     1      34.791 -14.372   1.630  1.00  0.00    -0.289 OA
ATOM      5  C   UNL     1      34.237 -12.886  -0.090  1.00  0.00     0.115 A 
ATOM      6  C   UNL     1      33.169 -12.269  -0.786  1.00  0.00     0.188 A 
ATOM      7  O   UNL     1      31.911 -12.565  -0.466  1.00  0.00    -0.452 OA
ATOM      8  C   UNL     1      33.436 -11.351  -1.825  1.00  0.00     0.209 A 
ATOM      9  C   UNL     1      34.765 -11.041  -2.153  1.00  0.00     0.211 A 
ATOM     10  C   UNL     1      35.844 -11.690  -1.505  1.00  0.00     0.208 A 
ATOM     11  C   UNL     1      35.578 -12.596  -0.446  1.00  0.00     0.179 A 
ENDROOT
BRANCH   1  12
ATOM     12  C   UNL     1      30.129 -13.688   0.741  1.00  0.00     0.018 A 
ATOM     13  C   UNL     1      27.402 -14.247   1.223  1.00  0.00     0.118 A 
ATOM     14  C   UNL     1      28.073 -13.282   1.981  1.00  0.00     0.047 A 
ATOM     15  C   UNL     1      28.105 -14.940   0.221  1.00  0.00     0.047 A 
ATOM     16  C   UNL     1      29.424 -13.004   1.749  1.00  0.00     0.016 A 
ATOM     17  C   UNL     1      29.455 -14.662  -0.014  1.00  0.00     0.016 A 
BRANCH  13  18
ATOM     18  O   UNL     1      26.047 -14.488   1.495  1.00  0.00    -0.497 OA
ATOM     19  C   UNL     1      25.351 -13.977   2.628  1.00  0.00     0.278 C 
ENDBRANCH  13  18
ENDBRANCH   1  12
BRANCH   8  20
ATOM     20  O   UNL     1      32.427 -10.735  -2.593  1.00  0.00    -0.490 OA
ATOM     21  C   UNL     1      31.726  -9.538  -2.279  1.00  0.00     0.278 C 
ENDBRANCH   8  20
BRANCH  11  22
ATOM     22  O   UNL     1      36.605 -13.240   0.279  1.00  0.00    -0.492 OA
ATOM     23  C   UNL     1      37.230 -14.484  -0.021  1.00  0.00     0.278 C 
ENDBRANCH  11  22
BRANCH   9  24
ATOM     24  O   UNL     1      35.008 -10.091  -3.149  1.00  0.00    -0.490 OA
ATOM     25  C   UNL     1      36.249 -10.010  -3.844  1.00  0.00     0.279 C 
ENDBRANCH   9  24
BRANCH  10  26
ATOM     26  O   UNL     1      37.185 -11.476  -1.879  1.00  0.00    -0.490 OA
ATOM     27  C   UNL     1      38.079 -12.407  -2.477  1.00  0.00     0.278 C 
ENDBRANCH  10  26
TORSDOF 6
ENDMDL
