MODEL 1
REMARK VINA RESULT:    -4.184      0.000      0.000
REMARK INTER + INTRA:         -11.662
REMARK INTER:                  -9.076
REMARK INTRA:                  -2.587
REMARK UNBOUND:                -2.587
REMARK SMILES CCCCCCCCCCCCCCCCCCCCCC(=O)[O-]
REMARK SMILES IDX 12 1 11 2 10 3 9 4 8 5 7 6 6 7 5 8 4 9 3 10 2 11 1 12 13 13
REMARK SMILES IDX 14 14 15 15 16 16 17 17 18 18 19 19 20 20 21 21 22 22 23 23
REMARK SMILES IDX 24 24
REMARK H PARENT
REMARK Flexibility Score: inf
ROOT
ATOM      1  C   UNL     1       5.888   2.239  -3.792  1.00  0.00     0.000 C 
ENDROOT
BRANCH   1   2
ATOM      2  C   UNL     1       7.107   2.303  -4.730  1.00  0.00     0.000 C 
BRANCH   2   3
ATOM      3  C   UNL     1       8.381   2.904  -4.107  1.00  0.00     0.000 C 
BRANCH   3   4
ATOM      4  C   UNL     1       8.664   4.338  -4.588  1.00  0.00    -0.000 C 
BRANCH   4   5
ATOM      5  C   UNL     1       7.991   4.647  -5.936  1.00  0.00    -0.000 C 
BRANCH   5   6
ATOM      6  C   UNL     1       7.118   5.913  -5.873  1.00  0.00    -0.000 C 
BRANCH   6   7
ATOM      7  C   UNL     1       5.736   5.714  -6.515  1.00  0.00    -0.000 C 
BRANCH   7   8
ATOM      8  C   UNL     1       4.665   5.279  -5.503  1.00  0.00    -0.000 C 
BRANCH   8   9
ATOM      9  C   UNL     1       5.065   5.677  -4.073  1.00  0.00    -0.000 C 
BRANCH   9  10
ATOM     10  C   UNL     1       3.910   6.358  -3.309  1.00  0.00    -0.000 C 
BRANCH  10  11
ATOM     11  C   UNL     1       2.617   6.484  -4.131  1.00  0.00    -0.003 C 
ATOM     12  C   UNL     1       1.982   7.870  -4.041  1.00  0.00     0.004 C 
ENDBRANCH  10  11
ENDBRANCH   9  10
ENDBRANCH   8   9
ENDBRANCH   7   8
ENDBRANCH   6   7
ENDBRANCH   5   6
ENDBRANCH   4   5
ENDBRANCH   3   4
ENDBRANCH   2   3
ENDBRANCH   1   2
BRANCH   1  13
ATOM     13  C   UNL     1       5.756   0.886  -3.071  1.00  0.00     0.000 C 
BRANCH  13  14
ATOM     14  C   UNL     1       4.820  -0.082  -3.814  1.00  0.00     0.000 C 
BRANCH  14  15
ATOM     15  C   UNL     1       4.951   0.030  -5.344  1.00  0.00     0.000 C 
BRANCH  15  16
ATOM     16  C   UNL     1       3.603   0.327  -6.036  1.00  0.00     0.000 C 
BRANCH  16  17
ATOM     17  C   UNL     1       3.302   1.830  -6.200  1.00  0.00     0.000 C 
BRANCH  17  18
ATOM     18  C   UNL     1       2.224   2.387  -5.252  1.00  0.00     0.000 C 
BRANCH  18  19
ATOM     19  C   UNL     1       1.587   1.353  -4.302  1.00  0.00     0.000 C 
BRANCH  19  20
ATOM     20  C   UNL     1       0.206   0.823  -4.741  1.00  0.00     0.006 C 
BRANCH  20  21
ATOM     21  C   UNL     1      -0.069  -0.634  -4.339  1.00  0.00     0.053 C 
BRANCH  21  22
ATOM     22  C   UNL     1       0.945  -1.574  -4.913  1.00  0.00     0.041 C 
ATOM     23  O   UNL     1       0.916  -1.869  -6.138  1.00  0.00    -0.550 OA
ATOM     24  O   UNL     1       1.920  -2.130  -4.095  1.00  0.00    -0.550 OA
ENDBRANCH  21  22
ENDBRANCH  20  21
ENDBRANCH  19  20
ENDBRANCH  18  19
ENDBRANCH  17  18
ENDBRANCH  16  17
ENDBRANCH  15  16
ENDBRANCH  14  15
ENDBRANCH  13  14
ENDBRANCH   1  13
TORSDOF 20
ENDMDL
MODEL 2
REMARK VINA RESULT:    -4.172      0.867      2.041
REMARK INTER + INTRA:         -11.636
REMARK INTER:                  -8.226
REMARK INTRA:                  -3.410
REMARK UNBOUND:                -2.587
REMARK SMILES CCCCCCCCCCCCCCCCCCCCCC(=O)[O-]
REMARK SMILES IDX 12 1 11 2 10 3 9 4 8 5 7 6 6 7 5 8 4 9 3 10 2 11 1 12 13 13
REMARK SMILES IDX 14 14 15 15 16 16 17 17 18 18 19 19 20 20 21 21 22 22 23 23
REMARK SMILES IDX 24 24
REMARK H PARENT
REMARK Flexibility Score: inf
ROOT
ATOM      1  C   UNL     1       4.791  -0.079  -3.664  1.00  0.00     0.000 C 
ENDROOT
BRANCH   1   2
ATOM      2  C   UNL     1       5.758   0.920  -3.002  1.00  0.00     0.000 C 
BRANCH   2   3
ATOM      3  C   UNL     1       5.964   2.237  -3.771  1.00  0.00     0.000 C 
BRANCH   3   4
ATOM      4  C   UNL     1       7.438   2.495  -4.134  1.00  0.00    -0.000 C 
BRANCH   4   5
ATOM      5  C   UNL     1       7.754   2.123  -5.593  1.00  0.00    -0.000 C 
BRANCH   5   6
ATOM      6  C   UNL     1       7.388   3.252  -6.573  1.00  0.00    -0.000 C 
BRANCH   6   7
ATOM      7  C   UNL     1       7.801   4.641  -6.058  1.00  0.00    -0.000 C 
BRANCH   7   8
ATOM      8  C   UNL     1       6.794   5.739  -6.435  1.00  0.00    -0.000 C 
BRANCH   8   9
ATOM      9  C   UNL     1       5.396   5.147  -6.670  1.00  0.00    -0.000 C 
BRANCH   9  10
ATOM     10  C   UNL     1       4.353   5.691  -5.672  1.00  0.00    -0.000 C 
BRANCH  10  11
ATOM     11  C   UNL     1       4.798   5.599  -4.204  1.00  0.00    -0.003 C 
ATOM     12  C   UNL     1       3.848   6.310  -3.243  1.00  0.00     0.004 C 
ENDBRANCH  10  11
ENDBRANCH   9  10
ENDBRANCH   8   9
ENDBRANCH   7   8
ENDBRANCH   6   7
ENDBRANCH   5   6
ENDBRANCH   4   5
ENDBRANCH   3   4
ENDBRANCH   2   3
ENDBRANCH   1   2
BRANCH   1  13
ATOM     13  C   UNL     1       5.438  -0.866  -4.818  1.00  0.00     0.000 C 
BRANCH  13  14
ATOM     14  C   UNL     1       5.216  -0.190  -6.182  1.00  0.00     0.000 C 
BRANCH  14  15
ATOM     15  C   UNL     1       3.761   0.276  -6.377  1.00  0.00     0.000 C 
BRANCH  15  16
ATOM     16  C   UNL     1       3.638   1.811  -6.485  1.00  0.00     0.000 C 
BRANCH  16  17
ATOM     17  C   UNL     1       2.616   2.428  -5.510  1.00  0.00     0.000 C 
BRANCH  17  18
ATOM     18  C   UNL     1       1.199   2.616  -6.082  1.00  0.00     0.000 C 
BRANCH  18  19
ATOM     19  C   UNL     1       0.187   1.516  -5.704  1.00  0.00     0.000 C 
BRANCH  19  20
ATOM     20  C   UNL     1       0.486   0.775  -4.384  1.00  0.00     0.006 C 
BRANCH  20  21
ATOM     21  C   UNL     1       0.004  -0.683  -4.353  1.00  0.00     0.053 C 
BRANCH  21  22
ATOM     22  C   UNL     1       1.021  -1.621  -4.925  1.00  0.00     0.041 C 
ATOM     23  O   UNL     1       0.958  -1.966  -6.135  1.00  0.00    -0.550 OA
ATOM     24  O   UNL     1       2.036  -2.122  -4.119  1.00  0.00    -0.550 OA
ENDBRANCH  21  22
ENDBRANCH  20  21
ENDBRANCH  19  20
ENDBRANCH  18  19
ENDBRANCH  17  18
ENDBRANCH  16  17
ENDBRANCH  15  16
ENDBRANCH  14  15
ENDBRANCH  13  14
ENDBRANCH   1  13
TORSDOF 20
ENDMDL
MODEL 3
REMARK VINA RESULT:    -4.088      1.555      4.538
REMARK INTER + INTRA:         -11.454
REMARK INTER:                  -7.732
REMARK INTRA:                  -3.722
REMARK UNBOUND:                -2.587
REMARK SMILES CCCCCCCCCCCCCCCCCCCCCC(=O)[O-]
REMARK SMILES IDX 12 1 11 2 10 3 9 4 8 5 7 6 6 7 5 8 4 9 3 10 2 11 1 12 13 13
REMARK SMILES IDX 14 14 15 15 16 16 17 17 18 18 19 19 20 20 21 21 22 22 23 23
REMARK SMILES IDX 24 24
REMARK H PARENT
REMARK Flexibility Score: inf
ROOT
ATOM      1  C   UNL     1       3.911   4.530  -3.627  1.00  0.00     0.000 C 
ENDROOT
BRANCH   1   2
ATOM      2  C   UNL     1       5.048   3.944  -4.484  1.00  0.00     0.000 C 
BRANCH   2   3
ATOM      3  C   UNL     1       6.065   4.973  -5.011  1.00  0.00     0.000 C 
BRANCH   3   4
ATOM      4  C   UNL     1       7.516   4.462  -4.955  1.00  0.00    -0.000 C 
BRANCH   4   5
ATOM      5  C   UNL     1       7.595   2.958  -4.645  1.00  0.00    -0.000 C 
BRANCH   5   6
ATOM      6  C   UNL     1       8.541   2.216  -5.606  1.00  0.00    -0.000 C 
BRANCH   6   7
ATOM      7  C   UNL     1       7.911   0.944  -6.195  1.00  0.00    -0.000 C 
BRANCH   7   8
ATOM      8  C   UNL     1       6.387   1.057  -6.362  1.00  0.00    -0.000 C 
BRANCH   8   9
ATOM      9  C   UNL     1       5.689  -0.247  -5.944  1.00  0.00    -0.000 C 
BRANCH   9  10
ATOM     10  C   UNL     1       5.857  -0.545  -4.439  1.00  0.00    -0.000 C 
BRANCH  10  11
ATOM     11  C   UNL     1       5.036   0.384  -3.531  1.00  0.00    -0.003 C 
ATOM     12  C   UNL     1       5.807   0.856  -2.301  1.00  0.00     0.004 C 
ENDBRANCH  10  11
ENDBRANCH   9  10
ENDBRANCH   8   9
ENDBRANCH   7   8
ENDBRANCH   6   7
ENDBRANCH   5   6
ENDBRANCH   4   5
ENDBRANCH   3   4
ENDBRANCH   2   3
ENDBRANCH   1   2
BRANCH   1  13
ATOM     13  C   UNL     1       3.842   6.066  -3.689  1.00  0.00     0.000 C 
BRANCH  13  14
ATOM     14  C   UNL     1       2.598   6.565  -4.444  1.00  0.00     0.000 C 
BRANCH  14  15
ATOM     15  C   UNL     1       2.752   6.448  -5.972  1.00  0.00     0.000 C 
BRANCH  15  16
ATOM     16  C   UNL     1       1.708   5.501  -6.603  1.00  0.00     0.000 C 
BRANCH  16  17
ATOM     17  C   UNL     1       2.258   4.104  -6.950  1.00  0.00     0.000 C 
BRANCH  17  18
ATOM     18  C   UNL     1       1.648   2.943  -6.144  1.00  0.00     0.000 C 
BRANCH  18  19
ATOM     19  C   UNL     1       2.577   1.731  -5.932  1.00  0.00     0.000 C 
BRANCH  19  20
ATOM     20  C   UNL     1       2.244   0.491  -6.787  1.00  0.00     0.006 C 
BRANCH  20  21
ATOM     21  C   UNL     1       1.082  -0.357  -6.247  1.00  0.00     0.053 C 
BRANCH  21  22
ATOM     22  C   UNL     1       1.269  -0.707  -4.803  1.00  0.00     0.041 C 
ATOM     23  O   UNL     1       2.201  -1.479  -4.452  1.00  0.00    -0.550 OA
ATOM     24  O   UNL     1       0.409  -0.186  -3.844  1.00  0.00    -0.550 OA
ENDBRANCH  21  22
ENDBRANCH  20  21
ENDBRANCH  19  20
ENDBRANCH  18  19
ENDBRANCH  17  18
ENDBRANCH  16  17
ENDBRANCH  15  16
ENDBRANCH  14  15
ENDBRANCH  13  14
ENDBRANCH   1  13
TORSDOF 20
ENDMDL
MODEL 4
REMARK VINA RESULT:    -3.968      2.855      6.298
REMARK INTER + INTRA:         -11.194
REMARK INTER:                  -7.661
REMARK INTRA:                  -3.533
REMARK UNBOUND:                -2.587
REMARK SMILES CCCCCCCCCCCCCCCCCCCCCC(=O)[O-]
REMARK SMILES IDX 12 1 11 2 10 3 9 4 8 5 7 6 6 7 5 8 4 9 3 10 2 11 1 12 13 13
REMARK SMILES IDX 14 14 15 15 16 16 17 17 18 18 19 19 20 20 21 21 22 22 23 23
REMARK SMILES IDX 24 24
REMARK H PARENT
REMARK Flexibility Score: inf
ROOT
ATOM      1  C   UNL     1       5.088  -0.499  -4.169  1.00  0.00     0.000 C 
ENDROOT
BRANCH   1   2
ATOM      2  C   UNL     1       6.127  -0.891  -5.235  1.00  0.00     0.000 C 
BRANCH   2   3
ATOM      3  C   UNL     1       5.774  -0.476  -6.675  1.00  0.00     0.000 C 
BRANCH   3   4
ATOM      4  C   UNL     1       4.765   0.686  -6.734  1.00  0.00    -0.000 C 
BRANCH   4   5
ATOM      5  C   UNL     1       3.348   0.210  -7.095  1.00  0.00    -0.000 C 
BRANCH   5   6
ATOM      6  C   UNL     1       2.268   1.211  -6.647  1.00  0.00    -0.000 C 
BRANCH   6   7
ATOM      7  C   UNL     1       2.446   1.663  -5.188  1.00  0.00    -0.000 C 
BRANCH   7   8
ATOM      8  C   UNL     1       1.236   1.318  -4.306  1.00  0.00    -0.000 C 
BRANCH   8   9
ATOM      9  C   UNL     1       0.127   0.645  -5.130  1.00  0.00    -0.000 C 
BRANCH   9  10
ATOM     10  C   UNL     1      -0.169  -0.792  -4.651  1.00  0.00    -0.000 C 
BRANCH  10  11
ATOM     11  C   UNL     1       0.807  -1.841  -5.206  1.00  0.00    -0.003 C 
ATOM     12  C   UNL     1       1.769  -2.383  -4.151  1.00  0.00     0.004 C 
ENDBRANCH  10  11
ENDBRANCH   9  10
ENDBRANCH   8   9
ENDBRANCH   7   8
ENDBRANCH   6   7
ENDBRANCH   5   6
ENDBRANCH   4   5
ENDBRANCH   3   4
ENDBRANCH   2   3
ENDBRANCH   1   2
BRANCH   1  13
ATOM     13  C   UNL     1       5.664   0.422  -3.079  1.00  0.00     0.000 C 
BRANCH  13  14
ATOM     14  C   UNL     1       5.618   1.906  -3.483  1.00  0.00     0.000 C 
BRANCH  14  15
ATOM     15  C   UNL     1       7.010   2.464  -3.833  1.00  0.00     0.000 C 
BRANCH  15  16
ATOM     16  C   UNL     1       7.084   3.016  -5.273  1.00  0.00     0.000 C 
BRANCH  16  17
ATOM     17  C   UNL     1       7.055   4.555  -5.355  1.00  0.00     0.000 C 
BRANCH  17  18
ATOM     18  C   UNL     1       6.100   5.135  -6.415  1.00  0.00     0.000 C 
BRANCH  18  19
ATOM     19  C   UNL     1       4.721   4.450  -6.501  1.00  0.00     0.000 C 
BRANCH  19  20
ATOM     20  C   UNL     1       3.573   5.196  -5.788  1.00  0.00     0.006 C 
BRANCH  20  21
ATOM     21  C   UNL     1       3.491   4.935  -4.277  1.00  0.00     0.053 C 
BRANCH  21  22
ATOM     22  C   UNL     1       3.341   6.204  -3.497  1.00  0.00     0.041 C 
ATOM     23  O   UNL     1       4.267   6.596  -2.737  1.00  0.00    -0.550 OA
ATOM     24  O   UNL     1       2.175   6.952  -3.603  1.00  0.00    -0.550 OA
ENDBRANCH  21  22
ENDBRANCH  20  21
ENDBRANCH  19  20
ENDBRANCH  18  19
ENDBRANCH  17  18
ENDBRANCH  16  17
ENDBRANCH  15  16
ENDBRANCH  14  15
ENDBRANCH  13  14
ENDBRANCH   1  13
TORSDOF 20
ENDMDL
MODEL 5
REMARK VINA RESULT:    -3.869      1.476      2.535
REMARK INTER + INTRA:         -10.979
REMARK INTER:                  -7.384
REMARK INTRA:                  -3.596
REMARK UNBOUND:                -2.587
REMARK SMILES CCCCCCCCCCCCCCCCCCCCCC(=O)[O-]
REMARK SMILES IDX 12 1 11 2 10 3 9 4 8 5 7 6 6 7 5 8 4 9 3 10 2 11 1 12 13 13
REMARK SMILES IDX 14 14 15 15 16 16 17 17 18 18 19 19 20 20 21 21 22 22 23 23
REMARK SMILES IDX 24 24
REMARK H PARENT
REMARK Flexibility Score: inf
ROOT
ATOM      1  C   UNL     1       5.203  -0.560  -4.322  1.00  0.00     0.000 C 
ENDROOT
BRANCH   1   2
ATOM      2  C   UNL     1       6.412  -0.649  -5.271  1.00  0.00     0.000 C 
BRANCH   2   3
ATOM      3  C   UNL     1       6.127  -0.256  -6.732  1.00  0.00     0.000 C 
BRANCH   3   4
ATOM      4  C   UNL     1       6.760   1.091  -7.125  1.00  0.00    -0.000 C 
BRANCH   4   5
ATOM      5  C   UNL     1       7.818   1.557  -6.111  1.00  0.00    -0.000 C 
BRANCH   5   6
ATOM      6  C   UNL     1       8.182   3.042  -6.293  1.00  0.00    -0.000 C 
BRANCH   6   7
ATOM      7  C   UNL     1       7.307   3.976  -5.442  1.00  0.00    -0.000 C 
BRANCH   7   8
ATOM      8  C   UNL     1       6.450   4.928  -6.291  1.00  0.00    -0.000 C 
BRANCH   8   9
ATOM      9  C   UNL     1       5.120   5.244  -5.590  1.00  0.00    -0.000 C 
BRANCH   9  10
ATOM     10  C   UNL     1       5.322   5.718  -4.135  1.00  0.00    -0.000 C 
BRANCH  10  11
ATOM     11  C   UNL     1       4.008   6.027  -3.400  1.00  0.00    -0.003 C 
ATOM     12  C   UNL     1       2.909   6.543  -4.325  1.00  0.00     0.004 C 
ENDBRANCH  10  11
ENDBRANCH   9  10
ENDBRANCH   8   9
ENDBRANCH   7   8
ENDBRANCH   6   7
ENDBRANCH   5   6
ENDBRANCH   4   5
ENDBRANCH   3   4
ENDBRANCH   2   3
ENDBRANCH   1   2
BRANCH   1  13
ATOM     13  C   UNL     1       5.329   0.577  -3.294  1.00  0.00     0.000 C 
BRANCH  13  14
ATOM     14  C   UNL     1       4.998   1.952  -3.900  1.00  0.00     0.000 C 
BRANCH  14  15
ATOM     15  C   UNL     1       3.575   2.424  -3.544  1.00  0.00     0.000 C 
BRANCH  15  16
ATOM     16  C   UNL     1       2.651   2.505  -4.778  1.00  0.00     0.000 C 
BRANCH  16  17
ATOM     17  C   UNL     1       3.330   2.088  -6.097  1.00  0.00     0.000 C 
BRANCH  17  18
ATOM     18  C   UNL     1       2.407   1.393  -7.115  1.00  0.00     0.000 C 
BRANCH  18  19
ATOM     19  C   UNL     1       0.915   1.349  -6.726  1.00  0.00     0.000 C 
BRANCH  19  20
ATOM     20  C   UNL     1       0.171   0.057  -7.125  1.00  0.00     0.006 C 
BRANCH  20  21
ATOM     21  C   UNL     1       0.649  -1.201  -6.385  1.00  0.00     0.053 C 
BRANCH  21  22
ATOM     22  C   UNL     1       0.653  -1.011  -4.900  1.00  0.00     0.041 C 
ATOM     23  O   UNL     1      -0.433  -0.912  -4.270  1.00  0.00    -0.550 OA
ATOM     24  O   UNL     1       1.857  -0.936  -4.212  1.00  0.00    -0.550 OA
ENDBRANCH  21  22
ENDBRANCH  20  21
ENDBRANCH  19  20
ENDBRANCH  18  19
ENDBRANCH  17  18
ENDBRANCH  16  17
ENDBRANCH  15  16
ENDBRANCH  14  15
ENDBRANCH  13  14
ENDBRANCH   1  13
TORSDOF 20
ENDMDL
MODEL 6
REMARK VINA RESULT:    -3.803      2.769      5.923
REMARK INTER + INTRA:         -10.837
REMARK INTER:                  -7.918
REMARK INTRA:                  -2.919
REMARK UNBOUND:                -2.587
REMARK SMILES CCCCCCCCCCCCCCCCCCCCCC(=O)[O-]
REMARK SMILES IDX 12 1 11 2 10 3 9 4 8 5 7 6 6 7 5 8 4 9 3 10 2 11 1 12 13 13
REMARK SMILES IDX 14 14 15 15 16 16 17 17 18 18 19 19 20 20 21 21 22 22 23 23
REMARK SMILES IDX 24 24
REMARK H PARENT
REMARK Flexibility Score: inf
ROOT
ATOM      1  C   UNL     1      -0.211  -0.798  -4.161  1.00  0.00     0.000 C 
ENDROOT
BRANCH   1   2
ATOM      2  C   UNL     1      -0.165   0.704  -4.494  1.00  0.00     0.000 C 
BRANCH   2   3
ATOM      3  C   UNL     1       0.394   1.048  -5.886  1.00  0.00     0.000 C 
BRANCH   3   4
ATOM      4  C   UNL     1       1.075   2.428  -5.934  1.00  0.00    -0.000 C 
BRANCH   4   5
ATOM      5  C   UNL     1       2.573   2.352  -5.592  1.00  0.00    -0.000 C 
BRANCH   5   6
ATOM      6  C   UNL     1       2.833   2.513  -4.084  1.00  0.00    -0.000 C 
BRANCH   6   7
ATOM      7  C   UNL     1       4.242   3.045  -3.778  1.00  0.00    -0.000 C 
BRANCH   7   8
ATOM      8  C   UNL     1       4.863   3.803  -4.962  1.00  0.00    -0.000 C 
BRANCH   8   9
ATOM      9  C   UNL     1       5.335   5.202  -4.534  1.00  0.00    -0.000 C 
BRANCH   9  10
ATOM     10  C   UNL     1       4.256   5.967  -3.739  1.00  0.00    -0.000 C 
BRANCH  10  11
ATOM     11  C   UNL     1       2.997   6.288  -4.559  1.00  0.00    -0.003 C 
ATOM     12  C   UNL     1       2.208   7.474  -4.008  1.00  0.00     0.004 C 
ENDBRANCH  10  11
ENDBRANCH   9  10
ENDBRANCH   8   9
ENDBRANCH   7   8
ENDBRANCH   6   7
ENDBRANCH   5   6
ENDBRANCH   4   5
ENDBRANCH   3   4
ENDBRANCH   2   3
ENDBRANCH   1   2
BRANCH   1  13
ATOM     13  C   UNL     1       0.813  -1.622  -4.960  1.00  0.00     0.000 C 
BRANCH  13  14
ATOM     14  C   UNL     1       2.084  -1.923  -4.146  1.00  0.00     0.000 C 
BRANCH  14  15
ATOM     15  C   UNL     1       3.224  -0.931  -4.447  1.00  0.00     0.000 C 
BRANCH  15  16
ATOM     16  C   UNL     1       4.519  -1.264  -3.676  1.00  0.00     0.000 C 
BRANCH  16  17
ATOM     17  C   UNL     1       5.742  -0.437  -4.120  1.00  0.00     0.000 C 
BRANCH  17  18
ATOM     18  C   UNL     1       5.762  -0.048  -5.609  1.00  0.00     0.000 C 
BRANCH  18  19
ATOM     19  C   UNL     1       7.163   0.188  -6.208  1.00  0.00     0.000 C 
BRANCH  19  20
ATOM     20  C   UNL     1       7.485   1.654  -6.565  1.00  0.00     0.006 C 
BRANCH  20  21
ATOM     21  C   UNL     1       8.780   2.189  -5.935  1.00  0.00     0.053 C 
BRANCH  21  22
ATOM     22  C   UNL     1       8.511   2.997  -4.704  1.00  0.00     0.041 C 
ATOM     23  O   UNL     1       7.929   2.474  -3.716  1.00  0.00    -0.550 OA
ATOM     24  O   UNL     1       8.899   4.329  -4.648  1.00  0.00    -0.550 OA
ENDBRANCH  21  22
ENDBRANCH  20  21
ENDBRANCH  19  20
ENDBRANCH  18  19
ENDBRANCH  17  18
ENDBRANCH  16  17
ENDBRANCH  15  16
ENDBRANCH  14  15
ENDBRANCH  13  14
ENDBRANCH   1  13
TORSDOF 20
ENDMDL
MODEL 7
REMARK VINA RESULT:    -3.793      2.777      6.262
REMARK INTER + INTRA:         -10.814
REMARK INTER:                  -7.539
REMARK INTRA:                  -3.275
REMARK UNBOUND:                -2.587
REMARK SMILES CCCCCCCCCCCCCCCCCCCCCC(=O)[O-]
REMARK SMILES IDX 12 1 11 2 10 3 9 4 8 5 7 6 6 7 5 8 4 9 3 10 2 11 1 12 13 13
REMARK SMILES IDX 14 14 15 15 16 16 17 17 18 18 19 19 20 20 21 21 22 22 23 23
REMARK SMILES IDX 24 24
REMARK H PARENT
REMARK Flexibility Score: inf
ROOT
ATOM      1  C   UNL     1       5.735  -1.241  -4.995  1.00  0.00     0.000 C 
ENDROOT
BRANCH   1   2
ATOM      2  C   UNL     1       5.119  -0.693  -3.694  1.00  0.00     0.000 C 
BRANCH   2   3
ATOM      3  C   UNL     1       5.622   0.697  -3.267  1.00  0.00     0.000 C 
BRANCH   3   4
ATOM      4  C   UNL     1       4.622   1.822  -3.592  1.00  0.00    -0.000 C 
BRANCH   4   5
ATOM      5  C   UNL     1       3.491   1.349  -4.520  1.00  0.00    -0.000 C 
BRANCH   5   6
ATOM      6  C   UNL     1       2.273   2.288  -4.477  1.00  0.00    -0.000 C 
BRANCH   6   7
ATOM      7  C   UNL     1       1.399   2.186  -5.737  1.00  0.00    -0.000 C 
BRANCH   7   8
ATOM      8  C   UNL     1       1.779   0.995  -6.631  1.00  0.00    -0.000 C 
BRANCH   8   9
ATOM      9  C   UNL     1       0.571   0.075  -6.867  1.00  0.00    -0.000 C 
BRANCH   9  10
ATOM     10  C   UNL     1       0.798  -1.346  -6.310  1.00  0.00    -0.000 C 
BRANCH  10  11
ATOM     11  C   UNL     1       0.906  -1.399  -4.778  1.00  0.00    -0.003 C 
ATOM     12  C   UNL     1      -0.299  -0.784  -4.071  1.00  0.00     0.004 C 
ENDBRANCH  10  11
ENDBRANCH   9  10
ENDBRANCH   8   9
ENDBRANCH   7   8
ENDBRANCH   6   7
ENDBRANCH   5   6
ENDBRANCH   4   5
ENDBRANCH   3   4
ENDBRANCH   2   3
ENDBRANCH   1   2
BRANCH   1  13
ATOM     13  C   UNL     1       6.752  -0.275  -5.630  1.00  0.00     0.000 C 
BRANCH  13  14
ATOM     14  C   UNL     1       6.184   0.438  -6.869  1.00  0.00     0.000 C 
BRANCH  14  15
ATOM     15  C   UNL     1       6.462   1.953  -6.855  1.00  0.00     0.000 C 
BRANCH  15  16
ATOM     16  C   UNL     1       7.743   2.314  -6.072  1.00  0.00     0.000 C 
BRANCH  16  17
ATOM     17  C   UNL     1       7.566   3.484  -5.086  1.00  0.00     0.000 C 
BRANCH  17  18
ATOM     18  C   UNL     1       7.532   4.882  -5.730  1.00  0.00     0.000 C 
BRANCH  18  19
ATOM     19  C   UNL     1       6.371   5.789  -5.272  1.00  0.00     0.000 C 
BRANCH  19  20
ATOM     20  C   UNL     1       5.087   5.046  -4.848  1.00  0.00     0.006 C 
BRANCH  20  21
ATOM     21  C   UNL     1       4.208   5.819  -3.854  1.00  0.00     0.053 C 
BRANCH  21  22
ATOM     22  C   UNL     1       2.893   6.209  -4.455  1.00  0.00     0.041 C 
ATOM     23  O   UNL     1       2.584   5.822  -5.614  1.00  0.00    -0.550 OA
ATOM     24  O   UNL     1       2.010   7.006  -3.738  1.00  0.00    -0.550 OA
ENDBRANCH  21  22
ENDBRANCH  20  21
ENDBRANCH  19  20
ENDBRANCH  18  19
ENDBRANCH  17  18
ENDBRANCH  16  17
ENDBRANCH  15  16
ENDBRANCH  14  15
ENDBRANCH  13  14
ENDBRANCH   1  13
TORSDOF 20
ENDMDL
MODEL 8
REMARK VINA RESULT:    -3.753      1.601      3.489
REMARK INTER + INTRA:         -10.728
REMARK INTER:                  -7.475
REMARK INTRA:                  -3.253
REMARK UNBOUND:                -2.587
REMARK SMILES CCCCCCCCCCCCCCCCCCCCCC(=O)[O-]
REMARK SMILES IDX 12 1 11 2 10 3 9 4 8 5 7 6 6 7 5 8 4 9 3 10 2 11 1 12 13 13
REMARK SMILES IDX 14 14 15 15 16 16 17 17 18 18 19 19 20 20 21 21 22 22 23 23
REMARK SMILES IDX 24 24
REMARK H PARENT
REMARK Flexibility Score: inf
ROOT
ATOM      1  C   UNL     1       5.919   1.353  -3.264  1.00  0.00     0.000 C 
ENDROOT
BRANCH   1   2
ATOM      2  C   UNL     1       5.522   2.730  -3.827  1.00  0.00     0.000 C 
BRANCH   2   3
ATOM      3  C   UNL     1       4.019   3.058  -3.753  1.00  0.00     0.000 C 
BRANCH   3   4
ATOM      4  C   UNL     1       3.647   4.340  -4.520  1.00  0.00    -0.000 C 
BRANCH   4   5
ATOM      5  C   UNL     1       4.267   4.380  -5.926  1.00  0.00    -0.000 C 
BRANCH   5   6
ATOM      6  C   UNL     1       4.499   5.820  -6.418  1.00  0.00    -0.000 C 
BRANCH   6   7
ATOM      7  C   UNL     1       5.972   6.103  -6.754  1.00  0.00    -0.000 C 
BRANCH   7   8
ATOM      8  C   UNL     1       6.913   4.973  -6.306  1.00  0.00    -0.000 C 
BRANCH   8   9
ATOM      9  C   UNL     1       7.756   5.406  -5.096  1.00  0.00    -0.000 C 
BRANCH   9  10
ATOM     10  C   UNL     1       9.111   4.669  -5.032  1.00  0.00    -0.000 C 
BRANCH  10  11
ATOM     11  C   UNL     1       9.011   3.244  -4.467  1.00  0.00    -0.003 C 
ATOM     12  C   UNL     1       9.072   2.165  -5.546  1.00  0.00     0.004 C 
ENDBRANCH  10  11
ENDBRANCH   9  10
ENDBRANCH   8   9
ENDBRANCH   7   8
ENDBRANCH   6   7
ENDBRANCH   5   6
ENDBRANCH   4   5
ENDBRANCH   3   4
ENDBRANCH   2   3
ENDBRANCH   1   2
BRANCH   1  13
ATOM     13  C   UNL     1       4.835   0.282  -3.478  1.00  0.00     0.000 C 
BRANCH  13  14
ATOM     14  C   UNL     1       5.308  -0.849  -4.408  1.00  0.00     0.000 C 
BRANCH  14  15
ATOM     15  C   UNL     1       6.261  -0.347  -5.508  1.00  0.00     0.000 C 
BRANCH  15  16
ATOM     16  C   UNL     1       5.536   0.483  -6.589  1.00  0.00     0.000 C 
BRANCH  16  17
ATOM     17  C   UNL     1       4.121  -0.026  -6.925  1.00  0.00     0.000 C 
BRANCH  17  18
ATOM     18  C   UNL     1       3.017   1.046  -6.896  1.00  0.00     0.000 C 
BRANCH  18  19
ATOM     19  C   UNL     1       1.931   0.842  -5.820  1.00  0.00     0.000 C 
BRANCH  19  20
ATOM     20  C   UNL     1       0.705   0.023  -6.274  1.00  0.00     0.006 C 
BRANCH  20  21
ATOM     21  C   UNL     1       0.801  -1.480  -5.972  1.00  0.00     0.053 C 
BRANCH  21  22
ATOM     22  C   UNL     1       1.049  -1.744  -4.519  1.00  0.00     0.041 C 
ATOM     23  O   UNL     1       2.133  -2.267  -4.145  1.00  0.00    -0.550 OA
ATOM     24  O   UNL     1       0.081  -1.419  -3.578  1.00  0.00    -0.550 OA
ENDBRANCH  21  22
ENDBRANCH  20  21
ENDBRANCH  19  20
ENDBRANCH  18  19
ENDBRANCH  17  18
ENDBRANCH  16  17
ENDBRANCH  15  16
ENDBRANCH  14  15
ENDBRANCH  13  14
ENDBRANCH   1  13
TORSDOF 20
ENDMDL
MODEL 9
REMARK VINA RESULT:    -3.744      2.970      6.408
REMARK INTER + INTRA:         -10.708
REMARK INTER:                  -7.800
REMARK INTRA:                  -2.909
REMARK UNBOUND:                -2.587
REMARK SMILES CCCCCCCCCCCCCCCCCCCCCC(=O)[O-]
REMARK SMILES IDX 12 1 11 2 10 3 9 4 8 5 7 6 6 7 5 8 4 9 3 10 2 11 1 12 13 13
REMARK SMILES IDX 14 14 15 15 16 16 17 17 18 18 19 19 20 20 21 21 22 22 23 23
REMARK SMILES IDX 24 24
REMARK H PARENT
REMARK Flexibility Score: inf
ROOT
ATOM      1  C   UNL     1       0.492   0.969  -4.393  1.00  0.00     0.000 C 
ENDROOT
BRANCH   1   2
ATOM      2  C   UNL     1       0.448  -0.553  -4.617  1.00  0.00     0.000 C 
BRANCH   2   3
ATOM      3  C   UNL     1       1.804  -1.206  -4.940  1.00  0.00     0.000 C 
BRANCH   3   4
ATOM      4  C   UNL     1       3.001  -0.297  -4.605  1.00  0.00    -0.000 C 
BRANCH   4   5
ATOM      5  C   UNL     1       4.175  -1.080  -3.993  1.00  0.00    -0.000 C 
BRANCH   5   6
ATOM      6  C   UNL     1       5.078  -0.187  -3.123  1.00  0.00    -0.000 C 
BRANCH   6   7
ATOM      7  C   UNL     1       5.430   1.145  -3.805  1.00  0.00    -0.000 C 
BRANCH   7   8
ATOM      8  C   UNL     1       6.523   0.995  -4.875  1.00  0.00    -0.000 C 
BRANCH   8   9
ATOM      9  C   UNL     1       6.222   1.879  -6.096  1.00  0.00    -0.000 C 
BRANCH   9  10
ATOM     10  C   UNL     1       7.246   3.022  -6.259  1.00  0.00    -0.000 C 
BRANCH  10  11
ATOM     11  C   UNL     1       6.651   4.420  -6.032  1.00  0.00    -0.003 C 
ATOM     12  C   UNL     1       7.384   5.217  -4.956  1.00  0.00     0.004 C 
ENDBRANCH  10  11
ENDBRANCH   9  10
ENDBRANCH   8   9
ENDBRANCH   7   8
ENDBRANCH   6   7
ENDBRANCH   5   6
ENDBRANCH   4   5
ENDBRANCH   3   4
ENDBRANCH   2   3
ENDBRANCH   1   2
BRANCH   1  13
ATOM     13  C   UNL     1      -0.104   1.767  -5.566  1.00  0.00     0.000 C 
BRANCH  13  14
ATOM     14  C   UNL     1       0.949   2.111  -6.633  1.00  0.00     0.000 C 
BRANCH  14  15
ATOM     15  C   UNL     1       1.634   3.465  -6.367  1.00  0.00     0.000 C 
BRANCH  15  16
ATOM     16  C   UNL     1       3.031   3.309  -5.728  1.00  0.00     0.000 C 
BRANCH  16  17
ATOM     17  C   UNL     1       3.038   3.464  -4.194  1.00  0.00     0.000 C 
BRANCH  17  18
ATOM     18  C   UNL     1       3.890   4.630  -3.660  1.00  0.00     0.000 C 
BRANCH  18  19
ATOM     19  C   UNL     1       3.655   5.987  -4.354  1.00  0.00     0.000 C 
BRANCH  19  20
ATOM     20  C   UNL     1       2.644   6.916  -3.651  1.00  0.00     0.006 C 
BRANCH  20  21
ATOM     21  C   UNL     1       1.910   7.881  -4.594  1.00  0.00     0.053 C 
BRANCH  21  22
ATOM     22  C   UNL     1       0.521   7.414  -4.902  1.00  0.00     0.041 C 
ATOM     23  O   UNL     1       0.303   6.694  -5.912  1.00  0.00    -0.550 OA
ATOM     24  O   UNL     1      -0.535   7.780  -4.077  1.00  0.00    -0.550 OA
ENDBRANCH  21  22
ENDBRANCH  20  21
ENDBRANCH  19  20
ENDBRANCH  18  19
ENDBRANCH  17  18
ENDBRANCH  16  17
ENDBRANCH  15  16
ENDBRANCH  14  15
ENDBRANCH  13  14
ENDBRANCH   1  13
TORSDOF 20
ENDMDL
