MODEL 1
REMARK VINA RESULT:    -5.876      0.000      0.000
REMARK INTER + INTRA:          -7.792
REMARK INTER:                  -7.594
REMARK INTRA:                  -0.198
REMARK UNBOUND:                -0.198
REMARK SMILES CCO[C@H]1O[C@@H](CO)[C@H](O)[C@@H](O)[C@@H]1O
REMARK SMILES IDX 4 1 13 2 11 3 9 4 6 5 5 6 3 7 2 8 1 9 14 10 12 12 7 14 8 15
REMARK SMILES IDX 10 17
REMARK H PARENT 14 11 12 13 8 16 10 18
REMARK Flexibility Score: inf
ROOT
ATOM      1  C   UNL     1      16.169  -1.236 -11.804  1.00  0.00     0.281 C 
ATOM      2  C   UNL     1      16.759  -1.058 -10.395  1.00  0.00     0.202 C 
ATOM      3  C   UNL     1      16.249   0.238  -9.741  1.00  0.00     0.179 C 
ATOM      4  C   UNL     1      16.444   1.433 -10.691  1.00  0.00     0.177 C 
ATOM      5  C   UNL     1      15.946   1.127 -12.127  1.00  0.00     0.178 C 
ATOM      6  O   UNL     1      16.423  -0.113 -12.642  1.00  0.00    -0.341 OA
ENDROOT
BRANCH   1   7
ATOM      7  O   UNL     1      14.784  -1.527 -11.722  1.00  0.00    -0.350 OA
BRANCH   7   8
ATOM      8  C   UNL     1      14.473  -2.661 -12.505  1.00  0.00     0.160 C 
ATOM      9  C   UNL     1      13.192  -2.393 -13.280  1.00  0.00     0.035 C 
ENDBRANCH   7   8
ENDBRANCH   1   7
BRANCH   2  10
ATOM     10  O   UNL     1      18.162  -1.037 -10.484  1.00  0.00    -0.385 OA
ATOM     11  H   UNL     1      18.402  -0.270 -11.067  1.00  0.00     0.211 HD
ENDBRANCH   2  10
BRANCH   3  12
ATOM     12  O   UNL     1      14.893   0.118  -9.396  1.00  0.00    -0.387 OA
ATOM     13  H   UNL     1      14.393  -0.046 -10.238  1.00  0.00     0.211 HD
ENDBRANCH   3  12
BRANCH   5  14
ATOM     14  C   UNL     1      14.426   1.305 -12.320  1.00  0.00     0.191 C 
BRANCH  14  15
ATOM     15  O   UNL     1      14.181   2.183 -13.385  1.00  0.00    -0.394 OA
ATOM     16  H   UNL     1      14.376   1.672 -14.214  1.00  0.00     0.210 HD
ENDBRANCH  14  15
ENDBRANCH   5  14
BRANCH   4  17
ATOM     17  O   UNL     1      17.807   1.773 -10.751  1.00  0.00    -0.387 OA
ATOM     18  H   UNL     1      18.219   1.475  -9.898  1.00  0.00     0.211 HD
ENDBRANCH   4  17
TORSDOF 7
ENDMDL
MODEL 2
REMARK VINA RESULT:    -5.786      4.113      6.258
REMARK INTER + INTRA:          -7.675
REMARK INTER:                  -7.460
REMARK INTRA:                  -0.215
REMARK UNBOUND:                -0.198
REMARK SMILES CCO[C@H]1O[C@@H](CO)[C@H](O)[C@@H](O)[C@@H]1O
REMARK SMILES IDX 4 1 13 2 11 3 9 4 6 5 5 6 3 7 2 8 1 9 14 10 12 12 7 14 8 15
REMARK SMILES IDX 10 17
REMARK H PARENT 14 11 12 13 8 16 10 18
REMARK Flexibility Score: inf
ROOT
ATOM      1  C   UNL     1      19.949   1.232 -11.597  1.00  0.00     0.281 C 
ATOM      2  C   UNL     1      19.405   0.954 -10.187  1.00  0.00     0.202 C 
ATOM      3  C   UNL     1      19.977  -0.359  -9.622  1.00  0.00     0.179 C 
ATOM      4  C   UNL     1      19.797  -1.504 -10.634  1.00  0.00     0.177 C 
ATOM      5  C   UNL     1      20.244  -1.099 -12.062  1.00  0.00     0.178 C 
ATOM      6  O   UNL     1      19.711   0.151 -12.492  1.00  0.00    -0.341 OA
ENDROOT
BRANCH   1   7
ATOM      7  O   UNL     1      21.325   1.568 -11.535  1.00  0.00    -0.350 OA
BRANCH   7   8
ATOM      8  C   UNL     1      21.616   2.621 -12.430  1.00  0.00     0.160 C 
ATOM      9  C   UNL     1      22.903   2.301 -13.174  1.00  0.00     0.035 C 
ENDBRANCH   7   8
ENDBRANCH   1   7
BRANCH   2  10
ATOM     10  O   UNL     1      18.002   0.888 -10.240  1.00  0.00    -0.385 OA
ATOM     11  H   UNL     1      17.767   0.454 -11.101  1.00  0.00     0.211 HD
ENDBRANCH   2  10
BRANCH   3  12
ATOM     12  O   UNL     1      21.337  -0.209  -9.305  1.00  0.00    -0.387 OA
ATOM     13  H   UNL     1      21.853  -0.461 -10.116  1.00  0.00     0.211 HD
ENDBRANCH   3  12
BRANCH   5  14
ATOM     14  C   UNL     1      21.763  -1.212 -12.303  1.00  0.00     0.191 C 
BRANCH  14  15
ATOM     15  O   UNL     1      22.025  -2.240 -13.220  1.00  0.00    -0.394 OA
ATOM     16  H   UNL     1      21.851  -1.859 -14.120  1.00  0.00     0.210 HD
ENDBRANCH  14  15
ENDBRANCH   5  14
BRANCH   4  17
ATOM     17  O   UNL     1      18.445  -1.889 -10.678  1.00  0.00    -0.387 OA
ATOM     18  H   UNL     1      17.927  -1.183 -10.208  1.00  0.00     0.211 HD
ENDBRANCH   4  17
TORSDOF 7
ENDMDL
MODEL 3
REMARK VINA RESULT:    -5.700      3.921      6.192
REMARK INTER + INTRA:          -7.564
REMARK INTER:                  -7.305
REMARK INTRA:                  -0.259
REMARK UNBOUND:                -0.198
REMARK SMILES CCO[C@H]1O[C@@H](CO)[C@H](O)[C@@H](O)[C@@H]1O
REMARK SMILES IDX 4 1 13 2 11 3 9 4 6 5 5 6 3 7 2 8 1 9 14 10 12 12 7 14 8 15
REMARK SMILES IDX 10 17
REMARK H PARENT 14 11 12 13 8 16 10 18
REMARK Flexibility Score: inf
ROOT
ATOM      1  C   UNL     1      21.217   0.465 -11.742  1.00  0.00     0.281 C 
ATOM      2  C   UNL     1      20.028  -0.045 -12.572  1.00  0.00     0.202 C 
ATOM      3  C   UNL     1      18.749  -0.115 -11.719  1.00  0.00     0.179 C 
ATOM      4  C   UNL     1      19.015  -0.881 -10.411  1.00  0.00     0.177 C 
ATOM      5  C   UNL     1      20.307  -0.398  -9.702  1.00  0.00     0.178 C 
ATOM      6  O   UNL     1      21.434  -0.313 -10.570  1.00  0.00    -0.341 OA
ENDROOT
BRANCH   1   7
ATOM      7  O   UNL     1      21.048   1.839 -11.436  1.00  0.00    -0.350 OA
BRANCH   7   8
ATOM      8  C   UNL     1      21.435   2.640 -12.533  1.00  0.00     0.160 C 
ATOM      9  C   UNL     1      22.837   2.242 -12.969  1.00  0.00     0.035 C 
ENDBRANCH   7   8
ENDBRANCH   1   7
BRANCH   2  10
ATOM     10  O   UNL     1      20.338  -1.316 -13.086  1.00  0.00    -0.385 OA
ATOM     11  H   UNL     1      21.284  -1.502 -12.845  1.00  0.00     0.211 HD
ENDBRANCH   2  10
BRANCH   3  12
ATOM     12  O   UNL     1      18.275   1.175 -11.430  1.00  0.00    -0.387 OA
ATOM     13  H   UNL     1      17.482   1.068 -10.844  1.00  0.00     0.211 HD
ENDBRANCH   3  12
BRANCH   5  14
ATOM     14  C   UNL     1      20.120   0.871  -8.845  1.00  0.00     0.191 C 
BRANCH  14  15
ATOM     15  O   UNL     1      21.131   0.945  -7.877  1.00  0.00    -0.394 OA
ATOM     16  H   UNL     1      20.671   1.068  -7.006  1.00  0.00     0.210 HD
ENDBRANCH  14  15
ENDBRANCH   5  14
BRANCH   4  17
ATOM     17  O   UNL     1      19.139  -2.255 -10.683  1.00  0.00    -0.387 OA
ATOM     18  H   UNL     1      20.095  -2.425 -10.891  1.00  0.00     0.211 HD
ENDBRANCH   4  17
TORSDOF 7
ENDMDL
MODEL 4
REMARK VINA RESULT:    -5.697      2.070      3.977
REMARK INTER + INTRA:          -7.561
REMARK INTER:                  -7.091
REMARK INTRA:                  -0.470
REMARK UNBOUND:                -0.198
REMARK SMILES CCO[C@H]1O[C@@H](CO)[C@H](O)[C@@H](O)[C@@H]1O
REMARK SMILES IDX 4 1 13 2 11 3 9 4 6 5 5 6 3 7 2 8 1 9 14 10 12 12 7 14 8 15
REMARK SMILES IDX 10 17
REMARK H PARENT 14 11 12 13 8 16 10 18
REMARK Flexibility Score: inf
ROOT
ATOM      1  C   UNL     1      16.789   1.525 -11.512  1.00  0.00     0.281 C 
ATOM      2  C   UNL     1      18.003   1.760 -12.424  1.00  0.00     0.202 C 
ATOM      3  C   UNL     1      19.153   0.799 -12.073  1.00  0.00     0.179 C 
ATOM      4  C   UNL     1      19.447   0.840 -10.563  1.00  0.00     0.177 C 
ATOM      5  C   UNL     1      18.156   0.732  -9.711  1.00  0.00     0.178 C 
ATOM      6  O   UNL     1      17.122   1.620 -10.131  1.00  0.00    -0.341 OA
ENDROOT
BRANCH   1   7
ATOM      7  O   UNL     1      16.177   0.284 -11.819  1.00  0.00    -0.350 OA
BRANCH   7   8
ATOM      8  C   UNL     1      14.775   0.377 -11.674  1.00  0.00     0.160 C 
ATOM      9  C   UNL     1      14.280   1.615 -12.407  1.00  0.00     0.035 C 
ENDBRANCH   7   8
ENDBRANCH   1   7
BRANCH   2  10
ATOM     10  O   UNL     1      18.428   3.093 -12.290  1.00  0.00    -0.385 OA
ATOM     11  H   UNL     1      17.610   3.649 -12.200  1.00  0.00     0.211 HD
ENDBRANCH   2  10
BRANCH   3  12
ATOM     12  O   UNL     1      18.838  -0.513 -12.463  1.00  0.00    -0.387 OA
ATOM     13  H   UNL     1      18.137  -0.446 -13.163  1.00  0.00     0.211 HD
ENDBRANCH   3  12
BRANCH   5  14
ATOM     14  C   UNL     1      17.652  -0.711  -9.508  1.00  0.00     0.191 C 
BRANCH  14  15
ATOM     15  O   UNL     1      18.707  -1.614  -9.699  1.00  0.00    -0.394 OA
ATOM     16  H   UNL     1      18.931  -1.973  -8.800  1.00  0.00     0.210 HD
ENDBRANCH  14  15
ENDBRANCH   5  14
BRANCH   4  17
ATOM     17  O   UNL     1      20.099   2.043 -10.240  1.00  0.00    -0.387 OA
ATOM     18  H   UNL     1      19.831   2.712 -10.924  1.00  0.00     0.211 HD
ENDBRANCH   4  17
TORSDOF 7
ENDMDL
MODEL 5
REMARK VINA RESULT:    -5.670      1.235      2.960
REMARK INTER + INTRA:          -7.526
REMARK INTER:                  -7.271
REMARK INTRA:                  -0.254
REMARK UNBOUND:                -0.198
REMARK SMILES CCO[C@H]1O[C@@H](CO)[C@H](O)[C@@H](O)[C@@H]1O
REMARK SMILES IDX 4 1 13 2 11 3 9 4 6 5 5 6 3 7 2 8 1 9 14 10 12 12 7 14 8 15
REMARK SMILES IDX 10 17
REMARK H PARENT 14 11 12 13 8 16 10 18
REMARK Flexibility Score: inf
ROOT
ATOM      1  C   UNL     1      14.784  -0.469 -11.729  1.00  0.00     0.281 C 
ATOM      2  C   UNL     1      15.949   0.050 -12.587  1.00  0.00     0.202 C 
ATOM      3  C   UNL     1      17.243   0.151 -11.759  1.00  0.00     0.179 C 
ATOM      4  C   UNL     1      16.989   0.927 -10.455  1.00  0.00     0.177 C 
ATOM      5  C   UNL     1      15.719   0.432  -9.717  1.00  0.00     0.178 C 
ATOM      6  O   UNL     1      14.577   0.319 -10.562  1.00  0.00    -0.341 OA
ENDROOT
BRANCH   1   7
ATOM      7  O   UNL     1      14.981  -1.837 -11.410  1.00  0.00    -0.350 OA
BRANCH   7   8
ATOM      8  C   UNL     1      14.671  -2.651 -12.521  1.00  0.00     0.160 C 
ATOM      9  C   UNL     1      13.264  -2.326 -13.000  1.00  0.00     0.035 C 
ENDBRANCH   7   8
ENDBRANCH   1   7
BRANCH   2  10
ATOM     10  O   UNL     1      15.609   1.309 -13.110  1.00  0.00    -0.385 OA
ATOM     11  H   UNL     1      14.737   1.563 -12.708  1.00  0.00     0.211 HD
ENDBRANCH   2  10
BRANCH   3  12
ATOM     12  O   UNL     1      17.742  -1.129 -11.465  1.00  0.00    -0.387 OA
ATOM     13  H   UNL     1      16.958  -1.729 -11.363  1.00  0.00     0.211 HD
ENDBRANCH   3  12
BRANCH   5  14
ATOM     14  C   UNL     1      15.942  -0.823  -8.849  1.00  0.00     0.191 C 
BRANCH  14  15
ATOM     15  O   UNL     1      14.905  -0.946  -7.914  1.00  0.00    -0.394 OA
ATOM     16  H   UNL     1      14.060  -0.837  -8.422  1.00  0.00     0.210 HD
ENDBRANCH  14  15
ENDBRANCH   5  14
BRANCH   4  17
ATOM     17  O   UNL     1      16.839   2.296 -10.741  1.00  0.00    -0.387 OA
ATOM     18  H   UNL     1      15.869   2.458 -10.883  1.00  0.00     0.211 HD
ENDBRANCH   4  17
TORSDOF 7
ENDMDL
MODEL 6
REMARK VINA RESULT:    -5.646      2.630      4.730
REMARK INTER + INTRA:          -7.494
REMARK INTER:                  -7.021
REMARK INTRA:                  -0.473
REMARK UNBOUND:                -0.198
REMARK SMILES CCO[C@H]1O[C@@H](CO)[C@H](O)[C@@H](O)[C@@H]1O
REMARK SMILES IDX 4 1 13 2 11 3 9 4 6 5 5 6 3 7 2 8 1 9 14 10 12 12 7 14 8 15
REMARK SMILES IDX 10 17
REMARK H PARENT 14 11 12 13 8 16 10 18
REMARK Flexibility Score: inf
ROOT
ATOM      1  C   UNL     1      19.481  -1.462 -11.247  1.00  0.00     0.281 C 
ATOM      2  C   UNL     1      18.444  -1.652 -12.366  1.00  0.00     0.202 C 
ATOM      3  C   UNL     1      17.220  -0.745 -12.146  1.00  0.00     0.179 C 
ATOM      4  C   UNL     1      16.679  -0.909 -10.714  1.00  0.00     0.177 C 
ATOM      5  C   UNL     1      17.806  -0.840  -9.651  1.00  0.00     0.178 C 
ATOM      6  O   UNL     1      18.924  -1.670  -9.953  1.00  0.00    -0.341 OA
ENDROOT
BRANCH   1   7
ATOM      7  O   UNL     1      20.093  -0.189 -11.356  1.00  0.00    -0.350 OA
BRANCH   7   8
ATOM      8  C   UNL     1      21.091  -0.206 -12.355  1.00  0.00     0.160 C 
ATOM      9  C   UNL     1      22.083  -1.318 -12.048  1.00  0.00     0.035 C 
ENDBRANCH   7   8
ENDBRANCH   1   7
BRANCH   2  10
ATOM     10  O   UNL     1      18.048  -3.000 -12.402  1.00  0.00    -0.385 OA
ATOM     11  H   UNL     1      17.169  -3.030 -12.863  1.00  0.00     0.211 HD
ENDBRANCH   2  10
BRANCH   3  12
ATOM     12  O   UNL     1      17.552   0.599 -12.381  1.00  0.00    -0.387 OA
ATOM     13  H   UNL     1      16.791   1.146 -12.054  1.00  0.00     0.211 HD
ENDBRANCH   3  12
BRANCH   5  14
ATOM     14  C   UNL     1      18.219   0.594  -9.262  1.00  0.00     0.191 C 
BRANCH  14  15
ATOM     15  O   UNL     1      17.195   1.491  -9.594  1.00  0.00    -0.394 OA
ATOM     16  H   UNL     1      16.928   1.273 -10.526  1.00  0.00     0.210 HD
ENDBRANCH  14  15
ENDBRANCH   5  14
BRANCH   4  17
ATOM     17  O   UNL     1      16.024  -2.147 -10.594  1.00  0.00    -0.387 OA
ATOM     18  H   UNL     1      16.267  -2.683 -11.394  1.00  0.00     0.211 HD
ENDBRANCH   4  17
TORSDOF 7
ENDMDL
MODEL 7
REMARK VINA RESULT:    -5.619      1.530      3.710
REMARK INTER + INTRA:          -7.460
REMARK INTER:                  -7.033
REMARK INTRA:                  -0.427
REMARK UNBOUND:                -0.198
REMARK SMILES CCO[C@H]1O[C@@H](CO)[C@H](O)[C@@H](O)[C@@H]1O
REMARK SMILES IDX 4 1 13 2 11 3 9 4 6 5 5 6 3 7 2 8 1 9 14 10 12 12 7 14 8 15
REMARK SMILES IDX 10 17
REMARK H PARENT 14 11 12 13 8 16 10 18
REMARK Flexibility Score: inf
ROOT
ATOM      1  C   UNL     1      17.521  -0.055 -11.315  1.00  0.00     0.281 C 
ATOM      2  C   UNL     1      16.740   1.175 -10.827  1.00  0.00     0.202 C 
ATOM      3  C   UNL     1      15.239   0.860 -10.692  1.00  0.00     0.179 C 
ATOM      4  C   UNL     1      14.707   0.213 -11.983  1.00  0.00     0.177 C 
ATOM      5  C   UNL     1      15.624  -0.932 -12.485  1.00  0.00     0.178 C 
ATOM      6  O   UNL     1      17.003  -0.576 -12.534  1.00  0.00    -0.341 OA
ENDROOT
BRANCH   1   7
ATOM      7  O   UNL     1      17.566  -1.043 -10.299  1.00  0.00    -0.350 OA
BRANCH   7   8
ATOM      8  C   UNL     1      18.836  -1.057  -9.682  1.00  0.00     0.160 C 
ATOM      9  C   UNL     1      19.878  -1.502 -10.697  1.00  0.00     0.035 C 
ENDBRANCH   7   8
ENDBRANCH   1   7
BRANCH   2  10
ATOM     10  O   UNL     1      16.933   2.232 -11.732  1.00  0.00    -0.385 OA
ATOM     11  H   UNL     1      16.675   3.067 -11.260  1.00  0.00     0.211 HD
ENDBRANCH   2  10
BRANCH   3  12
ATOM     12  O   UNL     1      15.010   0.008  -9.599  1.00  0.00    -0.387 OA
ATOM     13  H   UNL     1      15.607  -0.777  -9.714  1.00  0.00     0.211 HD
ENDBRANCH   3  12
BRANCH   5  14
ATOM     14  C   UNL     1      15.385  -2.285 -11.785  1.00  0.00     0.191 C 
BRANCH  14  15
ATOM     15  O   UNL     1      16.373  -3.201 -12.170  1.00  0.00    -0.394 OA
ATOM     16  H   UNL     1      17.217  -2.891 -11.750  1.00  0.00     0.210 HD
ENDBRANCH  14  15
ENDBRANCH   5  14
BRANCH   4  17
ATOM     17  O   UNL     1      14.608   1.185 -12.993  1.00  0.00    -0.387 OA
ATOM     18  H   UNL     1      14.436   2.055 -12.544  1.00  0.00     0.211 HD
ENDBRANCH   4  17
TORSDOF 7
ENDMDL
MODEL 8
REMARK VINA RESULT:    -5.570      3.260      4.748
REMARK INTER + INTRA:          -7.396
REMARK INTER:                  -6.971
REMARK INTRA:                  -0.425
REMARK UNBOUND:                -0.198
REMARK SMILES CCO[C@H]1O[C@@H](CO)[C@H](O)[C@@H](O)[C@@H]1O
REMARK SMILES IDX 4 1 13 2 11 3 9 4 6 5 5 6 3 7 2 8 1 9 14 10 12 12 7 14 8 15
REMARK SMILES IDX 10 17
REMARK H PARENT 14 11 12 13 8 16 10 18
REMARK Flexibility Score: inf
ROOT
ATOM      1  C   UNL     1      18.517   0.033 -11.387  1.00  0.00     0.281 C 
ATOM      2  C   UNL     1      19.301  -1.208 -10.932  1.00  0.00     0.202 C 
ATOM      3  C   UNL     1      20.800  -0.890 -10.781  1.00  0.00     0.179 C 
ATOM      4  C   UNL     1      21.335  -0.203 -12.050  1.00  0.00     0.177 C 
ATOM      5  C   UNL     1      20.415   0.953 -12.522  1.00  0.00     0.178 C 
ATOM      6  O   UNL     1      19.038   0.592 -12.588  1.00  0.00    -0.341 OA
ENDROOT
BRANCH   1   7
ATOM      7  O   UNL     1      18.463   0.990 -10.343  1.00  0.00    -0.350 OA
BRANCH   7   8
ATOM      8  C   UNL     1      17.205   0.949  -9.702  1.00  0.00     0.160 C 
ATOM      9  C   UNL     1      16.145   1.481 -10.654  1.00  0.00     0.035 C 
ENDBRANCH   7   8
ENDBRANCH   1   7
BRANCH   2  10
ATOM     10  O   UNL     1      19.116  -2.238 -11.870  1.00  0.00    -0.385 OA
ATOM     11  H   UNL     1      18.965  -3.074 -11.355  1.00  0.00     0.211 HD
ENDBRANCH   2  10
BRANCH   3  12
ATOM     12  O   UNL     1      21.021  -0.070  -9.663  1.00  0.00    -0.387 OA
ATOM     13  H   UNL     1      21.494   0.740  -9.987  1.00  0.00     0.211 HD
ENDBRANCH   3  12
BRANCH   5  14
ATOM     14  C   UNL     1      20.645   2.286 -11.781  1.00  0.00     0.191 C 
BRANCH  14  15
ATOM     15  O   UNL     1      19.667   3.215 -12.158  1.00  0.00    -0.394 OA
ATOM     16  H   UNL     1      19.869   3.463 -13.099  1.00  0.00     0.210 HD
ENDBRANCH  14  15
ENDBRANCH   5  14
BRANCH   4  17
ATOM     17  O   UNL     1      21.443  -1.144 -13.089  1.00  0.00    -0.387 OA
ATOM     18  H   UNL     1      21.311  -2.041 -12.683  1.00  0.00     0.211 HD
ENDBRANCH   4  17
TORSDOF 7
ENDMDL
MODEL 9
REMARK VINA RESULT:    -5.559      3.538      5.310
REMARK INTER + INTRA:          -7.382
REMARK INTER:                  -7.126
REMARK INTRA:                  -0.256
REMARK UNBOUND:                -0.198
REMARK SMILES CCO[C@H]1O[C@@H](CO)[C@H](O)[C@@H](O)[C@@H]1O
REMARK SMILES IDX 4 1 13 2 11 3 9 4 6 5 5 6 3 7 2 8 1 9 14 10 12 12 7 14 8 15
REMARK SMILES IDX 10 17
REMARK H PARENT 14 11 12 13 8 16 10 18
REMARK Flexibility Score: inf
ROOT
ATOM      1  C   UNL     1      20.078  -0.034  -9.986  1.00  0.00     0.281 C 
ATOM      2  C   UNL     1      19.624   1.377 -10.391  1.00  0.00     0.202 C 
ATOM      3  C   UNL     1      19.655   1.551 -11.920  1.00  0.00     0.179 C 
ATOM      4  C   UNL     1      21.017   1.111 -12.484  1.00  0.00     0.177 C 
ATOM      5  C   UNL     1      21.467  -0.263 -11.924  1.00  0.00     0.178 C 
ATOM      6  O   UNL     1      21.362  -0.360 -10.506  1.00  0.00    -0.341 OA
ENDROOT
BRANCH   1   7
ATOM      7  O   UNL     1      19.101  -0.990 -10.364  1.00  0.00    -0.350 OA
BRANCH   7   8
ATOM      8  C   UNL     1      18.014  -0.966  -9.463  1.00  0.00     0.160 C 
ATOM      9  C   UNL     1      16.720  -1.163 -10.239  1.00  0.00     0.035 C 
ENDBRANCH   7   8
ENDBRANCH   1   7
BRANCH   2  10
ATOM     10  O   UNL     1      20.465   2.323  -9.778  1.00  0.00    -0.385 OA
ATOM     11  H   UNL     1      20.258   3.202 -10.192  1.00  0.00     0.211 HD
ENDBRANCH   2  10
BRANCH   3  12
ATOM     12  O   UNL     1      18.625   0.811 -12.522  1.00  0.00    -0.387 OA
ATOM     13  H   UNL     1      17.782   1.315 -12.376  1.00  0.00     0.211 HD
ENDBRANCH   3  12
BRANCH   5  14
ATOM     14  C   UNL     1      20.847  -1.475 -12.650  1.00  0.00     0.191 C 
BRANCH  14  15
ATOM     15  O   UNL     1      21.854  -2.212 -13.288  1.00  0.00    -0.394 OA
ATOM     16  H   UNL     1      21.415  -3.029 -13.644  1.00  0.00     0.210 HD
ENDBRANCH  14  15
ENDBRANCH   5  14
BRANCH   4  17
ATOM     17  O   UNL     1      21.995   2.069 -12.164  1.00  0.00    -0.387 OA
ATOM     18  H   UNL     1      22.779   1.891 -12.747  1.00  0.00     0.211 HD
ENDBRANCH   4  17
TORSDOF 7
ENDMDL
