MODEL 1
REMARK VINA RESULT:    -9.567      0.000      0.000
REMARK INTER + INTRA:         -17.787
REMARK INTER:                 -15.719
REMARK INTRA:                  -2.068
REMARK UNBOUND:                -2.068
REMARK SMILES C[C@H]1O[C@@H](OC[C@H]2O[C@H](Oc3c(-c4ccc(O)c(O)c4)oc4cc(O)cc(O)c4c3=O)[C@H](O)[C@@H](O)[C@H]2O)[C@@H](O)[C@@H](O)[C@H]1O
REMARK SMILES IDX 7 1 36 2 34 3 32 4 9 5 8 6 6 7 5 8 4 9 1 10 2 11 42 12 3 13
REMARK SMILES IDX 40 14 38 15 43 16 41 18 39 20 37 22 35 24 10 26 11 27 12 28
REMARK SMILES IDX 30 29 21 30 29 31 31 32 22 33 27 34 23 35 26 36 24 37 13 38
REMARK SMILES IDX 20 39 14 40 18 41 15 42 16 43 19 44 17 46 28 48 25 50 33 52
REMARK H PARENT 43 17 41 19 39 21 37 23 35 25 19 45 17 47 28 49 25 51 33 53
REMARK Flexibility Score: inf
ROOT
ATOM      1  C   UNL     1     -17.767  13.986 -17.110  1.00  0.00     0.180 C 
ATOM      2  C   UNL     1     -18.387  12.575 -17.036  1.00  0.00     0.177 C 
ATOM      3  C   UNL     1     -17.611  11.734 -16.026  1.00  0.00     0.180 C 
ATOM      4  C   UNL     1     -17.425  12.450 -14.684  1.00  0.00     0.214 C 
ATOM      5  C   UNL     1     -16.915  13.877 -14.935  1.00  0.00     0.339 C 
ATOM      6  O   UNL     1     -17.746  14.604 -15.853  1.00  0.00    -0.332 OA
ENDROOT
BRANCH   1   7
ATOM      7  C   UNL     1     -18.525  14.847 -18.162  1.00  0.00     0.198 C 
BRANCH   7   8
ATOM      8  O   UNL     1     -18.261  16.212 -17.939  1.00  0.00    -0.347 OA
BRANCH   8   9
ATOM      9  C   UNL     1     -19.279  17.122 -18.448  1.00  0.00     0.281 C 
ATOM     10  C   UNL     1     -16.497  17.506 -20.016  1.00  0.00     0.041 C 
ATOM     11  C   UNL     1     -17.813  18.303 -19.959  1.00  0.00     0.150 C 
ATOM     12  C   UNL     1     -17.813  19.550 -19.064  1.00  0.00     0.174 C 
ATOM     13  O   UNL     1     -18.994  17.494 -19.810  1.00  0.00    -0.344 OA
ATOM     14  C   UNL     1     -18.096  19.180 -17.574  1.00  0.00     0.179 C 
ATOM     15  C   UNL     1     -19.393  18.373 -17.541  1.00  0.00     0.202 C 
BRANCH  12  16
ATOM     16  O   UNL     1     -16.633  20.318 -19.157  1.00  0.00    -0.388 OA
ATOM     17  H   UNL     1     -16.546  20.822 -18.279  1.00  0.00     0.211 HD
ENDBRANCH  12  16
BRANCH  14  18
ATOM     18  O   UNL     1     -17.014  18.456 -17.092  1.00  0.00    -0.387 OA
ATOM     19  H   UNL     1     -17.283  18.085 -16.202  1.00  0.00     0.211 HD
ENDBRANCH  14  18
BRANCH  15  20
ATOM     20  O   UNL     1     -19.708  18.054 -16.208  1.00  0.00    -0.385 OA
ATOM     21  H   UNL     1     -19.003  18.400 -15.598  1.00  0.00     0.211 HD
ENDBRANCH  15  20
ENDBRANCH   8   9
ENDBRANCH   7   8
ENDBRANCH   1   7
BRANCH   2  22
ATOM     22  O   UNL     1     -19.780  12.535 -16.726  1.00  0.00    -0.387 OA
ATOM     23  H   UNL     1     -19.903  12.823 -15.781  1.00  0.00     0.211 HD
ENDBRANCH   2  22
BRANCH   3  24
ATOM     24  O   UNL     1     -18.252  10.507 -15.838  1.00  0.00    -0.387 OA
ATOM     25  H   UNL     1     -18.761  10.581 -14.967  1.00  0.00     0.211 HD
ENDBRANCH   3  24
BRANCH   5  26
ATOM     26  O   UNL     1     -15.544  13.850 -15.381  1.00  0.00    -0.454 OA
BRANCH  26  27
ATOM     27  C   UNL     1     -14.872  14.990 -15.846  1.00  0.00     0.214 A 
ATOM     28  C   UNL     1     -14.954  16.199 -15.122  1.00  0.00     0.180 A 
ATOM     29  C   UNL     1     -14.176  14.985 -17.084  1.00  0.00     0.239 A 
ATOM     30  O   UNL     1     -14.446  17.303 -15.653  1.00  0.00    -0.452 OA
ATOM     31  C   UNL     1     -13.699  16.200 -17.609  1.00  0.00     0.111 A 
ATOM     32  O   UNL     1     -14.027  13.904 -17.706  1.00  0.00    -0.285 OA
ATOM     33  C   UNL     1     -13.866  17.375 -16.845  1.00  0.00     0.146 A 
ATOM     34  C   UNL     1     -13.114  16.316 -18.898  1.00  0.00     0.134 A 
ATOM     35  C   UNL     1     -13.439  18.610 -17.328  1.00  0.00     0.094 A 
ATOM     36  C   UNL     1     -12.677  17.561 -19.379  1.00  0.00     0.093 A 
ATOM     37  C   UNL     1     -12.842  18.710 -18.589  1.00  0.00     0.123 A 
BRANCH  28  38
ATOM     38  C   UNL     1     -15.695  16.336 -13.828  1.00  0.00     0.025 A 
ATOM     39  C   UNL     1     -16.876  17.132 -13.811  1.00  0.00     0.062 A 
ATOM     40  C   UNL     1     -15.329  15.705 -12.627  1.00  0.00     0.016 A 
ATOM     41  C   UNL     1     -17.605  17.289 -12.645  1.00  0.00     0.158 A 
ATOM     42  C   UNL     1     -16.117  15.775 -11.487  1.00  0.00     0.051 A 
ATOM     43  C   UNL     1     -17.241  16.608 -11.491  1.00  0.00     0.157 A 
BRANCH  41  44
ATOM     44  O   UNL     1     -18.743  18.125 -12.657  1.00  0.00    -0.504 OA
ATOM     45  H   UNL     1     -18.719  19.107 -12.913  1.00  0.00     0.293 HD
ENDBRANCH  41  44
BRANCH  43  46
ATOM     46  O   UNL     1     -18.017  16.696 -10.350  1.00  0.00    -0.504 OA
ATOM     47  H   UNL     1     -18.037  15.962  -9.663  1.00  0.00     0.293 HD
ENDBRANCH  43  46
ENDBRANCH  28  38
BRANCH  34  48
ATOM     48  O   UNL     1     -12.968  15.176 -19.706  1.00  0.00    -0.507 OA
ATOM     49  H   UNL     1     -13.374  15.120 -20.646  1.00  0.00     0.293 HD
ENDBRANCH  34  48
BRANCH  37  50
ATOM     50  O   UNL     1     -12.397  19.941 -19.060  1.00  0.00    -0.508 OA
ATOM     51  H   UNL     1     -11.509  20.316 -18.767  1.00  0.00     0.293 HD
ENDBRANCH  37  50
ENDBRANCH  26  27
ENDBRANCH   5  26
BRANCH   4  52
ATOM     52  O   UNL     1     -16.541  11.697 -13.884  1.00  0.00    -0.384 OA
ATOM     53  H   UNL     1     -16.737  10.715 -13.934  1.00  0.00     0.211 HD
ENDBRANCH   4  52
TORSDOF 16
ENDMDL
MODEL 2
REMARK VINA RESULT:    -9.538      1.794      7.123
REMARK INTER + INTRA:         -17.740
REMARK INTER:                 -15.558
REMARK INTRA:                  -2.182
REMARK UNBOUND:                -2.068
REMARK SMILES C[C@H]1O[C@@H](OC[C@H]2O[C@H](Oc3c(-c4ccc(O)c(O)c4)oc4cc(O)cc(O)c4c3=O)[C@H](O)[C@@H](O)[C@H]2O)[C@@H](O)[C@@H](O)[C@H]1O
REMARK SMILES IDX 7 1 36 2 34 3 32 4 9 5 8 6 6 7 5 8 4 9 1 10 2 11 42 12 3 13
REMARK SMILES IDX 40 14 38 15 43 16 41 18 39 20 37 22 35 24 10 26 11 27 12 28
REMARK SMILES IDX 30 29 21 30 29 31 31 32 22 33 27 34 23 35 26 36 24 37 13 38
REMARK SMILES IDX 20 39 14 40 18 41 15 42 16 43 19 44 17 46 28 48 25 50 33 52
REMARK H PARENT 43 17 41 19 39 21 37 23 35 25 19 45 17 47 28 49 25 51 33 53
REMARK Flexibility Score: inf
ROOT
ATOM      1  C   UNL     1     -15.716  19.852 -17.187  1.00  0.00     0.180 C 
ATOM      2  C   UNL     1     -15.170  21.286 -17.343  1.00  0.00     0.177 C 
ATOM      3  C   UNL     1     -13.645  21.251 -17.330  1.00  0.00     0.180 C 
ATOM      4  C   UNL     1     -13.072  20.212 -18.301  1.00  0.00     0.214 C 
ATOM      5  C   UNL     1     -13.797  18.873 -18.100  1.00  0.00     0.339 C 
ATOM      6  O   UNL     1     -15.225  19.004 -18.188  1.00  0.00    -0.332 OA
ENDROOT
BRANCH   1   7
ATOM      7  C   UNL     1     -17.272  19.872 -17.163  1.00  0.00     0.198 C 
BRANCH   7   8
ATOM      8  O   UNL     1     -17.767  18.558 -17.268  1.00  0.00    -0.347 OA
BRANCH   8   9
ATOM      9  C   UNL     1     -19.092  18.450 -17.866  1.00  0.00     0.281 C 
ATOM     10  C   UNL     1     -18.957  16.877 -15.065  1.00  0.00     0.041 C 
ATOM     11  C   UNL     1     -19.979  16.931 -16.214  1.00  0.00     0.150 C 
ATOM     12  C   UNL     1     -19.951  15.758 -17.204  1.00  0.00     0.174 C 
ATOM     13  O   UNL     1     -20.089  18.215 -16.855  1.00  0.00    -0.344 OA
ATOM     14  C   UNL     1     -18.862  15.970 -18.303  1.00  0.00     0.179 C 
ATOM     15  C   UNL     1     -19.115  17.335 -18.942  1.00  0.00     0.202 C 
BRANCH  12  16
ATOM     16  O   UNL     1     -19.782  14.499 -16.591  1.00  0.00    -0.388 OA
ATOM     17  H   UNL     1     -20.695  14.054 -16.589  1.00  0.00     0.211 HD
ENDBRANCH  12  16
BRANCH  14  18
ATOM     18  O   UNL     1     -17.614  15.894 -17.701  1.00  0.00    -0.387 OA
ATOM     19  H   UNL     1     -16.950  16.260 -18.354  1.00  0.00     0.211 HD
ENDBRANCH  14  18
BRANCH  15  20
ATOM     20  O   UNL     1     -18.179  17.548 -19.969  1.00  0.00    -0.385 OA
ATOM     21  H   UNL     1     -18.191  18.501 -20.250  1.00  0.00     0.211 HD
ENDBRANCH  15  20
ENDBRANCH   8   9
ENDBRANCH   7   8
ENDBRANCH   1   7
BRANCH   2  22
ATOM     22  O   UNL     1     -15.626  21.990 -18.498  1.00  0.00    -0.387 OA
ATOM     23  H   UNL     1     -15.922  22.899 -18.220  1.00  0.00     0.211 HD
ENDBRANCH   2  22
BRANCH   3  24
ATOM     24  O   UNL     1     -13.138  22.520 -17.622  1.00  0.00    -0.387 OA
ATOM     25  H   UNL     1     -13.453  22.746 -18.556  1.00  0.00     0.211 HD
ENDBRANCH   3  24
BRANCH   5  26
ATOM     26  O   UNL     1     -13.405  18.272 -16.850  1.00  0.00    -0.454 OA
BRANCH  26  27
ATOM     27  C   UNL     1     -13.969  17.082 -16.367  1.00  0.00     0.214 A 
ATOM     28  C   UNL     1     -14.122  15.975 -17.230  1.00  0.00     0.180 A 
ATOM     29  C   UNL     1     -14.476  16.987 -15.044  1.00  0.00     0.239 A 
ATOM     30  O   UNL     1     -14.798  14.916 -16.806  1.00  0.00    -0.452 OA
ATOM     31  C   UNL     1     -15.220  15.851 -14.672  1.00  0.00     0.111 A 
ATOM     32  O   UNL     1     -14.283  17.931 -14.237  1.00  0.00    -0.285 OA
ATOM     33  C   UNL     1     -15.371  14.809 -15.612  1.00  0.00     0.146 A 
ATOM     34  C   UNL     1     -15.880  15.727 -13.421  1.00  0.00     0.134 A 
ATOM     35  C   UNL     1     -16.120  13.674 -15.309  1.00  0.00     0.094 A 
ATOM     36  C   UNL     1     -16.628  14.578 -13.114  1.00  0.00     0.093 A 
ATOM     37  C   UNL     1     -16.746  13.551 -14.065  1.00  0.00     0.123 A 
BRANCH  28  38
ATOM     38  C   UNL     1     -13.667  15.974 -18.656  1.00  0.00     0.025 A 
ATOM     39  C   UNL     1     -14.658  16.004 -19.679  1.00  0.00     0.062 A 
ATOM     40  C   UNL     1     -12.323  15.979 -19.065  1.00  0.00     0.016 A 
ATOM     41  C   UNL     1     -14.295  16.010 -21.014  1.00  0.00     0.158 A 
ATOM     42  C   UNL     1     -11.958  16.094 -20.399  1.00  0.00     0.051 A 
ATOM     43  C   UNL     1     -12.956  16.068 -21.379  1.00  0.00     0.157 A 
BRANCH  41  44
ATOM     44  O   UNL     1     -15.308  15.992 -21.999  1.00  0.00    -0.504 OA
ATOM     45  H   UNL     1     -15.124  15.939 -22.995  1.00  0.00     0.293 HD
ENDBRANCH  41  44
BRANCH  43  46
ATOM     46  O   UNL     1     -12.595  16.161 -22.711  1.00  0.00    -0.504 OA
ATOM     47  H   UNL     1     -13.010  15.577 -23.415  1.00  0.00     0.293 HD
ENDBRANCH  43  46
ENDBRANCH  28  38
BRANCH  34  48
ATOM     48  O   UNL     1     -15.787  16.760 -12.474  1.00  0.00    -0.507 OA
ATOM     49  H   UNL     1     -15.099  17.516 -12.560  1.00  0.00     0.293 HD
ENDBRANCH  34  48
BRANCH  37  50
ATOM     50  O   UNL     1     -17.476  12.407 -13.756  1.00  0.00    -0.508 OA
ATOM     51  H   UNL     1     -18.299  12.161 -14.282  1.00  0.00     0.293 HD
ENDBRANCH  37  50
ENDBRANCH  26  27
ENDBRANCH   5  26
BRANCH   4  52
ATOM     52  O   UNL     1     -11.683  20.107 -18.088  1.00  0.00    -0.384 OA
ATOM     53  H   UNL     1     -11.395  19.156 -17.953  1.00  0.00     0.211 HD
ENDBRANCH   4  52
TORSDOF 16
ENDMDL
MODEL 3
REMARK VINA RESULT:    -9.190     11.623     15.098
REMARK INTER + INTRA:         -17.168
REMARK INTER:                 -14.798
REMARK INTRA:                  -2.370
REMARK UNBOUND:                -2.068
REMARK SMILES C[C@H]1O[C@@H](OC[C@H]2O[C@H](Oc3c(-c4ccc(O)c(O)c4)oc4cc(O)cc(O)c4c3=O)[C@H](O)[C@@H](O)[C@H]2O)[C@@H](O)[C@@H](O)[C@H]1O
REMARK SMILES IDX 7 1 36 2 34 3 32 4 9 5 8 6 6 7 5 8 4 9 1 10 2 11 42 12 3 13
REMARK SMILES IDX 40 14 38 15 43 16 41 18 39 20 37 22 35 24 10 26 11 27 12 28
REMARK SMILES IDX 30 29 21 30 29 31 31 32 22 33 27 34 23 35 26 36 24 37 13 38
REMARK SMILES IDX 20 39 14 40 18 41 15 42 16 43 19 44 17 46 28 48 25 50 33 52
REMARK H PARENT 43 17 41 19 39 21 37 23 35 25 19 45 17 47 28 49 25 51 33 53
REMARK Flexibility Score: inf
ROOT
ATOM      1  C   UNL     1      -3.020  10.858 -14.100  1.00  0.00     0.180 C 
ATOM      2  C   UNL     1      -2.538  10.376 -15.483  1.00  0.00     0.177 C 
ATOM      3  C   UNL     1      -3.305  11.121 -16.574  1.00  0.00     0.180 C 
ATOM      4  C   UNL     1      -3.304  12.639 -16.360  1.00  0.00     0.214 C 
ATOM      5  C   UNL     1      -3.691  12.948 -14.906  1.00  0.00     0.339 C 
ATOM      6  O   UNL     1      -2.874  12.244 -13.959  1.00  0.00    -0.332 OA
ENDROOT
BRANCH   1   7
ATOM      7  C   UNL     1      -2.274  10.083 -12.975  1.00  0.00     0.198 C 
BRANCH   7   8
ATOM      8  O   UNL     1      -2.568  10.660 -11.724  1.00  0.00    -0.347 OA
BRANCH   8   9
ATOM      9  C   UNL     1      -1.431  10.766 -10.818  1.00  0.00     0.281 C 
ATOM     10  C   UNL     1      -4.065   9.780  -9.258  1.00  0.00     0.041 C 
ATOM     11  C   UNL     1      -2.676  10.271  -8.811  1.00  0.00     0.150 C 
ATOM     12  C   UNL     1      -2.590  11.728  -8.338  1.00  0.00     0.174 C 
ATOM     13  O   UNL     1      -1.599   9.891  -9.687  1.00  0.00    -0.344 OA
ATOM     14  C   UNL     1      -2.431  12.708  -9.543  1.00  0.00     0.179 C 
ATOM     15  C   UNL     1      -1.232  12.234 -10.363  1.00  0.00     0.202 C 
BRANCH  12  16
ATOM     16  O   UNL     1      -3.674  12.129  -7.528  1.00  0.00    -0.388 OA
ATOM     17  H   UNL     1      -3.660  13.145  -7.508  1.00  0.00     0.211 HD
ENDBRANCH  12  16
BRANCH  14  18
ATOM     18  O   UNL     1      -3.609  12.691 -10.277  1.00  0.00    -0.387 OA
ATOM     19  H   UNL     1      -3.957  11.754 -10.252  1.00  0.00     0.211 HD
ENDBRANCH  14  18
BRANCH  15  20
ATOM     20  O   UNL     1      -1.028  13.115 -11.439  1.00  0.00    -0.385 OA
ATOM     21  H   UNL     1      -0.103  13.017 -11.791  1.00  0.00     0.211 HD
ENDBRANCH  15  20
ENDBRANCH   8   9
ENDBRANCH   7   8
ENDBRANCH   1   7
BRANCH   2  22
ATOM     22  O   UNL     1      -1.134  10.494 -15.716  1.00  0.00    -0.387 OA
ATOM     23  H   UNL     1      -0.894   9.928 -16.499  1.00  0.00     0.211 HD
ENDBRANCH   2  22
BRANCH   3  24
ATOM     24  O   UNL     1      -2.773  10.806 -17.827  1.00  0.00    -0.387 OA
ATOM     25  H   UNL     1      -3.232   9.957 -18.128  1.00  0.00     0.211 HD
ENDBRANCH   3  24
BRANCH   5  26
ATOM     26  O   UNL     1      -5.091  12.679 -14.690  1.00  0.00    -0.454 OA
BRANCH  26  27
ATOM     27  C   UNL     1      -5.719  12.864 -13.450  1.00  0.00     0.214 A 
ATOM     28  C   UNL     1      -5.520  14.062 -12.732  1.00  0.00     0.180 A 
ATOM     29  C   UNL     1      -6.489  11.832 -12.850  1.00  0.00     0.239 A 
ATOM     30  O   UNL     1      -5.990  14.158 -11.495  1.00  0.00    -0.452 OA
ATOM     31  C   UNL     1      -6.922  11.982 -11.519  1.00  0.00     0.111 A 
ATOM     32  O   UNL     1      -6.743  10.788 -13.502  1.00  0.00    -0.285 OA
ATOM     33  C   UNL     1      -6.637  13.193 -10.853  1.00  0.00     0.146 A 
ATOM     34  C   UNL     1      -7.577  10.954 -10.792  1.00  0.00     0.134 A 
ATOM     35  C   UNL     1      -7.016  13.387  -9.526  1.00  0.00     0.094 A 
ATOM     36  C   UNL     1      -7.966  11.154  -9.457  1.00  0.00     0.093 A 
ATOM     37  C   UNL     1      -7.683  12.376  -8.825  1.00  0.00     0.123 A 
BRANCH  28  38
ATOM     38  C   UNL     1      -4.693  15.201 -13.243  1.00  0.00     0.025 A 
ATOM     39  C   UNL     1      -3.434  15.448 -12.626  1.00  0.00     0.062 A 
ATOM     40  C   UNL     1      -5.055  16.029 -14.319  1.00  0.00     0.016 A 
ATOM     41  C   UNL     1      -2.625  16.483 -13.062  1.00  0.00     0.158 A 
ATOM     42  C   UNL     1      -4.198  16.997 -14.825  1.00  0.00     0.051 A 
ATOM     43  C   UNL     1      -2.992  17.248 -14.161  1.00  0.00     0.157 A 
BRANCH  41  44
ATOM     44  O   UNL     1      -1.405  16.727 -12.392  1.00  0.00    -0.504 OA
ATOM     45  H   UNL     1      -1.151  16.296 -11.509  1.00  0.00     0.293 HD
ENDBRANCH  41  44
BRANCH  43  46
ATOM     46  O   UNL     1      -2.145  18.226 -14.650  1.00  0.00    -0.504 OA
ATOM     47  H   UNL     1      -2.432  18.863 -15.372  1.00  0.00     0.293 HD
ENDBRANCH  43  46
ENDBRANCH  28  38
BRANCH  34  48
ATOM     48  O   UNL     1      -7.843   9.720 -11.407  1.00  0.00    -0.507 OA
ATOM     49  H   UNL     1      -8.747   9.246 -11.309  1.00  0.00     0.293 HD
ENDBRANCH  34  48
BRANCH  37  50
ATOM     50  O   UNL     1      -8.080  12.580  -7.508  1.00  0.00    -0.508 OA
ATOM     51  H   UNL     1      -8.749  13.295  -7.273  1.00  0.00     0.293 HD
ENDBRANCH  37  50
ENDBRANCH  26  27
ENDBRANCH   5  26
BRANCH   4  52
ATOM     52  O   UNL     1      -4.186  13.229 -17.288  1.00  0.00    -0.384 OA
ATOM     53  H   UNL     1      -5.071  12.757 -17.316  1.00  0.00     0.211 HD
ENDBRANCH   4  52
TORSDOF 16
ENDMDL
MODEL 4
REMARK VINA RESULT:    -9.164     12.093     15.933
REMARK INTER + INTRA:         -17.126
REMARK INTER:                 -14.254
REMARK INTRA:                  -2.872
REMARK UNBOUND:                -2.068
REMARK SMILES C[C@H]1O[C@@H](OC[C@H]2O[C@H](Oc3c(-c4ccc(O)c(O)c4)oc4cc(O)cc(O)c4c3=O)[C@H](O)[C@@H](O)[C@H]2O)[C@@H](O)[C@@H](O)[C@H]1O
REMARK SMILES IDX 7 1 36 2 34 3 32 4 9 5 8 6 6 7 5 8 4 9 1 10 2 11 42 12 3 13
REMARK SMILES IDX 40 14 38 15 43 16 41 18 39 20 37 22 35 24 10 26 11 27 12 28
REMARK SMILES IDX 30 29 21 30 29 31 31 32 22 33 27 34 23 35 26 36 24 37 13 38
REMARK SMILES IDX 20 39 14 40 18 41 15 42 16 43 19 44 17 46 28 48 25 50 33 52
REMARK H PARENT 43 17 41 19 39 21 37 23 35 25 19 45 17 47 28 49 25 51 33 53
REMARK Flexibility Score: inf
ROOT
ATOM      1  C   UNL     1      -2.650  13.873 -11.983  1.00  0.00     0.180 C 
ATOM      2  C   UNL     1      -2.161  15.076 -12.816  1.00  0.00     0.177 C 
ATOM      3  C   UNL     1      -3.357  15.746 -13.487  1.00  0.00     0.180 C 
ATOM      4  C   UNL     1      -4.496  16.037 -12.503  1.00  0.00     0.214 C 
ATOM      5  C   UNL     1      -4.784  14.778 -11.671  1.00  0.00     0.339 C 
ATOM      6  O   UNL     1      -3.606  14.260 -11.035  1.00  0.00    -0.332 OA
ENDROOT
BRANCH   1   7
ATOM      7  C   UNL     1      -1.438  13.156 -11.319  1.00  0.00     0.198 C 
BRANCH   7   8
ATOM      8  O   UNL     1      -1.870  11.966 -10.701  1.00  0.00    -0.347 OA
BRANCH   8   9
ATOM      9  C   UNL     1      -1.696  11.932  -9.255  1.00  0.00     0.281 C 
ATOM     10  C   UNL     1      -0.550   9.255 -10.620  1.00  0.00     0.041 C 
ATOM     11  C   UNL     1      -0.838   9.678  -9.168  1.00  0.00     0.150 C 
ATOM     12  C   UNL     1      -2.142   9.152  -8.553  1.00  0.00     0.174 C 
ATOM     13  O   UNL     1      -0.600  11.071  -8.894  1.00  0.00    -0.344 OA
ATOM     14  C   UNL     1      -3.358  10.051  -8.944  1.00  0.00     0.179 C 
ATOM     15  C   UNL     1      -3.007  11.487  -8.559  1.00  0.00     0.202 C 
BRANCH  12  16
ATOM     16  O   UNL     1      -2.416   7.803  -8.867  1.00  0.00    -0.388 OA
ATOM     17  H   UNL     1      -3.287   7.569  -8.399  1.00  0.00     0.211 HD
ENDBRANCH  12  16
BRANCH  14  18
ATOM     18  O   UNL     1      -3.582   9.912 -10.307  1.00  0.00    -0.387 OA
ATOM     19  H   UNL     1      -4.528   9.609 -10.420  1.00  0.00     0.211 HD
ENDBRANCH  14  18
BRANCH  15  20
ATOM     20  O   UNL     1      -4.095  12.326  -8.857  1.00  0.00    -0.385 OA
ATOM     21  H   UNL     1      -4.383  12.815  -8.041  1.00  0.00     0.211 HD
ENDBRANCH  15  20
ENDBRANCH   8   9
ENDBRANCH   7   8
ENDBRANCH   1   7
BRANCH   2  22
ATOM     22  O   UNL     1      -1.404  16.050 -12.096  1.00  0.00    -0.387 OA
ATOM     23  H   UNL     1      -0.772  16.490 -12.727  1.00  0.00     0.211 HD
ENDBRANCH   2  22
BRANCH   3  24
ATOM     24  O   UNL     1      -2.948  16.923 -14.119  1.00  0.00    -0.387 OA
ATOM     25  H   UNL     1      -3.419  17.682 -13.644  1.00  0.00     0.211 HD
ENDBRANCH   3  24
BRANCH   5  26
ATOM     26  O   UNL     1      -5.423  13.774 -12.484  1.00  0.00    -0.454 OA
BRANCH  26  27
ATOM     27  C   UNL     1      -5.766  12.505 -11.995  1.00  0.00     0.214 A 
ATOM     28  C   UNL     1      -5.429  11.351 -12.736  1.00  0.00     0.180 A 
ATOM     29  C   UNL     1      -6.530  12.350 -10.808  1.00  0.00     0.239 A 
ATOM     30  O   UNL     1      -5.897  10.174 -12.343  1.00  0.00    -0.452 OA
ATOM     31  C   UNL     1      -7.029  11.079 -10.471  1.00  0.00     0.111 A 
ATOM     32  O   UNL     1      -6.775  13.356 -10.094  1.00  0.00    -0.285 OA
ATOM     33  C   UNL     1      -6.688   9.984 -11.293  1.00  0.00     0.146 A 
ATOM     34  C   UNL     1      -7.912  10.851  -9.382  1.00  0.00     0.134 A 
ATOM     35  C   UNL     1      -7.177   8.707 -11.025  1.00  0.00     0.094 A 
ATOM     36  C   UNL     1      -8.397   9.562  -9.108  1.00  0.00     0.093 A 
ATOM     37  C   UNL     1      -8.026   8.488  -9.935  1.00  0.00     0.123 A 
BRANCH  28  38
ATOM     38  C   UNL     1      -4.667  11.392 -14.023  1.00  0.00     0.025 A 
ATOM     39  C   UNL     1      -3.304  10.978 -14.012  1.00  0.00     0.062 A 
ATOM     40  C   UNL     1      -5.210  11.780 -15.261  1.00  0.00     0.016 A 
ATOM     41  C   UNL     1      -2.553  10.989 -15.174  1.00  0.00     0.158 A 
ATOM     42  C   UNL     1      -4.489  11.689 -16.443  1.00  0.00     0.051 A 
ATOM     43  C   UNL     1      -3.138  11.328 -16.387  1.00  0.00     0.157 A 
BRANCH  41  44
ATOM     44  O   UNL     1      -1.192  10.616 -15.113  1.00  0.00    -0.504 OA
ATOM     45  H   UNL     1      -0.874   9.657 -15.016  1.00  0.00     0.293 HD
ENDBRANCH  41  44
BRANCH  43  46
ATOM     46  O   UNL     1      -2.411  11.257 -17.561  1.00  0.00    -0.504 OA
ATOM     47  H   UNL     1      -1.528  10.779 -17.610  1.00  0.00     0.293 HD
ENDBRANCH  43  46
ENDBRANCH  28  38
BRANCH  34  48
ATOM     48  O   UNL     1      -8.307  11.922  -8.565  1.00  0.00    -0.507 OA
ATOM     49  H   UNL     1      -9.214  12.388  -8.680  1.00  0.00     0.293 HD
ENDBRANCH  34  48
BRANCH  37  50
ATOM     50  O   UNL     1      -8.497   7.209  -9.656  1.00  0.00    -0.508 OA
ATOM     51  H   UNL     1      -9.307   6.842 -10.128  1.00  0.00     0.293 HD
ENDBRANCH  37  50
ENDBRANCH  26  27
ENDBRANCH   5  26
BRANCH   4  52
ATOM     52  O   UNL     1      -5.624  16.471 -13.228  1.00  0.00    -0.384 OA
ATOM     53  H   UNL     1      -6.479  16.130 -12.830  1.00  0.00     0.211 HD
ENDBRANCH   4  52
TORSDOF 16
ENDMDL
MODEL 5
REMARK VINA RESULT:    -9.103     11.672     14.592
REMARK INTER + INTRA:         -17.024
REMARK INTER:                 -14.737
REMARK INTRA:                  -2.288
REMARK UNBOUND:                -2.068
REMARK SMILES C[C@H]1O[C@@H](OC[C@H]2O[C@H](Oc3c(-c4ccc(O)c(O)c4)oc4cc(O)cc(O)c4c3=O)[C@H](O)[C@@H](O)[C@H]2O)[C@@H](O)[C@@H](O)[C@H]1O
REMARK SMILES IDX 7 1 36 2 34 3 32 4 9 5 8 6 6 7 5 8 4 9 1 10 2 11 42 12 3 13
REMARK SMILES IDX 40 14 38 15 43 16 41 18 39 20 37 22 35 24 10 26 11 27 12 28
REMARK SMILES IDX 30 29 21 30 29 31 31 32 22 33 27 34 23 35 26 36 24 37 13 38
REMARK SMILES IDX 20 39 14 40 18 41 15 42 16 43 19 44 17 46 28 48 25 50 33 52
REMARK H PARENT 43 17 41 19 39 21 37 23 35 25 19 45 17 47 28 49 25 51 33 53
REMARK Flexibility Score: inf
ROOT
ATOM      1  C   UNL     1      -4.442  13.744  -8.763  1.00  0.00     0.180 C 
ATOM      2  C   UNL     1      -4.905  14.241  -7.378  1.00  0.00     0.177 C 
ATOM      3  C   UNL     1      -6.429  14.321  -7.354  1.00  0.00     0.180 C 
ATOM      4  C   UNL     1      -7.093  13.033  -7.855  1.00  0.00     0.214 C 
ATOM      5  C   UNL     1      -6.443  12.608  -9.180  1.00  0.00     0.339 C 
ATOM      6  O   UNL     1      -5.014  12.506  -9.082  1.00  0.00    -0.332 OA
ENDROOT
BRANCH   1   7
ATOM      7  C   UNL     1      -2.887  13.690  -8.818  1.00  0.00     0.198 C 
BRANCH   7   8
ATOM      8  O   UNL     1      -2.475  13.046 -10.001  1.00  0.00    -0.347 OA
BRANCH   8   9
ATOM      9  C   UNL     1      -1.212  12.326  -9.895  1.00  0.00     0.281 C 
ATOM     10  C   UNL     1      -1.274  14.168 -12.530  1.00  0.00     0.041 C 
ATOM     11  C   UNL     1      -0.340  13.055 -12.024  1.00  0.00     0.150 C 
ATOM     12  C   UNL     1      -0.543  11.664 -12.641  1.00  0.00     0.174 C 
ATOM     13  O   UNL     1      -0.166  13.026 -10.595  1.00  0.00    -0.344 OA
ATOM     14  C   UNL     1      -1.688  10.885 -11.919  1.00  0.00     0.179 C 
ATOM     15  C   UNL     1      -1.366  10.878 -10.425  1.00  0.00     0.202 C 
BRANCH  12  16
ATOM     16  O   UNL     1      -0.775  11.687 -14.032  1.00  0.00    -0.388 OA
ATOM     17  H   UNL     1      -1.329  10.862 -14.246  1.00  0.00     0.211 HD
ENDBRANCH  12  16
BRANCH  14  18
ATOM     18  O   UNL     1      -2.890  11.523 -12.194  1.00  0.00    -0.387 OA
ATOM     19  H   UNL     1      -2.911  11.698 -13.178  1.00  0.00     0.211 HD
ENDBRANCH  14  18
BRANCH  15  20
ATOM     20  O   UNL     1      -2.353  10.148  -9.741  1.00  0.00    -0.385 OA
ATOM     21  H   UNL     1      -3.172  10.701  -9.630  1.00  0.00     0.211 HD
ENDBRANCH  15  20
ENDBRANCH   8   9
ENDBRANCH   7   8
ENDBRANCH   1   7
BRANCH   2  22
ATOM     22  O   UNL     1      -4.445  13.471  -6.267  1.00  0.00    -0.387 OA
ATOM     23  H   UNL     1      -4.733  12.526  -6.395  1.00  0.00     0.211 HD
ENDBRANCH   2  22
BRANCH   3  24
ATOM     24  O   UNL     1      -6.868  14.622  -6.062  1.00  0.00    -0.387 OA
ATOM     25  H   UNL     1      -7.012  15.623  -6.035  1.00  0.00     0.211 HD
ENDBRANCH   3  24
BRANCH   5  26
ATOM     26  O   UNL     1      -6.831  13.503 -10.241  1.00  0.00    -0.454 OA
BRANCH  26  27
ATOM     27  C   UNL     1      -6.368  13.369 -11.558  1.00  0.00     0.214 A 
ATOM     28  C   UNL     1      -6.415  12.110 -12.195  1.00  0.00     0.180 A 
ATOM     29  C   UNL     1      -5.767  14.457 -12.246  1.00  0.00     0.239 A 
ATOM     30  O   UNL     1      -5.831  11.964 -13.377  1.00  0.00    -0.452 OA
ATOM     31  C   UNL     1      -5.130  14.223 -13.479  1.00  0.00     0.111 A 
ATOM     32  O   UNL     1      -5.785  15.602 -11.729  1.00  0.00    -0.285 OA
ATOM     33  C   UNL     1      -5.178  12.922 -14.024  1.00  0.00     0.146 A 
ATOM     34  C   UNL     1      -4.388  15.215 -14.173  1.00  0.00     0.134 A 
ATOM     35  C   UNL     1      -4.540  12.626 -15.227  1.00  0.00     0.094 A 
ATOM     36  C   UNL     1      -3.753  14.917 -15.390  1.00  0.00     0.093 A 
ATOM     37  C   UNL     1      -3.832  13.617 -15.916  1.00  0.00     0.123 A 
BRANCH  28  38
ATOM     38  C   UNL     1      -6.983  10.883 -11.554  1.00  0.00     0.025 A 
ATOM     39  C   UNL     1      -6.085   9.846 -11.172  1.00  0.00     0.062 A 
ATOM     40  C   UNL     1      -8.346  10.691 -11.266  1.00  0.00     0.016 A 
ATOM     41  C   UNL     1      -6.555   8.692 -10.569  1.00  0.00     0.158 A 
ATOM     42  C   UNL     1      -8.802   9.583 -10.566  1.00  0.00     0.051 A 
ATOM     43  C   UNL     1      -7.901   8.560 -10.253  1.00  0.00     0.157 A 
BRANCH  41  44
ATOM     44  O   UNL     1      -5.638   7.665 -10.249  1.00  0.00    -0.504 OA
ATOM     45  H   UNL     1      -4.665   7.832 -10.012  1.00  0.00     0.293 HD
ENDBRANCH  41  44
BRANCH  43  46
ATOM     46  O   UNL     1      -8.356   7.445  -9.574  1.00  0.00    -0.504 OA
ATOM     47  H   UNL     1      -8.980   6.782 -10.001  1.00  0.00     0.293 HD
ENDBRANCH  43  46
ENDBRANCH  28  38
BRANCH  34  48
ATOM     48  O   UNL     1      -4.283  16.511 -13.642  1.00  0.00    -0.507 OA
ATOM     49  H   UNL     1      -3.620  16.740 -12.894  1.00  0.00     0.293 HD
ENDBRANCH  34  48
BRANCH  37  50
ATOM     50  O   UNL     1      -3.214  13.325 -17.128  1.00  0.00    -0.508 OA
ATOM     51  H   UNL     1      -2.242  13.540 -17.278  1.00  0.00     0.293 HD
ENDBRANCH  37  50
ENDBRANCH  26  27
ENDBRANCH   5  26
BRANCH   4  52
ATOM     52  O   UNL     1      -8.479  13.256  -7.985  1.00  0.00    -0.384 OA
ATOM     53  H   UNL     1      -8.677  14.072  -8.532  1.00  0.00     0.211 HD
ENDBRANCH   4  52
TORSDOF 16
ENDMDL
MODEL 6
REMARK VINA RESULT:    -9.048      1.526      4.261
REMARK INTER + INTRA:         -16.934
REMARK INTER:                 -14.127
REMARK INTRA:                  -2.808
REMARK UNBOUND:                -2.068
REMARK SMILES C[C@H]1O[C@@H](OC[C@H]2O[C@H](Oc3c(-c4ccc(O)c(O)c4)oc4cc(O)cc(O)c4c3=O)[C@H](O)[C@@H](O)[C@H]2O)[C@@H](O)[C@@H](O)[C@H]1O
REMARK SMILES IDX 7 1 36 2 34 3 32 4 9 5 8 6 6 7 5 8 4 9 1 10 2 11 42 12 3 13
REMARK SMILES IDX 40 14 38 15 43 16 41 18 39 20 37 22 35 24 10 26 11 27 12 28
REMARK SMILES IDX 30 29 21 30 29 31 31 32 22 33 27 34 23 35 26 36 24 37 13 38
REMARK SMILES IDX 20 39 14 40 18 41 15 42 16 43 19 44 17 46 28 48 25 50 33 52
REMARK H PARENT 43 17 41 19 39 21 37 23 35 25 19 45 17 47 28 49 25 51 33 53
REMARK Flexibility Score: inf
ROOT
ATOM      1  C   UNL     1     -17.746  17.147 -15.162  1.00  0.00     0.180 C 
ATOM      2  C   UNL     1     -18.101  16.887 -13.684  1.00  0.00     0.177 C 
ATOM      3  C   UNL     1     -16.875  16.340 -12.958  1.00  0.00     0.180 C 
ATOM      4  C   UNL     1     -15.621  17.188 -13.201  1.00  0.00     0.214 C 
ATOM      5  C   UNL     1     -15.473  17.457 -14.706  1.00  0.00     0.339 C 
ATOM      6  O   UNL     1     -16.660  18.024 -15.283  1.00  0.00    -0.332 OA
ENDROOT
BRANCH   1   7
ATOM      7  C   UNL     1     -18.996  17.672 -15.927  1.00  0.00     0.198 C 
BRANCH   7   8
ATOM      8  O   UNL     1     -18.729  17.702 -17.310  1.00  0.00    -0.347 OA
BRANCH   8   9
ATOM      9  C   UNL     1     -18.809  19.024 -17.918  1.00  0.00     0.281 C 
ATOM     10  C   UNL     1     -20.118  16.793 -19.828  1.00  0.00     0.041 C 
ATOM     11  C   UNL     1     -19.724  18.268 -20.019  1.00  0.00     0.150 C 
ATOM     12  C   UNL     1     -18.398  18.528 -20.748  1.00  0.00     0.174 C 
ATOM     13  O   UNL     1     -19.904  19.090 -18.852  1.00  0.00    -0.344 OA
ATOM     14  C   UNL     1     -17.186  18.441 -19.768  1.00  0.00     0.179 C 
ATOM     15  C   UNL     1     -17.468  19.390 -18.604  1.00  0.00     0.202 C 
BRANCH  12  16
ATOM     16  O   UNL     1     -18.184  17.685 -21.859  1.00  0.00    -0.388 OA
ATOM     17  H   UNL     1     -19.005  17.090 -21.932  1.00  0.00     0.211 HD
ENDBRANCH  12  16
BRANCH  14  18
ATOM     18  O   UNL     1     -17.055  17.123 -19.351  1.00  0.00    -0.387 OA
ATOM     19  H   UNL     1     -17.382  17.080 -18.407  1.00  0.00     0.211 HD
ENDBRANCH  14  18
BRANCH  15  20
ATOM     20  O   UNL     1     -16.379  19.373 -17.716  1.00  0.00    -0.385 OA
ATOM     21  H   UNL     1     -16.685  19.590 -16.795  1.00  0.00     0.211 HD
ENDBRANCH  15  20
ENDBRANCH   8   9
ENDBRANCH   7   8
ENDBRANCH   1   7
BRANCH   2  22
ATOM     22  O   UNL     1     -18.621  18.011 -12.974  1.00  0.00    -0.387 OA
ATOM     23  H   UNL     1     -18.525  17.842 -11.997  1.00  0.00     0.211 HD
ENDBRANCH   2  22
BRANCH   3  24
ATOM     24  O   UNL     1     -17.138  16.244 -11.589  1.00  0.00    -0.387 OA
ATOM     25  H   UNL     1     -17.412  15.286 -11.416  1.00  0.00     0.211 HD
ENDBRANCH   3  24
BRANCH   5  26
ATOM     26  O   UNL     1     -15.082  16.252 -15.396  1.00  0.00    -0.454 OA
BRANCH  26  27
ATOM     27  C   UNL     1     -14.832  16.211 -16.775  1.00  0.00     0.214 A 
ATOM     28  C   UNL     1     -15.310  15.128 -17.544  1.00  0.00     0.180 A 
ATOM     29  C   UNL     1     -14.028  17.194 -17.411  1.00  0.00     0.239 A 
ATOM     30  O   UNL     1     -14.933  15.023 -18.812  1.00  0.00    -0.452 OA
ATOM     31  C   UNL     1     -13.631  16.999 -18.747  1.00  0.00     0.111 A 
ATOM     32  O   UNL     1     -13.657  18.205 -16.763  1.00  0.00    -0.285 OA
ATOM     33  C   UNL     1     -14.112  15.862 -19.431  1.00  0.00     0.146 A 
ATOM     34  C   UNL     1     -12.720  17.854 -19.422  1.00  0.00     0.134 A 
ATOM     35  C   UNL     1     -13.728  15.603 -20.746  1.00  0.00     0.094 A 
ATOM     36  C   UNL     1     -12.342  17.595 -20.750  1.00  0.00     0.093 A 
ATOM     37  C   UNL     1     -12.850  16.464 -21.411  1.00  0.00     0.123 A 
BRANCH  28  38
ATOM     38  C   UNL     1     -16.129  14.012 -16.976  1.00  0.00     0.025 A 
ATOM     39  C   UNL     1     -17.530  14.007 -17.231  1.00  0.00     0.062 A 
ATOM     40  C   UNL     1     -15.608  12.938 -16.232  1.00  0.00     0.016 A 
ATOM     41  C   UNL     1     -18.334  12.995 -16.736  1.00  0.00     0.158 A 
ATOM     42  C   UNL     1     -16.396  11.870 -15.828  1.00  0.00     0.051 A 
ATOM     43  C   UNL     1     -17.776  11.924 -16.049  1.00  0.00     0.157 A 
BRANCH  41  44
ATOM     44  O   UNL     1     -19.726  13.052 -16.970  1.00  0.00    -0.504 OA
ATOM     45  H   UNL     1     -20.224  13.904 -17.207  1.00  0.00     0.293 HD
ENDBRANCH  41  44
BRANCH  43  46
ATOM     46  O   UNL     1     -18.567  10.871 -15.629  1.00  0.00    -0.504 OA
ATOM     47  H   UNL     1     -19.554  10.980 -15.469  1.00  0.00     0.293 HD
ENDBRANCH  43  46
ENDBRANCH  28  38
BRANCH  34  48
ATOM     48  O   UNL     1     -12.188  18.973 -18.761  1.00  0.00    -0.507 OA
ATOM     49  H   UNL     1     -11.291  18.936 -18.267  1.00  0.00     0.293 HD
ENDBRANCH  34  48
BRANCH  37  50
ATOM     50  O   UNL     1     -12.485  16.215 -22.730  1.00  0.00    -0.508 OA
ATOM     51  H   UNL     1     -11.532  15.998 -22.971  1.00  0.00     0.293 HD
ENDBRANCH  37  50
ENDBRANCH  26  27
ENDBRANCH   5  26
BRANCH   4  52
ATOM     52  O   UNL     1     -14.505  16.516 -12.663  1.00  0.00    -0.384 OA
ATOM     53  H   UNL     1     -13.686  17.093 -12.662  1.00  0.00     0.211 HD
ENDBRANCH   4  52
TORSDOF 16
ENDMDL
MODEL 7
REMARK VINA RESULT:    -9.006     11.937     14.958
REMARK INTER + INTRA:         -16.866
REMARK INTER:                 -14.974
REMARK INTRA:                  -1.892
REMARK UNBOUND:                -2.068
REMARK SMILES C[C@H]1O[C@@H](OC[C@H]2O[C@H](Oc3c(-c4ccc(O)c(O)c4)oc4cc(O)cc(O)c4c3=O)[C@H](O)[C@@H](O)[C@H]2O)[C@@H](O)[C@@H](O)[C@H]1O
REMARK SMILES IDX 7 1 36 2 34 3 32 4 9 5 8 6 6 7 5 8 4 9 1 10 2 11 42 12 3 13
REMARK SMILES IDX 40 14 38 15 43 16 41 18 39 20 37 22 35 24 10 26 11 27 12 28
REMARK SMILES IDX 30 29 21 30 29 31 31 32 22 33 27 34 23 35 26 36 24 37 13 38
REMARK SMILES IDX 20 39 14 40 18 41 15 42 16 43 19 44 17 46 28 48 25 50 33 52
REMARK H PARENT 43 17 41 19 39 21 37 23 35 25 19 45 17 47 28 49 25 51 33 53
REMARK Flexibility Score: inf
ROOT
ATOM      1  C   UNL     1      -4.448  13.641  -8.954  1.00  0.00     0.180 C 
ATOM      2  C   UNL     1      -4.796  14.245  -7.579  1.00  0.00     0.177 C 
ATOM      3  C   UNL     1      -6.310  14.406  -7.466  1.00  0.00     0.180 C 
ATOM      4  C   UNL     1      -7.067  13.128  -7.843  1.00  0.00     0.214 C 
ATOM      5  C   UNL     1      -6.525  12.589  -9.175  1.00  0.00     0.339 C 
ATOM      6  O   UNL     1      -5.099  12.418  -9.158  1.00  0.00    -0.332 OA
ENDROOT
BRANCH   1   7
ATOM      7  C   UNL     1      -2.904  13.502  -9.101  1.00  0.00     0.198 C 
BRANCH   7   8
ATOM      8  O   UNL     1      -2.557  12.141  -9.210  1.00  0.00    -0.347 OA
BRANCH   8   9
ATOM      9  C   UNL     1      -2.175  11.715 -10.551  1.00  0.00     0.281 C 
ATOM     10  C   UNL     1      -3.382   9.261  -8.858  1.00  0.00     0.041 C 
ATOM     11  C   UNL     1      -2.634   9.372 -10.198  1.00  0.00     0.150 C 
ATOM     12  C   UNL     1      -1.137   9.031 -10.171  1.00  0.00     0.174 C 
ATOM     13  O   UNL     1      -2.935  10.559 -10.953  1.00  0.00    -0.344 OA
ATOM     14  C   UNL     1      -0.285  10.257  -9.716  1.00  0.00     0.179 C 
ATOM     15  C   UNL     1      -0.653  11.433 -10.619  1.00  0.00     0.202 C 
BRANCH  12  16
ATOM     16  O   UNL     1      -0.824   7.903  -9.383  1.00  0.00    -0.388 OA
ATOM     17  H   UNL     1      -1.409   7.144  -9.721  1.00  0.00     0.211 HD
ENDBRANCH  12  16
BRANCH  14  18
ATOM     18  O   UNL     1      -0.566  10.513  -8.381  1.00  0.00    -0.387 OA
ATOM     19  H   UNL     1       0.214  11.014  -8.007  1.00  0.00     0.211 HD
ENDBRANCH  14  18
BRANCH  15  20
ATOM     20  O   UNL     1       0.125  12.550 -10.269  1.00  0.00    -0.385 OA
ATOM     21  H   UNL     1       0.606  12.378  -9.416  1.00  0.00     0.211 HD
ENDBRANCH  15  20
ENDBRANCH   8   9
ENDBRANCH   7   8
ENDBRANCH   1   7
BRANCH   2  22
ATOM     22  O   UNL     1      -4.304  13.520  -6.451  1.00  0.00    -0.387 OA
ATOM     23  H   UNL     1      -4.298  12.550  -6.675  1.00  0.00     0.211 HD
ENDBRANCH   2  22
BRANCH   3  24
ATOM     24  O   UNL     1      -6.649  14.808  -6.171  1.00  0.00    -0.387 OA
ATOM     25  H   UNL     1      -7.120  14.024  -5.742  1.00  0.00     0.211 HD
ENDBRANCH   3  24
BRANCH   5  26
ATOM     26  O   UNL     1      -6.936  13.438 -10.265  1.00  0.00    -0.454 OA
BRANCH  26  27
ATOM     27  C   UNL     1      -6.459  13.280 -11.575  1.00  0.00     0.214 A 
ATOM     28  C   UNL     1      -6.512  12.013 -12.194  1.00  0.00     0.180 A 
ATOM     29  C   UNL     1      -5.837  14.352 -12.270  1.00  0.00     0.239 A 
ATOM     30  O   UNL     1      -5.916  11.845 -13.368  1.00  0.00    -0.452 OA
ATOM     31  C   UNL     1      -5.188  14.094 -13.492  1.00  0.00     0.111 A 
ATOM     32  O   UNL     1      -5.847  15.504 -11.769  1.00  0.00    -0.285 OA
ATOM     33  C   UNL     1      -5.244  12.786 -14.020  1.00  0.00     0.146 A 
ATOM     34  C   UNL     1      -4.426  15.068 -14.190  1.00  0.00     0.134 A 
ATOM     35  C   UNL     1      -4.596  12.467 -15.211  1.00  0.00     0.094 A 
ATOM     36  C   UNL     1      -3.780  14.746 -15.395  1.00  0.00     0.093 A 
ATOM     37  C   UNL     1      -3.868  13.439 -15.904  1.00  0.00     0.123 A 
BRANCH  28  38
ATOM     38  C   UNL     1      -7.103  10.802 -11.544  1.00  0.00     0.025 A 
ATOM     39  C   UNL     1      -6.236   9.714 -11.236  1.00  0.00     0.062 A 
ATOM     40  C   UNL     1      -8.453  10.670 -11.178  1.00  0.00     0.016 A 
ATOM     41  C   UNL     1      -6.727   8.571 -10.628  1.00  0.00     0.158 A 
ATOM     42  C   UNL     1      -8.923   9.571 -10.473  1.00  0.00     0.051 A 
ATOM     43  C   UNL     1      -8.057   8.498 -10.235  1.00  0.00     0.157 A 
BRANCH  41  44
ATOM     44  O   UNL     1      -5.845   7.495 -10.383  1.00  0.00    -0.504 OA
ATOM     45  H   UNL     1      -4.839   7.599 -10.295  1.00  0.00     0.293 HD
ENDBRANCH  41  44
BRANCH  43  46
ATOM     46  O   UNL     1      -8.527   7.393  -9.551  1.00  0.00    -0.504 OA
ATOM     47  H   UNL     1      -8.051   6.508  -9.582  1.00  0.00     0.293 HD
ENDBRANCH  43  46
ENDBRANCH  28  38
BRANCH  34  48
ATOM     48  O   UNL     1      -4.312  16.369 -13.675  1.00  0.00    -0.507 OA
ATOM     49  H   UNL     1      -3.417  16.868 -13.651  1.00  0.00     0.293 HD
ENDBRANCH  34  48
BRANCH  37  50
ATOM     50  O   UNL     1      -3.239  13.124 -17.104  1.00  0.00    -0.508 OA
ATOM     51  H   UNL     1      -3.296  12.195 -17.489  1.00  0.00     0.293 HD
ENDBRANCH  37  50
ENDBRANCH  26  27
ENDBRANCH   5  26
BRANCH   4  52
ATOM     52  O   UNL     1      -8.445  13.416  -7.901  1.00  0.00    -0.384 OA
ATOM     53  H   UNL     1      -8.859  13.094  -8.756  1.00  0.00     0.211 HD
ENDBRANCH   4  52
TORSDOF 16
ENDMDL
MODEL 8
REMARK VINA RESULT:    -8.714      1.962      6.953
REMARK INTER + INTRA:         -16.385
REMARK INTER:                 -14.702
REMARK INTRA:                  -1.684
REMARK UNBOUND:                -2.068
REMARK SMILES C[C@H]1O[C@@H](OC[C@H]2O[C@H](Oc3c(-c4ccc(O)c(O)c4)oc4cc(O)cc(O)c4c3=O)[C@H](O)[C@@H](O)[C@H]2O)[C@@H](O)[C@@H](O)[C@H]1O
REMARK SMILES IDX 7 1 36 2 34 3 32 4 9 5 8 6 6 7 5 8 4 9 1 10 2 11 42 12 3 13
REMARK SMILES IDX 40 14 38 15 43 16 41 18 39 20 37 22 35 24 10 26 11 27 12 28
REMARK SMILES IDX 30 29 21 30 29 31 31 32 22 33 27 34 23 35 26 36 24 37 13 38
REMARK SMILES IDX 20 39 14 40 18 41 15 42 16 43 19 44 17 46 28 48 25 50 33 52
REMARK H PARENT 43 17 41 19 39 21 37 23 35 25 19 45 17 47 28 49 25 51 33 53
REMARK Flexibility Score: inf
ROOT
ATOM      1  C   UNL     1     -15.660  19.221 -16.888  1.00  0.00     0.180 C 
ATOM      2  C   UNL     1     -15.157  20.660 -16.655  1.00  0.00     0.177 C 
ATOM      3  C   UNL     1     -13.632  20.682 -16.732  1.00  0.00     0.180 C 
ATOM      4  C   UNL     1     -13.097  19.986 -17.989  1.00  0.00     0.214 C 
ATOM      5  C   UNL     1     -13.780  18.618 -18.142  1.00  0.00     0.339 C 
ATOM      6  O   UNL     1     -15.212  18.713 -18.115  1.00  0.00    -0.332 OA
ENDROOT
BRANCH   1   7
ATOM      7  C   UNL     1     -17.212  19.174 -16.778  1.00  0.00     0.198 C 
BRANCH   7   8
ATOM      8  O   UNL     1     -17.762  18.737 -17.998  1.00  0.00    -0.347 OA
BRANCH   8   9
ATOM      9  C   UNL     1     -17.939  17.294 -18.106  1.00  0.00     0.281 C 
ATOM     10  C   UNL     1     -17.396  18.611 -20.990  1.00  0.00     0.041 C 
ATOM     11  C   UNL     1     -17.860  17.222 -20.517  1.00  0.00     0.150 C 
ATOM     12  C   UNL     1     -19.367  16.942 -20.609  1.00  0.00     0.174 C 
ATOM     13  O   UNL     1     -17.273  16.786 -19.278  1.00  0.00    -0.344 OA
ATOM     14  C   UNL     1     -20.124  17.501 -19.363  1.00  0.00     0.179 C 
ATOM     15  C   UNL     1     -19.446  16.930 -18.119  1.00  0.00     0.202 C 
BRANCH  12  16
ATOM     16  O   UNL     1     -19.964  17.420 -21.794  1.00  0.00    -0.388 OA
ATOM     17  H   UNL     1     -20.730  18.023 -21.508  1.00  0.00     0.211 HD
ENDBRANCH  12  16
BRANCH  14  18
ATOM     18  O   UNL     1     -20.066  18.888 -19.404  1.00  0.00    -0.387 OA
ATOM     19  H   UNL     1     -19.716  19.192 -18.518  1.00  0.00     0.211 HD
ENDBRANCH  14  18
BRANCH  15  20
ATOM     20  O   UNL     1     -20.125  17.377 -16.973  1.00  0.00    -0.385 OA
ATOM     21  H   UNL     1     -19.957  16.759 -16.213  1.00  0.00     0.211 HD
ENDBRANCH  15  20
ENDBRANCH   8   9
ENDBRANCH   7   8
ENDBRANCH   1   7
BRANCH   2  22
ATOM     22  O   UNL     1     -15.698  21.647 -17.535  1.00  0.00    -0.387 OA
ATOM     23  H   UNL     1     -16.599  21.346 -17.833  1.00  0.00     0.211 HD
ENDBRANCH   2  22
BRANCH   3  24
ATOM     24  O   UNL     1     -13.173  22.001 -16.675  1.00  0.00    -0.387 OA
ATOM     25  H   UNL     1     -12.784  22.208 -17.585  1.00  0.00     0.211 HD
ENDBRANCH   3  24
BRANCH   5  26
ATOM     26  O   UNL     1     -13.298  17.701 -17.140  1.00  0.00    -0.454 OA
BRANCH  26  27
ATOM     27  C   UNL     1     -13.928  16.479 -16.860  1.00  0.00     0.214 A 
ATOM     28  C   UNL     1     -14.091  15.522 -17.884  1.00  0.00     0.180 A 
ATOM     29  C   UNL     1     -14.490  16.212 -15.583  1.00  0.00     0.239 A 
ATOM     30  O   UNL     1     -14.824  14.442 -17.646  1.00  0.00    -0.452 OA
ATOM     31  C   UNL     1     -15.292  15.068 -15.411  1.00  0.00     0.111 A 
ATOM     32  O   UNL     1     -14.291  17.015 -14.638  1.00  0.00    -0.285 OA
ATOM     33  C   UNL     1     -15.447  14.186 -16.501  1.00  0.00     0.146 A 
ATOM     34  C   UNL     1     -16.005  14.789 -14.215  1.00  0.00     0.134 A 
ATOM     35  C   UNL     1     -16.252  13.053 -16.397  1.00  0.00     0.094 A 
ATOM     36  C   UNL     1     -16.809  13.643 -14.109  1.00  0.00     0.093 A 
ATOM     37  C   UNL     1     -16.931  12.774 -15.207  1.00  0.00     0.123 A 
BRANCH  28  38
ATOM     38  C   UNL     1     -13.580  15.711 -19.278  1.00  0.00     0.025 A 
ATOM     39  C   UNL     1     -14.526  15.735 -20.343  1.00  0.00     0.062 A 
ATOM     40  C   UNL     1     -12.229  15.904 -19.614  1.00  0.00     0.016 A 
ATOM     41  C   UNL     1     -14.111  15.914 -21.651  1.00  0.00     0.158 A 
ATOM     42  C   UNL     1     -11.826  16.190 -20.911  1.00  0.00     0.051 A 
ATOM     43  C   UNL     1     -12.773  16.153 -21.940  1.00  0.00     0.157 A 
BRANCH  41  44
ATOM     44  O   UNL     1     -15.074  15.884 -22.685  1.00  0.00    -0.504 OA
ATOM     45  H   UNL     1     -15.421  16.713 -23.156  1.00  0.00     0.293 HD
ENDBRANCH  41  44
BRANCH  43  46
ATOM     46  O   UNL     1     -12.371  16.417 -23.236  1.00  0.00    -0.504 OA
ATOM     47  H   UNL     1     -12.397  15.713 -23.953  1.00  0.00     0.293 HD
ENDBRANCH  43  46
ENDBRANCH  28  38
BRANCH  34  48
ATOM     48  O   UNL     1     -15.909  15.665 -13.122  1.00  0.00    -0.507 OA
ATOM     49  H   UNL     1     -15.415  15.408 -12.261  1.00  0.00     0.293 HD
ENDBRANCH  34  48
BRANCH  37  50
ATOM     50  O   UNL     1     -17.718  11.632 -15.097  1.00  0.00    -0.508 OA
ATOM     51  H   UNL     1     -18.613  11.662 -14.639  1.00  0.00     0.293 HD
ENDBRANCH  37  50
ENDBRANCH  26  27
ENDBRANCH   5  26
BRANCH   4  52
ATOM     52  O   UNL     1     -11.696  19.878 -17.888  1.00  0.00    -0.384 OA
ATOM     53  H   UNL     1     -11.307  20.596 -17.306  1.00  0.00     0.211 HD
ENDBRANCH   4  52
TORSDOF 16
ENDMDL
MODEL 9
REMARK VINA RESULT:    -8.589      2.540      5.539
REMARK INTER + INTRA:         -16.180
REMARK INTER:                 -13.352
REMARK INTRA:                  -2.828
REMARK UNBOUND:                -2.068
REMARK SMILES C[C@H]1O[C@@H](OC[C@H]2O[C@H](Oc3c(-c4ccc(O)c(O)c4)oc4cc(O)cc(O)c4c3=O)[C@H](O)[C@@H](O)[C@H]2O)[C@@H](O)[C@@H](O)[C@H]1O
REMARK SMILES IDX 7 1 36 2 34 3 32 4 9 5 8 6 6 7 5 8 4 9 1 10 2 11 42 12 3 13
REMARK SMILES IDX 40 14 38 15 43 16 41 18 39 20 37 22 35 24 10 26 11 27 12 28
REMARK SMILES IDX 30 29 21 30 29 31 31 32 22 33 27 34 23 35 26 36 24 37 13 38
REMARK SMILES IDX 20 39 14 40 18 41 15 42 16 43 19 44 17 46 28 48 25 50 33 52
REMARK H PARENT 43 17 41 19 39 21 37 23 35 25 19 45 17 47 28 49 25 51 33 53
REMARK Flexibility Score: inf
ROOT
ATOM      1  C   UNL     1     -14.938  14.672 -17.213  1.00  0.00     0.180 C 
ATOM      2  C   UNL     1     -14.177  13.338 -17.067  1.00  0.00     0.177 C 
ATOM      3  C   UNL     1     -12.760  13.616 -16.572  1.00  0.00     0.180 C 
ATOM      4  C   UNL     1     -12.736  14.534 -15.344  1.00  0.00     0.214 C 
ATOM      5  C   UNL     1     -13.631  15.755 -15.604  1.00  0.00     0.339 C 
ATOM      6  O   UNL     1     -14.959  15.386 -16.008  1.00  0.00    -0.332 OA
ENDROOT
BRANCH   1   7
ATOM      7  C   UNL     1     -16.375  14.410 -17.751  1.00  0.00     0.198 C 
BRANCH   7   8
ATOM      8  O   UNL     1     -17.276  15.319 -17.163  1.00  0.00    -0.347 OA
BRANCH   8   9
ATOM      9  C   UNL     1     -18.483  15.571 -17.940  1.00  0.00     0.281 C 
ATOM     10  C   UNL     1     -17.459  18.254 -16.492  1.00  0.00     0.041 C 
ATOM     11  C   UNL     1     -18.751  17.863 -17.233  1.00  0.00     0.150 C 
ATOM     12  C   UNL     1     -19.956  17.504 -16.352  1.00  0.00     0.174 C 
ATOM     13  O   UNL     1     -18.556  16.955 -18.332  1.00  0.00    -0.344 OA
ATOM     14  C   UNL     1     -19.896  16.014 -15.889  1.00  0.00     0.179 C 
ATOM     15  C   UNL     1     -19.743  15.151 -17.141  1.00  0.00     0.202 C 
BRANCH  12  16
ATOM     16  O   UNL     1     -20.119  18.352 -15.237  1.00  0.00    -0.388 OA
ATOM     17  H   UNL     1     -19.704  19.244 -15.489  1.00  0.00     0.211 HD
ENDBRANCH  12  16
BRANCH  14  18
ATOM     18  O   UNL     1     -18.825  15.870 -15.018  1.00  0.00    -0.387 OA
ATOM     19  H   UNL     1     -18.004  16.153 -15.513  1.00  0.00     0.211 HD
ENDBRANCH  14  18
BRANCH  15  20
ATOM     20  O   UNL     1     -19.727  13.795 -16.771  1.00  0.00    -0.385 OA
ATOM     21  H   UNL     1     -19.240  13.260 -17.453  1.00  0.00     0.211 HD
ENDBRANCH  15  20
ENDBRANCH   8   9
ENDBRANCH   7   8
ENDBRANCH   1   7
BRANCH   2  22
ATOM     22  O   UNL     1     -14.801  12.369 -16.224  1.00  0.00    -0.387 OA
ATOM     23  H   UNL     1     -14.693  11.470 -16.640  1.00  0.00     0.211 HD
ENDBRANCH   2  22
BRANCH   3  24
ATOM     24  O   UNL     1     -12.111  12.411 -16.290  1.00  0.00    -0.387 OA
ATOM     25  H   UNL     1     -12.829  11.700 -16.259  1.00  0.00     0.211 HD
ENDBRANCH   3  24
BRANCH   5  26
ATOM     26  O   UNL     1     -13.017  16.632 -16.569  1.00  0.00    -0.454 OA
BRANCH  26  27
ATOM     27  C   UNL     1     -13.346  17.991 -16.680  1.00  0.00     0.214 A 
ATOM     28  C   UNL     1     -13.908  18.482 -17.878  1.00  0.00     0.180 A 
ATOM     29  C   UNL     1     -13.045  18.913 -15.643  1.00  0.00     0.239 A 
ATOM     30  O   UNL     1     -14.066  19.791 -18.026  1.00  0.00    -0.452 OA
ATOM     31  C   UNL     1     -13.199  20.291 -15.881  1.00  0.00     0.111 A 
ATOM     32  O   UNL     1     -12.617  18.487 -14.541  1.00  0.00    -0.285 OA
ATOM     33  C   UNL     1     -13.720  20.704 -17.126  1.00  0.00     0.146 A 
ATOM     34  C   UNL     1     -12.797  21.292 -14.957  1.00  0.00     0.134 A 
ATOM     35  C   UNL     1     -13.866  22.056 -17.429  1.00  0.00     0.094 A 
ATOM     36  C   UNL     1     -12.954  22.654 -15.260  1.00  0.00     0.093 A 
ATOM     37  C   UNL     1     -13.490  23.034 -16.502  1.00  0.00     0.123 A 
BRANCH  28  38
ATOM     38  C   UNL     1     -14.227  17.615 -19.056  1.00  0.00     0.025 A 
ATOM     39  C   UNL     1     -15.558  17.629 -19.561  1.00  0.00     0.062 A 
ATOM     40  C   UNL     1     -13.293  16.806 -19.727  1.00  0.00     0.016 A 
ATOM     41  C   UNL     1     -15.907  16.852 -20.652  1.00  0.00     0.158 A 
ATOM     42  C   UNL     1     -13.618  16.111 -20.884  1.00  0.00     0.051 A 
ATOM     43  C   UNL     1     -14.946  16.105 -21.321  1.00  0.00     0.157 A 
BRANCH  41  44
ATOM     44  O   UNL     1     -17.249  16.857 -21.093  1.00  0.00    -0.504 OA
ATOM     45  H   UNL     1     -17.630  16.182 -21.748  1.00  0.00     0.293 HD
ENDBRANCH  41  44
BRANCH  43  46
ATOM     46  O   UNL     1     -15.277  15.397 -22.461  1.00  0.00    -0.504 OA
ATOM     47  H   UNL     1     -14.820  14.535 -22.701  1.00  0.00     0.293 HD
ENDBRANCH  43  46
ENDBRANCH  28  38
BRANCH  34  48
ATOM     48  O   UNL     1     -12.236  20.922 -13.724  1.00  0.00    -0.507 OA
ATOM     49  H   UNL     1     -11.250  20.658 -13.632  1.00  0.00     0.293 HD
ENDBRANCH  34  48
BRANCH  37  50
ATOM     50  O   UNL     1     -13.657  24.383 -16.797  1.00  0.00    -0.508 OA
ATOM     51  H   UNL     1     -13.336  24.765 -17.671  1.00  0.00     0.293 HD
ENDBRANCH  37  50
ENDBRANCH  26  27
ENDBRANCH   5  26
BRANCH   4  52
ATOM     52  O   UNL     1     -11.401  14.895 -15.072  1.00  0.00    -0.384 OA
ATOM     53  H   UNL     1     -10.754  14.194 -15.379  1.00  0.00     0.211 HD
ENDBRANCH   4  52
TORSDOF 16
ENDMDL
