MODEL 1
REMARK VINA RESULT:    -4.072      0.000      0.000
REMARK INTER + INTRA:          -5.632
REMARK INTER:                  -5.500
REMARK INTRA:                  -0.132
REMARK UNBOUND:                -0.132
REMARK SMILES [NH3+]CCCC[C@H]([NH3+])C(=O)[O-]
REMARK SMILES IDX 4 1 3 2 2 3 1 4 5 8 6 9 7 10 8 14 9 15 10 16
REMARK H PARENT 1 5 1 6 1 7 7 11 7 12 7 13
REMARK Flexibility Score: inf
ROOT
ATOM      1  C   UNL     1      18.164  12.534  34.171  1.00  0.00     0.012 C 
ENDROOT
BRANCH   1   2
ATOM      2  C   UNL     1      18.496  12.796  35.649  1.00  0.00     0.061 C 
BRANCH   2   3
ATOM      3  C   UNL     1      19.595  13.855  35.834  1.00  0.00     0.258 C 
BRANCH   3   4
ATOM      4  N   UNL     1      19.626  14.338  37.214  1.00  0.00    -0.358 N 
ATOM      5  H   UNL     1      19.095  13.686  37.836  1.00  0.00     0.344 HD
ATOM      6  H   UNL     1      20.615  14.416  37.545  1.00  0.00     0.344 HD
ATOM      7  H   UNL     1      19.180  15.283  37.256  1.00  0.00     0.344 HD
ENDBRANCH   3   4
ENDBRANCH   2   3
ENDBRANCH   1   2
BRANCH   1   8
ATOM      8  C   UNL     1      18.053  13.831  33.351  1.00  0.00     0.072 C 
BRANCH   8   9
ATOM      9  C   UNL     1      16.880  13.801  32.346  1.00  0.00     0.227 C 
BRANCH   9  10
ATOM     10  N   UNL     1      16.118  12.548  32.433  1.00  0.00    -0.350 N 
ATOM     11  H   UNL     1      15.904  12.174  31.480  1.00  0.00     0.345 HD
ATOM     12  H   UNL     1      15.219  12.712  32.944  1.00  0.00     0.345 HD
ATOM     13  H   UNL     1      16.657  11.834  32.974  1.00  0.00     0.345 HD
ENDBRANCH   9  10
BRANCH   9  14
ATOM     14  C   UNL     1      17.411  13.983  30.948  1.00  0.00     0.099 C 
ATOM     15  O   UNL     1      18.261  13.177  30.484  1.00  0.00    -0.544 OA
ATOM     16  O   UNL     1      16.952  15.027  30.155  1.00  0.00    -0.544 OA
ENDBRANCH   9  14
ENDBRANCH   8   9
ENDBRANCH   1   8
TORSDOF 7
ENDMDL
MODEL 2
REMARK VINA RESULT:    -4.056      3.471      6.168
REMARK INTER + INTRA:          -5.611
REMARK INTER:                  -5.475
REMARK INTRA:                  -0.136
REMARK UNBOUND:                -0.132
REMARK SMILES [NH3+]CCCC[C@H]([NH3+])C(=O)[O-]
REMARK SMILES IDX 4 1 3 2 2 3 1 4 5 8 6 9 7 10 8 14 9 15 10 16
REMARK H PARENT 1 5 1 6 1 7 7 11 7 12 7 13
REMARK Flexibility Score: inf
ROOT
ATOM      1  C   UNL     1      16.488  14.036  28.707  1.00  0.00     0.012 C 
ENDROOT
BRANCH   1   2
ATOM      2  C   UNL     1      15.372  14.389  27.710  1.00  0.00     0.061 C 
BRANCH   2   3
ATOM      3  C   UNL     1      14.220  15.175  28.360  1.00  0.00     0.258 C 
BRANCH   3   4
ATOM      4  N   UNL     1      13.862  16.338  27.548  1.00  0.00    -0.358 N 
ATOM      5  H   UNL     1      12.944  16.727  27.863  1.00  0.00     0.344 HD
ATOM      6  H   UNL     1      14.603  17.071  27.625  1.00  0.00     0.344 HD
ATOM      7  H   UNL     1      13.778  16.044  26.548  1.00  0.00     0.344 HD
ENDBRANCH   3   4
ENDBRANCH   2   3
ENDBRANCH   1   2
BRANCH   1   8
ATOM      8  C   UNL     1      16.241  14.628  30.105  1.00  0.00     0.072 C 
BRANCH   8   9
ATOM      9  C   UNL     1      17.400  14.340  31.085  1.00  0.00     0.227 C 
BRANCH   9  10
ATOM     10  N   UNL     1      18.497  13.609  30.436  1.00  0.00    -0.350 N 
ATOM     11  H   UNL     1      19.389  14.153  30.487  1.00  0.00     0.345 HD
ATOM     12  H   UNL     1      18.263  13.434  29.431  1.00  0.00     0.345 HD
ATOM     13  H   UNL     1      18.631  12.678  30.892  1.00  0.00     0.345 HD
ENDBRANCH   9  10
BRANCH   9  14
ATOM     14  C   UNL     1      16.880  13.549  32.258  1.00  0.00     0.099 C 
ATOM     15  O   UNL     1      16.730  14.102  33.379  1.00  0.00    -0.544 OA
ATOM     16  O   UNL     1      16.543  12.210  32.104  1.00  0.00    -0.544 OA
ENDBRANCH   9  14
ENDBRANCH   8   9
ENDBRANCH   1   8
TORSDOF 7
ENDMDL
MODEL 3
REMARK VINA RESULT:    -4.038     10.335     11.389
REMARK INTER + INTRA:          -5.587
REMARK INTER:                  -5.058
REMARK INTRA:                  -0.529
REMARK UNBOUND:                -0.132
REMARK SMILES [NH3+]CCCC[C@H]([NH3+])C(=O)[O-]
REMARK SMILES IDX 4 1 3 2 2 3 1 4 5 8 6 9 7 10 8 14 9 15 10 16
REMARK H PARENT 1 5 1 6 1 7 7 11 7 12 7 13
REMARK Flexibility Score: inf
ROOT
ATOM      1  C   UNL     1      11.658  21.569  35.283  1.00  0.00     0.012 C 
ENDROOT
BRANCH   1   2
ATOM      2  C   UNL     1      11.751  21.453  33.753  1.00  0.00     0.061 C 
BRANCH   2   3
ATOM      3  C   UNL     1      10.799  22.416  33.023  1.00  0.00     0.258 C 
BRANCH   3   4
ATOM      4  N   UNL     1      11.549  23.459  32.325  1.00  0.00    -0.358 N 
ATOM      5  H   UNL     1      11.789  23.145  31.358  1.00  0.00     0.344 HD
ATOM      6  H   UNL     1      10.985  24.339  32.282  1.00  0.00     0.344 HD
ATOM      7  H   UNL     1      12.435  23.651  32.847  1.00  0.00     0.344 HD
ENDBRANCH   3   4
ENDBRANCH   2   3
ENDBRANCH   1   2
BRANCH   1   8
ATOM      8  C   UNL     1      12.568  22.673  35.849  1.00  0.00     0.072 C 
BRANCH   8   9
ATOM      9  C   UNL     1      14.007  22.601  35.291  1.00  0.00     0.227 C 
BRANCH   9  10
ATOM     10  N   UNL     1      14.989  22.309  36.345  1.00  0.00    -0.350 N 
ATOM     11  H   UNL     1      15.614  23.132  36.509  1.00  0.00     0.345 HD
ATOM     12  H   UNL     1      15.573  21.486  36.070  1.00  0.00     0.345 HD
ATOM     13  H   UNL     1      14.500  22.061  37.235  1.00  0.00     0.345 HD
ENDBRANCH   9  10
BRANCH   9  14
ATOM     14  C   UNL     1      14.349  23.904  34.617  1.00  0.00     0.099 C 
ATOM     15  O   UNL     1      13.440  24.728  34.332  1.00  0.00    -0.544 OA
ATOM     16  O   UNL     1      15.672  24.214  34.324  1.00  0.00    -0.544 OA
ENDBRANCH   9  14
ENDBRANCH   8   9
ENDBRANCH   1   8
TORSDOF 7
ENDMDL
MODEL 4
REMARK VINA RESULT:    -4.034      9.410     10.441
REMARK INTER + INTRA:          -5.582
REMARK INTER:                  -5.441
REMARK INTRA:                  -0.141
REMARK UNBOUND:                -0.132
REMARK SMILES [NH3+]CCCC[C@H]([NH3+])C(=O)[O-]
REMARK SMILES IDX 4 1 3 2 2 3 1 4 5 8 6 9 7 10 8 14 9 15 10 16
REMARK H PARENT 1 5 1 6 1 7 7 11 7 12 7 13
REMARK Flexibility Score: inf
ROOT
ATOM      1  C   UNL     1      12.472  22.345  35.522  1.00  0.00     0.012 C 
ENDROOT
BRANCH   1   2
ATOM      2  C   UNL     1      11.227  21.454  35.381  1.00  0.00     0.061 C 
BRANCH   2   3
ATOM      3  C   UNL     1      10.920  21.087  33.919  1.00  0.00     0.258 C 
BRANCH   3   4
ATOM      4  N   UNL     1      10.203  19.815  33.842  1.00  0.00    -0.358 N 
ATOM      5  H   UNL     1      10.150  19.373  34.788  1.00  0.00     0.344 HD
ATOM      6  H   UNL     1       9.239  19.969  33.468  1.00  0.00     0.344 HD
ATOM      7  H   UNL     1      10.717  19.171  33.198  1.00  0.00     0.344 HD
ENDBRANCH   3   4
ENDBRANCH   2   3
ENDBRANCH   1   2
BRANCH   1   8
ATOM      8  C   UNL     1      13.527  22.063  34.438  1.00  0.00     0.072 C 
BRANCH   8   9
ATOM      9  C   UNL     1      14.957  21.960  35.013  1.00  0.00     0.227 C 
BRANCH   9  10
ATOM     10  N   UNL     1      14.998  22.301  36.442  1.00  0.00    -0.350 N 
ATOM     11  H   UNL     1      15.903  21.999  36.872  1.00  0.00     0.345 HD
ATOM     12  H   UNL     1      14.209  21.831  36.943  1.00  0.00     0.345 HD
ATOM     13  H   UNL     1      14.879  23.331  36.570  1.00  0.00     0.345 HD
ENDBRANCH   9  10
BRANCH   9  14
ATOM     14  C   UNL     1      15.876  22.871  34.242  1.00  0.00     0.099 C 
ATOM     15  O   UNL     1      17.012  22.467  33.879  1.00  0.00    -0.544 OA
ATOM     16  O   UNL     1      15.466  24.156  33.907  1.00  0.00    -0.544 OA
ENDBRANCH   9  14
ENDBRANCH   8   9
ENDBRANCH   1   8
TORSDOF 7
ENDMDL
MODEL 5
REMARK VINA RESULT:    -3.984      9.504     10.031
REMARK INTER + INTRA:          -5.514
REMARK INTER:                  -5.391
REMARK INTRA:                  -0.123
REMARK UNBOUND:                -0.132
REMARK SMILES [NH3+]CCCC[C@H]([NH3+])C(=O)[O-]
REMARK SMILES IDX 4 1 3 2 2 3 1 4 5 8 6 9 7 10 8 14 9 15 10 16
REMARK H PARENT 1 5 1 6 1 7 7 11 7 12 7 13
REMARK Flexibility Score: inf
ROOT
ATOM      1  C   UNL     1      17.708  23.733  34.547  1.00  0.00     0.012 C 
ENDROOT
BRANCH   1   2
ATOM      2  C   UNL     1      19.172  23.488  34.148  1.00  0.00     0.061 C 
BRANCH   2   3
ATOM      3  C   UNL     1      19.861  22.431  35.029  1.00  0.00     0.258 C 
BRANCH   3   4
ATOM      4  N   UNL     1      21.168  22.070  34.483  1.00  0.00    -0.358 N 
ATOM      5  H   UNL     1      21.084  21.221  33.878  1.00  0.00     0.344 HD
ATOM      6  H   UNL     1      21.556  22.865  33.925  1.00  0.00     0.344 HD
ATOM      7  H   UNL     1      21.822  21.859  35.271  1.00  0.00     0.344 HD
ENDBRANCH   3   4
ENDBRANCH   2   3
ENDBRANCH   1   2
BRANCH   1   8
ATOM      8  C   UNL     1      16.894  22.431  34.638  1.00  0.00     0.072 C 
BRANCH   8   9
ATOM      9  C   UNL     1      15.407  22.633  34.267  1.00  0.00     0.227 C 
BRANCH   9  10
ATOM     10  N   UNL     1      15.151  23.985  33.753  1.00  0.00    -0.350 N 
ATOM     11  H   UNL     1      14.353  23.982  33.076  1.00  0.00     0.345 HD
ATOM     12  H   UNL     1      16.004  24.352  33.272  1.00  0.00     0.345 HD
ATOM     13  H   UNL     1      14.933  24.636  34.542  1.00  0.00     0.345 HD
ENDBRANCH   9  10
BRANCH   9  14
ATOM     14  C   UNL     1      14.549  22.371  35.477  1.00  0.00     0.099 C 
ATOM     15  O   UNL     1      14.764  22.990  36.552  1.00  0.00    -0.544 OA
ATOM     16  O   UNL     1      13.501  21.461  35.408  1.00  0.00    -0.544 OA
ENDBRANCH   9  14
ENDBRANCH   8   9
ENDBRANCH   1   8
TORSDOF 7
ENDMDL
MODEL 6
REMARK VINA RESULT:    -3.917     10.080     10.658
REMARK INTER + INTRA:          -5.423
REMARK INTER:                  -5.020
REMARK INTRA:                  -0.403
REMARK UNBOUND:                -0.132
REMARK SMILES [NH3+]CCCC[C@H]([NH3+])C(=O)[O-]
REMARK SMILES IDX 4 1 3 2 2 3 1 4 5 8 6 9 7 10 8 14 9 15 10 16
REMARK H PARENT 1 5 1 6 1 7 7 11 7 12 7 13
REMARK Flexibility Score: inf
ROOT
ATOM      1  C   UNL     1      13.240  21.350  34.718  1.00  0.00     0.012 C 
ENDROOT
BRANCH   1   2
ATOM      2  C   UNL     1      14.373  21.991  35.536  1.00  0.00     0.061 C 
BRANCH   2   3
ATOM      3  C   UNL     1      15.128  23.081  34.756  1.00  0.00     0.258 C 
BRANCH   3   4
ATOM      4  N   UNL     1      14.195  23.943  34.030  1.00  0.00    -0.358 N 
ATOM      5  H   UNL     1      13.883  24.731  34.642  1.00  0.00     0.344 HD
ATOM      6  H   UNL     1      14.651  24.321  33.169  1.00  0.00     0.344 HD
ATOM      7  H   UNL     1      13.357  23.381  33.751  1.00  0.00     0.344 HD
ENDBRANCH   3   4
ENDBRANCH   2   3
ENDBRANCH   1   2
BRANCH   1   8
ATOM      8  C   UNL     1      11.904  21.321  35.481  1.00  0.00     0.072 C 
BRANCH   8   9
ATOM      9  C   UNL     1      10.682  21.435  34.542  1.00  0.00     0.227 C 
BRANCH   9  10
ATOM     10  N   UNL     1      10.503  20.225  33.728  1.00  0.00    -0.350 N 
ATOM     11  H   UNL     1      11.428  19.828  33.442  1.00  0.00     0.345 HD
ATOM     12  H   UNL     1       9.950  20.451  32.870  1.00  0.00     0.345 HD
ATOM     13  H   UNL     1       9.968  19.505  34.264  1.00  0.00     0.345 HD
ENDBRANCH   9  10
BRANCH   9  14
ATOM     14  C   UNL     1      10.847  22.636  33.648  1.00  0.00     0.099 C 
ATOM     15  O   UNL     1      10.726  22.517  32.400  1.00  0.00    -0.544 OA
ATOM     16  O   UNL     1      11.111  23.885  34.195  1.00  0.00    -0.544 OA
ENDBRANCH   9  14
ENDBRANCH   8   9
ENDBRANCH   1   8
TORSDOF 7
ENDMDL
MODEL 7
REMARK VINA RESULT:    -3.855      3.582      5.864
REMARK INTER + INTRA:          -5.339
REMARK INTER:                  -4.846
REMARK INTRA:                  -0.493
REMARK UNBOUND:                -0.132
REMARK SMILES [NH3+]CCCC[C@H]([NH3+])C(=O)[O-]
REMARK SMILES IDX 4 1 3 2 2 3 1 4 5 8 6 9 7 10 8 14 9 15 10 16
REMARK H PARENT 1 5 1 6 1 7 7 11 7 12 7 13
REMARK Flexibility Score: inf
ROOT
ATOM      1  C   UNL     1      15.977  14.740  29.043  1.00  0.00     0.012 C 
ENDROOT
BRANCH   1   2
ATOM      2  C   UNL     1      14.943  13.935  28.238  1.00  0.00     0.061 C 
BRANCH   2   3
ATOM      3  C   UNL     1      13.533  13.998  28.848  1.00  0.00     0.258 C 
BRANCH   3   4
ATOM      4  N   UNL     1      13.245  12.791  29.621  1.00  0.00    -0.358 N 
ATOM      5  H   UNL     1      12.394  12.315  29.243  1.00  0.00     0.344 HD
ATOM      6  H   UNL     1      14.061  12.138  29.583  1.00  0.00     0.344 HD
ATOM      7  H   UNL     1      13.069  13.056  30.617  1.00  0.00     0.344 HD
ENDBRANCH   3   4
ENDBRANCH   2   3
ENDBRANCH   1   2
BRANCH   1   8
ATOM      8  C   UNL     1      17.062  13.848  29.670  1.00  0.00     0.072 C 
BRANCH   8   9
ATOM      9  C   UNL     1      16.842  13.618  31.182  1.00  0.00     0.227 C 
BRANCH   9  10
ATOM     10  N   UNL     1      18.021  14.000  31.971  1.00  0.00    -0.350 N 
ATOM     11  H   UNL     1      18.735  14.473  31.369  1.00  0.00     0.345 HD
ATOM     12  H   UNL     1      18.452  13.150  32.404  1.00  0.00     0.345 HD
ATOM     13  H   UNL     1      17.744  14.640  32.749  1.00  0.00     0.345 HD
ENDBRANCH   9  10
BRANCH   9  14
ATOM     14  C   UNL     1      16.510  12.168  31.426  1.00  0.00     0.099 C 
ATOM     15  O   UNL     1      15.875  11.510  30.560  1.00  0.00    -0.544 OA
ATOM     16  O   UNL     1      16.920  11.543  32.597  1.00  0.00    -0.544 OA
ENDBRANCH   9  14
ENDBRANCH   8   9
ENDBRANCH   1   8
TORSDOF 7
ENDMDL
MODEL 8
REMARK VINA RESULT:    -3.819      4.181      5.242
REMARK INTER + INTRA:          -5.291
REMARK INTER:                  -4.780
REMARK INTRA:                  -0.511
REMARK UNBOUND:                -0.132
REMARK SMILES [NH3+]CCCC[C@H]([NH3+])C(=O)[O-]
REMARK SMILES IDX 4 1 3 2 2 3 1 4 5 8 6 9 7 10 8 14 9 15 10 16
REMARK H PARENT 1 5 1 6 1 7 7 11 7 12 7 13
REMARK Flexibility Score: inf
ROOT
ATOM      1  C   UNL     1      16.091  11.370  29.099  1.00  0.00     0.012 C 
ENDROOT
BRANCH   1   2
ATOM      2  C   UNL     1      17.506  11.960  28.985  1.00  0.00     0.061 C 
BRANCH   2   3
ATOM      3  C   UNL     1      18.047  12.473  30.330  1.00  0.00     0.258 C 
BRANCH   3   4
ATOM      4  N   UNL     1      18.051  13.935  30.366  1.00  0.00    -0.358 N 
ATOM      5  H   UNL     1      18.647  14.275  31.154  1.00  0.00     0.344 HD
ATOM      6  H   UNL     1      18.410  14.316  29.460  1.00  0.00     0.344 HD
ATOM      7  H   UNL     1      17.073  14.276  30.512  1.00  0.00     0.344 HD
ENDBRANCH   3   4
ENDBRANCH   2   3
ENDBRANCH   1   2
BRANCH   1   8
ATOM      8  C   UNL     1      15.039  12.209  28.353  1.00  0.00     0.072 C 
BRANCH   8   9
ATOM      9  C   UNL     1      14.351  13.247  29.267  1.00  0.00     0.227 C 
BRANCH   9  10
ATOM     10  N   UNL     1      12.898  13.038  29.337  1.00  0.00    -0.350 N 
ATOM     11  H   UNL     1      12.595  12.852  30.321  1.00  0.00     0.345 HD
ATOM     12  H   UNL     1      12.627  12.224  28.738  1.00  0.00     0.345 HD
ATOM     13  H   UNL     1      12.394  13.877  28.971  1.00  0.00     0.345 HD
ENDBRANCH   9  10
BRANCH   9  14
ATOM     14  C   UNL     1      14.645  14.635  28.760  1.00  0.00     0.099 C 
ATOM     15  O   UNL     1      15.836  15.036  28.666  1.00  0.00    -0.544 OA
ATOM     16  O   UNL     1      13.607  15.474  28.373  1.00  0.00    -0.544 OA
ENDBRANCH   9  14
ENDBRANCH   8   9
ENDBRANCH   1   8
TORSDOF 7
ENDMDL
MODEL 9
REMARK VINA RESULT:    -3.784      2.477      4.452
REMARK INTER + INTRA:          -5.244
REMARK INTER:                  -4.731
REMARK INTRA:                  -0.513
REMARK UNBOUND:                -0.132
REMARK SMILES [NH3+]CCCC[C@H]([NH3+])C(=O)[O-]
REMARK SMILES IDX 4 1 3 2 2 3 1 4 5 8 6 9 7 10 8 14 9 15 10 16
REMARK H PARENT 1 5 1 6 1 7 7 11 7 12 7 13
REMARK Flexibility Score: inf
ROOT
ATOM      1  C   UNL     1      17.120  13.782  33.624  1.00  0.00     0.012 C 
ENDROOT
BRANCH   1   2
ATOM      2  C   UNL     1      17.083  14.224  32.152  1.00  0.00     0.061 C 
BRANCH   2   3
ATOM      3  C   UNL     1      17.428  13.084  31.179  1.00  0.00     0.258 C 
BRANCH   3   4
ATOM      4  N   UNL     1      18.669  13.370  30.461  1.00  0.00    -0.358 N 
ATOM      5  H   UNL     1      19.100  12.481  30.118  1.00  0.00     0.344 HD
ATOM      6  H   UNL     1      18.478  14.006  29.653  1.00  0.00     0.344 HD
ATOM      7  H   UNL     1      19.340  13.841  31.111  1.00  0.00     0.344 HD
ENDBRANCH   3   4
ENDBRANCH   2   3
ENDBRANCH   1   2
BRANCH   1   8
ATOM      8  C   UNL     1      17.621  12.338  33.796  1.00  0.00     0.072 C 
BRANCH   8   9
ATOM      9  C   UNL     1      18.784  12.229  34.807  1.00  0.00     0.227 C 
BRANCH   9  10
ATOM     10  N   UNL     1      18.495  12.952  36.053  1.00  0.00    -0.350 N 
ATOM     11  H   UNL     1      19.341  13.466  36.391  1.00  0.00     0.345 HD
ATOM     12  H   UNL     1      18.187  12.279  36.793  1.00  0.00     0.345 HD
ATOM     13  H   UNL     1      17.714  13.630  35.904  1.00  0.00     0.345 HD
ENDBRANCH   9  10
BRANCH   9  14
ATOM     14  C   UNL     1      20.045  12.767  34.182  1.00  0.00     0.099 C 
ATOM     15  O   UNL     1      20.772  13.575  34.818  1.00  0.00    -0.544 OA
ATOM     16  O   UNL     1      20.424  12.359  32.909  1.00  0.00    -0.544 OA
ENDBRANCH   9  14
ENDBRANCH   8   9
ENDBRANCH   1   8
TORSDOF 7
ENDMDL
