MODEL 1
REMARK VINA RESULT:    -6.630      0.000      0.000
REMARK INTER + INTRA:          -7.623
REMARK INTER:                  -7.212
REMARK INTRA:                  -0.412
REMARK UNBOUND:                -0.412
REMARK SMILES C=C(C)[C@@H]1CC[C@]2(C)CC[C@]3(C)[C@@H](CC[C@@H]4[C@@]5(C)CC[C@@H](O)C(C)(C)[C@@H]5CC[C@@]43C)[C@H]12
REMARK SMILES IDX 4 1 5 2 6 3 7 4 31 5 13 6 14 7 15 8 16 9 17 10 19 11 20 12
REMARK SMILES IDX 21 13 23 14 26 15 27 16 28 17 29 18 11 19 10 20 9 21 12 22
REMARK SMILES IDX 30 23 24 24 25 25 18 26 8 27 2 28 3 29 1 30 22 31
REMARK H PARENT 22 32
REMARK Flexibility Score: inf
ROOT
ATOM      1  C   UNL     1      85.543  75.113  12.118  1.00  0.00     0.018 C 
ATOM      2  C   UNL     1      86.518  76.075  11.446  1.00  0.00     0.009 C 
ATOM      3  C   UNL     1      86.618  77.271  12.392  1.00  0.00     0.008 C 
ATOM      4  C   UNL     1      85.967  76.845  13.741  1.00  0.00    -0.029 C 
ATOM      5  C   UNL     1      85.781  75.300  13.643  1.00  0.00     0.006 C 
ATOM      6  C   UNL     1      86.958  74.384  14.199  1.00  0.00    -0.000 C 
ATOM      7  C   UNL     1      86.363  73.009  14.624  1.00  0.00     0.005 C 
ATOM      8  C   UNL     1      87.306  72.198  15.497  1.00  0.00     0.005 C 
ATOM      9  C   UNL     1      87.505  72.853  16.908  1.00  0.00     0.002 C 
ATOM     10  C   UNL     1      86.633  72.192  18.117  1.00  0.00    -0.026 C 
ATOM     11  C   UNL     1      87.580  71.392  19.061  1.00  0.00     0.010 C 
ATOM     12  C   UNL     1      86.866  70.837  20.309  1.00  0.00     0.033 C 
ATOM     13  C   UNL     1      86.233  71.954  21.163  1.00  0.00     0.120 C 
ATOM     14  C   UNL     1      85.250  72.871  20.351  1.00  0.00    -0.006 C 
ATOM     15  C   UNL     1      85.956  73.307  18.999  1.00  0.00     0.003 C 
ATOM     16  C   UNL     1      85.163  74.245  18.096  1.00  0.00     0.005 C 
ATOM     17  C   UNL     1      86.100  75.063  17.190  1.00  0.00     0.008 C 
ATOM     18  C   UNL     1      87.516  74.462  16.812  1.00  0.00    -0.024 C 
ATOM     19  C   UNL     1      87.939  74.972  15.320  1.00  0.00    -0.024 C 
ATOM     20  C   UNL     1      88.063  76.528  15.180  1.00  0.00     0.008 C 
ATOM     21  C   UNL     1      86.788  77.316  14.956  1.00  0.00     0.007 C 
ATOM     22  C   UNL     1      89.416  74.494  14.998  1.00  0.00     0.012 C 
ATOM     23  C   UNL     1      88.583  74.996  17.846  1.00  0.00     0.012 C 
ATOM     24  C   UNL     1      83.876  72.161  20.161  1.00  0.00     0.014 C 
ATOM     25  C   UNL     1      84.963  74.133  21.221  1.00  0.00     0.014 C 
ATOM     26  C   UNL     1      85.571  71.184  17.563  1.00  0.00     0.012 C 
ATOM     27  C   UNL     1      84.578  77.537  13.865  1.00  0.00     0.011 C 
ENDROOT
BRANCH   1  28
ATOM     28  C   UNL     1      85.491  73.682  11.581  1.00  0.00    -0.077 C 
ATOM     29  C   UNL     1      84.255  72.856  11.834  1.00  0.00     0.039 C 
ATOM     30  C   UNL     1      86.489  73.118  10.877  1.00  0.00     0.008 C 
ENDBRANCH   1  28
BRANCH  13  31
ATOM     31  O   UNL     1      87.273  72.724  21.725  1.00  0.00    -0.393 OA
ATOM     32  H   UNL     1      88.128  72.279  21.493  1.00  0.00     0.210 HD
ENDBRANCH  13  31
TORSDOF 2
ENDMDL
MODEL 2
REMARK VINA RESULT:    -6.034      1.599      2.784
REMARK INTER + INTRA:          -6.974
REMARK INTER:                  -6.576
REMARK INTRA:                  -0.399
REMARK UNBOUND:                -0.412
REMARK SMILES C=C(C)[C@@H]1CC[C@]2(C)CC[C@]3(C)[C@@H](CC[C@@H]4[C@@]5(C)CC[C@@H](O)C(C)(C)[C@@H]5CC[C@@]43C)[C@H]12
REMARK SMILES IDX 4 1 5 2 6 3 7 4 31 5 13 6 14 7 15 8 16 9 17 10 19 11 20 12
REMARK SMILES IDX 21 13 23 14 26 15 27 16 28 17 29 18 11 19 10 20 9 21 12 22
REMARK SMILES IDX 30 23 24 24 25 25 18 26 8 27 2 28 3 29 1 30 22 31
REMARK H PARENT 22 32
REMARK Flexibility Score: inf
ROOT
ATOM      1  C   UNL     1      86.468  77.146  13.676  1.00  0.00     0.018 C 
ATOM      2  C   UNL     1      87.380  76.908  12.476  1.00  0.00     0.009 C 
ATOM      3  C   UNL     1      88.758  76.618  13.071  1.00  0.00     0.008 C 
ATOM      4  C   UNL     1      88.557  76.365  14.593  1.00  0.00    -0.029 C 
ATOM      5  C   UNL     1      87.017  76.211  14.789  1.00  0.00     0.006 C 
ATOM      6  C   UNL     1      86.413  74.740  14.711  1.00  0.00    -0.000 C 
ATOM      7  C   UNL     1      85.098  74.696  15.545  1.00  0.00     0.005 C 
ATOM      8  C   UNL     1      84.633  73.281  15.846  1.00  0.00     0.005 C 
ATOM      9  C   UNL     1      85.604  72.545  16.834  1.00  0.00     0.002 C 
ATOM     10  C   UNL     1      85.115  72.492  18.389  1.00  0.00    -0.026 C 
ATOM     11  C   UNL     1      84.677  71.040  18.745  1.00  0.00     0.010 C 
ATOM     12  C   UNL     1      84.320  70.862  20.234  1.00  0.00     0.033 C 
ATOM     13  C   UNL     1      85.502  71.205  21.162  1.00  0.00     0.120 C 
ATOM     14  C   UNL     1      86.078  72.647  20.921  1.00  0.00    -0.006 C 
ATOM     15  C   UNL     1      86.296  72.858  19.364  1.00  0.00     0.003 C 
ATOM     16  C   UNL     1      86.897  74.194  18.942  1.00  0.00     0.005 C 
ATOM     17  C   UNL     1      87.613  74.073  17.585  1.00  0.00     0.008 C 
ATOM     18  C   UNL     1      87.139  72.957  16.566  1.00  0.00    -0.024 C 
ATOM     19  C   UNL     1      87.359  73.491  15.039  1.00  0.00    -0.024 C 
ATOM     20  C   UNL     1      88.848  73.821  14.678  1.00  0.00     0.008 C 
ATOM     21  C   UNL     1      89.390  75.172  15.100  1.00  0.00     0.007 C 
ATOM     22  C   UNL     1      87.025  72.324  14.018  1.00  0.00     0.012 C 
ATOM     23  C   UNL     1      88.026  71.669  16.780  1.00  0.00     0.012 C 
ATOM     24  C   UNL     1      85.166  73.716  21.595  1.00  0.00     0.014 C 
ATOM     25  C   UNL     1      87.450  72.731  21.657  1.00  0.00     0.014 C 
ATOM     26  C   UNL     1      83.876  73.421  18.623  1.00  0.00     0.012 C 
ATOM     27  C   UNL     1      89.066  77.610  15.377  1.00  0.00     0.011 C 
ENDROOT
BRANCH   1  28
ATOM     28  C   UNL     1      84.961  77.134  13.421  1.00  0.00    -0.077 C 
ATOM     29  C   UNL     1      84.418  76.258  12.320  1.00  0.00     0.039 C 
ATOM     30  C   UNL     1      84.081  77.857  14.138  1.00  0.00     0.008 C 
ENDBRANCH   1  28
BRANCH  13  31
ATOM     31  O   UNL     1      86.510  70.236  20.972  1.00  0.00    -0.393 OA
ATOM     32  H   UNL     1      87.322  70.713  20.661  1.00  0.00     0.210 HD
ENDBRANCH  13  31
TORSDOF 2
ENDMDL
MODEL 3
REMARK VINA RESULT:    -5.330      2.534      7.311
REMARK INTER + INTRA:          -6.209
REMARK INTER:                  -5.796
REMARK INTRA:                  -0.413
REMARK UNBOUND:                -0.412
REMARK SMILES C=C(C)[C@@H]1CC[C@]2(C)CC[C@]3(C)[C@@H](CC[C@@H]4[C@@]5(C)CC[C@@H](O)C(C)(C)[C@@H]5CC[C@@]43C)[C@H]12
REMARK SMILES IDX 4 1 5 2 6 3 7 4 31 5 13 6 14 7 15 8 16 9 17 10 19 11 20 12
REMARK SMILES IDX 21 13 23 14 26 15 27 16 28 17 29 18 11 19 10 20 9 21 12 22
REMARK SMILES IDX 30 23 24 24 25 25 18 26 8 27 2 28 3 29 1 30 22 31
REMARK H PARENT 22 32
REMARK Flexibility Score: inf
ROOT
ATOM      1  C   UNL     1      86.876  72.769  20.206  1.00  0.00     0.018 C 
ATOM      2  C   UNL     1      86.870  71.251  20.364  1.00  0.00     0.009 C 
ATOM      3  C   UNL     1      85.659  70.770  19.564  1.00  0.00     0.008 C 
ATOM      4  C   UNL     1      85.181  71.966  18.690  1.00  0.00    -0.029 C 
ATOM      5  C   UNL     1      86.322  73.026  18.777  1.00  0.00     0.006 C 
ATOM      6  C   UNL     1      87.454  72.976  17.659  1.00  0.00    -0.000 C 
ATOM      7  C   UNL     1      88.066  74.400  17.505  1.00  0.00     0.005 C 
ATOM      8  C   UNL     1      88.884  74.559  16.234  1.00  0.00     0.005 C 
ATOM      9  C   UNL     1      87.985  74.512  14.950  1.00  0.00     0.002 C 
ATOM     10  C   UNL     1      87.623  75.960  14.293  1.00  0.00    -0.026 C 
ATOM     11  C   UNL     1      88.410  76.135  12.960  1.00  0.00     0.010 C 
ATOM     12  C   UNL     1      88.034  77.421  12.198  1.00  0.00     0.033 C 
ATOM     13  C   UNL     1      86.536  77.467  11.835  1.00  0.00     0.120 C 
ATOM     14  C   UNL     1      85.594  77.290  13.079  1.00  0.00    -0.006 C 
ATOM     15  C   UNL     1      86.094  76.048  13.928  1.00  0.00     0.003 C 
ATOM     16  C   UNL     1      85.265  75.694  15.158  1.00  0.00     0.005 C 
ATOM     17  C   UNL     1      85.433  74.209  15.528  1.00  0.00     0.008 C 
ATOM     18  C   UNL     1      86.771  73.465  15.121  1.00  0.00    -0.024 C 
ATOM     19  C   UNL     1      87.116  72.324  16.237  1.00  0.00    -0.024 C 
ATOM     20  C   UNL     1      86.017  71.216  16.388  1.00  0.00     0.008 C 
ATOM     21  C   UNL     1      84.817  71.532  17.258  1.00  0.00     0.007 C 
ATOM     22  C   UNL     1      88.370  71.480  15.758  1.00  0.00     0.012 C 
ATOM     23  C   UNL     1      86.550  72.755  13.729  1.00  0.00     0.012 C 
ATOM     24  C   UNL     1      85.497  78.623  13.881  1.00  0.00     0.014 C 
ATOM     25  C   UNL     1      84.157  77.010  12.540  1.00  0.00     0.014 C 
ATOM     26  C   UNL     1      88.049  77.132  15.240  1.00  0.00     0.012 C 
ATOM     27  C   UNL     1      83.875  72.545  19.310  1.00  0.00     0.011 C 
ENDROOT
BRANCH   1  28
ATOM     28  C   UNL     1      88.150  73.508  20.614  1.00  0.00    -0.077 C 
ATOM     29  C   UNL     1      88.062  74.974  20.953  1.00  0.00     0.039 C 
ATOM     30  C   UNL     1      89.355  72.915  20.702  1.00  0.00     0.008 C 
ENDBRANCH   1  28
BRANCH  13  31
ATOM     31  O   UNL     1      86.282  76.461  10.879  1.00  0.00    -0.393 OA
ATOM     32  H   UNL     1      85.743  76.872  10.155  1.00  0.00     0.210 HD
ENDBRANCH  13  31
TORSDOF 2
ENDMDL
MODEL 4
REMARK VINA RESULT:    -4.652      1.725      2.594
REMARK INTER + INTRA:          -5.472
REMARK INTER:                  -5.194
REMARK INTRA:                  -0.278
REMARK UNBOUND:                -0.412
REMARK SMILES C=C(C)[C@@H]1CC[C@]2(C)CC[C@]3(C)[C@@H](CC[C@@H]4[C@@]5(C)CC[C@@H](O)C(C)(C)[C@@H]5CC[C@@]43C)[C@H]12
REMARK SMILES IDX 4 1 5 2 6 3 7 4 31 5 13 6 14 7 15 8 16 9 17 10 19 11 20 12
REMARK SMILES IDX 21 13 23 14 26 15 27 16 28 17 29 18 11 19 10 20 9 21 12 22
REMARK SMILES IDX 30 23 24 24 25 25 18 26 8 27 2 28 3 29 1 30 22 31
REMARK H PARENT 22 32
REMARK Flexibility Score: inf
ROOT
ATOM      1  C   UNL     1      84.923  71.229  12.519  1.00  0.00     0.018 C 
ATOM      2  C   UNL     1      85.793  71.726  11.367  1.00  0.00     0.009 C 
ATOM      3  C   UNL     1      85.856  73.244  11.539  1.00  0.00     0.008 C 
ATOM      4  C   UNL     1      85.306  73.569  12.959  1.00  0.00    -0.029 C 
ATOM      5  C   UNL     1      85.225  72.197  13.697  1.00  0.00     0.006 C 
ATOM      6  C   UNL     1      86.491  71.750  14.553  1.00  0.00    -0.000 C 
ATOM      7  C   UNL     1      86.016  70.784  15.679  1.00  0.00     0.005 C 
ATOM      8  C   UNL     1      87.058  70.585  16.767  1.00  0.00     0.005 C 
ATOM      9  C   UNL     1      87.282  71.890  17.608  1.00  0.00     0.002 C 
ATOM     10  C   UNL     1      86.522  71.934  19.050  1.00  0.00    -0.026 C 
ATOM     11  C   UNL     1      87.569  71.781  20.193  1.00  0.00     0.010 C 
ATOM     12  C   UNL     1      86.960  71.940  21.600  1.00  0.00     0.033 C 
ATOM     13  C   UNL     1      86.295  73.318  21.794  1.00  0.00     0.120 C 
ATOM     14  C   UNL     1      85.210  73.638  20.705  1.00  0.00    -0.006 C 
ATOM     15  C   UNL     1      85.813  73.322  19.272  1.00  0.00     0.003 C 
ATOM     16  C   UNL     1      84.910  73.619  18.079  1.00  0.00     0.005 C 
ATOM     17  C   UNL     1      85.740  73.870  16.808  1.00  0.00     0.008 C 
ATOM     18  C   UNL     1      87.174  73.208  16.687  1.00  0.00    -0.024 C 
ATOM     19  C   UNL     1      87.483  72.871  15.119  1.00  0.00    -0.024 C 
ATOM     20  C   UNL     1      87.489  74.125  14.179  1.00  0.00     0.008 C 
ATOM     21  C   UNL     1      86.153  74.635  13.680  1.00  0.00     0.007 C 
ATOM     22  C   UNL     1      88.973  72.346  14.976  1.00  0.00     0.012 C 
ATOM     23  C   UNL     1      88.252  74.241  17.200  1.00  0.00     0.012 C 
ATOM     24  C   UNL     1      83.881  72.889  21.024  1.00  0.00     0.014 C 
ATOM     25  C   UNL     1      84.878  75.158  20.808  1.00  0.00     0.014 C 
ATOM     26  C   UNL     1      85.506  70.750  19.191  1.00  0.00     0.012 C 
ATOM     27  C   UNL     1      83.880  74.176  12.815  1.00  0.00     0.011 C 
ENDROOT
BRANCH   1  28
ATOM     28  C   UNL     1      84.945  69.729  12.813  1.00  0.00    -0.077 C 
ATOM     29  C   UNL     1      83.922  69.160  13.763  1.00  0.00     0.039 C 
ATOM     30  C   UNL     1      85.826  68.877  12.256  1.00  0.00     0.008 C 
ENDBRANCH   1  28
BRANCH  13  31
ATOM     31  O   UNL     1      87.305  74.303  21.785  1.00  0.00    -0.393 OA
ATOM     32  H   UNL     1      87.028  75.004  21.141  1.00  0.00     0.210 HD
ENDBRANCH  13  31
TORSDOF 2
ENDMDL
MODEL 5
REMARK VINA RESULT:    -4.237      3.448      6.988
REMARK INTER + INTRA:          -5.021
REMARK INTER:                  -4.612
REMARK INTRA:                  -0.409
REMARK UNBOUND:                -0.412
REMARK SMILES C=C(C)[C@@H]1CC[C@]2(C)CC[C@]3(C)[C@@H](CC[C@@H]4[C@@]5(C)CC[C@@H](O)C(C)(C)[C@@H]5CC[C@@]43C)[C@H]12
REMARK SMILES IDX 4 1 5 2 6 3 7 4 31 5 13 6 14 7 15 8 16 9 17 10 19 11 20 12
REMARK SMILES IDX 21 13 23 14 26 15 27 16 28 17 29 18 11 19 10 20 9 21 12 22
REMARK SMILES IDX 30 23 24 24 25 25 18 26 8 27 2 28 3 29 1 30 22 31
REMARK H PARENT 22 32
REMARK Flexibility Score: inf
ROOT
ATOM      1  C   UNL     1      86.231  67.204  13.509  1.00  0.00     0.018 C 
ATOM      2  C   UNL     1      85.991  66.210  14.642  1.00  0.00     0.009 C 
ATOM      3  C   UNL     1      86.961  66.623  15.749  1.00  0.00     0.008 C 
ATOM      4  C   UNL     1      87.507  68.033  15.380  1.00  0.00    -0.029 C 
ATOM      5  C   UNL     1      86.599  68.538  14.216  1.00  0.00     0.006 C 
ATOM      6  C   UNL     1      85.320  69.401  14.607  1.00  0.00    -0.000 C 
ATOM      7  C   UNL     1      84.955  70.324  13.406  1.00  0.00     0.005 C 
ATOM      8  C   UNL     1      83.995  71.439  13.786  1.00  0.00     0.005 C 
ATOM      9  C   UNL     1      84.667  72.489  14.738  1.00  0.00     0.002 C 
ATOM     10  C   UNL     1      85.177  73.862  14.021  1.00  0.00    -0.026 C 
ATOM     11  C   UNL     1      84.241  75.039  14.429  1.00  0.00     0.010 C 
ATOM     12  C   UNL     1      84.720  76.406  13.902  1.00  0.00     0.033 C 
ATOM     13  C   UNL     1      86.129  76.766  14.414  1.00  0.00     0.120 C 
ATOM     14  C   UNL     1      87.203  75.666  14.092  1.00  0.00    -0.006 C 
ATOM     15  C   UNL     1      86.624  74.248  14.506  1.00  0.00     0.003 C 
ATOM     16  C   UNL     1      87.553  73.055  14.307  1.00  0.00     0.005 C 
ATOM     17  C   UNL     1      87.181  71.902  15.257  1.00  0.00     0.008 C 
ATOM     18  C   UNL     1      85.687  71.782  15.767  1.00  0.00    -0.024 C 
ATOM     19  C   UNL     1      85.317  70.207  15.989  1.00  0.00    -0.024 C 
ATOM     20  C   UNL     1      86.211  69.479  17.051  1.00  0.00     0.008 C 
ATOM     21  C   UNL     1      87.565  68.972  16.600  1.00  0.00     0.007 C 
ATOM     22  C   UNL     1      83.875  70.090  16.639  1.00  0.00     0.012 C 
ATOM     23  C   UNL     1      85.564  72.527  17.152  1.00  0.00     0.012 C 
ATOM     24  C   UNL     1      87.656  75.766  12.604  1.00  0.00     0.014 C 
ATOM     25  C   UNL     1      88.468  75.983  14.946  1.00  0.00     0.014 C 
ATOM     26  C   UNL     1      85.115  73.741  12.460  1.00  0.00     0.012 C 
ATOM     27  C   UNL     1      88.973  67.884  14.879  1.00  0.00     0.011 C 
ENDROOT
BRANCH   1  28
ATOM     28  C   UNL     1      85.186  67.258  12.395  1.00  0.00    -0.077 C 
ATOM     29  C   UNL     1      85.619  67.677  11.013  1.00  0.00     0.039 C 
ATOM     30  C   UNL     1      83.891  66.939  12.577  1.00  0.00     0.008 C 
ENDBRANCH   1  28
BRANCH  13  31
ATOM     31  O   UNL     1      86.053  76.985  15.805  1.00  0.00    -0.393 OA
ATOM     32  H   UNL     1      86.638  77.758  16.014  1.00  0.00     0.210 HD
ENDBRANCH  13  31
TORSDOF 2
ENDMDL
MODEL 6
REMARK VINA RESULT:    -4.159      3.391      7.173
REMARK INTER + INTRA:          -4.935
REMARK INTER:                  -4.515
REMARK INTRA:                  -0.420
REMARK UNBOUND:                -0.412
REMARK SMILES C=C(C)[C@@H]1CC[C@]2(C)CC[C@]3(C)[C@@H](CC[C@@H]4[C@@]5(C)CC[C@@H](O)C(C)(C)[C@@H]5CC[C@@]43C)[C@H]12
REMARK SMILES IDX 4 1 5 2 6 3 7 4 31 5 13 6 14 7 15 8 16 9 17 10 19 11 20 12
REMARK SMILES IDX 21 13 23 14 26 15 27 16 28 17 29 18 11 19 10 20 9 21 12 22
REMARK SMILES IDX 30 23 24 24 25 25 18 26 8 27 2 28 3 29 1 30 22 31
REMARK H PARENT 22 32
REMARK Flexibility Score: inf
ROOT
ATOM      1  C   UNL     1      86.348  73.001  21.132  1.00  0.00     0.018 C 
ATOM      2  C   UNL     1      86.713  74.482  21.074  1.00  0.00     0.009 C 
ATOM      3  C   UNL     1      87.981  74.548  20.223  1.00  0.00     0.008 C 
ATOM      4  C   UNL     1      88.144  73.163  19.531  1.00  0.00    -0.029 C 
ATOM      5  C   UNL     1      86.790  72.424  19.758  1.00  0.00     0.006 C 
ATOM      6  C   UNL     1      85.672  72.583  18.636  1.00  0.00    -0.000 C 
ATOM      7  C   UNL     1      84.740  71.335  18.680  1.00  0.00     0.005 C 
ATOM      8  C   UNL     1      83.875  71.198  17.438  1.00  0.00     0.005 C 
ATOM      9  C   UNL     1      84.727  70.853  16.167  1.00  0.00     0.002 C 
ATOM     10  C   UNL     1      84.723  69.284  15.724  1.00  0.00    -0.026 C 
ATOM     11  C   UNL     1      83.883  69.114  14.423  1.00  0.00     0.010 C 
ATOM     12  C   UNL     1      83.928  67.683  13.854  1.00  0.00     0.033 C 
ATOM     13  C   UNL     1      85.364  67.236  13.512  1.00  0.00     0.120 C 
ATOM     14  C   UNL     1      86.353  67.358  14.726  1.00  0.00    -0.006 C 
ATOM     15  C   UNL     1      86.179  68.789  15.387  1.00  0.00     0.003 C 
ATOM     16  C   UNL     1      87.099  69.106  16.561  1.00  0.00     0.005 C 
ATOM     17  C   UNL     1      87.293  70.625  16.716  1.00  0.00     0.008 C 
ATOM     18  C   UNL     1      86.156  71.598  16.198  1.00  0.00    -0.024 C 
ATOM     19  C   UNL     1      86.116  72.932  17.138  1.00  0.00    -0.024 C 
ATOM     20  C   UNL     1      87.447  73.761  17.140  1.00  0.00     0.008 C 
ATOM     21  C   UNL     1      88.562  73.297  18.055  1.00  0.00     0.007 C 
ATOM     22  C   UNL     1      85.083  73.973  16.535  1.00  0.00     0.012 C 
ATOM     23  C   UNL     1      86.501  72.035  14.721  1.00  0.00     0.012 C 
ATOM     24  C   UNL     1      86.156  66.165  15.709  1.00  0.00     0.014 C 
ATOM     25  C   UNL     1      87.801  67.214  14.164  1.00  0.00     0.014 C 
ATOM     26  C   UNL     1      84.060  68.388  16.824  1.00  0.00     0.012 C 
ATOM     27  C   UNL     1      89.294  72.386  20.236  1.00  0.00     0.011 C 
ENDROOT
BRANCH   1  28
ATOM     28  C   UNL     1      84.947  72.646  21.631  1.00  0.00    -0.077 C 
ATOM     29  C   UNL     1      84.716  71.287  22.240  1.00  0.00     0.039 C 
ATOM     30  C   UNL     1      83.902  73.491  21.569  1.00  0.00     0.008 C 
ENDBRANCH   1  28
BRANCH  13  31
ATOM     31  O   UNL     1      85.821  68.011  12.425  1.00  0.00    -0.393 OA
ATOM     32  H   UNL     1      86.683  67.621  12.128  1.00  0.00     0.210 HD
ENDBRANCH  13  31
TORSDOF 2
ENDMDL
