MODEL 1
REMARK VINA RESULT:    -3.503      0.000      0.000
REMARK INTER + INTRA:          -4.431
REMARK INTER:                  -4.322
REMARK INTRA:                  -0.109
REMARK UNBOUND:                -0.109
REMARK SMILES CCCCCC(=O)[O-]
REMARK SMILES IDX 4 1 5 2 6 3 7 4 8 5 3 6 2 7 1 8
REMARK H PARENT
REMARK Flexibility Score: inf
ROOT
ATOM      1  C   UNL     1       6.936 -15.035  22.603  1.00  0.00     0.006 C 
ENDROOT
BRANCH   1   2
ATOM      2  C   UNL     1       6.860 -15.160  24.133  1.00  0.00     0.053 C 
BRANCH   2   3
ATOM      3  C   UNL     1       8.150 -14.778  24.793  1.00  0.00     0.041 C 
ATOM      4  O   UNL     1       9.091 -14.294  24.111  1.00  0.00    -0.550 OA
ATOM      5  O   UNL     1       8.299 -14.927  26.166  1.00  0.00    -0.550 OA
ENDBRANCH   2   3
ENDBRANCH   1   2
BRANCH   1   6
ATOM      6  C   UNL     1       5.988 -13.979  22.006  1.00  0.00     0.000 C 
BRANCH   6   7
ATOM      7  C   UNL     1       5.940 -14.023  20.472  1.00  0.00    -0.003 C 
ATOM      8  C   UNL     1       6.789 -15.170  19.930  1.00  0.00     0.004 C 
ENDBRANCH   6   7
ENDBRANCH   1   6
TORSDOF 4
ENDMDL
MODEL 2
REMARK VINA RESULT:    -3.476      0.207      1.163
REMARK INTER + INTRA:          -4.399
REMARK INTER:                  -4.294
REMARK INTRA:                  -0.105
REMARK UNBOUND:                -0.109
REMARK SMILES CCCCCC(=O)[O-]
REMARK SMILES IDX 4 1 5 2 6 3 7 4 8 5 3 6 2 7 1 8
REMARK H PARENT
REMARK Flexibility Score: inf
ROOT
ATOM      1  C   UNL     1       6.974 -15.030  22.689  1.00  0.00     0.006 C 
ENDROOT
BRANCH   1   2
ATOM      2  C   UNL     1       6.876 -15.154  24.218  1.00  0.00     0.053 C 
BRANCH   2   3
ATOM      3  C   UNL     1       8.151 -14.758  24.896  1.00  0.00     0.041 C 
ATOM      4  O   UNL     1       8.278 -14.903  26.140  1.00  0.00    -0.550 OA
ATOM      5  O   UNL     1       9.211 -14.260  24.149  1.00  0.00    -0.550 OA
ENDBRANCH   2   3
ENDBRANCH   1   2
BRANCH   1   6
ATOM      6  C   UNL     1       6.263 -13.794  22.107  1.00  0.00     0.000 C 
BRANCH   6   7
ATOM      7  C   UNL     1       5.716 -14.034  20.693  1.00  0.00    -0.003 C 
ATOM      8  C   UNL     1       6.654 -14.929  19.887  1.00  0.00     0.004 C 
ENDBRANCH   6   7
ENDBRANCH   1   6
TORSDOF 4
ENDMDL
MODEL 3
REMARK VINA RESULT:    -3.470      1.946      2.156
REMARK INTER + INTRA:          -4.391
REMARK INTER:                  -4.344
REMARK INTRA:                  -0.047
REMARK UNBOUND:                -0.109
REMARK SMILES CCCCCC(=O)[O-]
REMARK SMILES IDX 4 1 5 2 6 3 7 4 8 5 3 6 2 7 1 8
REMARK H PARENT
REMARK Flexibility Score: inf
ROOT
ATOM      1  C   UNL     1       6.801 -14.963  22.771  1.00  0.00     0.006 C 
ENDROOT
BRANCH   1   2
ATOM      2  C   UNL     1       5.898 -15.409  23.933  1.00  0.00     0.053 C 
BRANCH   2   3
ATOM      3  C   UNL     1       6.356 -16.702  24.535  1.00  0.00     0.041 C 
ATOM      4  O   UNL     1       6.546 -17.709  23.805  1.00  0.00    -0.550 OA
ATOM      5  O   UNL     1       6.603 -16.784  25.900  1.00  0.00    -0.550 OA
ENDBRANCH   2   3
ENDBRANCH   1   2
BRANCH   1   6
ATOM      6  C   UNL     1       6.100 -14.066  21.734  1.00  0.00     0.000 C 
BRANCH   6   7
ATOM      7  C   UNL     1       6.300 -14.558  20.292  1.00  0.00    -0.003 C 
ATOM      8  C   UNL     1       6.070 -13.429  19.291  1.00  0.00     0.004 C 
ENDBRANCH   6   7
ENDBRANCH   1   6
TORSDOF 4
ENDMDL
MODEL 4
REMARK VINA RESULT:    -3.455      1.492      2.194
REMARK INTER + INTRA:          -4.373
REMARK INTER:                  -4.321
REMARK INTRA:                  -0.052
REMARK UNBOUND:                -0.109
REMARK SMILES CCCCCC(=O)[O-]
REMARK SMILES IDX 4 1 5 2 6 3 7 4 8 5 3 6 2 7 1 8
REMARK H PARENT
REMARK Flexibility Score: inf
ROOT
ATOM      1  C   UNL     1       7.039 -15.013  24.017  1.00  0.00     0.006 C 
ENDROOT
BRANCH   1   2
ATOM      2  C   UNL     1       6.416 -16.239  24.706  1.00  0.00     0.053 C 
BRANCH   2   3
ATOM      3  C   UNL     1       7.118 -16.582  25.983  1.00  0.00     0.041 C 
ATOM      4  O   UNL     1       7.040 -17.747  26.455  1.00  0.00    -0.550 OA
ATOM      5  O   UNL     1       7.884 -15.625  26.635  1.00  0.00    -0.550 OA
ENDBRANCH   2   3
ENDBRANCH   1   2
BRANCH   1   6
ATOM      6  C   UNL     1       6.957 -15.041  22.480  1.00  0.00     0.000 C 
BRANCH   6   7
ATOM      7  C   UNL     1       5.929 -14.047  21.922  1.00  0.00    -0.003 C 
ATOM      8  C   UNL     1       5.901 -14.085  20.396  1.00  0.00     0.004 C 
ENDBRANCH   6   7
ENDBRANCH   1   6
TORSDOF 4
ENDMDL
MODEL 5
REMARK VINA RESULT:    -3.280      1.748      2.583
REMARK INTER + INTRA:          -4.156
REMARK INTER:                  -4.059
REMARK INTRA:                  -0.097
REMARK UNBOUND:                -0.109
REMARK SMILES CCCCCC(=O)[O-]
REMARK SMILES IDX 4 1 5 2 6 3 7 4 8 5 3 6 2 7 1 8
REMARK H PARENT
REMARK Flexibility Score: inf
ROOT
ATOM      1  C   UNL     1       6.110 -14.415  20.347  1.00  0.00     0.006 C 
ENDROOT
BRANCH   1   2
ATOM      2  C   UNL     1       6.013 -13.913  21.797  1.00  0.00     0.053 C 
BRANCH   2   3
ATOM      3  C   UNL     1       6.885 -14.702  22.724  1.00  0.00     0.041 C 
ATOM      4  O   UNL     1       7.406 -15.781  22.340  1.00  0.00    -0.550 OA
ATOM      5  O   UNL     1       7.150 -14.227  24.003  1.00  0.00    -0.550 OA
ENDBRANCH   2   3
ENDBRANCH   1   2
BRANCH   1   6
ATOM      6  C   UNL     1       6.024 -13.303  19.285  1.00  0.00     0.000 C 
BRANCH   6   7
ATOM      7  C   UNL     1       6.652 -13.713  17.945  1.00  0.00    -0.003 C 
ATOM      8  C   UNL     1       7.644 -14.857  18.131  1.00  0.00     0.004 C 
ENDBRANCH   6   7
ENDBRANCH   1   6
TORSDOF 4
ENDMDL
MODEL 6
REMARK VINA RESULT:    -3.238      3.556      5.041
REMARK INTER + INTRA:          -4.105
REMARK INTER:                  -3.941
REMARK INTRA:                  -0.164
REMARK UNBOUND:                -0.109
REMARK SMILES CCCCCC(=O)[O-]
REMARK SMILES IDX 4 1 5 2 6 3 7 4 8 5 3 6 2 7 1 8
REMARK H PARENT
REMARK Flexibility Score: inf
ROOT
ATOM      1  C   UNL     1       5.759 -14.202  20.648  1.00  0.00     0.006 C 
ENDROOT
BRANCH   1   2
ATOM      2  C   UNL     1       6.107 -13.266  19.479  1.00  0.00     0.053 C 
BRANCH   2   3
ATOM      3  C   UNL     1       6.720 -14.006  18.330  1.00  0.00     0.041 C 
ATOM      4  O   UNL     1       6.354 -13.762  17.151  1.00  0.00    -0.550 OA
ATOM      5  O   UNL     1       7.720 -14.943  18.560  1.00  0.00    -0.550 OA
ENDBRANCH   2   3
ENDBRANCH   1   2
BRANCH   1   6
ATOM      6  C   UNL     1       6.191 -13.677  22.029  1.00  0.00     0.000 C 
BRANCH   6   7
ATOM      7  C   UNL     1       6.840 -14.762  22.900  1.00  0.00    -0.003 C 
ATOM      8  C   UNL     1       7.496 -15.838  22.039  1.00  0.00     0.004 C 
ENDBRANCH   6   7
ENDBRANCH   1   6
TORSDOF 4
ENDMDL
MODEL 7
REMARK VINA RESULT:    -3.171      2.704      3.770
REMARK INTER + INTRA:          -4.022
REMARK INTER:                  -3.779
REMARK INTRA:                  -0.243
REMARK UNBOUND:                -0.109
REMARK SMILES CCCCCC(=O)[O-]
REMARK SMILES IDX 4 1 5 2 6 3 7 4 8 5 3 6 2 7 1 8
REMARK H PARENT
REMARK Flexibility Score: inf
ROOT
ATOM      1  C   UNL     1       7.199 -14.571  23.669  1.00  0.00     0.006 C 
ENDROOT
BRANCH   1   2
ATOM      2  C   UNL     1       6.108 -15.582  24.058  1.00  0.00     0.053 C 
BRANCH   2   3
ATOM      3  C   UNL     1       6.669 -16.952  24.289  1.00  0.00     0.041 C 
ATOM      4  O   UNL     1       7.030 -17.661  23.315  1.00  0.00    -0.550 OA
ATOM      5  O   UNL     1       6.824 -17.430  25.584  1.00  0.00    -0.550 OA
ENDBRANCH   2   3
ENDBRANCH   1   2
BRANCH   1   6
ATOM      6  C   UNL     1       8.285 -14.368  24.741  1.00  0.00     0.000 C 
BRANCH   6   7
ATOM      7  C   UNL     1       9.698 -14.662  24.217  1.00  0.00    -0.003 C 
ATOM      8  C   UNL     1      10.308 -15.866  24.929  1.00  0.00     0.004 C 
ENDBRANCH   6   7
ENDBRANCH   1   6
TORSDOF 4
ENDMDL
MODEL 8
REMARK VINA RESULT:    -3.140      2.260      2.785
REMARK INTER + INTRA:          -3.984
REMARK INTER:                  -3.757
REMARK INTRA:                  -0.227
REMARK UNBOUND:                -0.109
REMARK SMILES CCCCCC(=O)[O-]
REMARK SMILES IDX 4 1 5 2 6 3 7 4 8 5 3 6 2 7 1 8
REMARK H PARENT
REMARK Flexibility Score: inf
ROOT
ATOM      1  C   UNL     1       7.344 -14.683  23.580  1.00  0.00     0.006 C 
ENDROOT
BRANCH   1   2
ATOM      2  C   UNL     1       8.311 -14.370  24.733  1.00  0.00     0.053 C 
BRANCH   2   3
ATOM      3  C   UNL     1       9.668 -14.959  24.504  1.00  0.00     0.041 C 
ATOM      4  O   UNL     1      10.544 -14.309  23.876  1.00  0.00    -0.550 OA
ATOM      5  O   UNL     1       9.976 -16.215  25.013  1.00  0.00    -0.550 OA
ENDBRANCH   2   3
ENDBRANCH   1   2
BRANCH   1   6
ATOM      6  C   UNL     1       6.080 -15.453  24.006  1.00  0.00     0.000 C 
BRANCH   6   7
ATOM      7  C   UNL     1       6.372 -16.914  24.376  1.00  0.00    -0.003 C 
ATOM      8  C   UNL     1       7.185 -17.605  23.284  1.00  0.00     0.004 C 
ENDBRANCH   6   7
ENDBRANCH   1   6
TORSDOF 4
ENDMDL
MODEL 9
REMARK VINA RESULT:    -3.079      4.225      5.653
REMARK INTER + INTRA:          -3.908
REMARK INTER:                  -3.739
REMARK INTRA:                  -0.169
REMARK UNBOUND:                -0.109
REMARK SMILES CCCCCC(=O)[O-]
REMARK SMILES IDX 4 1 5 2 6 3 7 4 8 5 3 6 2 7 1 8
REMARK H PARENT
REMARK Flexibility Score: inf
ROOT
ATOM      1  C   UNL     1       7.676 -18.266  25.979  1.00  0.00     0.006 C 
ENDROOT
BRANCH   1   2
ATOM      2  C   UNL     1       6.881 -16.952  25.896  1.00  0.00     0.053 C 
BRANCH   2   3
ATOM      3  C   UNL     1       6.423 -16.661  24.501  1.00  0.00     0.041 C 
ATOM      4  O   UNL     1       5.804 -15.594  24.247  1.00  0.00    -0.550 OA
ATOM      5  O   UNL     1       6.708 -17.552  23.474  1.00  0.00    -0.550 OA
ENDBRANCH   2   3
ENDBRANCH   1   2
BRANCH   1   6
ATOM      6  C   UNL     1       7.081 -19.305  26.947  1.00  0.00     0.000 C 
BRANCH   6   7
ATOM      7  C   UNL     1       7.089 -20.728  26.369  1.00  0.00    -0.003 C 
ATOM      8  C   UNL     1       7.522 -20.723  24.906  1.00  0.00     0.004 C 
ENDBRANCH   6   7
ENDBRANCH   1   6
TORSDOF 4
ENDMDL
