MODEL 1
REMARK VINA RESULT:    -2.672      0.000      0.000
REMARK INTER + INTRA:          -3.242
REMARK INTER:                  -3.141
REMARK INTRA:                  -0.101
REMARK UNBOUND:                -0.101
REMARK SMILES CCCCC(=O)[O-]
REMARK SMILES IDX 4 1 5 2 6 3 7 4 3 5 2 6 1 7
REMARK H PARENT
REMARK Flexibility Score: inf
ROOT
ATOM      1  C   UNL     1       7.652  11.997  13.552  1.00  0.00     0.053 C 
ENDROOT
BRANCH   1   2
ATOM      2  C   UNL     1       6.726  11.974  14.727  1.00  0.00     0.041 C 
ATOM      3  O   UNL     1       7.072  11.401  15.794  1.00  0.00    -0.550 OA
ATOM      4  O   UNL     1       5.502  12.628  14.661  1.00  0.00    -0.550 OA
ENDBRANCH   1   2
BRANCH   1   5
ATOM      5  C   UNL     1       6.879  11.720  12.256  1.00  0.00     0.006 C 
BRANCH   5   6
ATOM      6  C   UNL     1       7.028  12.850  11.227  1.00  0.00    -0.003 C 
ATOM      7  C   UNL     1       5.813  13.776  11.185  1.00  0.00     0.004 C 
ENDBRANCH   5   6
ENDBRANCH   1   5
TORSDOF 3
ENDMDL
MODEL 2
REMARK VINA RESULT:    -2.669      5.466      6.570
REMARK INTER + INTRA:          -3.238
REMARK INTER:                  -3.202
REMARK INTRA:                  -0.037
REMARK UNBOUND:                -0.101
REMARK SMILES CCCCC(=O)[O-]
REMARK SMILES IDX 4 1 5 2 6 3 7 4 3 5 2 6 1 7
REMARK H PARENT
REMARK Flexibility Score: inf
ROOT
ATOM      1  C   UNL     1       2.226  14.841  10.812  1.00  0.00     0.053 C 
ENDROOT
BRANCH   1   2
ATOM      2  C   UNL     1       1.551  15.237   9.537  1.00  0.00     0.041 C 
ATOM      3  O   UNL     1       1.207  16.433   9.347  1.00  0.00    -0.550 OA
ATOM      4  O   UNL     1       1.346  14.294   8.537  1.00  0.00    -0.550 OA
ENDBRANCH   1   2
BRANCH   1   5
ATOM      5  C   UNL     1       3.391  13.884  10.525  1.00  0.00     0.006 C 
BRANCH   5   6
ATOM      6  C   UNL     1       4.528  14.016  11.550  1.00  0.00    -0.003 C 
ATOM      7  C   UNL     1       4.186  14.971  12.694  1.00  0.00     0.004 C 
ENDBRANCH   5   6
ENDBRANCH   1   5
TORSDOF 3
ENDMDL
MODEL 3
REMARK VINA RESULT:    -2.660      2.703      3.671
REMARK INTER + INTRA:          -3.228
REMARK INTER:                  -3.157
REMARK INTRA:                  -0.070
REMARK UNBOUND:                -0.101
REMARK SMILES CCCCC(=O)[O-]
REMARK SMILES IDX 4 1 5 2 6 3 7 4 3 5 2 6 1 7
REMARK H PARENT
REMARK Flexibility Score: inf
ROOT
ATOM      1  C   UNL     1       6.013  13.855  11.093  1.00  0.00     0.053 C 
ENDROOT
BRANCH   1   2
ATOM      2  C   UNL     1       6.837  12.611  11.196  1.00  0.00     0.041 C 
ATOM      3  O   UNL     1       8.074  12.648  10.960  1.00  0.00    -0.550 OA
ATOM      4  O   UNL     1       6.249  11.419  11.603  1.00  0.00    -0.550 OA
ENDBRANCH   1   2
BRANCH   1   5
ATOM      5  C   UNL     1       4.584  13.515  10.651  1.00  0.00     0.006 C 
BRANCH   5   6
ATOM      6  C   UNL     1       3.520  14.244  11.485  1.00  0.00    -0.003 C 
ATOM      7  C   UNL     1       4.110  14.964  12.698  1.00  0.00     0.004 C 
ENDBRANCH   5   6
ENDBRANCH   1   5
TORSDOF 3
ENDMDL
MODEL 4
REMARK VINA RESULT:    -2.642      2.740      3.430
REMARK INTER + INTRA:          -3.207
REMARK INTER:                  -3.136
REMARK INTRA:                  -0.071
REMARK UNBOUND:                -0.101
REMARK SMILES CCCCC(=O)[O-]
REMARK SMILES IDX 4 1 5 2 6 3 7 4 3 5 2 6 1 7
REMARK H PARENT
REMARK Flexibility Score: inf
ROOT
ATOM      1  C   UNL     1       6.224  12.863  12.098  1.00  0.00     0.053 C 
ENDROOT
BRANCH   1   2
ATOM      2  C   UNL     1       5.990  11.561  11.399  1.00  0.00     0.041 C 
ATOM      3  O   UNL     1       6.891  10.680  11.381  1.00  0.00    -0.550 OA
ATOM      4  O   UNL     1       4.760  11.299  10.809  1.00  0.00    -0.550 OA
ENDBRANCH   1   2
BRANCH   1   5
ATOM      5  C   UNL     1       5.416  13.982  11.428  1.00  0.00     0.006 C 
BRANCH   5   6
ATOM      6  C   UNL     1       4.456  14.680  12.402  1.00  0.00    -0.003 C 
ATOM      7  C   UNL     1       3.019  14.731  11.883  1.00  0.00     0.004 C 
ENDBRANCH   5   6
ENDBRANCH   1   5
TORSDOF 3
ENDMDL
MODEL 5
REMARK VINA RESULT:    -2.641      3.025      3.770
REMARK INTER + INTRA:          -3.205
REMARK INTER:                  -3.157
REMARK INTRA:                  -0.048
REMARK UNBOUND:                -0.101
REMARK SMILES CCCCC(=O)[O-]
REMARK SMILES IDX 4 1 5 2 6 3 7 4 3 5 2 6 1 7
REMARK H PARENT
REMARK Flexibility Score: inf
ROOT
ATOM      1  C   UNL     1       6.977  12.842  11.254  1.00  0.00     0.053 C 
ENDROOT
BRANCH   1   2
ATOM      2  C   UNL     1       6.605  11.479  10.760  1.00  0.00     0.041 C 
ATOM      3  O   UNL     1       5.647  11.336   9.956  1.00  0.00    -0.550 OA
ATOM      4  O   UNL     1       7.349  10.372  11.149  1.00  0.00    -0.550 OA
ENDBRANCH   1   2
BRANCH   1   5
ATOM      5  C   UNL     1       5.774  13.790  11.161  1.00  0.00     0.006 C 
BRANCH   5   6
ATOM      6  C   UNL     1       4.908  13.768  12.429  1.00  0.00    -0.003 C 
ATOM      7  C   UNL     1       4.159  15.080  12.657  1.00  0.00     0.004 C 
ENDBRANCH   5   6
ENDBRANCH   1   5
TORSDOF 3
ENDMDL
MODEL 6
REMARK VINA RESULT:    -2.626      4.517      6.010
REMARK INTER + INTRA:          -3.187
REMARK INTER:                  -3.167
REMARK INTRA:                  -0.021
REMARK UNBOUND:                -0.101
REMARK SMILES CCCCC(=O)[O-]
REMARK SMILES IDX 4 1 5 2 6 3 7 4 3 5 2 6 1 7
REMARK H PARENT
REMARK Flexibility Score: inf
ROOT
ATOM      1  C   UNL     1       2.736  13.857   9.407  1.00  0.00     0.053 C 
ENDROOT
BRANCH   1   2
ATOM      2  C   UNL     1       3.784  13.210  10.258  1.00  0.00     0.041 C 
ATOM      3  O   UNL     1       4.580  13.918  10.929  1.00  0.00    -0.550 OA
ATOM      4  O   UNL     1       3.849  11.826  10.349  1.00  0.00    -0.550 OA
ENDBRANCH   1   2
BRANCH   1   5
ATOM      5  C   UNL     1       1.954  14.897  10.220  1.00  0.00     0.006 C 
BRANCH   5   6
ATOM      6  C   UNL     1       1.169  15.871   9.330  1.00  0.00    -0.003 C 
ATOM      7  C   UNL     1       1.434  17.335   9.677  1.00  0.00     0.004 C 
ENDBRANCH   5   6
ENDBRANCH   1   5
TORSDOF 3
ENDMDL
MODEL 7
REMARK VINA RESULT:    -2.613      5.360      6.752
REMARK INTER + INTRA:          -3.172
REMARK INTER:                  -3.147
REMARK INTRA:                  -0.025
REMARK UNBOUND:                -0.101
REMARK SMILES CCCCC(=O)[O-]
REMARK SMILES IDX 4 1 5 2 6 3 7 4 3 5 2 6 1 7
REMARK H PARENT
REMARK Flexibility Score: inf
ROOT
ATOM      1  C   UNL     1       3.431  13.243   8.507  1.00  0.00     0.053 C 
ENDROOT
BRANCH   1   2
ATOM      2  C   UNL     1       2.328  13.974   7.808  1.00  0.00     0.041 C 
ATOM      3  O   UNL     1       1.537  14.703   8.462  1.00  0.00    -0.550 OA
ATOM      4  O   UNL     1       2.204  13.889   6.427  1.00  0.00    -0.550 OA
ENDBRANCH   1   2
BRANCH   1   5
ATOM      5  C   UNL     1       3.440  13.592  10.001  1.00  0.00     0.006 C 
BRANCH   5   6
ATOM      6  C   UNL     1       4.844  13.506  10.618  1.00  0.00    -0.003 C 
ATOM      7  C   UNL     1       4.938  14.202  11.975  1.00  0.00     0.004 C 
ENDBRANCH   5   6
ENDBRANCH   1   5
TORSDOF 3
ENDMDL
MODEL 8
REMARK VINA RESULT:    -2.613      5.165      6.316
REMARK INTER + INTRA:          -3.172
REMARK INTER:                  -3.070
REMARK INTRA:                  -0.102
REMARK UNBOUND:                -0.101
REMARK SMILES CCCCC(=O)[O-]
REMARK SMILES IDX 4 1 5 2 6 3 7 4 3 5 2 6 1 7
REMARK H PARENT
REMARK Flexibility Score: inf
ROOT
ATOM      1  C   UNL     1       3.383  12.913   7.833  1.00  0.00     0.053 C 
ENDROOT
BRANCH   1   2
ATOM      2  C   UNL     1       3.711  12.672   9.273  1.00  0.00     0.041 C 
ATOM      3  O   UNL     1       3.292  11.636   9.854  1.00  0.00    -0.550 OA
ATOM      4  O   UNL     1       4.522  13.566   9.961  1.00  0.00    -0.550 OA
ENDBRANCH   1   2
BRANCH   1   5
ATOM      5  C   UNL     1       2.586  14.214   7.677  1.00  0.00     0.006 C 
BRANCH   5   6
ATOM      6  C   UNL     1       1.389  14.291   8.637  1.00  0.00    -0.003 C 
ATOM      7  C   UNL     1       1.220  15.674   9.263  1.00  0.00     0.004 C 
ENDBRANCH   5   6
ENDBRANCH   1   5
TORSDOF 3
ENDMDL
MODEL 9
REMARK VINA RESULT:    -2.566      3.765      4.587
REMARK INTER + INTRA:          -3.117
REMARK INTER:                  -3.016
REMARK INTRA:                  -0.101
REMARK UNBOUND:                -0.101
REMARK SMILES CCCCC(=O)[O-]
REMARK SMILES IDX 4 1 5 2 6 3 7 4 3 5 2 6 1 7
REMARK H PARENT
REMARK Flexibility Score: inf
ROOT
ATOM      1  C   UNL     1       4.427  13.398  10.136  1.00  0.00     0.053 C 
ENDROOT
BRANCH   1   2
ATOM      2  C   UNL     1       4.454  11.902  10.112  1.00  0.00     0.041 C 
ATOM      3  O   UNL     1       3.737  11.243  10.911  1.00  0.00    -0.550 OA
ATOM      4  O   UNL     1       5.233  11.235   9.175  1.00  0.00    -0.550 OA
ENDBRANCH   1   2
BRANCH   1   5
ATOM      5  C   UNL     1       5.261  13.929  11.309  1.00  0.00     0.006 C 
BRANCH   5   6
ATOM      6  C   UNL     1       4.413  14.691  12.338  1.00  0.00    -0.003 C 
ATOM      7  C   UNL     1       2.958  14.857  11.899  1.00  0.00     0.004 C 
ENDBRANCH   5   6
ENDBRANCH   1   5
TORSDOF 3
ENDMDL
