MODEL 1
REMARK VINA RESULT:    -5.180      0.000      0.000
REMARK INTER + INTRA:          -5.652
REMARK INTER:                  -5.483
REMARK INTRA:                  -0.169
REMARK UNBOUND:                -0.169
REMARK SMILES C=C(C)[C@@H]1CC[C@@]2(C)CCCC(=C)[C@@H]2C1
REMARK SMILES IDX 4 1 5 2 6 3 7 4 9 5 10 6 11 7 12 8 13 9 14 10 15 11 8 12
REMARK SMILES IDX 2 13 3 14 1 15
REMARK H PARENT
REMARK Flexibility Score: inf
ROOT
ATOM      1  C   UNL     1      21.677  63.176  18.658  1.00  0.00     0.015 C 
ATOM      2  C   UNL     1      23.041  63.285  17.947  1.00  0.00     0.008 C 
ATOM      3  C   UNL     1      22.954  62.836  16.477  1.00  0.00     0.008 C 
ATOM      4  C   UNL     1      21.842  63.574  15.676  1.00  0.00    -0.026 C 
ATOM      5  C   UNL     1      21.706  62.897  14.277  1.00  0.00     0.008 C 
ATOM      6  C   UNL     1      20.529  63.449  13.445  1.00  0.00     0.005 C 
ATOM      7  C   UNL     1      19.199  63.397  14.210  1.00  0.00     0.031 C 
ATOM      8  C   UNL     1      19.357  63.997  15.587  1.00  0.00    -0.074 C 
ATOM      9  C   UNL     1      18.544  64.989  15.994  1.00  0.00     0.008 C 
ATOM     10  C   UNL     1      20.487  63.423  16.431  1.00  0.00     0.021 C 
ATOM     11  C   UNL     1      20.572  63.931  17.888  1.00  0.00     0.016 C 
ATOM     12  C   UNL     1      22.242  65.065  15.482  1.00  0.00     0.012 C 
ENDROOT
BRANCH   1  13
ATOM     13  C   UNL     1      21.766  63.650  20.103  1.00  0.00    -0.077 C 
ATOM     14  C   UNL     1      20.889  64.776  20.585  1.00  0.00     0.039 C 
ATOM     15  C   UNL     1      22.620  63.083  20.973  1.00  0.00     0.008 C 
ENDBRANCH   1  13
TORSDOF 1
ENDMDL
MODEL 2
REMARK VINA RESULT:    -4.890      1.154      5.359
REMARK INTER + INTRA:          -5.345
REMARK INTER:                  -5.173
REMARK INTRA:                  -0.172
REMARK UNBOUND:                -0.169
REMARK SMILES C=C(C)[C@@H]1CC[C@@]2(C)CCCC(=C)[C@@H]2C1
REMARK SMILES IDX 4 1 5 2 6 3 7 4 9 5 10 6 11 7 12 8 13 9 14 10 15 11 8 12
REMARK SMILES IDX 2 13 3 14 1 15
REMARK H PARENT
REMARK Flexibility Score: inf
ROOT
ATOM      1  C   UNL     1      20.260  63.385  16.089  1.00  0.00     0.015 C 
ATOM      2  C   UNL     1      19.590  64.756  16.317  1.00  0.00     0.008 C 
ATOM      3  C   UNL     1      19.428  65.068  17.817  1.00  0.00     0.008 C 
ATOM      4  C   UNL     1      20.761  64.956  18.612  1.00  0.00    -0.026 C 
ATOM      5  C   UNL     1      20.442  65.083  20.134  1.00  0.00     0.008 C 
ATOM      6  C   UNL     1      21.670  64.839  21.036  1.00  0.00     0.005 C 
ATOM      7  C   UNL     1      22.360  63.502  20.732  1.00  0.00     0.031 C 
ATOM      8  C   UNL     1      22.607  63.359  19.248  1.00  0.00    -0.074 C 
ATOM      9  C   UNL     1      23.844  63.099  18.787  1.00  0.00     0.008 C 
ATOM     10  C   UNL     1      21.388  63.552  18.356  1.00  0.00     0.021 C 
ATOM     11  C   UNL     1      21.599  63.275  16.850  1.00  0.00     0.016 C 
ATOM     12  C   UNL     1      21.715  66.111  18.194  1.00  0.00     0.012 C 
ENDROOT
BRANCH   1  13
ATOM     13  C   UNL     1      20.442  63.098  14.605  1.00  0.00    -0.077 C 
ATOM     14  C   UNL     1      21.806  63.209  13.975  1.00  0.00     0.039 C 
ATOM     15  C   UNL     1      19.403  62.745  13.829  1.00  0.00     0.008 C 
ENDBRANCH   1  13
TORSDOF 1
ENDMDL
MODEL 3
REMARK VINA RESULT:    -4.797      1.685      3.795
REMARK INTER + INTRA:          -5.247
REMARK INTER:                  -5.082
REMARK INTRA:                  -0.165
REMARK UNBOUND:                -0.169
REMARK SMILES C=C(C)[C@@H]1CC[C@@]2(C)CCCC(=C)[C@@H]2C1
REMARK SMILES IDX 4 1 5 2 6 3 7 4 9 5 10 6 11 7 12 8 13 9 14 10 15 11 8 12
REMARK SMILES IDX 2 13 3 14 1 15
REMARK H PARENT
REMARK Flexibility Score: inf
ROOT
ATOM      1  C   UNL     1      20.555  63.207  16.395  1.00  0.00     0.015 C 
ATOM      2  C   UNL     1      20.547  63.401  14.865  1.00  0.00     0.008 C 
ATOM      3  C   UNL     1      19.113  63.478  14.309  1.00  0.00     0.008 C 
ATOM      4  C   UNL     1      18.239  64.554  15.016  1.00  0.00    -0.026 C 
ATOM      5  C   UNL     1      16.767  64.399  14.525  1.00  0.00     0.008 C 
ATOM      6  C   UNL     1      15.776  65.318  15.269  1.00  0.00     0.005 C 
ATOM      7  C   UNL     1      15.864  65.156  16.793  1.00  0.00     0.031 C 
ATOM      8  C   UNL     1      17.300  65.244  17.253  1.00  0.00    -0.074 C 
ATOM      9  C   UNL     1      17.656  66.124  18.206  1.00  0.00     0.008 C 
ATOM     10  C   UNL     1      18.274  64.305  16.555  1.00  0.00     0.021 C 
ATOM     11  C   UNL     1      19.717  64.287  17.109  1.00  0.00     0.016 C 
ATOM     12  C   UNL     1      18.754  65.973  14.640  1.00  0.00     0.012 C 
ENDROOT
BRANCH   1  13
ATOM     13  C   UNL     1      21.977  63.161  16.939  1.00  0.00    -0.077 C 
ATOM     14  C   UNL     1      23.150  63.271  15.999  1.00  0.00     0.039 C 
ATOM     15  C   UNL     1      22.218  63.022  18.254  1.00  0.00     0.008 C 
ENDBRANCH   1  13
TORSDOF 1
ENDMDL
MODEL 4
REMARK VINA RESULT:    -4.774      1.633      4.132
REMARK INTER + INTRA:          -5.222
REMARK INTER:                  -5.052
REMARK INTRA:                  -0.170
REMARK UNBOUND:                -0.169
REMARK SMILES C=C(C)[C@@H]1CC[C@@]2(C)CCCC(=C)[C@@H]2C1
REMARK SMILES IDX 4 1 5 2 6 3 7 4 9 5 10 6 11 7 12 8 13 9 14 10 15 11 8 12
REMARK SMILES IDX 2 13 3 14 1 15
REMARK H PARENT
REMARK Flexibility Score: inf
ROOT
ATOM      1  C   UNL     1      20.123  63.665  16.503  1.00  0.00     0.015 C 
ATOM      2  C   UNL     1      20.737  63.685  17.918  1.00  0.00     0.008 C 
ATOM      3  C   UNL     1      21.899  62.683  18.048  1.00  0.00     0.008 C 
ATOM      4  C   UNL     1      22.994  62.872  16.958  1.00  0.00    -0.026 C 
ATOM      5  C   UNL     1      24.001  61.684  17.057  1.00  0.00     0.008 C 
ATOM      6  C   UNL     1      25.053  61.682  15.928  1.00  0.00     0.005 C 
ATOM      7  C   UNL     1      24.412  61.741  14.534  1.00  0.00     0.031 C 
ATOM      8  C   UNL     1      23.391  62.852  14.467  1.00  0.00    -0.074 C 
ATOM      9  C   UNL     1      23.471  63.792  13.507  1.00  0.00     0.008 C 
ATOM     10  C   UNL     1      22.322  62.832  15.552  1.00  0.00     0.021 C 
ATOM     11  C   UNL     1      21.196  63.882  15.415  1.00  0.00     0.016 C 
ATOM     12  C   UNL     1      23.754  64.205  17.208  1.00  0.00     0.012 C 
ENDROOT
BRANCH   1  13
ATOM     13  C   UNL     1      18.994  64.679  16.375  1.00  0.00    -0.077 C 
ATOM     14  C   UNL     1      18.176  64.745  15.111  1.00  0.00     0.039 C 
ATOM     15  C   UNL     1      18.703  65.531  17.374  1.00  0.00     0.008 C 
ENDBRANCH   1  13
TORSDOF 1
ENDMDL
MODEL 5
REMARK VINA RESULT:    -4.768      1.950      4.196
REMARK INTER + INTRA:          -5.216
REMARK INTER:                  -5.049
REMARK INTRA:                  -0.167
REMARK UNBOUND:                -0.169
REMARK SMILES C=C(C)[C@@H]1CC[C@@]2(C)CCCC(=C)[C@@H]2C1
REMARK SMILES IDX 4 1 5 2 6 3 7 4 9 5 10 6 11 7 12 8 13 9 14 10 15 11 8 12
REMARK SMILES IDX 2 13 3 14 1 15
REMARK H PARENT
REMARK Flexibility Score: inf
ROOT
ATOM      1  C   UNL     1      23.511  62.831  14.822  1.00  0.00     0.015 C 
ATOM      2  C   UNL     1      23.691  63.203  16.307  1.00  0.00     0.008 C 
ATOM      3  C   UNL     1      22.829  64.418  16.698  1.00  0.00     0.008 C 
ATOM      4  C   UNL     1      21.324  64.239  16.344  1.00  0.00    -0.026 C 
ATOM      5  C   UNL     1      20.593  65.596  16.586  1.00  0.00     0.008 C 
ATOM      6  C   UNL     1      19.119  65.584  16.128  1.00  0.00     0.005 C 
ATOM      7  C   UNL     1      18.967  65.134  14.668  1.00  0.00     0.031 C 
ATOM      8  C   UNL     1      19.731  63.854  14.426  1.00  0.00    -0.074 C 
ATOM      9  C   UNL     1      19.112  62.780  13.902  1.00  0.00     0.008 C 
ATOM     10  C   UNL     1      21.198  63.875  14.833  1.00  0.00     0.021 C 
ATOM     11  C   UNL     1      22.023  62.621  14.466  1.00  0.00     0.016 C 
ATOM     12  C   UNL     1      20.698  63.152  17.263  1.00  0.00     0.012 C 
ENDROOT
BRANCH   1  13
ATOM     13  C   UNL     1      24.345  61.611  14.452  1.00  0.00    -0.077 C 
ATOM     14  C   UNL     1      25.064  60.833  15.523  1.00  0.00     0.039 C 
ATOM     15  C   UNL     1      24.461  61.205  13.176  1.00  0.00     0.008 C 
ENDBRANCH   1  13
TORSDOF 1
ENDMDL
MODEL 6
REMARK VINA RESULT:    -4.726      1.806      5.315
REMARK INTER + INTRA:          -5.172
REMARK INTER:                  -4.993
REMARK INTRA:                  -0.178
REMARK UNBOUND:                -0.169
REMARK SMILES C=C(C)[C@@H]1CC[C@@]2(C)CCCC(=C)[C@@H]2C1
REMARK SMILES IDX 4 1 5 2 6 3 7 4 9 5 10 6 11 7 12 8 13 9 14 10 15 11 8 12
REMARK SMILES IDX 2 13 3 14 1 15
REMARK H PARENT
REMARK Flexibility Score: inf
ROOT
ATOM      1  C   UNL     1      23.275  62.200  14.424  1.00  0.00     0.015 C 
ATOM      2  C   UNL     1      22.121  63.092  13.922  1.00  0.00     0.008 C 
ATOM      3  C   UNL     1      21.008  63.232  14.977  1.00  0.00     0.008 C 
ATOM      4  C   UNL     1      21.533  63.720  16.359  1.00  0.00    -0.026 C 
ATOM      5  C   UNL     1      20.370  63.621  17.393  1.00  0.00     0.008 C 
ATOM      6  C   UNL     1      20.811  63.939  18.838  1.00  0.00     0.005 C 
ATOM      7  C   UNL     1      22.010  63.089  19.281  1.00  0.00     0.031 C 
ATOM      8  C   UNL     1      23.106  63.138  18.243  1.00  0.00    -0.074 C 
ATOM      9  C   UNL     1      24.355  63.501  18.589  1.00  0.00     0.008 C 
ATOM     10  C   UNL     1      22.687  62.779  16.824  1.00  0.00     0.021 C 
ATOM     11  C   UNL     1      23.824  62.693  15.780  1.00  0.00     0.016 C 
ATOM     12  C   UNL     1      21.992  65.201  16.248  1.00  0.00     0.012 C 
ENDROOT
BRANCH   1  13
ATOM     13  C   UNL     1      24.383  62.092  13.386  1.00  0.00    -0.077 C 
ATOM     14  C   UNL     1      24.751  60.748  12.810  1.00  0.00     0.039 C 
ATOM     15  C   UNL     1      25.054  63.177  12.963  1.00  0.00     0.008 C 
ENDBRANCH   1  13
TORSDOF 1
ENDMDL
MODEL 7
REMARK VINA RESULT:    -4.697      2.062      4.898
REMARK INTER + INTRA:          -5.141
REMARK INTER:                  -4.971
REMARK INTRA:                  -0.170
REMARK UNBOUND:                -0.169
REMARK SMILES C=C(C)[C@@H]1CC[C@@]2(C)CCCC(=C)[C@@H]2C1
REMARK SMILES IDX 4 1 5 2 6 3 7 4 9 5 10 6 11 7 12 8 13 9 14 10 15 11 8 12
REMARK SMILES IDX 2 13 3 14 1 15
REMARK H PARENT
REMARK Flexibility Score: inf
ROOT
ATOM      1  C   UNL     1      17.258  64.702  15.777  1.00  0.00     0.015 C 
ATOM      2  C   UNL     1      17.819  65.108  17.155  1.00  0.00     0.008 C 
ATOM      3  C   UNL     1      19.106  64.335  17.496  1.00  0.00     0.008 C 
ATOM      4  C   UNL     1      20.197  64.444  16.391  1.00  0.00    -0.026 C 
ATOM      5  C   UNL     1      21.357  63.461  16.741  1.00  0.00     0.008 C 
ATOM      6  C   UNL     1      22.433  63.372  15.638  1.00  0.00     0.005 C 
ATOM      7  C   UNL     1      21.832  63.042  14.264  1.00  0.00     0.031 C 
ATOM      8  C   UNL     1      20.668  63.956  13.962  1.00  0.00    -0.074 C 
ATOM      9  C   UNL     1      20.645  64.673  12.823  1.00  0.00     0.008 C 
ATOM     10  C   UNL     1      19.580  64.012  15.025  1.00  0.00     0.021 C 
ATOM     11  C   UNL     1      18.323  64.836  14.668  1.00  0.00     0.016 C 
ATOM     12  C   UNL     1      20.754  65.895  16.351  1.00  0.00     0.012 C 
ENDROOT
BRANCH   1  13
ATOM     13  C   UNL     1      16.002  65.493  15.436  1.00  0.00    -0.077 C 
ATOM     14  C   UNL     1      14.875  65.589  16.432  1.00  0.00     0.039 C 
ATOM     15  C   UNL     1      15.868  66.117  14.253  1.00  0.00     0.008 C 
ENDBRANCH   1  13
TORSDOF 1
ENDMDL
MODEL 8
REMARK VINA RESULT:    -4.520      1.926      4.771
REMARK INTER + INTRA:          -4.954
REMARK INTER:                  -4.783
REMARK INTRA:                  -0.170
REMARK UNBOUND:                -0.169
REMARK SMILES C=C(C)[C@@H]1CC[C@@]2(C)CCCC(=C)[C@@H]2C1
REMARK SMILES IDX 4 1 5 2 6 3 7 4 9 5 10 6 11 7 12 8 13 9 14 10 15 11 8 12
REMARK SMILES IDX 2 13 3 14 1 15
REMARK H PARENT
REMARK Flexibility Score: inf
ROOT
ATOM      1  C   UNL     1      17.295  65.507  16.539  1.00  0.00     0.015 C 
ATOM      2  C   UNL     1      17.279  65.353  15.005  1.00  0.00     0.008 C 
ATOM      3  C   UNL     1      18.687  65.513  14.402  1.00  0.00     0.008 C 
ATOM      4  C   UNL     1      19.741  64.569  15.050  1.00  0.00    -0.026 C 
ATOM      5  C   UNL     1      21.153  64.962  14.517  1.00  0.00     0.008 C 
ATOM      6  C   UNL     1      22.300  64.190  15.203  1.00  0.00     0.005 C 
ATOM      7  C   UNL     1      22.242  64.299  16.733  1.00  0.00     0.031 C 
ATOM      8  C   UNL     1      20.854  63.979  17.235  1.00  0.00    -0.074 C 
ATOM      9  C   UNL     1      20.672  63.031  18.173  1.00  0.00     0.008 C 
ATOM     10  C   UNL     1      19.722  64.772  16.596  1.00  0.00     0.021 C 
ATOM     11  C   UNL     1      18.315  64.552  17.195  1.00  0.00     0.016 C 
ATOM     12  C   UNL     1      19.437  63.097  14.648  1.00  0.00     0.012 C 
ENDROOT
BRANCH   1  13
ATOM     13  C   UNL     1      15.903  65.319  17.129  1.00  0.00    -0.077 C 
ATOM     14  C   UNL     1      14.814  64.677  16.308  1.00  0.00     0.039 C 
ATOM     15  C   UNL     1      15.615  65.716  18.380  1.00  0.00     0.008 C 
ENDBRANCH   1  13
TORSDOF 1
ENDMDL
MODEL 9
REMARK VINA RESULT:    -4.385      1.366      4.812
REMARK INTER + INTRA:          -4.811
REMARK INTER:                  -4.639
REMARK INTRA:                  -0.172
REMARK UNBOUND:                -0.169
REMARK SMILES C=C(C)[C@@H]1CC[C@@]2(C)CCCC(=C)[C@@H]2C1
REMARK SMILES IDX 4 1 5 2 6 3 7 4 9 5 10 6 11 7 12 8 13 9 14 10 15 11 8 12
REMARK SMILES IDX 2 13 3 14 1 15
REMARK H PARENT
REMARK Flexibility Score: inf
ROOT
ATOM      1  C   UNL     1      20.972  63.976  15.260  1.00  0.00     0.015 C 
ATOM      2  C   UNL     1      22.104  63.140  14.628  1.00  0.00     0.008 C 
ATOM      3  C   UNL     1      23.478  63.498  15.225  1.00  0.00     0.008 C 
ATOM      4  C   UNL     1      23.512  63.406  16.778  1.00  0.00    -0.026 C 
ATOM      5  C   UNL     1      24.871  63.987  17.279  1.00  0.00     0.008 C 
ATOM      6  C   UNL     1      24.961  64.086  18.816  1.00  0.00     0.005 C 
ATOM      7  C   UNL     1      23.780  64.858  19.421  1.00  0.00     0.031 C 
ATOM      8  C   UNL     1      22.471  64.331  18.881  1.00  0.00    -0.074 C 
ATOM      9  C   UNL     1      21.502  63.927  19.723  1.00  0.00     0.008 C 
ATOM     10  C   UNL     1      22.358  64.276  17.364  1.00  0.00     0.021 C 
ATOM     11  C   UNL     1      20.978  63.868  16.799  1.00  0.00     0.016 C 
ATOM     12  C   UNL     1      23.404  61.917  17.214  1.00  0.00     0.012 C 
ENDROOT
BRANCH   1  13
ATOM     13  C   UNL     1      19.615  63.595  14.684  1.00  0.00    -0.077 C 
ATOM     14  C   UNL     1      18.402  64.439  14.983  1.00  0.00     0.039 C 
ATOM     15  C   UNL     1      19.466  62.511  13.905  1.00  0.00     0.008 C 
ENDBRANCH   1  13
TORSDOF 1
ENDMDL
