MODEL 1
REMARK VINA RESULT:    -4.531      0.000      0.000
REMARK INTER + INTRA:          -9.478
REMARK INTER:                  -7.842
REMARK INTRA:                  -1.636
REMARK UNBOUND:                -1.636
REMARK SMILES OC[C@@H]1O[C@@H](O[C@H]2[C@H](O)[C@H](O)[C@@H](O)O[C@H]2CO)[C@H](O)[C@@H](O)[C@H]1O[C@H]1O[C@H](CO)[C@H](O)[C@H](O)[C@@H]1O
REMARK SMILES IDX 22 1 3 2 4 3 5 4 18 5 20 6 23 7 24 8 26 9 29 10 25 11 31 12
REMARK SMILES IDX 33 13 27 14 28 15 30 17 32 19 34 21 2 23 1 24 21 26 19 28
REMARK SMILES IDX 6 30 7 31 15 32 8 33 14 34 10 35 12 36 16 37 17 38 9 40
REMARK SMILES IDX 11 42 13 44
REMARK H PARENT 28 16 30 18 32 20 34 22 1 25 21 27 19 29 17 39 9 41 11 43
REMARK H PARENT 13 45
REMARK Flexibility Score: inf
ROOT
ATOM      1  C   UNL     1       8.132   5.983   0.294  1.00  0.00     0.184 C 
ATOM      2  C   UNL     1       9.453   5.171   0.224  1.00  0.00     0.178 C 
ATOM      3  O   UNL     1      10.109   5.377  -1.018  1.00  0.00    -0.341 OA
ATOM      4  C   UNL     1       9.344   4.897  -2.113  1.00  0.00     0.282 C 
ATOM      5  C   UNL     1       8.019   5.670  -2.238  1.00  0.00     0.202 C 
ATOM      6  C   UNL     1       7.225   5.658  -0.918  1.00  0.00     0.180 C 
ENDROOT
BRANCH   1   7
ATOM      7  O   UNL     1       7.439   5.670   1.496  1.00  0.00    -0.341 OA
BRANCH   7   8
ATOM      8  C   UNL     1       6.620   6.744   1.932  1.00  0.00     0.282 C 
ATOM      9  C   UNL     1       6.724   6.094   4.192  1.00  0.00     0.178 C 
ATOM     10  C   UNL     1       7.561   7.326   4.617  1.00  0.00     0.177 C 
ATOM     11  O   UNL     1       5.875   6.397   3.095  1.00  0.00    -0.341 OA
ATOM     12  C   UNL     1       8.372   7.838   3.413  1.00  0.00     0.179 C 
ATOM     13  C   UNL     1       7.481   8.005   2.162  1.00  0.00     0.202 C 
BRANCH   9  14
ATOM     14  C   UNL     1       5.886   5.538   5.352  1.00  0.00     0.191 C 
BRANCH  14  15
ATOM     15  O   UNL     1       6.307   4.247   5.695  1.00  0.00    -0.394 OA
ATOM     16  H   UNL     1       6.703   3.859   4.872  1.00  0.00     0.210 HD
ENDBRANCH  14  15
ENDBRANCH   9  14
BRANCH  10  17
ATOM     17  O   UNL     1       6.774   8.351   5.182  1.00  0.00    -0.387 OA
ATOM     18  H   UNL     1       6.428   8.034   6.055  1.00  0.00     0.211 HD
ENDBRANCH  10  17
BRANCH  12  19
ATOM     19  O   UNL     1       9.008   9.047   3.741  1.00  0.00    -0.387 OA
ATOM     20  H   UNL     1       9.891   8.807   4.126  1.00  0.00     0.211 HD
ENDBRANCH  12  19
BRANCH  13  21
ATOM     21  O   UNL     1       6.638   9.124   2.287  1.00  0.00    -0.385 OA
ATOM     22  H   UNL     1       7.162   9.831   2.746  1.00  0.00     0.211 HD
ENDBRANCH  13  21
ENDBRANCH   7   8
ENDBRANCH   1   7
BRANCH   2  23
ATOM     23  C   UNL     1      10.422   5.595   1.337  1.00  0.00     0.191 C 
BRANCH  23  24
ATOM     24  O   UNL     1      10.152   4.890   2.518  1.00  0.00    -0.394 OA
ATOM     25  H   UNL     1      10.831   5.188   3.179  1.00  0.00     0.210 HD
ENDBRANCH  23  24
ENDBRANCH   2  23
BRANCH   6  26
ATOM     26  O   UNL     1       6.519   4.449  -0.761  1.00  0.00    -0.387 OA
ATOM     27  H   UNL     1       6.960   3.751  -1.305  1.00  0.00     0.211 HD
ENDBRANCH   6  26
BRANCH   5  28
ATOM     28  O   UNL     1       8.304   6.997  -2.605  1.00  0.00    -0.385 OA
ATOM     29  H   UNL     1       7.538   7.552  -2.305  1.00  0.00     0.211 HD
ENDBRANCH   5  28
BRANCH   4  30
ATOM     30  O   UNL     1       9.087   3.504  -1.988  1.00  0.00    -0.341 OA
BRANCH  30  31
ATOM     31  C   UNL     1       9.681   2.734  -3.022  1.00  0.00     0.184 C 
ATOM     32  C   UNL     1      10.647   1.693  -2.384  1.00  0.00     0.178 C 
ATOM     33  C   UNL     1      10.422   3.636  -4.043  1.00  0.00     0.180 C 
ATOM     34  O   UNL     1      11.382   0.891  -3.310  1.00  0.00    -0.342 OA
ATOM     35  C   UNL     1      11.563   2.868  -4.762  1.00  0.00     0.201 C 
ATOM     36  C   UNL     1      11.344   1.346  -4.656  1.00  0.00     0.279 C 
BRANCH  32  37
ATOM     37  C   UNL     1      11.630   2.336  -1.383  1.00  0.00     0.191 C 
BRANCH  37  38
ATOM     38  O   UNL     1      11.065   2.372  -0.100  1.00  0.00    -0.394 OA
ATOM     39  H   UNL     1      10.079   2.341  -0.223  1.00  0.00     0.210 HD
ENDBRANCH  37  38
ENDBRANCH  32  37
BRANCH  33  40
ATOM     40  O   UNL     1       9.489   4.113  -4.980  1.00  0.00    -0.387 OA
ATOM     41  H   UNL     1       9.842   3.893  -5.881  1.00  0.00     0.211 HD
ENDBRANCH  33  40
BRANCH  35  42
ATOM     42  O   UNL     1      11.644   3.232  -6.119  1.00  0.00    -0.385 OA
ATOM     43  H   UNL     1      12.499   2.859  -6.465  1.00  0.00     0.211 HD
ENDBRANCH  35  42
BRANCH  36  44
ATOM     44  O   UNL     1      12.320   0.664  -5.403  1.00  0.00    -0.366 OA
ATOM     45  H   UNL     1      13.026   0.376  -4.766  1.00  0.00     0.213 HD
ENDBRANCH  36  44
ENDBRANCH  30  31
ENDBRANCH   4  30
TORSDOF 18
ENDMDL
MODEL 2
REMARK VINA RESULT:    -4.188      1.776      7.486
REMARK INTER + INTRA:          -8.885
REMARK INTER:                  -8.544
REMARK INTRA:                  -0.341
REMARK UNBOUND:                -1.636
REMARK SMILES OC[C@@H]1O[C@@H](O[C@H]2[C@H](O)[C@H](O)[C@@H](O)O[C@H]2CO)[C@H](O)[C@@H](O)[C@H]1O[C@H]1O[C@H](CO)[C@H](O)[C@H](O)[C@@H]1O
REMARK SMILES IDX 22 1 3 2 4 3 5 4 18 5 20 6 23 7 24 8 26 9 29 10 25 11 31 12
REMARK SMILES IDX 33 13 27 14 28 15 30 17 32 19 34 21 2 23 1 24 21 26 19 28
REMARK SMILES IDX 6 30 7 31 15 32 8 33 14 34 10 35 12 36 16 37 17 38 9 40
REMARK SMILES IDX 11 42 13 44
REMARK H PARENT 28 16 30 18 32 20 34 22 1 25 21 27 19 29 17 39 9 41 11 43
REMARK H PARENT 13 45
REMARK Flexibility Score: inf
ROOT
ATOM      1  C   UNL     1       8.413   5.442  -3.144  1.00  0.00     0.184 C 
ATOM      2  C   UNL     1       7.559   5.382  -1.849  1.00  0.00     0.178 C 
ATOM      3  O   UNL     1       6.865   6.603  -1.643  1.00  0.00    -0.341 OA
ATOM      4  C   UNL     1       7.751   7.691  -1.428  1.00  0.00     0.282 C 
ATOM      5  C   UNL     1       8.623   7.943  -2.671  1.00  0.00     0.202 C 
ATOM      6  C   UNL     1       9.361   6.667  -3.118  1.00  0.00     0.180 C 
ENDROOT
BRANCH   1   7
ATOM      7  O   UNL     1       9.186   4.254  -3.266  1.00  0.00    -0.341 OA
BRANCH   7   8
ATOM      8  C   UNL     1      10.363   4.302  -2.475  1.00  0.00     0.282 C 
ATOM      9  C   UNL     1       9.499   2.839  -0.846  1.00  0.00     0.178 C 
ATOM     10  C   UNL     1      10.484   1.695  -1.199  1.00  0.00     0.177 C 
ATOM     11  O   UNL     1      10.075   4.113  -1.093  1.00  0.00    -0.341 OA
ATOM     12  C   UNL     1      10.922   1.830  -2.669  1.00  0.00     0.179 C 
ATOM     13  C   UNL     1      11.388   3.268  -2.990  1.00  0.00     0.202 C 
BRANCH   9  14
ATOM     14  C   UNL     1       9.027   2.762   0.613  1.00  0.00     0.191 C 
BRANCH  14  15
ATOM     15  O   UNL     1       9.873   3.502   1.448  1.00  0.00    -0.394 OA
ATOM     16  H   UNL     1      10.039   2.935   2.245  1.00  0.00     0.210 HD
ENDBRANCH  14  15
ENDBRANCH   9  14
BRANCH  10  17
ATOM     17  O   UNL     1      11.594   1.644  -0.332  1.00  0.00    -0.387 OA
ATOM     18  H   UNL     1      11.262   1.660   0.602  1.00  0.00     0.211 HD
ENDBRANCH  10  17
BRANCH  12  19
ATOM     19  O   UNL     1      11.934   0.899  -2.955  1.00  0.00    -0.387 OA
ATOM     20  H   UNL     1      12.179   1.030  -3.908  1.00  0.00     0.211 HD
ENDBRANCH  12  19
BRANCH  13  21
ATOM     21  O   UNL     1      12.642   3.533  -2.413  1.00  0.00    -0.385 OA
ATOM     22  H   UNL     1      12.494   4.188  -1.682  1.00  0.00     0.211 HD
ENDBRANCH  13  21
ENDBRANCH   7   8
ENDBRANCH   1   7
BRANCH   2  23
ATOM     23  C   UNL     1       6.513   4.261  -1.930  1.00  0.00     0.191 C 
BRANCH  23  24
ATOM     24  O   UNL     1       6.543   3.651  -3.191  1.00  0.00    -0.394 OA
ATOM     25  H   UNL     1       6.774   2.697  -3.032  1.00  0.00     0.210 HD
ENDBRANCH  23  24
ENDBRANCH   2  23
BRANCH   6  26
ATOM     26  O   UNL     1      10.514   6.446  -2.338  1.00  0.00    -0.387 OA
ATOM     27  H   UNL     1      10.514   7.086  -1.584  1.00  0.00     0.211 HD
ENDBRANCH   6  26
BRANCH   5  28
ATOM     28  O   UNL     1       7.801   8.402  -3.714  1.00  0.00    -0.385 OA
ATOM     29  H   UNL     1       7.686   9.379  -3.585  1.00  0.00     0.211 HD
ENDBRANCH   5  28
BRANCH   4  30
ATOM     30  O   UNL     1       8.574   7.465  -0.290  1.00  0.00    -0.341 OA
BRANCH  30  31
ATOM     31  C   UNL     1       7.883   7.640   0.939  1.00  0.00     0.184 C 
ATOM     32  C   UNL     1       8.483   8.868   1.683  1.00  0.00     0.178 C 
ATOM     33  C   UNL     1       7.957   6.362   1.813  1.00  0.00     0.180 C 
ATOM     34  O   UNL     1       7.940   9.124   2.979  1.00  0.00    -0.342 OA
ATOM     35  C   UNL     1       7.811   6.692   3.323  1.00  0.00     0.201 C 
ATOM     36  C   UNL     1       7.150   8.071   3.514  1.00  0.00     0.279 C 
BRANCH  32  37
ATOM     37  C   UNL     1      10.022   8.803   1.786  1.00  0.00     0.191 C 
BRANCH  37  38
ATOM     38  O   UNL     1      10.605   9.048   0.534  1.00  0.00    -0.394 OA
ATOM     39  H   UNL     1      10.878  10.004   0.531  1.00  0.00     0.210 HD
ENDBRANCH  37  38
ENDBRANCH  32  37
BRANCH  33  40
ATOM     40  O   UNL     1       6.941   5.480   1.406  1.00  0.00    -0.387 OA
ATOM     41  H   UNL     1       6.739   5.685   0.457  1.00  0.00     0.211 HD
ENDBRANCH  33  40
BRANCH  35  42
ATOM     42  O   UNL     1       7.046   5.714   3.985  1.00  0.00    -0.385 OA
ATOM     43  H   UNL     1       6.871   4.990   3.325  1.00  0.00     0.211 HD
ENDBRANCH  35  42
BRANCH  36  44
ATOM     44  O   UNL     1       6.922   8.311   4.880  1.00  0.00    -0.366 OA
ATOM     45  H   UNL     1       7.715   7.971   5.372  1.00  0.00     0.213 HD
ENDBRANCH  36  44
ENDBRANCH  30  31
ENDBRANCH   4  30
TORSDOF 18
ENDMDL
MODEL 3
REMARK VINA RESULT:    -3.962      1.577      8.540
REMARK INTER + INTRA:          -8.494
REMARK INTER:                  -8.363
REMARK INTRA:                  -0.131
REMARK UNBOUND:                -1.636
REMARK SMILES OC[C@@H]1O[C@@H](O[C@H]2[C@H](O)[C@H](O)[C@@H](O)O[C@H]2CO)[C@H](O)[C@@H](O)[C@H]1O[C@H]1O[C@H](CO)[C@H](O)[C@H](O)[C@@H]1O
REMARK SMILES IDX 22 1 3 2 4 3 5 4 18 5 20 6 23 7 24 8 26 9 29 10 25 11 31 12
REMARK SMILES IDX 33 13 27 14 28 15 30 17 32 19 34 21 2 23 1 24 21 26 19 28
REMARK SMILES IDX 6 30 7 31 15 32 8 33 14 34 10 35 12 36 16 37 17 38 9 40
REMARK SMILES IDX 11 42 13 44
REMARK H PARENT 28 16 30 18 32 20 34 22 1 25 21 27 19 29 17 39 9 41 11 43
REMARK H PARENT 13 45
REMARK Flexibility Score: inf
ROOT
ATOM      1  C   UNL     1       9.151   6.110  -2.065  1.00  0.00     0.184 C 
ATOM      2  C   UNL     1       8.079   5.555  -1.089  1.00  0.00     0.178 C 
ATOM      3  O   UNL     1       7.100   6.541  -0.797  1.00  0.00    -0.341 OA
ATOM      4  C   UNL     1       7.653   7.656  -0.113  1.00  0.00     0.282 C 
ATOM      5  C   UNL     1       8.688   8.381  -0.992  1.00  0.00     0.202 C 
ATOM      6  C   UNL     1       9.771   7.416  -1.511  1.00  0.00     0.180 C 
ENDROOT
BRANCH   1   7
ATOM      7  O   UNL     1      10.178   5.144  -2.249  1.00  0.00    -0.341 OA
BRANCH   7   8
ATOM      8  C   UNL     1       9.651   3.843  -2.465  1.00  0.00     0.282 C 
ATOM      9  C   UNL     1      11.114   3.394  -4.254  1.00  0.00     0.178 C 
ATOM     10  C   UNL     1      11.903   2.311  -3.475  1.00  0.00     0.177 C 
ATOM     11  O   UNL     1       9.760   3.453  -3.831  1.00  0.00    -0.341 OA
ATOM     12  C   UNL     1      11.807   2.592  -1.965  1.00  0.00     0.179 C 
ATOM     13  C   UNL     1      10.344   2.831  -1.527  1.00  0.00     0.202 C 
BRANCH   9  14
ATOM     14  C   UNL     1      11.169   3.166  -5.772  1.00  0.00     0.191 C 
BRANCH  14  15
ATOM     15  O   UNL     1      10.802   1.853  -6.091  1.00  0.00    -0.394 OA
ATOM     16  H   UNL     1      10.694   1.380  -5.225  1.00  0.00     0.210 HD
ENDBRANCH  14  15
ENDBRANCH   9  14
BRANCH  10  17
ATOM     17  O   UNL     1      11.483   1.002  -3.785  1.00  0.00    -0.387 OA
ATOM     18  H   UNL     1      12.202   0.557  -4.303  1.00  0.00     0.211 HD
ENDBRANCH  10  17
BRANCH  12  19
ATOM     19  O   UNL     1      12.380   1.532  -1.242  1.00  0.00    -0.387 OA
ATOM     20  H   UNL     1      11.651   1.133  -0.699  1.00  0.00     0.211 HD
ENDBRANCH  12  19
BRANCH  13  21
ATOM     21  O   UNL     1       9.615   1.629  -1.524  1.00  0.00    -0.385 OA
ATOM     22  H   UNL     1      10.206   0.930  -1.907  1.00  0.00     0.211 HD
ENDBRANCH  13  21
ENDBRANCH   7   8
ENDBRANCH   1   7
BRANCH   2  23
ATOM     23  C   UNL     1       7.353   4.346  -1.695  1.00  0.00     0.191 C 
BRANCH  23  24
ATOM     24  O   UNL     1       5.993   4.368  -1.356  1.00  0.00    -0.394 OA
ATOM     25  H   UNL     1       5.623   3.490  -1.638  1.00  0.00     0.210 HD
ENDBRANCH  23  24
ENDBRANCH   2  23
BRANCH   6  26
ATOM     26  O   UNL     1      10.753   7.178  -0.528  1.00  0.00    -0.387 OA
ATOM     27  H   UNL     1      11.620   7.521  -0.856  1.00  0.00     0.211 HD
ENDBRANCH   6  26
BRANCH   5  28
ATOM     28  O   UNL     1       8.022   8.971  -2.080  1.00  0.00    -0.385 OA
ATOM     29  H   UNL     1       8.193   8.398  -2.871  1.00  0.00     0.211 HD
ENDBRANCH   5  28
BRANCH   4  30
ATOM     30  O   UNL     1       8.247   7.260   1.117  1.00  0.00    -0.341 OA
BRANCH  30  31
ATOM     31  C   UNL     1       7.432   7.544   2.245  1.00  0.00     0.184 C 
ATOM     32  C   UNL     1       8.029   8.766   3.003  1.00  0.00     0.178 C 
ATOM     33  C   UNL     1       7.308   6.311   3.176  1.00  0.00     0.180 C 
ATOM     34  O   UNL     1       7.357   9.125   4.211  1.00  0.00    -0.342 OA
ATOM     35  C   UNL     1       7.010   6.728   4.641  1.00  0.00     0.201 C 
ATOM     36  C   UNL     1       6.434   8.157   4.692  1.00  0.00     0.279 C 
BRANCH  32  37
ATOM     37  C   UNL     1       9.535   8.602   3.293  1.00  0.00     0.191 C 
BRANCH  37  38
ATOM     38  O   UNL     1      10.276   8.716   2.108  1.00  0.00    -0.394 OA
ATOM     39  H   UNL     1      10.052   7.921   1.556  1.00  0.00     0.210 HD
ENDBRANCH  37  38
ENDBRANCH  32  37
BRANCH  33  40
ATOM     40  O   UNL     1       6.284   5.480   2.688  1.00  0.00    -0.387 OA
ATOM     41  H   UNL     1       5.646   5.334   3.434  1.00  0.00     0.211 HD
ENDBRANCH  33  40
BRANCH  35  42
ATOM     42  O   UNL     1       6.102   5.840   5.248  1.00  0.00    -0.385 OA
ATOM     43  H   UNL     1       5.360   6.393   5.613  1.00  0.00     0.211 HD
ENDBRANCH  35  42
BRANCH  36  44
ATOM     44  O   UNL     1       6.065   8.482   6.009  1.00  0.00    -0.366 OA
ATOM     45  H   UNL     1       5.502   9.299   5.960  1.00  0.00     0.213 HD
ENDBRANCH  36  44
ENDBRANCH  30  31
ENDBRANCH   4  30
TORSDOF 18
ENDMDL
MODEL 4
REMARK VINA RESULT:    -3.929      1.494      2.347
REMARK INTER + INTRA:          -8.436
REMARK INTER:                  -9.020
REMARK INTRA:                   0.584
REMARK UNBOUND:                -1.636
REMARK SMILES OC[C@@H]1O[C@@H](O[C@H]2[C@H](O)[C@H](O)[C@@H](O)O[C@H]2CO)[C@H](O)[C@@H](O)[C@H]1O[C@H]1O[C@H](CO)[C@H](O)[C@H](O)[C@@H]1O
REMARK SMILES IDX 22 1 3 2 4 3 5 4 18 5 20 6 23 7 24 8 26 9 29 10 25 11 31 12
REMARK SMILES IDX 33 13 27 14 28 15 30 17 32 19 34 21 2 23 1 24 21 26 19 28
REMARK SMILES IDX 6 30 7 31 15 32 8 33 14 34 10 35 12 36 16 37 17 38 9 40
REMARK SMILES IDX 11 42 13 44
REMARK H PARENT 28 16 30 18 32 20 34 22 1 25 21 27 19 29 17 39 9 41 11 43
REMARK H PARENT 13 45
REMARK Flexibility Score: inf
ROOT
ATOM      1  C   UNL     1       7.809   7.142  -1.142  1.00  0.00     0.184 C 
ATOM      2  C   UNL     1       9.211   6.807  -1.719  1.00  0.00     0.178 C 
ATOM      3  O   UNL     1       9.111   6.353  -3.060  1.00  0.00    -0.341 OA
ATOM      4  C   UNL     1       8.390   5.133  -3.159  1.00  0.00     0.282 C 
ATOM      5  C   UNL     1       6.933   5.318  -2.700  1.00  0.00     0.202 C 
ATOM      6  C   UNL     1       6.853   5.933  -1.289  1.00  0.00     0.180 C 
ENDROOT
BRANCH   1   7
ATOM      7  O   UNL     1       7.925   7.483   0.234  1.00  0.00    -0.341 OA
BRANCH   7   8
ATOM      8  C   UNL     1       7.545   6.409   1.081  1.00  0.00     0.282 C 
ATOM      9  C   UNL     1       9.386   6.706   2.519  1.00  0.00     0.178 C 
ATOM     10  C   UNL     1       8.515   7.185   3.708  1.00  0.00     0.177 C 
ATOM     11  O   UNL     1       8.677   5.796   1.690  1.00  0.00    -0.341 OA
ATOM     12  C   UNL     1       7.217   7.818   3.172  1.00  0.00     0.179 C 
ATOM     13  C   UNL     1       6.529   6.902   2.134  1.00  0.00     0.202 C 
BRANCH   9  14
ATOM     14  C   UNL     1      10.697   6.059   2.989  1.00  0.00     0.191 C 
BRANCH  14  15
ATOM     15  O   UNL     1      10.961   6.386   4.325  1.00  0.00    -0.394 OA
ATOM     16  H   UNL     1      11.946   6.336   4.430  1.00  0.00     0.210 HD
ENDBRANCH  14  15
ENDBRANCH   9  14
BRANCH  10  17
ATOM     17  O   UNL     1       8.243   6.157   4.633  1.00  0.00    -0.387 OA
ATOM     18  H   UNL     1       9.097   5.884   5.057  1.00  0.00     0.211 HD
ENDBRANCH  10  17
BRANCH  12  19
ATOM     19  O   UNL     1       6.350   8.108   4.238  1.00  0.00    -0.387 OA
ATOM     20  H   UNL     1       6.138   9.076   4.176  1.00  0.00     0.211 HD
ENDBRANCH  12  19
BRANCH  13  21
ATOM     21  O   UNL     1       5.933   5.792   2.757  1.00  0.00    -0.385 OA
ATOM     22  H   UNL     1       6.662   5.269   3.181  1.00  0.00     0.211 HD
ENDBRANCH  13  21
ENDBRANCH   7   8
ENDBRANCH   1   7
BRANCH   2  23
ATOM     23  C   UNL     1      10.120   8.044  -1.714  1.00  0.00     0.191 C 
BRANCH  23  24
ATOM     24  O   UNL     1      10.455   8.403  -0.402  1.00  0.00    -0.394 OA
ATOM     25  H   UNL     1       9.951   7.784   0.191  1.00  0.00     0.210 HD
ENDBRANCH  23  24
ENDBRANCH   2  23
BRANCH   6  26
ATOM     26  O   UNL     1       7.056   4.954  -0.296  1.00  0.00    -0.387 OA
ATOM     27  H   UNL     1       7.611   4.228  -0.674  1.00  0.00     0.211 HD
ENDBRANCH   6  26
BRANCH   5  28
ATOM     28  O   UNL     1       6.273   6.154  -3.617  1.00  0.00    -0.385 OA
ATOM     29  H   UNL     1       6.259   5.676  -4.486  1.00  0.00     0.211 HD
ENDBRANCH   5  28
BRANCH   4  30
ATOM     30  O   UNL     1       9.016   4.105  -2.401  1.00  0.00    -0.341 OA
BRANCH  30  31
ATOM     31  C   UNL     1       9.601   3.095  -3.210  1.00  0.00     0.184 C 
ATOM     32  C   UNL     1      10.383   2.108  -2.295  1.00  0.00     0.178 C 
ATOM     33  C   UNL     1      10.524   3.706  -4.296  1.00  0.00     0.180 C 
ATOM     34  O   UNL     1      11.095   1.074  -2.978  1.00  0.00    -0.342 OA
ATOM     35  C   UNL     1      11.624   2.706  -4.740  1.00  0.00     0.201 C 
ATOM     36  C   UNL     1      11.223   1.262  -4.380  1.00  0.00     0.279 C 
BRANCH  32  37
ATOM     37  C   UNL     1      11.347   2.833  -1.333  1.00  0.00     0.191 C 
BRANCH  37  38
ATOM     38  O   UNL     1      12.672   2.458  -1.595  1.00  0.00    -0.394 OA
ATOM     39  H   UNL     1      13.024   2.054  -0.758  1.00  0.00     0.210 HD
ENDBRANCH  37  38
ENDBRANCH  32  37
BRANCH  33  40
ATOM     40  O   UNL     1       9.734   4.083  -5.396  1.00  0.00    -0.387 OA
ATOM     41  H   UNL     1       8.835   3.687  -5.259  1.00  0.00     0.211 HD
ENDBRANCH  33  40
BRANCH  35  42
ATOM     42  O   UNL     1      11.860   2.792  -6.125  1.00  0.00    -0.385 OA
ATOM     43  H   UNL     1      11.592   3.708  -6.405  1.00  0.00     0.211 HD
ENDBRANCH  35  42
BRANCH  36  44
ATOM     44  O   UNL     1      12.172   0.357  -4.885  1.00  0.00    -0.366 OA
ATOM     45  H   UNL     1      11.870  -0.554  -4.631  1.00  0.00     0.213 HD
ENDBRANCH  36  44
ENDBRANCH  30  31
ENDBRANCH   4  30
TORSDOF 18
ENDMDL
MODEL 5
REMARK VINA RESULT:    -3.898      1.775      3.512
REMARK INTER + INTRA:          -8.382
REMARK INTER:                  -9.137
REMARK INTRA:                   0.755
REMARK UNBOUND:                -1.636
REMARK SMILES OC[C@@H]1O[C@@H](O[C@H]2[C@H](O)[C@H](O)[C@@H](O)O[C@H]2CO)[C@H](O)[C@@H](O)[C@H]1O[C@H]1O[C@H](CO)[C@H](O)[C@H](O)[C@@H]1O
REMARK SMILES IDX 22 1 3 2 4 3 5 4 18 5 20 6 23 7 24 8 26 9 29 10 25 11 31 12
REMARK SMILES IDX 33 13 27 14 28 15 30 17 32 19 34 21 2 23 1 24 21 26 19 28
REMARK SMILES IDX 6 30 7 31 15 32 8 33 14 34 10 35 12 36 16 37 17 38 9 40
REMARK SMILES IDX 11 42 13 44
REMARK H PARENT 28 16 30 18 32 20 34 22 1 25 21 27 19 29 17 39 9 41 11 43
REMARK H PARENT 13 45
REMARK Flexibility Score: inf
ROOT
ATOM      1  C   UNL     1       8.346   7.240  -1.779  1.00  0.00     0.184 C 
ATOM      2  C   UNL     1       9.634   6.378  -1.884  1.00  0.00     0.178 C 
ATOM      3  O   UNL     1      10.107   6.337  -3.222  1.00  0.00    -0.341 OA
ATOM      4  C   UNL     1       9.186   5.700  -4.095  1.00  0.00     0.282 C 
ATOM      5  C   UNL     1       7.867   6.488  -4.172  1.00  0.00     0.202 C 
ATOM      6  C   UNL     1       7.270   6.740  -2.774  1.00  0.00     0.180 C 
ENDROOT
BRANCH   1   7
ATOM      7  O   UNL     1       7.829   7.170  -0.455  1.00  0.00    -0.341 OA
BRANCH   7   8
ATOM      8  C   UNL     1       8.657   6.394   0.398  1.00  0.00     0.282 C 
ATOM      9  C   UNL     1       8.556   7.959   2.155  1.00  0.00     0.178 C 
ATOM     10  C   UNL     1       7.728   7.028   3.076  1.00  0.00     0.177 C 
ATOM     11  O   UNL     1       9.403   7.213   1.292  1.00  0.00    -0.341 OA
ATOM     12  C   UNL     1       6.916   6.042   2.216  1.00  0.00     0.179 C 
ATOM     13  C   UNL     1       7.804   5.354   1.156  1.00  0.00     0.202 C 
BRANCH   9  14
ATOM     14  C   UNL     1       9.394   8.966   2.955  1.00  0.00     0.191 C 
BRANCH  14  15
ATOM     15  O   UNL     1      10.471   8.327   3.583  1.00  0.00    -0.394 OA
ATOM     16  H   UNL     1      10.508   7.412   3.202  1.00  0.00     0.210 HD
ENDBRANCH  14  15
ENDBRANCH   9  14
BRANCH  10  17
ATOM     17  O   UNL     1       8.523   6.352   4.024  1.00  0.00    -0.387 OA
ATOM     18  H   UNL     1       8.756   6.989   4.748  1.00  0.00     0.211 HD
ENDBRANCH  10  17
BRANCH  12  19
ATOM     19  O   UNL     1       6.288   5.092   3.040  1.00  0.00    -0.387 OA
ATOM     20  H   UNL     1       6.641   4.205   2.768  1.00  0.00     0.211 HD
ENDBRANCH  12  19
BRANCH  13  21
ATOM     21  O   UNL     1       8.654   4.403   1.749  1.00  0.00    -0.385 OA
ATOM     22  H   UNL     1       8.291   4.213   2.653  1.00  0.00     0.211 HD
ENDBRANCH  13  21
ENDBRANCH   7   8
ENDBRANCH   1   7
BRANCH   2  23
ATOM     23  C   UNL     1      10.757   6.956  -1.011  1.00  0.00     0.191 C 
BRANCH  23  24
ATOM     24  O   UNL     1      10.741   8.356  -1.052  1.00  0.00    -0.394 OA
ATOM     25  H   UNL     1      11.559   8.656  -0.574  1.00  0.00     0.210 HD
ENDBRANCH  23  24
ENDBRANCH   2  23
BRANCH   6  26
ATOM     26  O   UNL     1       6.580   5.605  -2.304  1.00  0.00    -0.387 OA
ATOM     27  H   UNL     1       6.861   5.424  -1.374  1.00  0.00     0.211 HD
ENDBRANCH   6  26
BRANCH   5  28
ATOM     28  O   UNL     1       8.112   7.718  -4.808  1.00  0.00    -0.385 OA
ATOM     29  H   UNL     1       8.756   8.215  -4.240  1.00  0.00     0.211 HD
ENDBRANCH   5  28
BRANCH   4  30
ATOM     30  O   UNL     1       8.934   4.362  -3.686  1.00  0.00    -0.341 OA
BRANCH  30  31
ATOM     31  C   UNL     1       9.921   3.856  -2.799  1.00  0.00     0.184 C 
ATOM     32  C   UNL     1      11.182   3.461  -3.621  1.00  0.00     0.178 C 
ATOM     33  C   UNL     1       9.382   2.652  -1.983  1.00  0.00     0.180 C 
ATOM     34  O   UNL     1      12.238   2.860  -2.871  1.00  0.00    -0.342 OA
ATOM     35  C   UNL     1      10.529   1.711  -1.526  1.00  0.00     0.201 C 
ATOM     36  C   UNL     1      11.881   2.450  -1.558  1.00  0.00     0.279 C 
BRANCH  32  37
ATOM     37  C   UNL     1      10.842   2.559  -4.826  1.00  0.00     0.191 C 
BRANCH  37  38
ATOM     38  O   UNL     1      11.825   1.572  -4.989  1.00  0.00    -0.394 OA
ATOM     39  H   UNL     1      12.027   1.220  -4.082  1.00  0.00     0.210 HD
ENDBRANCH  37  38
ENDBRANCH  32  37
BRANCH  33  40
ATOM     40  O   UNL     1       8.680   3.142  -0.868  1.00  0.00    -0.387 OA
ATOM     41  H   UNL     1       7.728   2.888  -0.988  1.00  0.00     0.211 HD
ENDBRANCH  33  40
BRANCH  35  42
ATOM     42  O   UNL     1      10.298   1.222  -0.227  1.00  0.00    -0.385 OA
ATOM     43  H   UNL     1       9.339   0.956  -0.187  1.00  0.00     0.211 HD
ENDBRANCH  35  42
BRANCH  36  44
ATOM     44  O   UNL     1      12.894   1.626  -1.038  1.00  0.00    -0.366 OA
ATOM     45  H   UNL     1      12.806   0.742  -1.482  1.00  0.00     0.213 HD
ENDBRANCH  36  44
ENDBRANCH  30  31
ENDBRANCH   4  30
TORSDOF 18
ENDMDL
MODEL 6
REMARK VINA RESULT:    -3.813      1.584      2.772
REMARK INTER + INTRA:          -8.235
REMARK INTER:                  -8.089
REMARK INTRA:                  -0.146
REMARK UNBOUND:                -1.636
REMARK SMILES OC[C@@H]1O[C@@H](O[C@H]2[C@H](O)[C@H](O)[C@@H](O)O[C@H]2CO)[C@H](O)[C@@H](O)[C@H]1O[C@H]1O[C@H](CO)[C@H](O)[C@H](O)[C@@H]1O
REMARK SMILES IDX 22 1 3 2 4 3 5 4 18 5 20 6 23 7 24 8 26 9 29 10 25 11 31 12
REMARK SMILES IDX 33 13 27 14 28 15 30 17 32 19 34 21 2 23 1 24 21 26 19 28
REMARK SMILES IDX 6 30 7 31 15 32 8 33 14 34 10 35 12 36 16 37 17 38 9 40
REMARK SMILES IDX 11 42 13 44
REMARK H PARENT 28 16 30 18 32 20 34 22 1 25 21 27 19 29 17 39 9 41 11 43
REMARK H PARENT 13 45
REMARK Flexibility Score: inf
ROOT
ATOM      1  C   UNL     1       8.551   6.665  -1.391  1.00  0.00     0.184 C 
ATOM      2  C   UNL     1       9.835   6.001  -1.957  1.00  0.00     0.178 C 
ATOM      3  O   UNL     1       9.971   6.264  -3.345  1.00  0.00    -0.341 OA
ATOM      4  C   UNL     1       8.917   5.692  -4.104  1.00  0.00     0.282 C 
ATOM      5  C   UNL     1       7.563   6.313  -3.720  1.00  0.00     0.202 C 
ATOM      6  C   UNL     1       7.306   6.229  -2.203  1.00  0.00     0.180 C 
ENDROOT
BRANCH   1   7
ATOM      7  O   UNL     1       8.377   6.291  -0.029  1.00  0.00    -0.341 OA
BRANCH   7   8
ATOM      8  C   UNL     1       8.006   7.395   0.782  1.00  0.00     0.282 C 
ATOM      9  C   UNL     1       7.165   6.029   2.505  1.00  0.00     0.178 C 
ATOM     10  C   UNL     1       8.285   6.418   3.503  1.00  0.00     0.177 C 
ATOM     11  O   UNL     1       6.884   7.089   1.603  1.00  0.00    -0.341 OA
ATOM     12  C   UNL     1       9.547   6.834   2.724  1.00  0.00     0.179 C 
ATOM     13  C   UNL     1       9.215   7.863   1.620  1.00  0.00     0.202 C 
BRANCH   9  14
ATOM     14  C   UNL     1       5.875   5.608   3.222  1.00  0.00     0.191 C 
BRANCH  14  15
ATOM     15  O   UNL     1       6.163   4.806   4.333  1.00  0.00    -0.394 OA
ATOM     16  H   UNL     1       7.134   4.917   4.508  1.00  0.00     0.210 HD
ENDBRANCH  14  15
ENDBRANCH   9  14
BRANCH  10  17
ATOM     17  O   UNL     1       7.884   7.422   4.408  1.00  0.00    -0.387 OA
ATOM     18  H   UNL     1       7.756   7.006   5.299  1.00  0.00     0.211 HD
ENDBRANCH  10  17
BRANCH  12  19
ATOM     19  O   UNL     1      10.512   7.342   3.610  1.00  0.00    -0.387 OA
ATOM     20  H   UNL     1      10.020   7.863   4.297  1.00  0.00     0.211 HD
ENDBRANCH  12  19
BRANCH  13  21
ATOM     21  O   UNL     1       8.933   9.125   2.174  1.00  0.00    -0.385 OA
ATOM     22  H   UNL     1       9.258   9.110   3.111  1.00  0.00     0.211 HD
ENDBRANCH  13  21
ENDBRANCH   7   8
ENDBRANCH   1   7
BRANCH   2  23
ATOM     23  C   UNL     1      11.090   6.541  -1.256  1.00  0.00     0.191 C 
BRANCH  23  24
ATOM     24  O   UNL     1      10.917   7.886  -0.906  1.00  0.00    -0.394 OA
ATOM     25  H   UNL     1      11.360   8.417  -1.620  1.00  0.00     0.210 HD
ENDBRANCH  23  24
ENDBRANCH   2  23
BRANCH   6  26
ATOM     26  O   UNL     1       6.837   4.951  -1.837  1.00  0.00    -0.387 OA
ATOM     27  H   UNL     1       7.326   4.271  -2.363  1.00  0.00     0.211 HD
ENDBRANCH   6  26
BRANCH   5  28
ATOM     28  O   UNL     1       7.553   7.659  -4.125  1.00  0.00    -0.385 OA
ATOM     29  H   UNL     1       6.850   7.748  -4.819  1.00  0.00     0.211 HD
ENDBRANCH   5  28
BRANCH   4  30
ATOM     30  O   UNL     1       8.872   4.280  -3.935  1.00  0.00    -0.341 OA
BRANCH  30  31
ATOM     31  C   UNL     1       9.867   3.794  -3.045  1.00  0.00     0.184 C 
ATOM     32  C   UNL     1      11.132   3.407  -3.866  1.00  0.00     0.178 C 
ATOM     33  C   UNL     1       9.344   2.593  -2.217  1.00  0.00     0.180 C 
ATOM     34  O   UNL     1      12.197   2.826  -3.112  1.00  0.00    -0.342 OA
ATOM     35  C   UNL     1      10.504   1.670  -1.753  1.00  0.00     0.201 C 
ATOM     36  C   UNL     1      11.847   2.425  -1.795  1.00  0.00     0.279 C 
BRANCH  32  37
ATOM     37  C   UNL     1      10.800   2.489  -5.061  1.00  0.00     0.191 C 
BRANCH  37  38
ATOM     38  O   UNL     1      11.939   1.773  -5.457  1.00  0.00    -0.394 OA
ATOM     39  H   UNL     1      11.863   0.870  -5.049  1.00  0.00     0.210 HD
ENDBRANCH  37  38
ENDBRANCH  32  37
BRANCH  33  40
ATOM     40  O   UNL     1       8.639   3.085  -1.105  1.00  0.00    -0.387 OA
ATOM     41  H   UNL     1       7.865   2.481  -0.960  1.00  0.00     0.211 HD
ENDBRANCH  33  40
BRANCH  35  42
ATOM     42  O   UNL     1      10.281   1.191  -0.449  1.00  0.00    -0.385 OA
ATOM     43  H   UNL     1      11.006   1.564   0.122  1.00  0.00     0.211 HD
ENDBRANCH  35  42
BRANCH  36  44
ATOM     44  O   UNL     1      12.870   1.618  -1.268  1.00  0.00    -0.366 OA
ATOM     45  H   UNL     1      13.671   1.754  -1.840  1.00  0.00     0.213 HD
ENDBRANCH  36  44
ENDBRANCH  30  31
ENDBRANCH   4  30
TORSDOF 18
ENDMDL
MODEL 7
REMARK VINA RESULT:    -3.368      1.655      8.386
REMARK INTER + INTRA:          -7.465
REMARK INTER:                  -6.856
REMARK INTRA:                  -0.609
REMARK UNBOUND:                -1.636
REMARK SMILES OC[C@@H]1O[C@@H](O[C@H]2[C@H](O)[C@H](O)[C@@H](O)O[C@H]2CO)[C@H](O)[C@@H](O)[C@H]1O[C@H]1O[C@H](CO)[C@H](O)[C@H](O)[C@@H]1O
REMARK SMILES IDX 22 1 3 2 4 3 5 4 18 5 20 6 23 7 24 8 26 9 29 10 25 11 31 12
REMARK SMILES IDX 33 13 27 14 28 15 30 17 32 19 34 21 2 23 1 24 21 26 19 28
REMARK SMILES IDX 6 30 7 31 15 32 8 33 14 34 10 35 12 36 16 37 17 38 9 40
REMARK SMILES IDX 11 42 13 44
REMARK H PARENT 28 16 30 18 32 20 34 22 1 25 21 27 19 29 17 39 9 41 11 43
REMARK H PARENT 13 45
REMARK Flexibility Score: inf
ROOT
ATOM      1  C   UNL     1       8.879   6.192  -0.700  1.00  0.00     0.184 C 
ATOM      2  C   UNL     1       8.273   5.596   0.598  1.00  0.00     0.178 C 
ATOM      3  O   UNL     1       6.947   6.062   0.799  1.00  0.00    -0.341 OA
ATOM      4  C   UNL     1       6.901   7.467   1.003  1.00  0.00     0.282 C 
ATOM      5  C   UNL     1       7.395   8.220  -0.245  1.00  0.00     0.202 C 
ATOM      6  C   UNL     1       8.790   7.738  -0.686  1.00  0.00     0.180 C 
ENDROOT
BRANCH   1   7
ATOM      7  O   UNL     1      10.242   5.802  -0.817  1.00  0.00    -0.341 OA
BRANCH   7   8
ATOM      8  C   UNL     1      10.700   5.866  -2.159  1.00  0.00     0.282 C 
ATOM      9  C   UNL     1      11.124   3.553  -2.275  1.00  0.00     0.178 C 
ATOM     10  C   UNL     1       9.983   3.288  -3.290  1.00  0.00     0.177 C 
ATOM     11  O   UNL     1      11.666   4.856  -2.433  1.00  0.00    -0.341 OA
ATOM     12  C   UNL     1       8.894   4.365  -3.133  1.00  0.00     0.179 C 
ATOM     13  C   UNL     1       9.502   5.786  -3.129  1.00  0.00     0.202 C 
BRANCH   9  14
ATOM     14  C   UNL     1      12.247   2.512  -2.385  1.00  0.00     0.191 C 
BRANCH  14  15
ATOM     15  O   UNL     1      11.723   1.245  -2.670  1.00  0.00    -0.394 OA
ATOM     16  H   UNL     1      12.281   0.598  -2.166  1.00  0.00     0.210 HD
ENDBRANCH  14  15
ENDBRANCH   9  14
BRANCH  10  17
ATOM     17  O   UNL     1      10.445   3.211  -4.620  1.00  0.00    -0.387 OA
ATOM     18  H   UNL     1      11.411   2.992  -4.604  1.00  0.00     0.211 HD
ENDBRANCH  10  17
BRANCH  12  19
ATOM     19  O   UNL     1       7.936   4.231  -4.152  1.00  0.00    -0.387 OA
ATOM     20  H   UNL     1       7.845   3.259  -4.329  1.00  0.00     0.211 HD
ENDBRANCH  12  19
BRANCH  13  21
ATOM     21  O   UNL     1       9.924   6.158  -4.418  1.00  0.00    -0.385 OA
ATOM     22  H   UNL     1       9.389   6.951  -4.682  1.00  0.00     0.211 HD
ENDBRANCH  13  21
ENDBRANCH   7   8
ENDBRANCH   1   7
BRANCH   2  23
ATOM     23  C   UNL     1       8.219   4.063   0.529  1.00  0.00     0.191 C 
BRANCH  23  24
ATOM     24  O   UNL     1       9.304   3.502   1.217  1.00  0.00    -0.394 OA
ATOM     25  H   UNL     1       9.872   3.065   0.529  1.00  0.00     0.210 HD
ENDBRANCH  23  24
ENDBRANCH   2  23
BRANCH   6  26
ATOM     26  O   UNL     1       9.803   8.335   0.091  1.00  0.00    -0.387 OA
ATOM     27  H   UNL     1      10.218   7.640   0.660  1.00  0.00     0.211 HD
ENDBRANCH   6  26
BRANCH   5  28
ATOM     28  O   UNL     1       6.475   8.019  -1.288  1.00  0.00    -0.385 OA
ATOM     29  H   UNL     1       6.537   7.064  -1.549  1.00  0.00     0.211 HD
ENDBRANCH   5  28
BRANCH   4  30
ATOM     30  O   UNL     1       7.668   7.845   2.139  1.00  0.00    -0.341 OA
BRANCH  30  31
ATOM     31  C   UNL     1       6.971   7.669   3.364  1.00  0.00     0.184 C 
ATOM     32  C   UNL     1       7.297   8.865   4.305  1.00  0.00     0.178 C 
ATOM     33  C   UNL     1       7.334   6.316   4.029  1.00  0.00     0.180 C 
ATOM     34  O   UNL     1       6.727   8.789   5.613  1.00  0.00    -0.342 OA
ATOM     35  C   UNL     1       7.138   6.364   5.568  1.00  0.00     0.201 C 
ATOM     36  C   UNL     1       6.193   7.518   5.959  1.00  0.00     0.279 C 
BRANCH  32  37
ATOM     37  C   UNL     1       8.813   9.122   4.431  1.00  0.00     0.191 C 
BRANCH  37  38
ATOM     38  O   UNL     1       9.533   8.152   3.718  1.00  0.00    -0.394 OA
ATOM     39  H   UNL     1       9.307   8.279   2.759  1.00  0.00     0.210 HD
ENDBRANCH  37  38
ENDBRANCH  32  37
BRANCH  33  40
ATOM     40  O   UNL     1       6.531   5.309   3.467  1.00  0.00    -0.387 OA
ATOM     41  H   UNL     1       5.590   5.522   3.700  1.00  0.00     0.211 HD
ENDBRANCH  33  40
BRANCH  35  42
ATOM     42  O   UNL     1       6.614   5.151   6.052  1.00  0.00    -0.385 OA
ATOM     43  H   UNL     1       6.866   5.093   7.013  1.00  0.00     0.211 HD
ENDBRANCH  35  42
BRANCH  36  44
ATOM     44  O   UNL     1       5.935   7.483   7.340  1.00  0.00    -0.366 OA
ATOM     45  H   UNL     1       6.187   8.372   7.705  1.00  0.00     0.213 HD
ENDBRANCH  36  44
ENDBRANCH  30  31
ENDBRANCH   4  30
TORSDOF 18
ENDMDL
MODEL 8
REMARK VINA RESULT:    -3.164      1.671      8.694
REMARK INTER + INTRA:          -7.113
REMARK INTER:                  -6.505
REMARK INTRA:                  -0.608
REMARK UNBOUND:                -1.636
REMARK SMILES OC[C@@H]1O[C@@H](O[C@H]2[C@H](O)[C@H](O)[C@@H](O)O[C@H]2CO)[C@H](O)[C@@H](O)[C@H]1O[C@H]1O[C@H](CO)[C@H](O)[C@H](O)[C@@H]1O
REMARK SMILES IDX 22 1 3 2 4 3 5 4 18 5 20 6 23 7 24 8 26 9 29 10 25 11 31 12
REMARK SMILES IDX 33 13 27 14 28 15 30 17 32 19 34 21 2 23 1 24 21 26 19 28
REMARK SMILES IDX 6 30 7 31 15 32 8 33 14 34 10 35 12 36 16 37 17 38 9 40
REMARK SMILES IDX 11 42 13 44
REMARK H PARENT 28 16 30 18 32 20 34 22 1 25 21 27 19 29 17 39 9 41 11 43
REMARK H PARENT 13 45
REMARK Flexibility Score: inf
ROOT
ATOM      1  C   UNL     1       9.083   4.944  -0.899  1.00  0.00     0.184 C 
ATOM      2  C   UNL     1       9.396   6.306  -0.223  1.00  0.00     0.178 C 
ATOM      3  O   UNL     1       9.557   6.150   1.179  1.00  0.00    -0.341 OA
ATOM      4  C   UNL     1       8.362   5.712   1.808  1.00  0.00     0.282 C 
ATOM      5  C   UNL     1       7.954   4.316   1.305  1.00  0.00     0.202 C 
ATOM      6  C   UNL     1       7.858   4.271  -0.232  1.00  0.00     0.180 C 
ENDROOT
BRANCH   1   7
ATOM      7  O   UNL     1       8.813   5.145  -2.281  1.00  0.00    -0.341 OA
BRANCH   7   8
ATOM      8  C   UNL     1       8.759   3.919  -2.995  1.00  0.00     0.282 C 
ATOM      9  C   UNL     1      10.461   4.554  -4.494  1.00  0.00     0.178 C 
ATOM     10  C   UNL     1      11.474   3.518  -3.946  1.00  0.00     0.177 C 
ATOM     11  O   UNL     1       9.124   4.092  -4.361  1.00  0.00    -0.341 OA
ATOM     12  C   UNL     1      11.140   3.199  -2.477  1.00  0.00     0.179 C 
ATOM     13  C   UNL     1       9.643   2.863  -2.298  1.00  0.00     0.202 C 
BRANCH   9  14
ATOM     14  C   UNL     1      10.738   4.911  -5.961  1.00  0.00     0.191 C 
BRANCH  14  15
ATOM     15  O   UNL     1      11.457   6.109  -6.053  1.00  0.00    -0.394 OA
ATOM     16  H   UNL     1      12.030   6.025  -6.858  1.00  0.00     0.210 HD
ENDBRANCH  14  15
ENDBRANCH   9  14
BRANCH  10  17
ATOM     17  O   UNL     1      11.532   2.346  -4.728  1.00  0.00    -0.387 OA
ATOM     18  H   UNL     1      11.256   2.573  -5.652  1.00  0.00     0.211 HD
ENDBRANCH  10  17
BRANCH  12  19
ATOM     19  O   UNL     1      11.949   2.145  -2.019  1.00  0.00    -0.387 OA
ATOM     20  H   UNL     1      12.294   1.682  -2.826  1.00  0.00     0.211 HD
ENDBRANCH  12  19
BRANCH  13  21
ATOM     21  O   UNL     1       9.344   1.592  -2.820  1.00  0.00    -0.385 OA
ATOM     22  H   UNL     1       9.146   1.714  -3.785  1.00  0.00     0.211 HD
ENDBRANCH  13  21
ENDBRANCH   7   8
ENDBRANCH   1   7
BRANCH   2  23
ATOM     23  C   UNL     1      10.695   6.910  -0.775  1.00  0.00     0.191 C 
BRANCH  23  24
ATOM     24  O   UNL     1      10.734   8.291  -0.538  1.00  0.00    -0.394 OA
ATOM     25  H   UNL     1      10.020   8.689  -1.104  1.00  0.00     0.210 HD
ENDBRANCH  23  24
ENDBRANCH   2  23
BRANCH   6  26
ATOM     26  O   UNL     1       6.633   4.804  -0.680  1.00  0.00    -0.387 OA
ATOM     27  H   UNL     1       5.957   4.691   0.033  1.00  0.00     0.211 HD
ENDBRANCH   6  26
BRANCH   5  28
ATOM     28  O   UNL     1       8.908   3.382   1.745  1.00  0.00    -0.385 OA
ATOM     29  H   UNL     1       8.531   2.940   2.550  1.00  0.00     0.211 HD
ENDBRANCH   5  28
BRANCH   4  30
ATOM     30  O   UNL     1       7.302   6.637   1.596  1.00  0.00    -0.341 OA
BRANCH  30  31
ATOM     31  C   UNL     1       6.684   7.061   2.803  1.00  0.00     0.184 C 
ATOM     32  C   UNL     1       6.993   8.571   3.023  1.00  0.00     0.178 C 
ATOM     33  C   UNL     1       7.157   6.209   4.008  1.00  0.00     0.180 C 
ATOM     34  O   UNL     1       6.499   9.125   4.244  1.00  0.00    -0.342 OA
ATOM     35  C   UNL     1       7.041   6.993   5.343  1.00  0.00     0.201 C 
ATOM     36  C   UNL     1       6.056   8.170   5.198  1.00  0.00     0.279 C 
BRANCH  32  37
ATOM     37  C   UNL     1       8.497   8.890   2.897  1.00  0.00     0.191 C 
BRANCH  37  38
ATOM     38  O   UNL     1       8.836   9.120   1.556  1.00  0.00    -0.394 OA
ATOM     39  H   UNL     1       9.055  10.087   1.480  1.00  0.00     0.210 HD
ENDBRANCH  37  38
ENDBRANCH  32  37
BRANCH  33  40
ATOM     40  O   UNL     1       6.381   5.037   4.062  1.00  0.00    -0.387 OA
ATOM     41  H   UNL     1       6.575   4.600   4.932  1.00  0.00     0.211 HD
ENDBRANCH  33  40
BRANCH  35  42
ATOM     42  O   UNL     1       6.612   6.155   6.389  1.00  0.00    -0.385 OA
ATOM     43  H   UNL     1       7.343   6.143   7.065  1.00  0.00     0.211 HD
ENDBRANCH  35  42
BRANCH  36  44
ATOM     44  O   UNL     1       5.875   8.803   6.439  1.00  0.00    -0.366 OA
ATOM     45  H   UNL     1       4.896   8.867   6.593  1.00  0.00     0.213 HD
ENDBRANCH  36  44
ENDBRANCH  30  31
ENDBRANCH   4  30
TORSDOF 18
ENDMDL
MODEL 9
REMARK VINA RESULT:    -3.003      1.823      3.461
REMARK INTER + INTRA:          -6.833
REMARK INTER:                  -7.371
REMARK INTRA:                   0.539
REMARK UNBOUND:                -1.636
REMARK SMILES OC[C@@H]1O[C@@H](O[C@H]2[C@H](O)[C@H](O)[C@@H](O)O[C@H]2CO)[C@H](O)[C@@H](O)[C@H]1O[C@H]1O[C@H](CO)[C@H](O)[C@H](O)[C@@H]1O
REMARK SMILES IDX 22 1 3 2 4 3 5 4 18 5 20 6 23 7 24 8 26 9 29 10 25 11 31 12
REMARK SMILES IDX 33 13 27 14 28 15 30 17 32 19 34 21 2 23 1 24 21 26 19 28
REMARK SMILES IDX 6 30 7 31 15 32 8 33 14 34 10 35 12 36 16 37 17 38 9 40
REMARK SMILES IDX 11 42 13 44
REMARK H PARENT 28 16 30 18 32 20 34 22 1 25 21 27 19 29 17 39 9 41 11 43
REMARK H PARENT 13 45
REMARK Flexibility Score: inf
ROOT
ATOM      1  C   UNL     1       6.418   6.420  -1.846  1.00  0.00     0.184 C 
ATOM      2  C   UNL     1       7.428   7.389  -2.518  1.00  0.00     0.178 C 
ATOM      3  O   UNL     1       7.508   7.148  -3.915  1.00  0.00    -0.341 OA
ATOM      4  C   UNL     1       8.017   5.854  -4.204  1.00  0.00     0.282 C 
ATOM      5  C   UNL     1       7.074   4.761  -3.673  1.00  0.00     0.202 C 
ATOM      6  C   UNL     1       6.770   4.949  -2.174  1.00  0.00     0.180 C 
ENDROOT
BRANCH   1   7
ATOM      7  O   UNL     1       6.441   6.605  -0.436  1.00  0.00    -0.341 OA
BRANCH   7   8
ATOM      8  C   UNL     1       7.557   5.965   0.165  1.00  0.00     0.282 C 
ATOM      9  C   UNL     1       8.057   7.811   1.538  1.00  0.00     0.178 C 
ATOM     10  C   UNL     1       7.669   7.077   2.846  1.00  0.00     0.177 C 
ATOM     11  O   UNL     1       8.550   6.905   0.562  1.00  0.00    -0.341 OA
ATOM     12  C   UNL     1       6.634   5.981   2.534  1.00  0.00     0.179 C 
ATOM     13  C   UNL     1       7.090   5.095   1.352  1.00  0.00     0.202 C 
BRANCH   9  14
ATOM     14  C   UNL     1       9.093   8.918   1.783  1.00  0.00     0.191 C 
BRANCH  14  15
ATOM     15  O   UNL     1      10.392   8.431   1.594  1.00  0.00    -0.394 OA
ATOM     16  H   UNL     1      10.294   7.543   1.164  1.00  0.00     0.210 HD
ENDBRANCH  14  15
ENDBRANCH   9  14
BRANCH  10  17
ATOM     17  O   UNL     1       8.786   6.554   3.529  1.00  0.00    -0.387 OA
ATOM     18  H   UNL     1       9.284   5.964   2.907  1.00  0.00     0.211 HD
ENDBRANCH  10  17
BRANCH  12  19
ATOM     19  O   UNL     1       6.396   5.205   3.681  1.00  0.00    -0.387 OA
ATOM     20  H   UNL     1       5.460   4.883   3.616  1.00  0.00     0.211 HD
ENDBRANCH  12  19
BRANCH  13  21
ATOM     21  O   UNL     1       8.135   4.238   1.737  1.00  0.00    -0.385 OA
ATOM     22  H   UNL     1       7.865   3.317   1.484  1.00  0.00     0.211 HD
ENDBRANCH  13  21
ENDBRANCH   7   8
ENDBRANCH   1   7
BRANCH   2  23
ATOM     23  C   UNL     1       7.002   8.852  -2.324  1.00  0.00     0.191 C 
BRANCH  23  24
ATOM     24  O   UNL     1       6.371   9.019  -1.085  1.00  0.00    -0.394 OA
ATOM     25  H   UNL     1       5.550   9.551  -1.262  1.00  0.00     0.210 HD
ENDBRANCH  23  24
ENDBRANCH   2  23
BRANCH   6  26
ATOM     26  O   UNL     1       7.819   4.449  -1.377  1.00  0.00    -0.387 OA
ATOM     27  H   UNL     1       7.464   3.729  -0.799  1.00  0.00     0.211 HD
ENDBRANCH   6  26
BRANCH   5  28
ATOM     28  O   UNL     1       5.875   4.804  -4.406  1.00  0.00    -0.385 OA
ATOM     29  H   UNL     1       5.583   3.865  -4.539  1.00  0.00     0.211 HD
ENDBRANCH   5  28
BRANCH   4  30
ATOM     30  O   UNL     1       9.321   5.683  -3.661  1.00  0.00    -0.341 OA
BRANCH  30  31
ATOM     31  C   UNL     1       9.738   4.326  -3.633  1.00  0.00     0.184 C 
ATOM     32  C   UNL     1      10.422   4.037  -2.264  1.00  0.00     0.178 C 
ATOM     33  C   UNL     1      10.688   4.003  -4.815  1.00  0.00     0.180 C 
ATOM     34  O   UNL     1      10.966   2.725  -2.117  1.00  0.00    -0.342 OA
ATOM     35  C   UNL     1      11.632   2.816  -4.483  1.00  0.00     0.201 C 
ATOM     36  C   UNL     1      11.061   1.978  -3.322  1.00  0.00     0.279 C 
BRANCH  32  37
ATOM     37  C   UNL     1      11.508   5.076  -1.917  1.00  0.00     0.191 C 
BRANCH  37  38
ATOM     38  O   UNL     1      10.938   6.179  -1.265  1.00  0.00    -0.394 OA
ATOM     39  H   UNL     1      10.521   6.741  -1.970  1.00  0.00     0.210 HD
ENDBRANCH  37  38
ENDBRANCH  32  37
BRANCH  33  40
ATOM     40  O   UNL     1       9.911   3.705  -5.948  1.00  0.00    -0.387 OA
ATOM     41  H   UNL     1      10.518   3.298  -6.619  1.00  0.00     0.211 HD
ENDBRANCH  33  40
BRANCH  35  42
ATOM     42  O   UNL     1      11.821   1.988  -5.605  1.00  0.00    -0.385 OA
ATOM     43  H   UNL     1      11.416   2.461  -6.382  1.00  0.00     0.211 HD
ENDBRANCH  35  42
BRANCH  36  44
ATOM     44  O   UNL     1      11.865   0.846  -3.104  1.00  0.00    -0.366 OA
ATOM     45  H   UNL     1      11.269   0.127  -2.766  1.00  0.00     0.213 HD
ENDBRANCH  36  44
ENDBRANCH  30  31
ENDBRANCH   4  30
TORSDOF 18
ENDMDL
