MODEL 1
REMARK VINA RESULT:    -7.868      0.000      0.000
REMARK INTER + INTRA:          -8.549
REMARK INTER:                  -8.328
REMARK INTRA:                  -0.221
REMARK UNBOUND:                -0.221
REMARK SMILES O=c1cc(-c2ccccc2)oc2ccccc12
REMARK SMILES IDX 4 1 3 2 2 3 1 4 17 5 16 6 15 7 14 8 13 9 12 10 11 11 5 12
REMARK SMILES IDX 8 13 7 14 9 15 6 16 10 17
REMARK H PARENT
REMARK Flexibility Score: inf
ROOT
ATOM      1  C   UNL     1      82.691 -25.269  87.730  1.00  0.00     0.138 A 
ATOM      2  C   UNL     1      82.451 -26.609  87.360  1.00  0.00     0.100 A 
ATOM      3  C   UNL     1      81.181 -26.984  86.918  1.00  0.00     0.193 A 
ATOM      4  O   UNL     1      80.965 -28.183  86.588  1.00  0.00    -0.289 OA
ATOM      5  C   UNL     1      80.162 -26.024  86.850  1.00  0.00     0.065 A 
ATOM      6  C   UNL     1      78.861 -26.336  86.414  1.00  0.00     0.016 A 
ATOM      7  C   UNL     1      77.882 -25.338  86.365  1.00  0.00     0.001 A 
ATOM      8  C   UNL     1      78.192 -24.029  86.748  1.00  0.00     0.004 A 
ATOM      9  C   UNL     1      79.482 -23.711  87.181  1.00  0.00     0.048 A 
ATOM     10  C   UNL     1      80.469 -24.701  87.234  1.00  0.00     0.138 A 
ATOM     11  O   UNL     1      81.693 -24.389  87.649  1.00  0.00    -0.456 OA
ENDROOT
BRANCH   1  12
ATOM     12  C   UNL     1      84.021 -24.784  88.213  1.00  0.00     0.017 A 
ATOM     13  C   UNL     1      86.553 -23.841  89.032  1.00  0.00     0.000 A 
ATOM     14  C   UNL     1      86.170 -23.744  87.695  1.00  0.00     0.001 A 
ATOM     15  C   UNL     1      85.682 -24.405  89.965  1.00  0.00     0.001 A 
ATOM     16  C   UNL     1      84.917 -24.210  87.287  1.00  0.00     0.012 A 
ATOM     17  C   UNL     1      84.427 -24.875  89.565  1.00  0.00     0.012 A 
ENDBRANCH   1  12
TORSDOF 1
ENDMDL
MODEL 2
REMARK VINA RESULT:    -7.650      2.968      7.162
REMARK INTER + INTRA:          -8.318
REMARK INTER:                  -8.054
REMARK INTRA:                  -0.264
REMARK UNBOUND:                -0.221
REMARK SMILES O=c1cc(-c2ccccc2)oc2ccccc12
REMARK SMILES IDX 4 1 3 2 2 3 1 4 17 5 16 6 15 7 14 8 13 9 12 10 11 11 5 12
REMARK SMILES IDX 8 13 7 14 9 15 6 16 10 17
REMARK H PARENT
REMARK Flexibility Score: inf
ROOT
ATOM      1  C   UNL     1      78.066 -26.390  85.532  1.00  0.00     0.138 A 
ATOM      2  C   UNL     1      78.727 -26.567  84.299  1.00  0.00     0.100 A 
ATOM      3  C   UNL     1      80.113 -26.739  84.280  1.00  0.00     0.193 A 
ATOM      4  O   UNL     1      80.705 -26.898  83.177  1.00  0.00    -0.289 OA
ATOM      5  C   UNL     1      80.826 -26.732  85.487  1.00  0.00     0.065 A 
ATOM      6  C   UNL     1      82.222 -26.900  85.537  1.00  0.00     0.016 A 
ATOM      7  C   UNL     1      82.884 -26.885  86.769  1.00  0.00     0.001 A 
ATOM      8  C   UNL     1      82.163 -26.704  87.953  1.00  0.00     0.004 A 
ATOM      9  C   UNL     1      80.776 -26.538  87.911  1.00  0.00     0.048 A 
ATOM     10  C   UNL     1      80.103 -26.551  86.685  1.00  0.00     0.138 A 
ATOM     11  O   UNL     1      78.784 -26.391  86.655  1.00  0.00    -0.456 OA
ENDROOT
BRANCH   1  12
ATOM     12  C   UNL     1      76.586 -26.200  85.642  1.00  0.00     0.017 A 
ATOM     13  C   UNL     1      73.790 -25.825  85.751  1.00  0.00     0.000 A 
ATOM     14  C   UNL     1      74.461 -25.724  84.533  1.00  0.00     0.001 A 
ATOM     15  C   UNL     1      74.503 -26.112  86.916  1.00  0.00     0.001 A 
ATOM     16  C   UNL     1      75.846 -25.909  84.476  1.00  0.00     0.012 A 
ATOM     17  C   UNL     1      75.888 -26.298  86.868  1.00  0.00     0.012 A 
ENDBRANCH   1  12
TORSDOF 1
ENDMDL
MODEL 3
REMARK VINA RESULT:    -7.642      3.622      7.219
REMARK INTER + INTRA:          -8.310
REMARK INTER:                  -8.044
REMARK INTRA:                  -0.265
REMARK UNBOUND:                -0.221
REMARK SMILES O=c1cc(-c2ccccc2)oc2ccccc12
REMARK SMILES IDX 4 1 3 2 2 3 1 4 17 5 16 6 15 7 14 8 13 9 12 10 11 11 5 12
REMARK SMILES IDX 8 13 7 14 9 15 6 16 10 17
REMARK H PARENT
REMARK Flexibility Score: inf
ROOT
ATOM      1  C   UNL     1      79.029 -26.674  84.041  1.00  0.00     0.138 A 
ATOM      2  C   UNL     1      78.243 -26.503  85.200  1.00  0.00     0.100 A 
ATOM      3  C   UNL     1      78.738 -25.741  86.261  1.00  0.00     0.193 A 
ATOM      4  O   UNL     1      78.036 -25.587  87.298  1.00  0.00    -0.289 OA
ATOM      5  C   UNL     1      80.009 -25.159  86.158  1.00  0.00     0.065 A 
ATOM      6  C   UNL     1      80.566 -24.381  87.189  1.00  0.00     0.016 A 
ATOM      7  C   UNL     1      81.839 -23.822  87.034  1.00  0.00     0.001 A 
ATOM      8  C   UNL     1      82.561 -24.034  85.856  1.00  0.00     0.004 A 
ATOM      9  C   UNL     1      82.015 -24.806  84.827  1.00  0.00     0.048 A 
ATOM     10  C   UNL     1      80.743 -25.369  84.971  1.00  0.00     0.138 A 
ATOM     11  O   UNL     1      80.231 -26.102  83.987  1.00  0.00    -0.456 OA
ENDROOT
BRANCH   1  12
ATOM     12  C   UNL     1      78.574 -27.473  82.862  1.00  0.00     0.017 A 
ATOM     13  C   UNL     1      77.640 -29.014  80.688  1.00  0.00     0.000 A 
ATOM     14  C   UNL     1      76.947 -29.020  81.897  1.00  0.00     0.001 A 
ATOM     15  C   UNL     1      78.796 -28.244  80.553  1.00  0.00     0.001 A 
ATOM     16  C   UNL     1      77.407 -28.258  82.975  1.00  0.00     0.012 A 
ATOM     17  C   UNL     1      79.264 -27.480  81.626  1.00  0.00     0.012 A 
ENDBRANCH   1  12
TORSDOF 1
ENDMDL
MODEL 4
REMARK VINA RESULT:    -7.560      3.585      6.799
REMARK INTER + INTRA:          -8.223
REMARK INTER:                  -7.979
REMARK INTRA:                  -0.244
REMARK UNBOUND:                -0.221
REMARK SMILES O=c1cc(-c2ccccc2)oc2ccccc12
REMARK SMILES IDX 4 1 3 2 2 3 1 4 17 5 16 6 15 7 14 8 13 9 12 10 11 11 5 12
REMARK SMILES IDX 8 13 7 14 9 15 6 16 10 17
REMARK H PARENT
REMARK Flexibility Score: inf
ROOT
ATOM      1  C   UNL     1      80.899 -27.459  83.949  1.00  0.00     0.138 A 
ATOM      2  C   UNL     1      81.899 -28.233  84.574  1.00  0.00     0.100 A 
ATOM      3  C   UNL     1      82.777 -27.626  85.474  1.00  0.00     0.193 A 
ATOM      4  O   UNL     1      83.673 -28.318  86.033  1.00  0.00    -0.289 OA
ATOM      5  C   UNL     1      82.652 -26.256  85.743  1.00  0.00     0.065 A 
ATOM      6  C   UNL     1      83.504 -25.584  86.639  1.00  0.00     0.016 A 
ATOM      7  C   UNL     1      83.334 -24.215  86.872  1.00  0.00     0.001 A 
ATOM      8  C   UNL     1      82.320 -23.511  86.216  1.00  0.00     0.004 A 
ATOM      9  C   UNL     1      81.469 -24.171  85.325  1.00  0.00     0.048 A 
ATOM     10  C   UNL     1      81.629 -25.540  85.086  1.00  0.00     0.138 A 
ATOM     11  O   UNL     1      80.816 -26.160  84.236  1.00  0.00    -0.456 OA
ENDROOT
BRANCH   1  12
ATOM     12  C   UNL     1      79.919 -28.030  82.975  1.00  0.00     0.017 A 
ATOM     13  C   UNL     1      78.087 -29.031  81.074  1.00  0.00     0.000 A 
ATOM     14  C   UNL     1      78.780 -27.848  80.820  1.00  0.00     0.001 A 
ATOM     15  C   UNL     1      78.301 -29.720  82.268  1.00  0.00     0.001 A 
ATOM     16  C   UNL     1      79.687 -27.350  81.759  1.00  0.00     0.012 A 
ATOM     17  C   UNL     1      79.207 -29.229  83.214  1.00  0.00     0.012 A 
ENDBRANCH   1  12
TORSDOF 1
ENDMDL
MODEL 5
REMARK VINA RESULT:    -7.496      2.938      7.082
REMARK INTER + INTRA:          -8.155
REMARK INTER:                  -7.920
REMARK INTRA:                  -0.235
REMARK UNBOUND:                -0.221
REMARK SMILES O=c1cc(-c2ccccc2)oc2ccccc12
REMARK SMILES IDX 4 1 3 2 2 3 1 4 17 5 16 6 15 7 14 8 13 9 12 10 11 11 5 12
REMARK SMILES IDX 8 13 7 14 9 15 6 16 10 17
REMARK H PARENT
REMARK Flexibility Score: inf
ROOT
ATOM      1  C   UNL     1      78.031 -25.657  85.343  1.00  0.00     0.138 A 
ATOM      2  C   UNL     1      78.769 -26.464  84.452  1.00  0.00     0.100 A 
ATOM      3  C   UNL     1      80.153 -26.302  84.361  1.00  0.00     0.193 A 
ATOM      4  O   UNL     1      80.813 -27.023  83.564  1.00  0.00    -0.289 OA
ATOM      5  C   UNL     1      80.788 -25.337  85.156  1.00  0.00     0.065 A 
ATOM      6  C   UNL     1      82.178 -25.123  85.113  1.00  0.00     0.016 A 
ATOM      7  C   UNL     1      82.761 -24.147  85.929  1.00  0.00     0.001 A 
ATOM      8  C   UNL     1      81.966 -23.384  86.789  1.00  0.00     0.004 A 
ATOM      9  C   UNL     1      80.585 -23.591  86.838  1.00  0.00     0.048 A 
ATOM     10  C   UNL     1      79.991 -24.564  86.028  1.00  0.00     0.138 A 
ATOM     11  O   UNL     1      78.677 -24.754  86.081  1.00  0.00    -0.456 OA
ENDROOT
BRANCH   1  12
ATOM     12  C   UNL     1      76.548 -25.767  85.502  1.00  0.00     0.017 A 
ATOM     13  C   UNL     1      73.738 -25.957  85.706  1.00  0.00     0.000 A 
ATOM     14  C   UNL     1      74.333 -25.689  84.474  1.00  0.00     0.001 A 
ATOM     15  C   UNL     1      74.534 -26.131  86.839  1.00  0.00     0.001 A 
ATOM     16  C   UNL     1      75.723 -25.595  84.370  1.00  0.00     0.012 A 
ATOM     17  C   UNL     1      75.926 -26.038  86.744  1.00  0.00     0.012 A 
ENDBRANCH   1  12
TORSDOF 1
ENDMDL
MODEL 6
REMARK VINA RESULT:    -7.496      3.396      7.395
REMARK INTER + INTRA:          -8.155
REMARK INTER:                  -7.915
REMARK INTRA:                  -0.240
REMARK UNBOUND:                -0.221
REMARK SMILES O=c1cc(-c2ccccc2)oc2ccccc12
REMARK SMILES IDX 4 1 3 2 2 3 1 4 17 5 16 6 15 7 14 8 13 9 12 10 11 11 5 12
REMARK SMILES IDX 8 13 7 14 9 15 6 16 10 17
REMARK H PARENT
REMARK Flexibility Score: inf
ROOT
ATOM      1  C   UNL     1      79.187 -27.327  84.304  1.00  0.00     0.138 A 
ATOM      2  C   UNL     1      78.499 -26.434  85.153  1.00  0.00     0.100 A 
ATOM      3  C   UNL     1      79.135 -25.942  86.295  1.00  0.00     0.193 A 
ATOM      4  O   UNL     1      78.521 -25.144  87.055  1.00  0.00    -0.289 OA
ATOM      5  C   UNL     1      80.448 -26.344  86.581  1.00  0.00     0.065 A 
ATOM      6  C   UNL     1      81.145 -25.886  87.714  1.00  0.00     0.016 A 
ATOM      7  C   UNL     1      82.454 -26.318  87.952  1.00  0.00     0.001 A 
ATOM      8  C   UNL     1      83.073 -27.205  87.066  1.00  0.00     0.004 A 
ATOM      9  C   UNL     1      82.387 -27.665  85.938  1.00  0.00     0.048 A 
ATOM     10  C   UNL     1      81.079 -27.239  85.690  1.00  0.00     0.138 A 
ATOM     11  O   UNL     1      80.434 -27.681  84.615  1.00  0.00    -0.456 OA
ENDROOT
BRANCH   1  12
ATOM     12  C   UNL     1      78.580 -27.900  83.063  1.00  0.00     0.017 A 
ATOM     13  C   UNL     1      77.355 -29.007  80.773  1.00  0.00     0.000 A 
ATOM     14  C   UNL     1      76.702 -29.051  82.005  1.00  0.00     0.001 A 
ATOM     15  C   UNL     1      78.614 -28.415  80.675  1.00  0.00     0.001 A 
ATOM     16  C   UNL     1      77.306 -28.503  83.140  1.00  0.00     0.012 A 
ATOM     17  C   UNL     1      79.226 -27.866  81.806  1.00  0.00     0.012 A 
ENDBRANCH   1  12
TORSDOF 1
ENDMDL
MODEL 7
REMARK VINA RESULT:    -7.454      2.199      7.127
REMARK INTER + INTRA:          -8.110
REMARK INTER:                  -7.871
REMARK INTRA:                  -0.239
REMARK UNBOUND:                -0.221
REMARK SMILES O=c1cc(-c2ccccc2)oc2ccccc12
REMARK SMILES IDX 4 1 3 2 2 3 1 4 17 5 16 6 15 7 14 8 13 9 12 10 11 11 5 12
REMARK SMILES IDX 8 13 7 14 9 15 6 16 10 17
REMARK H PARENT
REMARK Flexibility Score: inf
ROOT
ATOM      1  C   UNL     1      78.094 -25.084  86.782  1.00  0.00     0.138 A 
ATOM      2  C   UNL     1      78.624 -23.791  86.976  1.00  0.00     0.100 A 
ATOM      3  C   UNL     1      79.971 -23.642  87.312  1.00  0.00     0.193 A 
ATOM      4  O   UNL     1      80.445 -22.486  87.486  1.00  0.00    -0.289 OA
ATOM      5  C   UNL     1      80.777 -24.781  87.453  1.00  0.00     0.065 A 
ATOM      6  C   UNL     1      82.141 -24.700  87.789  1.00  0.00     0.016 A 
ATOM      7  C   UNL     1      82.900 -25.869  87.916  1.00  0.00     0.001 A 
ATOM      8  C   UNL     1      82.307 -27.118  87.709  1.00  0.00     0.004 A 
ATOM      9  C   UNL     1      80.953 -27.206  87.373  1.00  0.00     0.048 A 
ATOM     10  C   UNL     1      80.185 -26.045  87.244  1.00  0.00     0.138 A 
ATOM     11  O   UNL     1      78.898 -26.138  86.925  1.00  0.00    -0.456 OA
ENDROOT
BRANCH   1  12
ATOM     12  C   UNL     1      76.664 -25.332  86.420  1.00  0.00     0.017 A 
ATOM     13  C   UNL     1      73.975 -25.736  85.662  1.00  0.00     0.000 A 
ATOM     14  C   UNL     1      74.779 -24.854  84.941  1.00  0.00     0.001 A 
ATOM     15  C   UNL     1      74.502 -26.418  86.759  1.00  0.00     0.001 A 
ATOM     16  C   UNL     1      76.111 -24.652  85.314  1.00  0.00     0.012 A 
ATOM     17  C   UNL     1      75.833 -26.222  87.140  1.00  0.00     0.012 A 
ENDBRANCH   1  12
TORSDOF 1
ENDMDL
MODEL 8
REMARK VINA RESULT:    -7.313      3.538      5.162
REMARK INTER + INTRA:          -7.962
REMARK INTER:                  -7.714
REMARK INTRA:                  -0.248
REMARK UNBOUND:                -0.221
REMARK SMILES O=c1cc(-c2ccccc2)oc2ccccc12
REMARK SMILES IDX 4 1 3 2 2 3 1 4 17 5 16 6 15 7 14 8 13 9 12 10 11 11 5 12
REMARK SMILES IDX 8 13 7 14 9 15 6 16 10 17
REMARK H PARENT
REMARK Flexibility Score: inf
ROOT
ATOM      1  C   UNL     1      79.717 -26.121  84.665  1.00  0.00     0.138 A 
ATOM      2  C   UNL     1      78.409 -26.024  85.184  1.00  0.00     0.100 A 
ATOM      3  C   UNL     1      77.367 -26.710  84.557  1.00  0.00     0.193 A 
ATOM      4  O   UNL     1      76.197 -26.624  85.021  1.00  0.00    -0.289 OA
ATOM      5  C   UNL     1      77.636 -27.485  83.420  1.00  0.00     0.065 A 
ATOM      6  C   UNL     1      76.632 -28.200  82.741  1.00  0.00     0.016 A 
ATOM      7  C   UNL     1      76.956 -28.958  81.611  1.00  0.00     0.001 A 
ATOM      8  C   UNL     1      78.276 -29.008  81.152  1.00  0.00     0.004 A 
ATOM      9  C   UNL     1      79.279 -28.300  81.821  1.00  0.00     0.048 A 
ATOM     10  C   UNL     1      78.967 -27.540  82.953  1.00  0.00     0.138 A 
ATOM     11  O   UNL     1      79.927 -26.870  83.582  1.00  0.00    -0.456 OA
ENDROOT
BRANCH   1  12
ATOM     12  C   UNL     1      80.888 -25.420  85.275  1.00  0.00     0.017 A 
ATOM     13  C   UNL     1      83.043 -24.018  86.443  1.00  0.00     0.000 A 
ATOM     14  C   UNL     1      81.792 -23.411  86.333  1.00  0.00     0.001 A 
ATOM     15  C   UNL     1      83.228 -25.319  85.975  1.00  0.00     0.001 A 
ATOM     16  C   UNL     1      80.724 -24.103  85.756  1.00  0.00     0.012 A 
ATOM     17  C   UNL     1      82.165 -26.019  85.395  1.00  0.00     0.012 A 
ENDBRANCH   1  12
TORSDOF 1
ENDMDL
MODEL 9
REMARK VINA RESULT:    -7.188      2.740      6.829
REMARK INTER + INTRA:          -7.829
REMARK INTER:                  -7.563
REMARK INTRA:                  -0.266
REMARK UNBOUND:                -0.221
REMARK SMILES O=c1cc(-c2ccccc2)oc2ccccc12
REMARK SMILES IDX 4 1 3 2 2 3 1 4 17 5 16 6 15 7 14 8 13 9 12 10 11 11 5 12
REMARK SMILES IDX 8 13 7 14 9 15 6 16 10 17
REMARK H PARENT
REMARK Flexibility Score: inf
ROOT
ATOM      1  C   UNL     1      79.987 -26.423  84.848  1.00  0.00     0.138 A 
ATOM      2  C   UNL     1      79.446 -25.193  85.278  1.00  0.00     0.100 A 
ATOM      3  C   UNL     1      80.259 -24.283  85.957  1.00  0.00     0.193 A 
ATOM      4  O   UNL     1      79.776 -23.183  86.343  1.00  0.00    -0.289 OA
ATOM      5  C   UNL     1      81.602 -24.606  86.202  1.00  0.00     0.065 A 
ATOM      6  C   UNL     1      82.474 -23.735  86.879  1.00  0.00     0.016 A 
ATOM      7  C   UNL     1      83.805 -24.106  87.096  1.00  0.00     0.001 A 
ATOM      8  C   UNL     1      84.272 -25.343  86.641  1.00  0.00     0.004 A 
ATOM      9  C   UNL     1      83.412 -26.214  85.966  1.00  0.00     0.048 A 
ATOM     10  C   UNL     1      82.080 -25.852  85.744  1.00  0.00     0.138 A 
ATOM     11  O   UNL     1      81.268 -26.687  85.102  1.00  0.00    -0.456 OA
ENDROOT
BRANCH   1  12
ATOM     12  C   UNL     1      79.186 -27.452  84.116  1.00  0.00     0.017 A 
ATOM     13  C   UNL     1      77.597 -29.332  82.734  1.00  0.00     0.000 A 
ATOM     14  C   UNL     1      77.058 -28.101  83.105  1.00  0.00     0.001 A 
ATOM     15  C   UNL     1      78.923 -29.633  83.046  1.00  0.00     0.001 A 
ATOM     16  C   UNL     1      77.842 -27.168  83.789  1.00  0.00     0.012 A 
ATOM     17  C   UNL     1      79.715 -28.706  83.731  1.00  0.00     0.012 A 
ENDBRANCH   1  12
TORSDOF 1
ENDMDL
