MODEL 1
REMARK VINA RESULT:    -5.599      0.000      0.000
REMARK INTER + INTRA:          -7.069
REMARK INTER:                  -6.745
REMARK INTRA:                  -0.324
REMARK UNBOUND:                -0.324
REMARK SMILES O=c1c(O)c(-c2ccc(O)c(O)c2)oc2cc(O)cc(O)c12
REMARK SMILES IDX 5 1 3 2 2 3 1 4 22 5 20 6 19 7 17 8 16 9 15 10 14 11 6 12
REMARK SMILES IDX 7 13 8 14 9 15 13 16 11 17 10 18 12 20 4 22 21 24 18 26
REMARK H PARENT 10 19 12 21 4 23 21 25 18 27
REMARK Flexibility Score: inf
ROOT
ATOM      1  C   UNL     1      -5.136 -39.594 218.073  1.00  0.00     0.180 A 
ATOM      2  C   UNL     1      -3.855 -40.129 218.293  1.00  0.00     0.208 A 
ATOM      3  C   UNL     1      -3.304 -40.067 219.583  1.00  0.00     0.238 A 
ATOM      4  O   UNL     1      -2.181 -40.596 219.786  1.00  0.00    -0.285 OA
ATOM      5  C   UNL     1      -4.033 -39.457 220.632  1.00  0.00     0.111 A 
ATOM      6  C   UNL     1      -3.555 -39.304 221.968  1.00  0.00     0.134 A 
ATOM      7  C   UNL     1      -4.414 -38.803 222.955  1.00  0.00     0.093 A 
ATOM      8  C   UNL     1      -5.710 -38.390 222.640  1.00  0.00     0.123 A 
ATOM      9  C   UNL     1      -6.165 -38.480 221.327  1.00  0.00     0.094 A 
ATOM     10  C   UNL     1      -5.345 -39.010 220.327  1.00  0.00     0.146 A 
ATOM     11  O   UNL     1      -5.822 -39.088 219.091  1.00  0.00    -0.452 OA
ENDROOT
BRANCH   1  12
ATOM     12  C   UNL     1      -5.773 -39.599 216.736  1.00  0.00     0.025 A 
ATOM     13  C   UNL     1      -5.492 -38.603 215.787  1.00  0.00     0.016 A 
ATOM     14  C   UNL     1      -6.122 -38.616 214.543  1.00  0.00     0.051 A 
ATOM     15  C   UNL     1      -7.054 -39.609 214.222  1.00  0.00     0.157 A 
ATOM     16  C   UNL     1      -6.723 -40.584 216.427  1.00  0.00     0.062 A 
ATOM     17  C   UNL     1      -7.362 -40.605 215.180  1.00  0.00     0.158 A 
BRANCH  15  18
ATOM     18  O   UNL     1      -7.646 -39.568 212.959  1.00  0.00    -0.504 OA
ATOM     19  H   UNL     1      -7.137 -39.674 212.093  1.00  0.00     0.293 HD
ENDBRANCH  15  18
BRANCH  17  20
ATOM     20  O   UNL     1      -8.287 -41.623 214.937  1.00  0.00    -0.504 OA
ATOM     21  H   UNL     1      -8.152 -42.586 215.210  1.00  0.00     0.293 HD
ENDBRANCH  17  20
ENDBRANCH   1  12
BRANCH   2  22
ATOM     22  O   UNL     1      -3.162 -40.746 217.248  1.00  0.00    -0.502 OA
ATOM     23  H   UNL     1      -2.598 -41.576 217.384  1.00  0.00     0.293 HD
ENDBRANCH   2  22
BRANCH   6  24
ATOM     24  O   UNL     1      -2.249 -39.601 222.369  1.00  0.00    -0.507 OA
ATOM     25  H   UNL     1      -1.674 -40.324 221.964  1.00  0.00     0.293 HD
ENDBRANCH   6  24
BRANCH   8  26
ATOM     26  O   UNL     1      -6.551 -37.877 223.625  1.00  0.00    -0.508 OA
ATOM     27  H   UNL     1      -6.825 -38.430 224.429  1.00  0.00     0.293 HD
ENDBRANCH   8  26
TORSDOF 6
ENDMDL
MODEL 2
REMARK VINA RESULT:    -5.430      2.310      7.308
REMARK INTER + INTRA:          -6.865
REMARK INTER:                  -6.677
REMARK INTRA:                  -0.188
REMARK UNBOUND:                -0.324
REMARK SMILES O=c1c(O)c(-c2ccc(O)c(O)c2)oc2cc(O)cc(O)c12
REMARK SMILES IDX 5 1 3 2 2 3 1 4 22 5 20 6 19 7 17 8 16 9 15 10 14 11 6 12
REMARK SMILES IDX 7 13 8 14 9 15 13 16 11 17 10 18 12 20 4 22 21 24 18 26
REMARK H PARENT 10 19 12 21 4 23 21 25 18 27
REMARK Flexibility Score: inf
ROOT
ATOM      1  C   UNL     1      -5.860 -40.336 217.250  1.00  0.00     0.180 A 
ATOM      2  C   UNL     1      -7.063 -40.959 216.874  1.00  0.00     0.208 A 
ATOM      3  C   UNL     1      -7.205 -41.426 215.557  1.00  0.00     0.238 A 
ATOM      4  O   UNL     1      -8.262 -42.031 215.242  1.00  0.00    -0.285 OA
ATOM      5  C   UNL     1      -6.150 -41.250 214.630  1.00  0.00     0.111 A 
ATOM      6  C   UNL     1      -6.201 -41.648 213.260  1.00  0.00     0.134 A 
ATOM      7  C   UNL     1      -5.050 -41.544 212.468  1.00  0.00     0.093 A 
ATOM      8  C   UNL     1      -3.871 -40.995 212.979  1.00  0.00     0.123 A 
ATOM      9  C   UNL     1      -3.830 -40.549 214.297  1.00  0.00     0.094 A 
ATOM     10  C   UNL     1      -4.950 -40.673 215.123  1.00  0.00     0.146 A 
ATOM     11  O   UNL     1      -4.865 -40.245 216.376  1.00  0.00    -0.452 OA
ENDROOT
BRANCH   1  12
ATOM     12  C   UNL     1      -5.645 -39.796 218.613  1.00  0.00     0.025 A 
ATOM     13  C   UNL     1      -5.504 -38.418 218.839  1.00  0.00     0.016 A 
ATOM     14  C   UNL     1      -5.279 -37.934 220.128  1.00  0.00     0.051 A 
ATOM     15  C   UNL     1      -5.175 -38.811 221.213  1.00  0.00     0.157 A 
ATOM     16  C   UNL     1      -5.520 -40.680 219.695  1.00  0.00     0.062 A 
ATOM     17  C   UNL     1      -5.293 -40.205 220.993  1.00  0.00     0.158 A 
BRANCH  15  18
ATOM     18  O   UNL     1      -4.954 -38.264 222.478  1.00  0.00    -0.504 OA
ATOM     19  H   UNL     1      -4.257 -38.601 223.126  1.00  0.00     0.293 HD
ENDBRANCH  15  18
BRANCH  17  20
ATOM     20  O   UNL     1      -5.192 -41.142 222.023  1.00  0.00    -0.504 OA
ATOM     21  H   UNL     1      -5.373 -42.129 221.909  1.00  0.00     0.293 HD
ENDBRANCH  17  20
ENDBRANCH   1  12
BRANCH   2  22
ATOM     22  O   UNL     1      -8.083 -41.142 217.812  1.00  0.00    -0.502 OA
ATOM     23  H   UNL     1      -9.063 -41.154 217.555  1.00  0.00     0.293 HD
ENDBRANCH   2  22
BRANCH   6  24
ATOM     24  O   UNL     1      -7.353 -42.123 212.628  1.00  0.00    -0.507 OA
ATOM     25  H   UNL     1      -8.240 -41.641 212.610  1.00  0.00     0.293 HD
ENDBRANCH   6  24
BRANCH   8  26
ATOM     26  O   UNL     1      -2.737 -40.880 212.178  1.00  0.00    -0.508 OA
ATOM     27  H   UNL     1      -2.767 -40.414 211.279  1.00  0.00     0.293 HD
ENDBRANCH   8  26
TORSDOF 6
ENDMDL
MODEL 3
REMARK VINA RESULT:    -5.260      3.697      5.707
REMARK INTER + INTRA:          -6.661
REMARK INTER:                  -6.967
REMARK INTRA:                   0.306
REMARK UNBOUND:                -0.324
REMARK SMILES O=c1c(O)c(-c2ccc(O)c(O)c2)oc2cc(O)cc(O)c12
REMARK SMILES IDX 5 1 3 2 2 3 1 4 22 5 20 6 19 7 17 8 16 9 15 10 14 11 6 12
REMARK SMILES IDX 7 13 8 14 9 15 13 16 11 17 10 18 12 20 4 22 21 24 18 26
REMARK H PARENT 10 19 12 21 4 23 21 25 18 27
REMARK Flexibility Score: inf
ROOT
ATOM      1  C   UNL     1      -4.375 -40.921 214.316  1.00  0.00     0.180 A 
ATOM      2  C   UNL     1      -5.721 -41.302 214.176  1.00  0.00     0.208 A 
ATOM      3  C   UNL     1      -6.584 -41.171 215.277  1.00  0.00     0.238 A 
ATOM      4  O   UNL     1      -7.799 -41.462 215.129  1.00  0.00    -0.285 OA
ATOM      5  C   UNL     1      -6.086 -40.677 216.507  1.00  0.00     0.111 A 
ATOM      6  C   UNL     1      -6.862 -40.541 217.698  1.00  0.00     0.134 A 
ATOM      7  C   UNL     1      -6.300 -39.918 218.819  1.00  0.00     0.093 A 
ATOM      8  C   UNL     1      -4.971 -39.486 218.813  1.00  0.00     0.123 A 
ATOM      9  C   UNL     1      -4.189 -39.669 217.676  1.00  0.00     0.094 A 
ATOM     10  C   UNL     1      -4.732 -40.254 216.529  1.00  0.00     0.146 A 
ATOM     11  O   UNL     1      -3.955 -40.399 215.463  1.00  0.00    -0.452 OA
ENDROOT
BRANCH   1  12
ATOM     12  C   UNL     1      -3.400 -41.053 213.209  1.00  0.00     0.025 A 
ATOM     13  C   UNL     1      -3.586 -41.986 212.178  1.00  0.00     0.016 A 
ATOM     14  C   UNL     1      -2.642 -42.109 211.158  1.00  0.00     0.051 A 
ATOM     15  C   UNL     1      -1.489 -41.317 211.152  1.00  0.00     0.157 A 
ATOM     16  C   UNL     1      -2.234 -40.273 213.219  1.00  0.00     0.062 A 
ATOM     17  C   UNL     1      -1.279 -40.388 212.200  1.00  0.00     0.158 A 
BRANCH  15  18
ATOM     18  O   UNL     1      -0.585 -41.485 210.101  1.00  0.00    -0.504 OA
ATOM     19  H   UNL     1      -0.517 -40.863 209.309  1.00  0.00     0.293 HD
ENDBRANCH  15  18
BRANCH  17  20
ATOM     20  O   UNL     1      -0.149 -39.571 212.268  1.00  0.00    -0.504 OA
ATOM     21  H   UNL     1       0.231 -39.066 211.481  1.00  0.00     0.293 HD
ENDBRANCH  17  20
ENDBRANCH   1  12
BRANCH   2  22
ATOM     22  O   UNL     1      -6.196 -41.767 212.947  1.00  0.00    -0.502 OA
ATOM     23  H   UNL     1      -7.183 -41.800 212.722  1.00  0.00     0.293 HD
ENDBRANCH   2  22
BRANCH   6  24
ATOM     24  O   UNL     1      -8.167 -41.020 217.838  1.00  0.00    -0.507 OA
ATOM     25  H   UNL     1      -8.997 -40.446 217.809  1.00  0.00     0.293 HD
ENDBRANCH   6  24
BRANCH   8  26
ATOM     26  O   UNL     1      -4.416 -38.883 219.939  1.00  0.00    -0.508 OA
ATOM     27  H   UNL     1      -3.491 -39.128 220.271  1.00  0.00     0.293 HD
ENDBRANCH   8  26
TORSDOF 6
ENDMDL
MODEL 4
REMARK VINA RESULT:    -5.258      2.049      6.926
REMARK INTER + INTRA:          -6.658
REMARK INTER:                  -6.324
REMARK INTRA:                  -0.334
REMARK UNBOUND:                -0.324
REMARK SMILES O=c1c(O)c(-c2ccc(O)c(O)c2)oc2cc(O)cc(O)c12
REMARK SMILES IDX 5 1 3 2 2 3 1 4 22 5 20 6 19 7 17 8 16 9 15 10 14 11 6 12
REMARK SMILES IDX 7 13 8 14 9 15 13 16 11 17 10 18 12 20 4 22 21 24 18 26
REMARK H PARENT 10 19 12 21 4 23 21 25 18 27
REMARK Flexibility Score: inf
ROOT
ATOM      1  C   UNL     1      -5.540 -39.971 218.386  1.00  0.00     0.180 A 
ATOM      2  C   UNL     1      -6.602 -40.469 217.611  1.00  0.00     0.208 A 
ATOM      3  C   UNL     1      -6.426 -40.611 216.225  1.00  0.00     0.238 A 
ATOM      4  O   UNL     1      -7.360 -41.109 215.545  1.00  0.00    -0.285 OA
ATOM      5  C   UNL     1      -5.197 -40.238 215.630  1.00  0.00     0.111 A 
ATOM      6  C   UNL     1      -4.922 -40.302 214.230  1.00  0.00     0.134 A 
ATOM      7  C   UNL     1      -3.628 -40.031 213.768  1.00  0.00     0.093 A 
ATOM      8  C   UNL     1      -2.617 -39.636 214.647  1.00  0.00     0.123 A 
ATOM      9  C   UNL     1      -2.891 -39.513 216.007  1.00  0.00     0.094 A 
ATOM     10  C   UNL     1      -4.163 -39.812 216.503  1.00  0.00     0.146 A 
ATOM     11  O   UNL     1      -4.378 -39.692 217.807  1.00  0.00    -0.452 OA
ENDROOT
BRANCH   1  12
ATOM     12  C   UNL     1      -5.659 -39.769 219.849  1.00  0.00     0.025 A 
ATOM     13  C   UNL     1      -6.157 -38.571 220.384  1.00  0.00     0.016 A 
ATOM     14  C   UNL     1      -6.238 -38.395 221.766  1.00  0.00     0.051 A 
ATOM     15  C   UNL     1      -5.812 -39.400 222.641  1.00  0.00     0.157 A 
ATOM     16  C   UNL     1      -5.210 -40.771 220.723  1.00  0.00     0.062 A 
ATOM     17  C   UNL     1      -5.287 -40.604 222.112  1.00  0.00     0.158 A 
BRANCH  15  18
ATOM     18  O   UNL     1      -5.923 -39.164 224.012  1.00  0.00    -0.504 OA
ATOM     19  H   UNL     1      -5.393 -38.463 224.510  1.00  0.00     0.293 HD
ENDBRANCH  15  18
BRANCH  17  20
ATOM     20  O   UNL     1      -4.833 -41.648 222.921  1.00  0.00    -0.504 OA
ATOM     21  H   UNL     1      -5.179 -41.833 223.851  1.00  0.00     0.293 HD
ENDBRANCH  17  20
ENDBRANCH   1  12
BRANCH   2  22
ATOM     22  O   UNL     1      -7.800 -40.852 218.223  1.00  0.00    -0.502 OA
ATOM     23  H   UNL     1      -7.826 -41.434 219.050  1.00  0.00     0.293 HD
ENDBRANCH   2  22
BRANCH   6  24
ATOM     24  O   UNL     1      -5.883 -40.597 213.260  1.00  0.00    -0.507 OA
ATOM     25  H   UNL     1      -6.461 -41.425 213.255  1.00  0.00     0.293 HD
ENDBRANCH   6  24
BRANCH   8  26
ATOM     26  O   UNL     1      -1.337 -39.354 214.176  1.00  0.00    -0.508 OA
ATOM     27  H   UNL     1      -0.959 -39.815 213.357  1.00  0.00     0.293 HD
ENDBRANCH   8  26
TORSDOF 6
ENDMDL
MODEL 5
REMARK VINA RESULT:    -4.911      1.924      6.674
REMARK INTER + INTRA:          -6.240
REMARK INTER:                  -5.980
REMARK INTRA:                  -0.260
REMARK UNBOUND:                -0.324
REMARK SMILES O=c1c(O)c(-c2ccc(O)c(O)c2)oc2cc(O)cc(O)c12
REMARK SMILES IDX 5 1 3 2 2 3 1 4 22 5 20 6 19 7 17 8 16 9 15 10 14 11 6 12
REMARK SMILES IDX 7 13 8 14 9 15 13 16 11 17 10 18 12 20 4 22 21 24 18 26
REMARK H PARENT 10 19 12 21 4 23 21 25 18 27
REMARK Flexibility Score: inf
ROOT
ATOM      1  C   UNL     1      -4.891 -40.028 217.877  1.00  0.00     0.180 A 
ATOM      2  C   UNL     1      -3.722 -40.671 217.433  1.00  0.00     0.208 A 
ATOM      3  C   UNL     1      -3.598 -40.997 216.073  1.00  0.00     0.238 A 
ATOM      4  O   UNL     1      -2.527 -41.522 215.672  1.00  0.00    -0.285 OA
ATOM      5  C   UNL     1      -4.652 -40.692 215.177  1.00  0.00     0.111 A 
ATOM      6  C   UNL     1      -4.650 -41.013 213.786  1.00  0.00     0.134 A 
ATOM      7  C   UNL     1      -5.688 -40.547 212.970  1.00  0.00     0.093 A 
ATOM      8  C   UNL     1      -6.759 -39.828 213.506  1.00  0.00     0.123 A 
ATOM      9  C   UNL     1      -6.799 -39.561 214.872  1.00  0.00     0.094 A 
ATOM     10  C   UNL     1      -5.760 -39.981 215.707  1.00  0.00     0.146 A 
ATOM     11  O   UNL     1      -5.832 -39.697 217.001  1.00  0.00    -0.452 OA
ENDROOT
BRANCH   1  12
ATOM     12  C   UNL     1      -5.104 -39.675 219.299  1.00  0.00     0.025 A 
ATOM     13  C   UNL     1      -4.953 -38.357 219.756  1.00  0.00     0.016 A 
ATOM     14  C   UNL     1      -5.137 -38.052 221.106  1.00  0.00     0.051 A 
ATOM     15  C   UNL     1      -5.458 -39.054 222.028  1.00  0.00     0.157 A 
ATOM     16  C   UNL     1      -5.405 -40.686 220.225  1.00  0.00     0.062 A 
ATOM     17  C   UNL     1      -5.590 -40.391 221.582  1.00  0.00     0.158 A 
BRANCH  15  18
ATOM     18  O   UNL     1      -5.632 -38.683 223.362  1.00  0.00    -0.504 OA
ATOM     19  H   UNL     1      -4.892 -38.335 223.953  1.00  0.00     0.293 HD
ENDBRANCH  15  18
BRANCH  17  20
ATOM     20  O   UNL     1      -5.900 -41.446 222.443  1.00  0.00    -0.504 OA
ATOM     21  H   UNL     1      -5.212 -42.059 222.856  1.00  0.00     0.293 HD
ENDBRANCH  17  20
ENDBRANCH   1  12
BRANCH   2  22
ATOM     22  O   UNL     1      -2.685 -40.943 218.331  1.00  0.00    -0.502 OA
ATOM     23  H   UNL     1      -2.220 -41.842 218.369  1.00  0.00     0.293 HD
ENDBRANCH   2  22
BRANCH   6  24
ATOM     24  O   UNL     1      -3.676 -41.802 213.169  1.00  0.00    -0.507 OA
ATOM     25  H   UNL     1      -2.808 -41.453 212.791  1.00  0.00     0.293 HD
ENDBRANCH   6  24
BRANCH   8  26
ATOM     26  O   UNL     1      -7.795 -39.382 212.688  1.00  0.00    -0.508 OA
ATOM     27  H   UNL     1      -8.678 -39.068 213.074  1.00  0.00     0.293 HD
ENDBRANCH   8  26
TORSDOF 6
ENDMDL
MODEL 6
REMARK VINA RESULT:    -4.847      1.488      3.146
REMARK INTER + INTRA:          -6.163
REMARK INTER:                  -6.002
REMARK INTRA:                  -0.161
REMARK UNBOUND:                -0.324
REMARK SMILES O=c1c(O)c(-c2ccc(O)c(O)c2)oc2cc(O)cc(O)c12
REMARK SMILES IDX 5 1 3 2 2 3 1 4 22 5 20 6 19 7 17 8 16 9 15 10 14 11 6 12
REMARK SMILES IDX 7 13 8 14 9 15 13 16 11 17 10 18 12 20 4 22 21 24 18 26
REMARK H PARENT 10 19 12 21 4 23 21 25 18 27
REMARK Flexibility Score: inf
ROOT
ATOM      1  C   UNL     1      -4.953 -39.264 219.483  1.00  0.00     0.180 A 
ATOM      2  C   UNL     1      -5.866 -38.904 220.489  1.00  0.00     0.208 A 
ATOM      3  C   UNL     1      -5.420 -38.834 221.819  1.00  0.00     0.238 A 
ATOM      4  O   UNL     1      -6.228 -38.459 222.708  1.00  0.00    -0.285 OA
ATOM      5  C   UNL     1      -4.073 -39.141 222.127  1.00  0.00     0.111 A 
ATOM      6  C   UNL     1      -3.523 -39.142 223.445  1.00  0.00     0.134 A 
ATOM      7  C   UNL     1      -2.147 -39.333 223.618  1.00  0.00     0.093 A 
ATOM      8  C   UNL     1      -1.312 -39.587 222.527  1.00  0.00     0.123 A 
ATOM      9  C   UNL     1      -1.849 -39.648 221.244  1.00  0.00     0.094 A 
ATOM     10  C   UNL     1      -3.213 -39.425 221.035  1.00  0.00     0.146 A 
ATOM     11  O   UNL     1      -3.681 -39.481 219.795  1.00  0.00    -0.452 OA
ENDROOT
BRANCH   1  12
ATOM     12  C   UNL     1      -5.355 -39.383 218.062  1.00  0.00     0.025 A 
ATOM     13  C   UNL     1      -4.859 -38.504 217.086  1.00  0.00     0.016 A 
ATOM     14  C   UNL     1      -5.269 -38.621 215.757  1.00  0.00     0.051 A 
ATOM     15  C   UNL     1      -6.191 -39.603 215.377  1.00  0.00     0.157 A 
ATOM     16  C   UNL     1      -6.295 -40.355 217.688  1.00  0.00     0.062 A 
ATOM     17  C   UNL     1      -6.714 -40.481 216.357  1.00  0.00     0.158 A 
BRANCH  15  18
ATOM     18  O   UNL     1      -6.557 -39.670 214.032  1.00  0.00    -0.504 OA
ATOM     19  H   UNL     1      -6.002 -40.117 213.316  1.00  0.00     0.293 HD
ENDBRANCH  15  18
BRANCH  17  20
ATOM     20  O   UNL     1      -7.643 -41.479 216.057  1.00  0.00    -0.504 OA
ATOM     21  H   UNL     1      -8.633 -41.313 215.942  1.00  0.00     0.293 HD
ENDBRANCH  17  20
ENDBRANCH   1  12
BRANCH   2  22
ATOM     22  O   UNL     1      -7.186 -38.585 220.160  1.00  0.00    -0.502 OA
ATOM     23  H   UNL     1      -7.975 -38.881 220.722  1.00  0.00     0.293 HD
ENDBRANCH   2  22
BRANCH   6  24
ATOM     24  O   UNL     1      -4.284 -38.988 224.607  1.00  0.00    -0.507 OA
ATOM     25  H   UNL     1      -5.276 -39.158 224.673  1.00  0.00     0.293 HD
ENDBRANCH   6  24
BRANCH   8  26
ATOM     26  O   UNL     1       0.054 -39.792 222.711  1.00  0.00    -0.508 OA
ATOM     27  H   UNL     1       0.713 -39.023 222.692  1.00  0.00     0.293 HD
ENDBRANCH   8  26
TORSDOF 6
ENDMDL
MODEL 7
REMARK VINA RESULT:    -4.655      2.487      7.355
REMARK INTER + INTRA:          -5.932
REMARK INTER:                  -5.609
REMARK INTRA:                  -0.323
REMARK UNBOUND:                -0.324
REMARK SMILES O=c1c(O)c(-c2ccc(O)c(O)c2)oc2cc(O)cc(O)c12
REMARK SMILES IDX 5 1 3 2 2 3 1 4 22 5 20 6 19 7 17 8 16 9 15 10 14 11 6 12
REMARK SMILES IDX 7 13 8 14 9 15 13 16 11 17 10 18 12 20 4 22 21 24 18 26
REMARK H PARENT 10 19 12 21 4 23 21 25 18 27
REMARK Flexibility Score: inf
ROOT
ATOM      1  C   UNL     1      -4.603 -37.647 222.496  1.00  0.00     0.180 A 
ATOM      2  C   UNL     1      -3.681 -38.634 222.887  1.00  0.00     0.208 A 
ATOM      3  C   UNL     1      -3.308 -39.623 221.963  1.00  0.00     0.238 A 
ATOM      4  O   UNL     1      -2.443 -40.471 222.301  1.00  0.00    -0.285 OA
ATOM      5  C   UNL     1      -3.874 -39.622 220.665  1.00  0.00     0.111 A 
ATOM      6  C   UNL     1      -3.599 -40.599 219.661  1.00  0.00     0.134 A 
ATOM      7  C   UNL     1      -4.114 -40.426 218.370  1.00  0.00     0.093 A 
ATOM      8  C   UNL     1      -4.947 -39.346 218.065  1.00  0.00     0.123 A 
ATOM      9  C   UNL     1      -5.269 -38.420 219.054  1.00  0.00     0.094 A 
ATOM     10  C   UNL     1      -4.741 -38.546 220.342  1.00  0.00     0.146 A 
ATOM     11  O   UNL     1      -5.065 -37.635 221.252  1.00  0.00    -0.452 OA
ENDROOT
BRANCH   1  12
ATOM     12  C   UNL     1      -5.063 -36.587 223.423  1.00  0.00     0.025 A 
ATOM     13  C   UNL     1      -4.364 -35.376 223.554  1.00  0.00     0.016 A 
ATOM     14  C   UNL     1      -4.803 -34.402 224.450  1.00  0.00     0.051 A 
ATOM     15  C   UNL     1      -5.935 -34.618 225.244  1.00  0.00     0.157 A 
ATOM     16  C   UNL     1      -6.185 -36.816 224.233  1.00  0.00     0.062 A 
ATOM     17  C   UNL     1      -6.634 -35.844 225.137  1.00  0.00     0.158 A 
BRANCH  15  18
ATOM     18  O   UNL     1      -6.324 -33.602 226.118  1.00  0.00    -0.504 OA
ATOM     19  H   UNL     1      -7.278 -33.437 226.405  1.00  0.00     0.293 HD
ENDBRANCH  15  18
BRANCH  17  20
ATOM     20  O   UNL     1      -7.765 -36.137 225.901  1.00  0.00    -0.504 OA
ATOM     21  H   UNL     1      -7.908 -35.810 226.846  1.00  0.00     0.293 HD
ENDBRANCH  17  20
ENDBRANCH   1  12
BRANCH   2  22
ATOM     22  O   UNL     1      -3.119 -38.603 224.167  1.00  0.00    -0.502 OA
ATOM     23  H   UNL     1      -3.115 -39.409 224.779  1.00  0.00     0.293 HD
ENDBRANCH   2  22
BRANCH   6  24
ATOM     24  O   UNL     1      -2.856 -41.761 219.886  1.00  0.00    -0.507 OA
ATOM     25  H   UNL     1      -2.136 -41.856 220.587  1.00  0.00     0.293 HD
ENDBRANCH   6  24
BRANCH   8  26
ATOM     26  O   UNL     1      -5.467 -39.191 216.783  1.00  0.00    -0.508 OA
ATOM     27  H   UNL     1      -6.358 -39.596 216.518  1.00  0.00     0.293 HD
ENDBRANCH   8  26
TORSDOF 6
ENDMDL
