MODEL 1
REMARK VINA RESULT:    -4.162      0.000      0.000
REMARK INTER + INTRA:          -4.573
REMARK INTER:                  -4.527
REMARK INTRA:                  -0.046
REMARK UNBOUND:                -0.046
REMARK SMILES CC1(C)[C@H]2CC=C(CO)[C@@H]1C2
REMARK SMILES IDX 8 1 7 2 1 3 2 4 4 5 3 6 10 7 5 8 11 9 6 10 9 11
REMARK H PARENT 9 12
REMARK Flexibility Score: inf
ROOT
ATOM      1  C   UNL     1      17.827   4.443  42.883  1.00  0.00     0.187 C 
ENDROOT
BRANCH   1   2
ATOM      2  C   UNL     1      17.039   3.230  43.283  1.00  0.00    -0.045 C 
ATOM      3  C   UNL     1      14.513   2.481  41.937  1.00  0.00     0.012 C 
ATOM      4  C   UNL     1      14.642   2.483  43.487  1.00  0.00    -0.026 C 
ATOM      5  C   UNL     1      15.327   1.272  44.178  1.00  0.00    -0.000 C 
ATOM      6  C   UNL     1      13.248   2.790  44.089  1.00  0.00     0.012 C 
ATOM      7  C   UNL     1      15.764   3.339  44.132  1.00  0.00     0.023 C 
ATOM      8  C   UNL     1      16.547   0.775  43.327  1.00  0.00     0.031 C 
ATOM      9  C   UNL     1      15.912   2.252  45.215  1.00  0.00     0.013 C 
ATOM     10  C   UNL     1      17.424   1.972  42.913  1.00  0.00    -0.025 C 
ENDBRANCH   1   2
BRANCH   1  11
ATOM     11  O   UNL     1      17.418   5.542  43.648  1.00  0.00    -0.392 OA
ATOM     12  H   UNL     1      16.435   5.452  43.757  1.00  0.00     0.211 HD
ENDBRANCH   1  11
TORSDOF 2
ENDMDL
MODEL 2
REMARK VINA RESULT:    -4.076     21.620     23.204
REMARK INTER + INTRA:          -4.480
REMARK INTER:                  -4.445
REMARK INTRA:                  -0.035
REMARK UNBOUND:                -0.046
REMARK SMILES CC1(C)[C@H]2CC=C(CO)[C@@H]1C2
REMARK SMILES IDX 8 1 7 2 1 3 2 4 4 5 3 6 10 7 5 8 11 9 6 10 9 11
REMARK H PARENT 9 12
REMARK Flexibility Score: inf
ROOT
ATOM      1  C   UNL     1       1.816  -8.970  29.067  1.00  0.00     0.187 C 
ENDROOT
BRANCH   1   2
ATOM      2  C   UNL     1       3.026  -8.627  28.248  1.00  0.00    -0.045 C 
ATOM      3  C   UNL     1       4.256  -5.937  28.316  1.00  0.00     0.012 C 
ATOM      4  C   UNL     1       3.987  -6.677  26.975  1.00  0.00    -0.026 C 
ATOM      5  C   UNL     1       4.986  -7.774  26.517  1.00  0.00    -0.000 C 
ATOM      6  C   UNL     1       3.739  -5.614  25.875  1.00  0.00     0.012 C 
ATOM      7  C   UNL     1       2.919  -7.803  26.956  1.00  0.00     0.023 C 
ATOM      8  C   UNL     1       5.480  -8.612  27.747  1.00  0.00     0.031 C 
ATOM      9  C   UNL     1       3.791  -8.555  25.931  1.00  0.00     0.013 C 
ATOM     10  C   UNL     1       4.277  -9.035  28.614  1.00  0.00    -0.025 C 
ENDBRANCH   1   2
BRANCH   1  11
ATOM     11  O   UNL     1       1.208 -10.119  28.546  1.00  0.00    -0.392 OA
ATOM     12  H   UNL     1       1.163  -9.986  27.564  1.00  0.00     0.211 HD
ENDBRANCH   1  11
TORSDOF 2
ENDMDL
MODEL 3
REMARK VINA RESULT:    -4.059      2.078      2.772
REMARK INTER + INTRA:          -4.461
REMARK INTER:                  -4.417
REMARK INTRA:                  -0.045
REMARK UNBOUND:                -0.046
REMARK SMILES CC1(C)[C@H]2CC=C(CO)[C@@H]1C2
REMARK SMILES IDX 8 1 7 2 1 3 2 4 4 5 3 6 10 7 5 8 11 9 6 10 9 11
REMARK H PARENT 9 12
REMARK Flexibility Score: inf
ROOT
ATOM      1  C   UNL     1      16.955   5.671  39.744  1.00  0.00     0.187 C 
ENDROOT
BRANCH   1   2
ATOM      2  C   UNL     1      17.184   4.505  40.660  1.00  0.00    -0.045 C 
ATOM      3  C   UNL     1      15.134   2.413  41.085  1.00  0.00     0.012 C 
ATOM      4  C   UNL     1      15.903   3.056  42.275  1.00  0.00    -0.026 C 
ATOM      5  C   UNL     1      17.337   2.554  42.593  1.00  0.00    -0.000 C 
ATOM      6  C   UNL     1      14.982   3.026  43.520  1.00  0.00     0.012 C 
ATOM      7  C   UNL     1      16.561   4.445  42.063  1.00  0.00     0.023 C 
ATOM      8  C   UNL     1      18.121   2.263  41.266  1.00  0.00     0.031 C 
ATOM      9  C   UNL     1      17.708   3.997  42.990  1.00  0.00     0.013 C 
ATOM     10  C   UNL     1      17.961   3.444  40.289  1.00  0.00    -0.025 C 
ENDBRANCH   1   2
BRANCH   1  11
ATOM     11  O   UNL     1      16.602   6.797  40.497  1.00  0.00    -0.392 OA
ATOM     12  H   UNL     1      16.384   6.464  41.405  1.00  0.00     0.211 HD
ENDBRANCH   1  11
TORSDOF 2
ENDMDL
MODEL 4
REMARK VINA RESULT:    -3.960      1.068      2.335
REMARK INTER + INTRA:          -4.354
REMARK INTER:                  -4.301
REMARK INTRA:                  -0.053
REMARK UNBOUND:                -0.046
REMARK SMILES CC1(C)[C@H]2CC=C(CO)[C@@H]1C2
REMARK SMILES IDX 8 1 7 2 1 3 2 4 4 5 3 6 10 7 5 8 11 9 6 10 9 11
REMARK H PARENT 9 12
REMARK Flexibility Score: inf
ROOT
ATOM      1  C   UNL     1      17.999   4.712  42.644  1.00  0.00     0.187 C 
ENDROOT
BRANCH   1   2
ATOM      2  C   UNL     1      17.016   3.617  42.352  1.00  0.00    -0.045 C 
ATOM      3  C   UNL     1      14.861   2.891  44.246  1.00  0.00     0.012 C 
ATOM      4  C   UNL     1      15.745   1.809  43.562  1.00  0.00    -0.026 C 
ATOM      5  C   UNL     1      15.416   1.393  42.102  1.00  0.00    -0.000 C 
ATOM      6  C   UNL     1      15.840   0.588  44.512  1.00  0.00     0.012 C 
ATOM      7  C   UNL     1      17.131   2.232  43.007  1.00  0.00     0.023 C 
ATOM      8  C   UNL     1      14.981   2.644  41.262  1.00  0.00     0.031 C 
ATOM      9  C   UNL     1      16.929   1.228  41.855  1.00  0.00     0.013 C 
ATOM     10  C   UNL     1      15.975   3.800  41.486  1.00  0.00    -0.025 C 
ENDBRANCH   1   2
BRANCH   1  11
ATOM     11  O   UNL     1      17.438   5.614  43.556  1.00  0.00    -0.392 OA
ATOM     12  H   UNL     1      16.742   6.114  43.057  1.00  0.00     0.211 HD
ENDBRANCH   1  11
TORSDOF 2
ENDMDL
MODEL 5
REMARK VINA RESULT:    -3.924      2.888      4.299
REMARK INTER + INTRA:          -4.314
REMARK INTER:                  -4.275
REMARK INTRA:                  -0.039
REMARK UNBOUND:                -0.046
REMARK SMILES CC1(C)[C@H]2CC=C(CO)[C@@H]1C2
REMARK SMILES IDX 8 1 7 2 1 3 2 4 4 5 3 6 10 7 5 8 11 9 6 10 9 11
REMARK H PARENT 9 12
REMARK Flexibility Score: inf
ROOT
ATOM      1  C   UNL     1      14.594   1.835  40.872  1.00  0.00     0.187 C 
ENDROOT
BRANCH   1   2
ATOM      2  C   UNL     1      15.850   2.651  40.786  1.00  0.00    -0.045 C 
ATOM      3  C   UNL     1      18.124   2.234  42.633  1.00  0.00     0.012 C 
ATOM      4  C   UNL     1      17.589   3.658  42.306  1.00  0.00    -0.026 C 
ATOM      5  C   UNL     1      18.023   4.327  40.974  1.00  0.00    -0.000 C 
ATOM      6  C   UNL     1      17.850   4.568  43.532  1.00  0.00     0.012 C 
ATOM      7  C   UNL     1      16.140   3.795  41.769  1.00  0.00     0.023 C 
ATOM      8  C   UNL     1      18.078   3.266  39.820  1.00  0.00     0.031 C 
ATOM      9  C   UNL     1      16.621   4.965  40.889  1.00  0.00     0.013 C 
ATOM     10  C   UNL     1      16.793   2.415  39.825  1.00  0.00    -0.025 C 
ENDBRANCH   1   2
BRANCH   1  11
ATOM     11  O   UNL     1      13.499   2.617  40.482  1.00  0.00    -0.392 OA
ATOM     12  H   UNL     1      13.339   3.256  41.223  1.00  0.00     0.211 HD
ENDBRANCH   1  11
TORSDOF 2
ENDMDL
MODEL 6
REMARK VINA RESULT:    -3.875      1.997      3.149
REMARK INTER + INTRA:          -4.261
REMARK INTER:                  -4.237
REMARK INTRA:                  -0.024
REMARK UNBOUND:                -0.046
REMARK SMILES CC1(C)[C@H]2CC=C(CO)[C@@H]1C2
REMARK SMILES IDX 8 1 7 2 1 3 2 4 4 5 3 6 10 7 5 8 11 9 6 10 9 11
REMARK H PARENT 9 12
REMARK Flexibility Score: inf
ROOT
ATOM      1  C   UNL     1      16.817   5.593  40.070  1.00  0.00     0.187 C 
ENDROOT
BRANCH   1   2
ATOM      2  C   UNL     1      16.779   4.605  41.198  1.00  0.00    -0.045 C 
ATOM      3  C   UNL     1      18.125   1.975  41.031  1.00  0.00     0.012 C 
ATOM      4  C   UNL     1      16.669   2.114  41.561  1.00  0.00    -0.026 C 
ATOM      5  C   UNL     1      16.452   2.576  43.027  1.00  0.00    -0.000 C 
ATOM      6  C   UNL     1      15.909   0.802  41.241  1.00  0.00     0.012 C 
ATOM      7  C   UNL     1      15.858   3.376  41.164  1.00  0.00     0.023 C 
ATOM      8  C   UNL     1      17.496   3.680  43.413  1.00  0.00     0.031 C 
ATOM      9  C   UNL     1      15.195   3.335  42.555  1.00  0.00     0.013 C 
ATOM     10  C   UNL     1      17.559   4.755  42.310  1.00  0.00    -0.025 C 
ENDBRANCH   1   2
BRANCH   1  11
ATOM     11  O   UNL     1      16.618   6.886  40.571  1.00  0.00    -0.392 OA
ATOM     12  H   UNL     1      16.322   7.437  39.802  1.00  0.00     0.211 HD
ENDBRANCH   1  11
TORSDOF 2
ENDMDL
MODEL 7
REMARK VINA RESULT:    -3.768     21.273     22.917
REMARK INTER + INTRA:          -4.145
REMARK INTER:                  -4.084
REMARK INTRA:                  -0.060
REMARK UNBOUND:                -0.046
REMARK SMILES CC1(C)[C@H]2CC=C(CO)[C@@H]1C2
REMARK SMILES IDX 8 1 7 2 1 3 2 4 4 5 3 6 10 7 5 8 11 9 6 10 9 11
REMARK H PARENT 9 12
REMARK Flexibility Score: inf
ROOT
ATOM      1  C   UNL     1       6.284  -9.333  28.675  1.00  0.00     0.187 C 
ENDROOT
BRANCH   1   2
ATOM      2  C   UNL     1       5.218  -8.462  28.080  1.00  0.00    -0.045 C 
ATOM      3  C   UNL     1       2.360  -8.772  28.780  1.00  0.00     0.012 C 
ATOM      4  C   UNL     1       2.826  -8.618  27.304  1.00  0.00    -0.026 C 
ATOM      5  C   UNL     1       3.154  -7.196  26.773  1.00  0.00    -0.000 C 
ATOM      6  C   UNL     1       1.817  -9.365  26.396  1.00  0.00     0.012 C 
ATOM      7  C   UNL     1       4.298  -8.963  26.956  1.00  0.00     0.023 C 
ATOM      8  C   UNL     1       3.880  -6.353  27.878  1.00  0.00     0.031 C 
ATOM      9  C   UNL     1       4.276  -7.823  25.919  1.00  0.00     0.013 C 
ATOM     10  C   UNL     1       5.019  -7.179  28.507  1.00  0.00    -0.025 C 
ENDBRANCH   1   2
BRANCH   1  11
ATOM     11  O   UNL     1       5.735 -10.111  29.702  1.00  0.00    -0.392 OA
ATOM     12  H   UNL     1       6.400 -10.102  30.439  1.00  0.00     0.211 HD
ENDBRANCH   1  11
TORSDOF 2
ENDMDL
MODEL 8
REMARK VINA RESULT:    -3.657      1.999      3.718
REMARK INTER + INTRA:          -4.024
REMARK INTER:                  -3.998
REMARK INTRA:                  -0.026
REMARK UNBOUND:                -0.046
REMARK SMILES CC1(C)[C@H]2CC=C(CO)[C@@H]1C2
REMARK SMILES IDX 8 1 7 2 1 3 2 4 4 5 3 6 10 7 5 8 11 9 6 10 9 11
REMARK H PARENT 9 12
REMARK Flexibility Score: inf
ROOT
ATOM      1  C   UNL     1      14.618   2.690  43.929  1.00  0.00     0.187 C 
ENDROOT
BRANCH   1   2
ATOM      2  C   UNL     1      15.730   2.752  42.923  1.00  0.00    -0.045 C 
ATOM      3  C   UNL     1      17.708   4.952  42.900  1.00  0.00     0.012 C 
ATOM      4  C   UNL     1      17.020   4.460  41.595  1.00  0.00    -0.026 C 
ATOM      5  C   UNL     1      17.556   3.174  40.910  1.00  0.00    -0.000 C 
ATOM      6  C   UNL     1      16.933   5.655  40.612  1.00  0.00     0.012 C 
ATOM      7  C   UNL     1      15.674   3.697  41.714  1.00  0.00     0.023 C 
ATOM      8  C   UNL     1      17.963   2.110  41.987  1.00  0.00     0.031 C 
ATOM      9  C   UNL     1      16.106   2.834  40.512  1.00  0.00     0.013 C 
ATOM     10  C   UNL     1      16.842   1.966  43.036  1.00  0.00    -0.025 C 
ENDBRANCH   1   2
BRANCH   1  11
ATOM     11  O   UNL     1      15.142   2.376  45.189  1.00  0.00    -0.392 OA
ATOM     12  H   UNL     1      15.880   1.734  45.028  1.00  0.00     0.211 HD
ENDBRANCH   1  11
TORSDOF 2
ENDMDL
MODEL 9
REMARK VINA RESULT:    -1.947     21.408     23.166
REMARK INTER + INTRA:          -2.164
REMARK INTER:                  -2.141
REMARK INTRA:                  -0.023
REMARK UNBOUND:                -0.046
REMARK SMILES CC1(C)[C@H]2CC=C(CO)[C@@H]1C2
REMARK SMILES IDX 8 1 7 2 1 3 2 4 4 5 3 6 10 7 5 8 11 9 6 10 9 11
REMARK H PARENT 9 12
REMARK Flexibility Score: inf
ROOT
ATOM      1  C   UNL     1       1.702  -9.001  29.226  1.00  0.00     0.187 C 
ENDROOT
BRANCH   1   2
ATOM      2  C   UNL     1       2.637  -8.525  28.153  1.00  0.00    -0.045 C 
ATOM      3  C   UNL     1       5.515  -9.211  28.157  1.00  0.00     0.012 C 
ATOM      4  C   UNL     1       5.023  -7.760  27.891  1.00  0.00    -0.026 C 
ATOM      5  C   UNL     1       4.502  -7.399  26.474  1.00  0.00    -0.000 C 
ATOM      6  C   UNL     1       6.118  -6.778  28.380  1.00  0.00     0.012 C 
ATOM      7  C   UNL     1       3.609  -7.358  28.388  1.00  0.00     0.023 C 
ATOM      8  C   UNL     1       3.676  -8.590  25.875  1.00  0.00     0.031 C 
ATOM      9  C   UNL     1       3.469  -6.466  27.138  1.00  0.00     0.013 C 
ATOM     10  C   UNL     1       2.663  -9.105  26.916  1.00  0.00    -0.025 C 
ENDBRANCH   1   2
BRANCH   1  11
ATOM     11  O   UNL     1       1.001 -10.125  28.773  1.00  0.00    -0.392 OA
ATOM     12  H   UNL     1       1.604 -10.901  28.915  1.00  0.00     0.211 HD
ENDBRANCH   1  11
TORSDOF 2
ENDMDL
