MODEL 1
REMARK VINA RESULT:    -4.598      0.000      0.000
REMARK INTER + INTRA:          -6.422
REMARK INTER:                  -5.674
REMARK INTRA:                  -0.748
REMARK UNBOUND:                -0.748
REMARK SMILES CC(C)=CCC[C@@H](C)c1ccc(C)cc1
REMARK SMILES IDX 6 1 7 2 8 3 9 4 13 5 12 6 11 7 14 8 10 9 15 10 5 11 4 12
REMARK SMILES IDX 2 13 1 14 3 15
REMARK H PARENT
REMARK Flexibility Score: inf
ROOT
ATOM      1  C   UNL     1     -45.445  28.146  -4.365  1.00  0.00     0.012 C 
ENDROOT
BRANCH   1   2
ATOM      2  C   UNL     1     -44.097  28.106  -3.603  1.00  0.00     0.016 C 
ATOM      3  C   UNL     1     -43.235  29.354  -3.849  1.00  0.00     0.013 C 
BRANCH   2   4
ATOM      4  C   UNL     1     -44.339  27.918  -2.116  1.00  0.00    -0.045 A 
ATOM      5  C   UNL     1     -44.997  27.402   2.122  1.00  0.00     0.044 C 
ATOM      6  C   UNL     1     -44.765  27.551   0.648  1.00  0.00    -0.051 A 
ATOM      7  C   UNL     1     -43.473  27.786   0.156  1.00  0.00     0.004 A 
ATOM      8  C   UNL     1     -45.847  27.525  -0.244  1.00  0.00     0.004 A 
ATOM      9  C   UNL     1     -43.260  27.960  -1.215  1.00  0.00     0.004 A 
ATOM     10  C   UNL     1     -45.636  27.700  -1.615  1.00  0.00     0.004 A 
ENDBRANCH   2   4
ENDBRANCH   1   2
BRANCH   1  11
ATOM     11  C   UNL     1     -45.365  28.855  -5.731  1.00  0.00     0.028 C 
BRANCH  11  12
ATOM     12  C   UNL     1     -45.537  27.901  -6.891  1.00  0.00    -0.028 C 
ATOM     13  C   UNL     1     -44.500  27.402  -7.596  1.00  0.00    -0.080 C 
ATOM     14  C   UNL     1     -43.073  27.772  -7.270  1.00  0.00     0.039 C 
ATOM     15  C   UNL     1     -44.786  26.457  -8.734  1.00  0.00     0.039 C 
ENDBRANCH  11  12
ENDBRANCH   1  11
TORSDOF 4
ENDMDL
MODEL 2
REMARK VINA RESULT:    -4.587      1.618      6.632
REMARK INTER + INTRA:          -6.408
REMARK INTER:                  -5.711
REMARK INTRA:                  -0.697
REMARK UNBOUND:                -0.748
REMARK SMILES CC(C)=CCC[C@@H](C)c1ccc(C)cc1
REMARK SMILES IDX 6 1 7 2 8 3 9 4 13 5 12 6 11 7 14 8 10 9 15 10 5 11 4 12
REMARK SMILES IDX 2 13 1 14 3 15
REMARK H PARENT
REMARK Flexibility Score: inf
ROOT
ATOM      1  C   UNL     1     -44.068  26.911  -1.373  1.00  0.00     0.012 C 
ENDROOT
BRANCH   1   2
ATOM      2  C   UNL     1     -45.091  27.588  -2.316  1.00  0.00     0.016 C 
ATOM      3  C   UNL     1     -45.759  28.820  -1.686  1.00  0.00     0.013 C 
BRANCH   2   4
ATOM      4  C   UNL     1     -44.429  27.963  -3.630  1.00  0.00    -0.045 A 
ATOM      5  C   UNL     1     -42.522  29.056  -7.349  1.00  0.00     0.044 C 
ATOM      6  C   UNL     1     -43.211  28.688  -6.069  1.00  0.00    -0.051 A 
ATOM      7  C   UNL     1     -43.225  29.585  -4.990  1.00  0.00     0.004 A 
ATOM      8  C   UNL     1     -43.787  27.418  -5.915  1.00  0.00     0.004 A 
ATOM      9  C   UNL     1     -43.835  29.229  -3.784  1.00  0.00     0.004 A 
ATOM     10  C   UNL     1     -44.397  27.061  -4.709  1.00  0.00     0.004 A 
ENDBRANCH   2   4
ENDBRANCH   1   2
BRANCH   1  11
ATOM     11  C   UNL     1     -44.040  27.508   0.047  1.00  0.00     0.028 C 
BRANCH  11  12
ATOM     12  C   UNL     1     -42.805  28.340   0.304  1.00  0.00    -0.028 C 
ATOM     13  C   UNL     1     -42.774  29.361   1.187  1.00  0.00    -0.080 C 
ATOM     14  C   UNL     1     -43.993  29.749   1.989  1.00  0.00     0.039 C 
ATOM     15  C   UNL     1     -41.487  30.125   1.365  1.00  0.00     0.039 C 
ENDBRANCH  11  12
ENDBRANCH   1  11
TORSDOF 4
ENDMDL
MODEL 3
REMARK VINA RESULT:    -4.566      1.500      2.221
REMARK INTER + INTRA:          -6.382
REMARK INTER:                  -5.593
REMARK INTRA:                  -0.790
REMARK UNBOUND:                -0.748
REMARK SMILES CC(C)=CCC[C@@H](C)c1ccc(C)cc1
REMARK SMILES IDX 6 1 7 2 8 3 9 4 13 5 12 6 11 7 14 8 10 9 15 10 5 11 4 12
REMARK SMILES IDX 2 13 1 14 3 15
REMARK H PARENT
REMARK Flexibility Score: inf
ROOT
ATOM      1  C   UNL     1     -44.139  27.020  -4.768  1.00  0.00     0.012 C 
ENDROOT
BRANCH   1   2
ATOM      2  C   UNL     1     -44.823  28.213  -4.056  1.00  0.00     0.016 C 
ATOM      3  C   UNL     1     -46.346  28.046  -3.942  1.00  0.00     0.013 C 
BRANCH   2   4
ATOM      4  C   UNL     1     -44.213  28.426  -2.683  1.00  0.00    -0.045 A 
ATOM      5  C   UNL     1     -42.485  29.068   1.224  1.00  0.00     0.044 C 
ATOM      6  C   UNL     1     -43.057  28.838  -0.143  1.00  0.00    -0.051 A 
ATOM      7  C   UNL     1     -43.204  29.910  -1.037  1.00  0.00     0.004 A 
ATOM      8  C   UNL     1     -43.512  27.565  -0.515  1.00  0.00     0.004 A 
ATOM      9  C   UNL     1     -43.769  29.704  -2.299  1.00  0.00     0.004 A 
ATOM     10  C   UNL     1     -44.079  27.359  -1.776  1.00  0.00     0.004 A 
ENDBRANCH   2   4
ENDBRANCH   1   2
BRANCH   1  11
ATOM     11  C   UNL     1     -43.278  27.429  -5.979  1.00  0.00     0.028 C 
BRANCH  11  12
ATOM     12  C   UNL     1     -43.932  28.499  -6.823  1.00  0.00    -0.028 C 
ATOM     13  C   UNL     1     -44.677  28.225  -7.915  1.00  0.00    -0.080 C 
ATOM     14  C   UNL     1     -44.908  26.806  -8.377  1.00  0.00     0.039 C 
ATOM     15  C   UNL     1     -45.284  29.369  -8.683  1.00  0.00     0.039 C 
ENDBRANCH  11  12
ENDBRANCH   1  11
TORSDOF 4
ENDMDL
MODEL 4
REMARK VINA RESULT:    -4.494      1.459      2.136
REMARK INTER + INTRA:          -6.293
REMARK INTER:                  -5.779
REMARK INTRA:                  -0.514
REMARK UNBOUND:                -0.748
REMARK SMILES CC(C)=CCC[C@@H](C)c1ccc(C)cc1
REMARK SMILES IDX 6 1 7 2 8 3 9 4 13 5 12 6 11 7 14 8 10 9 15 10 5 11 4 12
REMARK SMILES IDX 2 13 1 14 3 15
REMARK H PARENT
REMARK Flexibility Score: inf
ROOT
ATOM      1  C   UNL     1     -44.821  27.346  -3.517  1.00  0.00     0.012 C 
ENDROOT
BRANCH   1   2
ATOM      2  C   UNL     1     -45.535  28.241  -2.474  1.00  0.00     0.016 C 
ATOM      3  C   UNL     1     -46.819  27.603  -1.920  1.00  0.00     0.013 C 
BRANCH   2   4
ATOM      4  C   UNL     1     -44.587  28.586  -1.339  1.00  0.00    -0.045 A 
ATOM      5  C   UNL     1     -41.862  29.550   1.871  1.00  0.00     0.044 C 
ATOM      6  C   UNL     1     -42.823  29.197   0.776  1.00  0.00    -0.051 A 
ATOM      7  C   UNL     1     -42.540  28.137  -0.099  1.00  0.00     0.004 A 
ATOM      8  C   UNL     1     -43.979  29.965   0.574  1.00  0.00     0.004 A 
ATOM      9  C   UNL     1     -43.418  27.829  -1.142  1.00  0.00     0.004 A 
ATOM     10  C   UNL     1     -44.858  29.658  -0.469  1.00  0.00     0.004 A 
ENDBRANCH   2   4
ENDBRANCH   1   2
BRANCH   1  11
ATOM     11  C   UNL     1     -44.317  28.114  -4.753  1.00  0.00     0.028 C 
BRANCH  11  12
ATOM     12  C   UNL     1     -44.871  27.562  -6.046  1.00  0.00    -0.028 C 
ATOM     13  C   UNL     1     -44.133  27.432  -7.169  1.00  0.00    -0.080 C 
ATOM     14  C   UNL     1     -42.680  27.839  -7.211  1.00  0.00     0.039 C 
ATOM     15  C   UNL     1     -44.787  26.868  -8.404  1.00  0.00     0.039 C 
ENDBRANCH  11  12
ENDBRANCH   1  11
TORSDOF 4
ENDMDL
MODEL 5
REMARK VINA RESULT:    -4.459      0.894      6.589
REMARK INTER + INTRA:          -6.249
REMARK INTER:                  -5.477
REMARK INTRA:                  -0.772
REMARK UNBOUND:                -0.748
REMARK SMILES CC(C)=CCC[C@@H](C)c1ccc(C)cc1
REMARK SMILES IDX 6 1 7 2 8 3 9 4 13 5 12 6 11 7 14 8 10 9 15 10 5 11 4 12
REMARK SMILES IDX 2 13 1 14 3 15
REMARK H PARENT
REMARK Flexibility Score: inf
ROOT
ATOM      1  C   UNL     1     -45.347  28.618  -2.624  1.00  0.00     0.012 C 
ENDROOT
BRANCH   1   2
ATOM      2  C   UNL     1     -44.497  29.348  -3.693  1.00  0.00     0.016 C 
ATOM      3  C   UNL     1     -43.035  29.541  -3.262  1.00  0.00     0.013 C 
BRANCH   2   4
ATOM      4  C   UNL     1     -44.562  28.604  -5.015  1.00  0.00    -0.045 A 
ATOM      5  C   UNL     1     -44.779  26.505  -8.784  1.00  0.00     0.044 C 
ATOM      6  C   UNL     1     -44.707  27.207  -7.461  1.00  0.00    -0.051 A 
ATOM      7  C   UNL     1     -45.867  27.740  -6.880  1.00  0.00     0.004 A 
ATOM      8  C   UNL     1     -43.471  27.397  -6.827  1.00  0.00     0.004 A 
ATOM      9  C   UNL     1     -45.797  28.426  -5.663  1.00  0.00     0.004 A 
ATOM     10  C   UNL     1     -43.399  28.083  -5.611  1.00  0.00     0.004 A 
ENDBRANCH   2   4
ENDBRANCH   1   2
BRANCH   1  11
ATOM     11  C   UNL     1     -44.595  27.488  -1.897  1.00  0.00     0.028 C 
BRANCH  11  12
ATOM     12  C   UNL     1     -44.937  27.415  -0.426  1.00  0.00    -0.028 C 
ATOM     13  C   UNL     1     -44.082  27.790   0.549  1.00  0.00    -0.080 C 
ATOM     14  C   UNL     1     -42.702  28.314   0.232  1.00  0.00     0.039 C 
ATOM     15  C   UNL     1     -44.527  27.676   1.984  1.00  0.00     0.039 C 
ENDBRANCH  11  12
ENDBRANCH   1  11
TORSDOF 4
ENDMDL
MODEL 6
REMARK VINA RESULT:    -4.154      1.468      6.583
REMARK INTER + INTRA:          -5.873
REMARK INTER:                  -5.106
REMARK INTRA:                  -0.767
REMARK UNBOUND:                -0.748
REMARK SMILES CC(C)=CCC[C@@H](C)c1ccc(C)cc1
REMARK SMILES IDX 6 1 7 2 8 3 9 4 13 5 12 6 11 7 14 8 10 9 15 10 5 11 4 12
REMARK SMILES IDX 2 13 1 14 3 15
REMARK H PARENT
REMARK Flexibility Score: inf
ROOT
ATOM      1  C   UNL     1     -44.845  27.163  -1.364  1.00  0.00     0.012 C 
ENDROOT
BRANCH   1   2
ATOM      2  C   UNL     1     -44.435  28.537  -1.948  1.00  0.00     0.016 C 
ATOM      3  C   UNL     1     -43.302  29.207  -1.155  1.00  0.00     0.013 C 
BRANCH   2   4
ATOM      4  C   UNL     1     -44.042  28.393  -3.407  1.00  0.00    -0.045 A 
ATOM      5  C   UNL     1     -42.953  27.960  -7.565  1.00  0.00     0.044 C 
ATOM      6  C   UNL     1     -43.305  28.097  -6.114  1.00  0.00    -0.051 A 
ATOM      7  C   UNL     1     -44.045  27.096  -5.468  1.00  0.00     0.004 A 
ATOM      8  C   UNL     1     -42.956  29.258  -5.408  1.00  0.00     0.004 A 
ATOM      9  C   UNL     1     -44.404  27.239  -4.124  1.00  0.00     0.004 A 
ATOM     10  C   UNL     1     -43.315  29.402  -4.065  1.00  0.00     0.004 A 
ENDBRANCH   2   4
ENDBRANCH   1   2
BRANCH   1  11
ATOM     11  C   UNL     1     -46.265  27.140  -0.766  1.00  0.00     0.028 C 
BRANCH  11  12
ATOM     12  C   UNL     1     -46.589  28.396   0.009  1.00  0.00    -0.028 C 
ATOM     13  C   UNL     1     -46.293  28.553   1.317  1.00  0.00    -0.080 C 
ATOM     14  C   UNL     1     -45.608  27.465   2.108  1.00  0.00     0.039 C 
ATOM     15  C   UNL     1     -46.660  29.849   1.992  1.00  0.00     0.039 C 
ENDBRANCH  11  12
ENDBRANCH   1  11
TORSDOF 4
ENDMDL
MODEL 7
REMARK VINA RESULT:    -4.047      1.525      5.975
REMARK INTER + INTRA:          -5.741
REMARK INTER:                  -4.556
REMARK INTRA:                  -1.185
REMARK UNBOUND:                -0.748
REMARK SMILES CC(C)=CCC[C@@H](C)c1ccc(C)cc1
REMARK SMILES IDX 6 1 7 2 8 3 9 4 13 5 12 6 11 7 14 8 10 9 15 10 5 11 4 12
REMARK SMILES IDX 2 13 1 14 3 15
REMARK H PARENT
REMARK Flexibility Score: inf
ROOT
ATOM      1  C   UNL     1     -46.478  27.591  -2.083  1.00  0.00     0.012 C 
ENDROOT
BRANCH   1   2
ATOM      2  C   UNL     1     -46.867  28.407  -3.341  1.00  0.00     0.016 C 
ATOM      3  C   UNL     1     -47.123  29.890  -3.033  1.00  0.00     0.013 C 
BRANCH   2   4
ATOM      4  C   UNL     1     -45.799  28.268  -4.410  1.00  0.00    -0.045 A 
ATOM      5  C   UNL     1     -42.748  27.840  -7.439  1.00  0.00     0.044 C 
ATOM      6  C   UNL     1     -43.792  28.013  -6.376  1.00  0.00    -0.051 A 
ATOM      7  C   UNL     1     -43.682  27.324  -5.159  1.00  0.00     0.004 A 
ATOM      8  C   UNL     1     -44.921  28.810  -6.616  1.00  0.00     0.004 A 
ATOM      9  C   UNL     1     -44.673  27.457  -4.181  1.00  0.00     0.004 A 
ATOM     10  C   UNL     1     -45.912  28.943  -5.640  1.00  0.00     0.004 A 
ENDBRANCH   2   4
ENDBRANCH   1   2
BRANCH   1  11
ATOM     11  C   UNL     1     -46.196  28.458  -0.842  1.00  0.00     0.028 C 
BRANCH  11  12
ATOM     12  C   UNL     1     -44.861  28.147  -0.206  1.00  0.00    -0.028 C 
ATOM     13  C   UNL     1     -43.727  28.813  -0.508  1.00  0.00    -0.080 C 
ATOM     14  C   UNL     1     -43.715  29.933  -1.522  1.00  0.00     0.039 C 
ATOM     15  C   UNL     1     -42.449  28.422   0.187  1.00  0.00     0.039 C 
ENDBRANCH  11  12
ENDBRANCH   1  11
TORSDOF 4
ENDMDL
MODEL 8
REMARK VINA RESULT:    -3.974      1.716      6.938
REMARK INTER + INTRA:          -5.652
REMARK INTER:                  -4.913
REMARK INTRA:                  -0.738
REMARK UNBOUND:                -0.748
REMARK SMILES CC(C)=CCC[C@@H](C)c1ccc(C)cc1
REMARK SMILES IDX 6 1 7 2 8 3 9 4 13 5 12 6 11 7 14 8 10 9 15 10 5 11 4 12
REMARK SMILES IDX 2 13 1 14 3 15
REMARK H PARENT
REMARK Flexibility Score: inf
ROOT
ATOM      1  C   UNL     1     -43.198  29.150  -3.541  1.00  0.00     0.012 C 
ENDROOT
BRANCH   1   2
ATOM      2  C   UNL     1     -43.683  27.999  -4.457  1.00  0.00     0.016 C 
ATOM      3  C   UNL     1     -44.756  27.122  -3.794  1.00  0.00     0.013 C 
BRANCH   2   4
ATOM      4  C   UNL     1     -44.196  28.555  -5.773  1.00  0.00    -0.045 A 
ATOM      5  C   UNL     1     -45.690  30.125  -9.510  1.00  0.00     0.044 C 
ATOM      6  C   UNL     1     -45.155  29.560  -8.228  1.00  0.00    -0.051 A 
ATOM      7  C   UNL     1     -45.847  28.537  -7.563  1.00  0.00     0.004 A 
ATOM      8  C   UNL     1     -43.995  30.095  -7.650  1.00  0.00     0.004 A 
ATOM      9  C   UNL     1     -45.367  28.033  -6.350  1.00  0.00     0.004 A 
ATOM     10  C   UNL     1     -43.515  29.593  -6.436  1.00  0.00     0.004 A 
ENDBRANCH   2   4
ENDBRANCH   1   2
BRANCH   1  11
ATOM     11  C   UNL     1     -44.099  29.390  -2.315  1.00  0.00     0.028 C 
BRANCH  11  12
ATOM     12  C   UNL     1     -43.308  29.682  -1.060  1.00  0.00    -0.028 C 
ATOM     13  C   UNL     1     -43.016  28.741  -0.137  1.00  0.00    -0.080 C 
ATOM     14  C   UNL     1     -43.470  27.310  -0.296  1.00  0.00     0.039 C 
ATOM     15  C   UNL     1     -42.219  29.141   1.077  1.00  0.00     0.039 C 
ENDBRANCH  11  12
ENDBRANCH   1  11
TORSDOF 4
ENDMDL
MODEL 9
REMARK VINA RESULT:    -3.588      1.969      2.972
REMARK INTER + INTRA:          -5.175
REMARK INTER:                  -4.318
REMARK INTRA:                  -0.857
REMARK UNBOUND:                -0.748
REMARK SMILES CC(C)=CCC[C@@H](C)c1ccc(C)cc1
REMARK SMILES IDX 6 1 7 2 8 3 9 4 13 5 12 6 11 7 14 8 10 9 15 10 5 11 4 12
REMARK SMILES IDX 2 13 1 14 3 15
REMARK H PARENT
REMARK Flexibility Score: inf
ROOT
ATOM      1  C   UNL     1     -43.457  27.563  -6.210  1.00  0.00     0.012 C 
ENDROOT
BRANCH   1   2
ATOM      2  C   UNL     1     -43.179  28.723  -5.222  1.00  0.00     0.016 C 
ATOM      3  C   UNL     1     -43.157  30.098  -5.908  1.00  0.00     0.013 C 
BRANCH   2   4
ATOM      4  C   UNL     1     -44.200  28.713  -4.098  1.00  0.00    -0.045 A 
ATOM      5  C   UNL     1     -47.121  28.710  -0.916  1.00  0.00     0.044 C 
ATOM      6  C   UNL     1     -46.086  28.720  -2.001  1.00  0.00    -0.051 A 
ATOM      7  C   UNL     1     -45.907  29.862  -2.796  1.00  0.00     0.004 A 
ATOM      8  C   UNL     1     -45.336  27.567  -2.273  1.00  0.00     0.004 A 
ATOM      9  C   UNL     1     -44.966  29.861  -3.831  1.00  0.00     0.004 A 
ATOM     10  C   UNL     1     -44.396  27.565  -3.308  1.00  0.00     0.004 A 
ENDBRANCH   2   4
ENDBRANCH   1   2
BRANCH   1  11
ATOM     11  C   UNL     1     -44.856  27.616  -6.854  1.00  0.00     0.028 C 
BRANCH  11  12
ATOM     12  C   UNL     1     -44.875  28.413  -8.138  1.00  0.00    -0.028 C 
ATOM     13  C   UNL     1     -45.770  29.392  -8.386  1.00  0.00    -0.080 C 
ATOM     14  C   UNL     1     -46.835  29.761  -7.381  1.00  0.00     0.039 C 
ATOM     15  C   UNL     1     -45.698  30.125  -9.700  1.00  0.00     0.039 C 
ENDBRANCH  11  12
ENDBRANCH   1  11
TORSDOF 4
ENDMDL
