MODEL 1
REMARK VINA RESULT:    -4.350      0.000      0.000
REMARK INTER + INTRA:          -4.702
REMARK INTER:                  -4.605
REMARK INTRA:                  -0.097
REMARK UNBOUND:                -0.097
REMARK SMILES C=C(C)[C@@H]1CC=C(C)C(=O)C1
REMARK SMILES IDX 8 1 7 2 6 3 5 4 4 5 11 6 9 7 10 8 2 9 1 10 3 11
REMARK H PARENT
REMARK Flexibility Score: inf
ROOT
ATOM      1  C   UNL     1      -2.727  -2.767   5.139  1.00  0.00     0.048 C 
ATOM      2  C   UNL     1      -3.679  -3.729   4.482  1.00  0.00    -0.012 C 
ATOM      3  C   UNL     1      -4.570  -4.402   5.230  1.00  0.00    -0.019 C 
ATOM      4  C   UNL     1      -5.558  -5.363   4.622  1.00  0.00     0.036 C 
ATOM      5  C   UNL     1      -4.964  -6.059   3.382  1.00  0.00     0.025 C 
ATOM      6  C   UNL     1      -4.468  -5.012   2.368  1.00  0.00     0.089 C 
ATOM      7  C   UNL     1      -3.550  -4.024   3.033  1.00  0.00     0.158 C 
ATOM      8  O   UNL     1      -2.691  -3.419   2.337  1.00  0.00    -0.295 OA
ENDROOT
BRANCH   5   9
ATOM      9  C   UNL     1      -5.963  -7.018   2.750  1.00  0.00    -0.077 C 
ATOM     10  C   UNL     1      -7.253  -6.665   2.634  1.00  0.00     0.008 C 
ATOM     11  C   UNL     1      -5.539  -8.375   2.246  1.00  0.00     0.039 C 
ENDBRANCH   5   9
TORSDOF 1
ENDMDL
MODEL 2
REMARK VINA RESULT:    -4.172     10.786     11.982
REMARK INTER + INTRA:          -4.513
REMARK INTER:                  -4.423
REMARK INTRA:                  -0.090
REMARK UNBOUND:                -0.097
REMARK SMILES C=C(C)[C@@H]1CC=C(C)C(=O)C1
REMARK SMILES IDX 8 1 7 2 6 3 5 4 4 5 11 6 9 7 10 8 2 9 1 10 3 11
REMARK H PARENT
REMARK Flexibility Score: inf
ROOT
ATOM      1  C   UNL     1       2.301  -3.461  -4.269  1.00  0.00     0.048 C 
ATOM      2  C   UNL     1       3.178  -4.631  -3.916  1.00  0.00    -0.012 C 
ATOM      3  C   UNL     1       4.473  -4.430  -3.616  1.00  0.00    -0.019 C 
ATOM      4  C   UNL     1       5.391  -5.562  -3.238  1.00  0.00     0.036 C 
ATOM      5  C   UNL     1       5.000  -6.860  -3.970  1.00  0.00     0.025 C 
ATOM      6  C   UNL     1       3.521  -7.197  -3.709  1.00  0.00     0.089 C 
ATOM      7  C   UNL     1       2.647  -6.013  -4.021  1.00  0.00     0.158 C 
ATOM      8  O   UNL     1       1.442  -6.206  -4.337  1.00  0.00    -0.295 OA
ENDROOT
BRANCH   5   9
ATOM      9  C   UNL     1       5.912  -8.015  -3.579  1.00  0.00    -0.077 C 
ATOM     10  C   UNL     1       6.190  -8.984  -4.466  1.00  0.00     0.008 C 
ATOM     11  C   UNL     1       6.518  -8.106  -2.201  1.00  0.00     0.039 C 
ENDBRANCH   5   9
TORSDOF 1
ENDMDL
MODEL 3
REMARK VINA RESULT:    -4.144      2.439      4.714
REMARK INTER + INTRA:          -4.484
REMARK INTER:                  -4.395
REMARK INTRA:                  -0.089
REMARK UNBOUND:                -0.097
REMARK SMILES C=C(C)[C@@H]1CC=C(C)C(=O)C1
REMARK SMILES IDX 8 1 7 2 6 3 5 4 4 5 11 6 9 7 10 8 2 9 1 10 3 11
REMARK H PARENT
REMARK Flexibility Score: inf
ROOT
ATOM      1  C   UNL     1      -3.892  -5.348   2.404  1.00  0.00     0.048 C 
ATOM      2  C   UNL     1      -4.371  -4.658   3.651  1.00  0.00    -0.012 C 
ATOM      3  C   UNL     1      -3.566  -3.788   4.285  1.00  0.00    -0.019 C 
ATOM      4  C   UNL     1      -4.001  -3.056   5.527  1.00  0.00     0.036 C 
ATOM      5  C   UNL     1      -4.960  -3.918   6.371  1.00  0.00     0.025 C 
ATOM      6  C   UNL     1      -6.155  -4.381   5.518  1.00  0.00     0.089 C 
ATOM      7  C   UNL     1      -5.677  -5.032   4.249  1.00  0.00     0.158 C 
ATOM      8  O   UNL     1      -6.418  -5.875   3.675  1.00  0.00    -0.295 OA
ENDROOT
BRANCH   5   9
ATOM      9  C   UNL     1      -5.420  -3.179   7.620  1.00  0.00    -0.077 C 
ATOM     10  C   UNL     1      -4.654  -3.178   8.723  1.00  0.00     0.008 C 
ATOM     11  C   UNL     1      -6.733  -2.436   7.655  1.00  0.00     0.039 C 
ENDBRANCH   5   9
TORSDOF 1
ENDMDL
MODEL 4
REMARK VINA RESULT:    -4.105      1.486      2.097
REMARK INTER + INTRA:          -4.442
REMARK INTER:                  -4.352
REMARK INTRA:                  -0.091
REMARK UNBOUND:                -0.097
REMARK SMILES C=C(C)[C@@H]1CC=C(C)C(=O)C1
REMARK SMILES IDX 8 1 7 2 6 3 5 4 4 5 11 6 9 7 10 8 2 9 1 10 3 11
REMARK H PARENT
REMARK Flexibility Score: inf
ROOT
ATOM      1  C   UNL     1      -2.641  -2.752   4.994  1.00  0.00     0.048 C 
ATOM      2  C   UNL     1      -3.512  -3.865   4.480  1.00  0.00    -0.012 C 
ATOM      3  C   UNL     1      -3.299  -4.368   3.252  1.00  0.00    -0.019 C 
ATOM      4  C   UNL     1      -4.128  -5.495   2.695  1.00  0.00     0.036 C 
ATOM      5  C   UNL     1      -5.575  -5.429   3.220  1.00  0.00     0.025 C 
ATOM      6  C   UNL     1      -5.585  -5.403   4.759  1.00  0.00     0.089 C 
ATOM      7  C   UNL     1      -4.680  -4.319   5.275  1.00  0.00     0.158 C 
ATOM      8  O   UNL     1      -4.904  -3.822   6.412  1.00  0.00    -0.295 OA
ENDROOT
BRANCH   5   9
ATOM      9  C   UNL     1      -6.417  -6.575   2.677  1.00  0.00    -0.077 C 
ATOM     10  C   UNL     1      -7.744  -6.428   2.535  1.00  0.00     0.008 C 
ATOM     11  C   UNL     1      -5.794  -7.894   2.289  1.00  0.00     0.039 C 
ENDBRANCH   5   9
TORSDOF 1
ENDMDL
MODEL 5
REMARK VINA RESULT:    -4.104      2.496      4.510
REMARK INTER + INTRA:          -4.441
REMARK INTER:                  -4.344
REMARK INTRA:                  -0.097
REMARK UNBOUND:                -0.097
REMARK SMILES C=C(C)[C@@H]1CC=C(C)C(=O)C1
REMARK SMILES IDX 8 1 7 2 6 3 5 4 4 5 11 6 9 7 10 8 2 9 1 10 3 11
REMARK H PARENT
REMARK Flexibility Score: inf
ROOT
ATOM      1  C   UNL     1      -4.574  -6.618   4.260  1.00  0.00     0.048 C 
ATOM      2  C   UNL     1      -4.292  -5.520   3.272  1.00  0.00    -0.012 C 
ATOM      3  C   UNL     1      -3.051  -5.014   3.170  1.00  0.00    -0.019 C 
ATOM      4  C   UNL     1      -2.709  -3.927   2.185  1.00  0.00     0.036 C 
ATOM      5  C   UNL     1      -3.907  -2.984   1.963  1.00  0.00     0.025 C 
ATOM      6  C   UNL     1      -5.149  -3.788   1.537  1.00  0.00     0.089 C 
ATOM      7  C   UNL     1      -5.406  -4.914   2.501  1.00  0.00     0.158 C 
ATOM      8  O   UNL     1      -6.578  -5.363   2.622  1.00  0.00    -0.295 OA
ENDROOT
BRANCH   5   9
ATOM      9  C   UNL     1      -3.577  -1.894   0.954  1.00  0.00    -0.077 C 
ATOM     10  C   UNL     1      -4.562  -1.170   0.397  1.00  0.00     0.008 C 
ATOM     11  C   UNL     1      -2.153  -1.599   0.552  1.00  0.00     0.039 C 
ENDBRANCH   5   9
TORSDOF 1
ENDMDL
MODEL 6
REMARK VINA RESULT:    -4.067      1.599      1.888
REMARK INTER + INTRA:          -4.402
REMARK INTER:                  -4.304
REMARK INTRA:                  -0.099
REMARK UNBOUND:                -0.097
REMARK SMILES C=C(C)[C@@H]1CC=C(C)C(=O)C1
REMARK SMILES IDX 8 1 7 2 6 3 5 4 4 5 11 6 9 7 10 8 2 9 1 10 3 11
REMARK H PARENT
REMARK Flexibility Score: inf
ROOT
ATOM      1  C   UNL     1      -1.654  -5.085   4.008  1.00  0.00     0.048 C 
ATOM      2  C   UNL     1      -3.140  -4.987   3.793  1.00  0.00    -0.012 C 
ATOM      3  C   UNL     1      -3.983  -5.478   4.716  1.00  0.00    -0.019 C 
ATOM      4  C   UNL     1      -5.479  -5.390   4.560  1.00  0.00     0.036 C 
ATOM      5  C   UNL     1      -5.886  -5.471   3.077  1.00  0.00     0.025 C 
ATOM      6  C   UNL     1      -5.150  -4.393   2.260  1.00  0.00     0.089 C 
ATOM      7  C   UNL     1      -3.669  -4.462   2.509  1.00  0.00     0.158 C 
ATOM      8  O   UNL     1      -2.877  -4.034   1.626  1.00  0.00    -0.295 OA
ENDROOT
BRANCH   5   9
ATOM      9  C   UNL     1      -7.396  -5.363   2.908  1.00  0.00    -0.077 C 
ATOM     10  C   UNL     1      -8.145  -4.822   3.881  1.00  0.00     0.008 C 
ATOM     11  C   UNL     1      -8.084  -5.858   1.660  1.00  0.00     0.039 C 
ENDBRANCH   5   9
TORSDOF 1
ENDMDL
MODEL 7
REMARK VINA RESULT:    -3.919      3.270      4.628
REMARK INTER + INTRA:          -4.246
REMARK INTER:                  -4.155
REMARK INTRA:                  -0.090
REMARK UNBOUND:                -0.097
REMARK SMILES C=C(C)[C@@H]1CC=C(C)C(=O)C1
REMARK SMILES IDX 8 1 7 2 6 3 5 4 4 5 11 6 9 7 10 8 2 9 1 10 3 11
REMARK H PARENT
REMARK Flexibility Score: inf
ROOT
ATOM      1  C   UNL     1      -7.964  -2.742   8.762  1.00  0.00     0.048 C 
ATOM      2  C   UNL     1      -7.035  -3.127   7.644  1.00  0.00    -0.012 C 
ATOM      3  C   UNL     1      -7.477  -3.916   6.649  1.00  0.00    -0.019 C 
ATOM      4  C   UNL     1      -6.595  -4.317   5.496  1.00  0.00     0.036 C 
ATOM      5  C   UNL     1      -5.126  -4.449   5.942  1.00  0.00     0.025 C 
ATOM      6  C   UNL     1      -4.652  -3.148   6.614  1.00  0.00     0.089 C 
ATOM      7  C   UNL     1      -5.604  -2.739   7.704  1.00  0.00     0.158 C 
ATOM      8  O   UNL     1      -5.179  -2.029   8.655  1.00  0.00    -0.295 OA
ENDROOT
BRANCH   5   9
ATOM      9  C   UNL     1      -4.224  -4.836   4.777  1.00  0.00    -0.077 C 
ATOM     10  C   UNL     1      -4.227  -6.096   4.313  1.00  0.00     0.008 C 
ATOM     11  C   UNL     1      -3.312  -3.829   4.122  1.00  0.00     0.039 C 
ENDBRANCH   5   9
TORSDOF 1
ENDMDL
MODEL 8
REMARK VINA RESULT:    -3.870     10.666     11.741
REMARK INTER + INTRA:          -4.194
REMARK INTER:                  -4.105
REMARK INTRA:                  -0.089
REMARK UNBOUND:                -0.097
REMARK SMILES C=C(C)[C@@H]1CC=C(C)C(=O)C1
REMARK SMILES IDX 8 1 7 2 6 3 5 4 4 5 11 6 9 7 10 8 2 9 1 10 3 11
REMARK H PARENT
REMARK Flexibility Score: inf
ROOT
ATOM      1  C   UNL     1       5.892  -8.207  -2.456  1.00  0.00     0.048 C 
ATOM      2  C   UNL     1       5.101  -7.118  -3.128  1.00  0.00    -0.012 C 
ATOM      3  C   UNL     1       5.532  -5.847  -3.073  1.00  0.00    -0.019 C 
ATOM      4  C   UNL     1       4.790  -4.721  -3.744  1.00  0.00     0.036 C 
ATOM      5  C   UNL     1       3.271  -4.982  -3.745  1.00  0.00     0.025 C 
ATOM      6  C   UNL     1       2.964  -6.348  -4.386  1.00  0.00     0.089 C 
ATOM      7  C   UNL     1       3.786  -7.430  -3.743  1.00  0.00     0.158 C 
ATOM      8  O   UNL     1       3.363  -8.617  -3.764  1.00  0.00    -0.295 OA
ENDROOT
BRANCH   5   9
ATOM      9  C   UNL     1       2.514  -3.858  -4.439  1.00  0.00    -0.077 C 
ATOM     10  C   UNL     1       2.209  -2.737  -3.766  1.00  0.00     0.008 C 
ATOM     11  C   UNL     1       2.088  -3.971  -5.881  1.00  0.00     0.039 C 
ENDBRANCH   5   9
TORSDOF 1
ENDMDL
MODEL 9
REMARK VINA RESULT:    -3.855      1.940      4.562
REMARK INTER + INTRA:          -4.178
REMARK INTER:                  -4.084
REMARK INTRA:                  -0.094
REMARK UNBOUND:                -0.097
REMARK SMILES C=C(C)[C@@H]1CC=C(C)C(=O)C1
REMARK SMILES IDX 8 1 7 2 6 3 5 4 4 5 11 6 9 7 10 8 2 9 1 10 3 11
REMARK H PARENT
REMARK Flexibility Score: inf
ROOT
ATOM      1  C   UNL     1      -4.425  -5.362   2.418  1.00  0.00     0.048 C 
ATOM      2  C   UNL     1      -4.399  -4.787   3.808  1.00  0.00    -0.012 C 
ATOM      3  C   UNL     1      -5.283  -5.214   4.725  1.00  0.00    -0.019 C 
ATOM      4  C   UNL     1      -5.289  -4.686   6.136  1.00  0.00     0.036 C 
ATOM      5  C   UNL     1      -4.844  -3.211   6.176  1.00  0.00     0.025 C 
ATOM      6  C   UNL     1      -3.472  -3.048   5.499  1.00  0.00     0.089 C 
ATOM      7  C   UNL     1      -3.484  -3.662   4.126  1.00  0.00     0.158 C 
ATOM      8  O   UNL     1      -2.679  -3.235   3.255  1.00  0.00    -0.295 OA
ENDROOT
BRANCH   5   9
ATOM      9  C   UNL     1      -4.829  -2.674   7.601  1.00  0.00    -0.077 C 
ATOM     10  C   UNL     1      -5.932  -2.755   8.362  1.00  0.00     0.008 C 
ATOM     11  C   UNL     1      -3.593  -2.040   8.189  1.00  0.00     0.039 C 
ENDBRANCH   5   9
TORSDOF 1
ENDMDL
