MODEL 1
REMARK VINA RESULT:    -4.644      0.000      0.000
REMARK INTER + INTRA:          -8.123
REMARK INTER:                  -7.087
REMARK INTRA:                  -1.036
REMARK UNBOUND:                -1.036
REMARK SMILES CCCCCCCCCCC(=O)[O-]
REMARK SMILES IDX 7 1 8 2 9 3 10 4 11 5 12 6 13 7 6 8 5 9 4 10 3 11 2 12 1 13
REMARK H PARENT
REMARK Flexibility Score: inf
ROOT
ATOM      1  C   UNL     1      61.273  37.002  35.074  1.00  0.00     0.000 C 
ENDROOT
BRANCH   1   2
ATOM      2  C   UNL     1      61.575  38.378  34.462  1.00  0.00     0.000 C 
BRANCH   2   3
ATOM      3  C   UNL     1      62.290  39.325  35.444  1.00  0.00     0.006 C 
BRANCH   3   4
ATOM      4  C   UNL     1      61.354  40.021  36.445  1.00  0.00     0.053 C 
BRANCH   4   5
ATOM      5  C   UNL     1      61.796  39.816  37.861  1.00  0.00     0.041 C 
ATOM      6  O   UNL     1      61.258  38.924  38.571  1.00  0.00    -0.550 OA
ATOM      7  O   UNL     1      62.823  40.588  38.389  1.00  0.00    -0.550 OA
ENDBRANCH   4   5
ENDBRANCH   3   4
ENDBRANCH   2   3
ENDBRANCH   1   2
BRANCH   1   8
ATOM      8  C   UNL     1      59.765  36.724  35.084  1.00  0.00     0.000 C 
BRANCH   8   9
ATOM      9  C   UNL     1      59.165  36.999  36.472  1.00  0.00    -0.000 C 
BRANCH   9  10
ATOM     10  C   UNL     1      57.838  37.774  36.402  1.00  0.00    -0.000 C 
BRANCH  10  11
ATOM     11  C   UNL     1      57.931  39.024  35.512  1.00  0.00    -0.000 C 
BRANCH  11  12
ATOM     12  C   UNL     1      56.912  39.003  34.361  1.00  0.00    -0.003 C 
ATOM     13  C   UNL     1      55.879  37.886  34.503  1.00  0.00     0.004 C 
ENDBRANCH  11  12
ENDBRANCH  10  11
ENDBRANCH   9  10
ENDBRANCH   8   9
ENDBRANCH   1   8
TORSDOF 9
ENDMDL
MODEL 2
REMARK VINA RESULT:    -4.589      2.522      3.702
REMARK INTER + INTRA:          -8.039
REMARK INTER:                  -6.858
REMARK INTRA:                  -1.181
REMARK UNBOUND:                -1.036
REMARK SMILES CCCCCCCCCCC(=O)[O-]
REMARK SMILES IDX 7 1 8 2 9 3 10 4 11 5 12 6 13 7 6 8 5 9 4 10 3 11 2 12 1 13
REMARK H PARENT
REMARK Flexibility Score: inf
ROOT
ATOM      1  C   UNL     1      60.929  36.711  35.759  1.00  0.00     0.000 C 
ENDROOT
BRANCH   1   2
ATOM      2  C   UNL     1      59.621  36.944  36.530  1.00  0.00     0.000 C 
BRANCH   2   3
ATOM      3  C   UNL     1      59.819  37.798  37.797  1.00  0.00     0.006 C 
BRANCH   3   4
ATOM      4  C   UNL     1      58.680  38.793  38.071  1.00  0.00     0.053 C 
BRANCH   4   5
ATOM      5  C   UNL     1      57.551  38.159  38.824  1.00  0.00     0.041 C 
ATOM      6  O   UNL     1      56.611  37.597  38.202  1.00  0.00    -0.550 OA
ATOM      7  O   UNL     1      57.552  38.161  40.214  1.00  0.00    -0.550 OA
ENDBRANCH   4   5
ENDBRANCH   3   4
ENDBRANCH   2   3
ENDBRANCH   1   2
BRANCH   1   8
ATOM      8  C   UNL     1      61.056  37.690  34.585  1.00  0.00     0.000 C 
BRANCH   8   9
ATOM      9  C   UNL     1      61.970  38.870  34.951  1.00  0.00    -0.000 C 
BRANCH   9  10
ATOM     10  C   UNL     1      61.392  40.226  34.513  1.00  0.00    -0.000 C 
BRANCH  10  11
ATOM     11  C   UNL     1      60.097  40.585  35.261  1.00  0.00    -0.000 C 
BRANCH  11  12
ATOM     12  C   UNL     1      58.894  40.730  34.316  1.00  0.00    -0.003 C 
ATOM     13  C   UNL     1      57.795  39.703  34.590  1.00  0.00     0.004 C 
ENDBRANCH  11  12
ENDBRANCH  10  11
ENDBRANCH   9  10
ENDBRANCH   8   9
ENDBRANCH   1   8
TORSDOF 9
ENDMDL
MODEL 3
REMARK VINA RESULT:    -4.569      2.484      4.801
REMARK INTER + INTRA:          -8.009
REMARK INTER:                  -6.725
REMARK INTRA:                  -1.284
REMARK UNBOUND:                -1.036
REMARK SMILES CCCCCCCCCCC(=O)[O-]
REMARK SMILES IDX 7 1 8 2 9 3 10 4 11 5 12 6 13 7 6 8 5 9 4 10 3 11 2 12 1 13
REMARK H PARENT
REMARK Flexibility Score: inf
ROOT
ATOM      1  C   UNL     1      58.381  40.108  35.962  1.00  0.00     0.000 C 
ENDROOT
BRANCH   1   2
ATOM      2  C   UNL     1      57.825  38.785  35.412  1.00  0.00     0.000 C 
BRANCH   2   3
ATOM      3  C   UNL     1      57.516  37.760  36.519  1.00  0.00     0.006 C 
BRANCH   3   4
ATOM      4  C   UNL     1      57.996  38.178  37.918  1.00  0.00     0.053 C 
BRANCH   4   5
ATOM      5  C   UNL     1      56.916  38.036  38.946  1.00  0.00     0.041 C 
ATOM      6  O   UNL     1      56.835  38.856  39.899  1.00  0.00    -0.550 OA
ATOM      7  O   UNL     1      55.978  37.017  38.835  1.00  0.00    -0.550 OA
ENDBRANCH   4   5
ENDBRANCH   3   4
ENDBRANCH   2   3
ENDBRANCH   1   2
BRANCH   1   8
ATOM      8  C   UNL     1      59.751  40.425  35.351  1.00  0.00     0.000 C 
BRANCH   8   9
ATOM      9  C   UNL     1      60.857  40.357  36.416  1.00  0.00    -0.000 C 
BRANCH   9  10
ATOM     10  C   UNL     1      61.796  39.155  36.221  1.00  0.00    -0.000 C 
BRANCH  10  11
ATOM     11  C   UNL     1      61.704  38.557  34.807  1.00  0.00    -0.000 C 
BRANCH  11  12
ATOM     12  C   UNL     1      61.178  37.113  34.813  1.00  0.00    -0.003 C 
ATOM     13  C   UNL     1      60.977  36.559  36.223  1.00  0.00     0.004 C 
ENDBRANCH  11  12
ENDBRANCH  10  11
ENDBRANCH   9  10
ENDBRANCH   8   9
ENDBRANCH   1   8
TORSDOF 9
ENDMDL
MODEL 4
REMARK VINA RESULT:    -4.564      9.563     11.058
REMARK INTER + INTRA:          -8.001
REMARK INTER:                  -7.342
REMARK INTRA:                  -0.659
REMARK UNBOUND:                -1.036
REMARK SMILES CCCCCCCCCCC(=O)[O-]
REMARK SMILES IDX 7 1 8 2 9 3 10 4 11 5 12 6 13 7 6 8 5 9 4 10 3 11 2 12 1 13
REMARK H PARENT
REMARK Flexibility Score: inf
ROOT
ATOM      1  C   UNL     1      55.285  32.592  43.207  1.00  0.00     0.000 C 
ENDROOT
BRANCH   1   2
ATOM      2  C   UNL     1      53.896  33.246  43.262  1.00  0.00     0.000 C 
BRANCH   2   3
ATOM      3  C   UNL     1      53.938  34.760  42.982  1.00  0.00     0.006 C 
BRANCH   3   4
ATOM      4  C   UNL     1      55.296  35.272  42.476  1.00  0.00     0.053 C 
BRANCH   4   5
ATOM      5  C   UNL     1      55.880  36.306  43.389  1.00  0.00     0.041 C 
ATOM      6  O   UNL     1      57.129  36.464  43.452  1.00  0.00    -0.550 OA
ATOM      7  O   UNL     1      55.045  37.119  44.146  1.00  0.00    -0.550 OA
ENDBRANCH   4   5
ENDBRANCH   3   4
ENDBRANCH   2   3
ENDBRANCH   1   2
BRANCH   1   8
ATOM      8  C   UNL     1      55.231  31.146  43.715  1.00  0.00     0.000 C 
BRANCH   8   9
ATOM      9  C   UNL     1      54.584  30.221  42.672  1.00  0.00    -0.000 C 
BRANCH   9  10
ATOM     10  C   UNL     1      53.242  29.638  43.148  1.00  0.00    -0.000 C 
BRANCH  10  11
ATOM     11  C   UNL     1      52.164  29.667  42.052  1.00  0.00    -0.000 C 
BRANCH  11  12
ATOM     12  C   UNL     1      50.839  30.269  42.547  1.00  0.00    -0.003 C 
ATOM     13  C   UNL     1      50.692  31.749  42.196  1.00  0.00     0.004 C 
ENDBRANCH  11  12
ENDBRANCH  10  11
ENDBRANCH   9  10
ENDBRANCH   8   9
ENDBRANCH   1   8
TORSDOF 9
ENDMDL
MODEL 5
REMARK VINA RESULT:    -4.547     10.638     12.827
REMARK INTER + INTRA:          -7.975
REMARK INTER:                  -7.178
REMARK INTRA:                  -0.797
REMARK UNBOUND:                -1.036
REMARK SMILES CCCCCCCCCCC(=O)[O-]
REMARK SMILES IDX 7 1 8 2 9 3 10 4 11 5 12 6 13 7 6 8 5 9 4 10 3 11 2 12 1 13
REMARK H PARENT
REMARK Flexibility Score: inf
ROOT
ATOM      1  C   UNL     1      52.176  34.473  42.537  1.00  0.00     0.000 C 
ENDROOT
BRANCH   1   2
ATOM      2  C   UNL     1      52.004  32.989  42.897  1.00  0.00     0.000 C 
BRANCH   2   3
ATOM      3  C   UNL     1      50.852  32.317  42.126  1.00  0.00     0.006 C 
BRANCH   3   4
ATOM      4  C   UNL     1      50.342  31.014  42.762  1.00  0.00     0.053 C 
BRANCH   4   5
ATOM      5  C   UNL     1      51.293  29.877  42.550  1.00  0.00     0.041 C 
ATOM      6  O   UNL     1      51.580  29.104  43.502  1.00  0.00    -0.550 OA
ATOM      7  O   UNL     1      51.838  29.650  41.291  1.00  0.00    -0.550 OA
ENDBRANCH   4   5
ENDBRANCH   3   4
ENDBRANCH   2   3
ENDBRANCH   1   2
BRANCH   1   8
ATOM      8  C   UNL     1      53.383  35.078  43.263  1.00  0.00     0.000 C 
BRANCH   8   9
ATOM      9  C   UNL     1      54.380  33.984  43.676  1.00  0.00    -0.000 C 
BRANCH   9  10
ATOM     10  C   UNL     1      55.461  33.733  42.611  1.00  0.00    -0.000 C 
BRANCH  10  11
ATOM     11  C   UNL     1      55.914  32.264  42.564  1.00  0.00    -0.000 C 
BRANCH  11  12
ATOM     12  C   UNL     1      55.324  31.430  43.712  1.00  0.00    -0.003 C 
ATOM     13  C   UNL     1      54.902  30.028  43.271  1.00  0.00     0.004 C 
ENDBRANCH  11  12
ENDBRANCH  10  11
ENDBRANCH   9  10
ENDBRANCH   8   9
ENDBRANCH   1   8
TORSDOF 9
ENDMDL
MODEL 6
REMARK VINA RESULT:    -4.505      2.457      4.746
REMARK INTER + INTRA:          -7.911
REMARK INTER:                  -6.666
REMARK INTRA:                  -1.245
REMARK UNBOUND:                -1.036
REMARK SMILES CCCCCCCCCCC(=O)[O-]
REMARK SMILES IDX 7 1 8 2 9 3 10 4 11 5 12 6 13 7 6 8 5 9 4 10 3 11 2 12 1 13
REMARK H PARENT
REMARK Flexibility Score: inf
ROOT
ATOM      1  C   UNL     1      61.240  38.890  38.472  1.00  0.00     0.000 C 
ENDROOT
BRANCH   1   2
ATOM      2  C   UNL     1      59.847  38.255  38.592  1.00  0.00     0.000 C 
BRANCH   2   3
ATOM      3  C   UNL     1      58.822  38.875  37.623  1.00  0.00     0.006 C 
BRANCH   3   4
ATOM      4  C   UNL     1      57.800  37.875  37.061  1.00  0.00     0.053 C 
BRANCH   4   5
ATOM      5  C   UNL     1      57.288  38.292  35.716  1.00  0.00     0.041 C 
ATOM      6  O   UNL     1      56.325  37.678  35.186  1.00  0.00    -0.550 OA
ATOM      7  O   UNL     1      57.855  39.379  35.062  1.00  0.00    -0.550 OA
ENDBRANCH   4   5
ENDBRANCH   3   4
ENDBRANCH   2   3
ENDBRANCH   1   2
BRANCH   1   8
ATOM      8  C   UNL     1      61.227  40.061  37.482  1.00  0.00     0.000 C 
BRANCH   8   9
ATOM      9  C   UNL     1      62.241  39.834  36.349  1.00  0.00    -0.000 C 
BRANCH   9  10
ATOM     10  C   UNL     1      61.579  39.781  34.962  1.00  0.00    -0.000 C 
BRANCH  10  11
ATOM     11  C   UNL     1      61.827  38.447  34.239  1.00  0.00    -0.000 C 
BRANCH  11  12
ATOM     12  C   UNL     1      60.729  37.410  34.526  1.00  0.00    -0.003 C 
ATOM     13  C   UNL     1      61.070  36.494  35.701  1.00  0.00     0.004 C 
ENDBRANCH  11  12
ENDBRANCH  10  11
ENDBRANCH   9  10
ENDBRANCH   8   9
ENDBRANCH   1   8
TORSDOF 9
ENDMDL
MODEL 7
REMARK VINA RESULT:    -4.482      1.337      2.738
REMARK INTER + INTRA:          -7.876
REMARK INTER:                  -6.627
REMARK INTRA:                  -1.249
REMARK UNBOUND:                -1.036
REMARK SMILES CCCCCCCCCCC(=O)[O-]
REMARK SMILES IDX 7 1 8 2 9 3 10 4 11 5 12 6 13 7 6 8 5 9 4 10 3 11 2 12 1 13
REMARK H PARENT
REMARK Flexibility Score: inf
ROOT
ATOM      1  C   UNL     1      58.336  40.684  34.726  1.00  0.00     0.000 C 
ENDROOT
BRANCH   1   2
ATOM      2  C   UNL     1      59.347  40.562  35.876  1.00  0.00     0.000 C 
BRANCH   2   3
ATOM      3  C   UNL     1      60.793  40.366  35.383  1.00  0.00     0.006 C 
BRANCH   3   4
ATOM      4  C   UNL     1      61.610  39.358  36.207  1.00  0.00     0.053 C 
BRANCH   4   5
ATOM      5  C   UNL     1      61.625  39.707  37.664  1.00  0.00     0.041 C 
ATOM      6  O   UNL     1      61.160  38.901  38.514  1.00  0.00    -0.550 OA
ATOM      7  O   UNL     1      62.181  40.908  38.087  1.00  0.00    -0.550 OA
ENDBRANCH   4   5
ENDBRANCH   3   4
ENDBRANCH   2   3
ENDBRANCH   1   2
BRANCH   1   8
ATOM      8  C   UNL     1      58.273  39.386  33.911  1.00  0.00     0.000 C 
BRANCH   8   9
ATOM      9  C   UNL     1      57.567  38.274  34.703  1.00  0.00    -0.000 C 
BRANCH   9  10
ATOM     10  C   UNL     1      58.536  37.180  35.183  1.00  0.00    -0.000 C 
BRANCH  10  11
ATOM     11  C   UNL     1      58.641  37.115  36.716  1.00  0.00    -0.000 C 
BRANCH  11  12
ATOM     12  C   UNL     1      57.416  37.727  37.415  1.00  0.00    -0.003 C 
ATOM     13  C   UNL     1      57.772  38.437  38.721  1.00  0.00     0.004 C 
ENDBRANCH  11  12
ENDBRANCH  10  11
ENDBRANCH   9  10
ENDBRANCH   8   9
ENDBRANCH   1   8
TORSDOF 9
ENDMDL
MODEL 8
REMARK VINA RESULT:    -4.411     10.253     11.802
REMARK INTER + INTRA:          -7.767
REMARK INTER:                  -7.120
REMARK INTRA:                  -0.647
REMARK UNBOUND:                -1.036
REMARK SMILES CCCCCCCCCCC(=O)[O-]
REMARK SMILES IDX 7 1 8 2 9 3 10 4 11 5 12 6 13 7 6 8 5 9 4 10 3 11 2 12 1 13
REMARK H PARENT
REMARK Flexibility Score: inf
ROOT
ATOM      1  C   UNL     1      54.427  32.600  43.320  1.00  0.00     0.000 C 
ENDROOT
BRANCH   1   2
ATOM      2  C   UNL     1      55.298  33.749  42.789  1.00  0.00     0.000 C 
BRANCH   2   3
ATOM      3  C   UNL     1      54.602  35.120  42.886  1.00  0.00     0.006 C 
BRANCH   3   4
ATOM      4  C   UNL     1      53.869  35.363  44.215  1.00  0.00     0.053 C 
BRANCH   4   5
ATOM      5  C   UNL     1      52.413  35.648  44.008  1.00  0.00     0.041 C 
ATOM      6  O   UNL     1      52.049  36.716  43.448  1.00  0.00    -0.550 OA
ATOM      7  O   UNL     1      51.459  34.719  44.405  1.00  0.00    -0.550 OA
ENDBRANCH   4   5
ENDBRANCH   3   4
ENDBRANCH   2   3
ENDBRANCH   1   2
BRANCH   1   8
ATOM      8  C   UNL     1      55.282  31.371  43.651  1.00  0.00     0.000 C 
BRANCH   8   9
ATOM      9  C   UNL     1      54.791  30.136  42.878  1.00  0.00    -0.000 C 
BRANCH   9  10
ATOM     10  C   UNL     1      53.348  29.745  43.240  1.00  0.00    -0.000 C 
BRANCH  10  11
ATOM     11  C   UNL     1      52.412  29.751  42.021  1.00  0.00    -0.000 C 
BRANCH  11  12
ATOM     12  C   UNL     1      50.993  30.225  42.372  1.00  0.00    -0.003 C 
ATOM     13  C   UNL     1      50.834  31.743  42.282  1.00  0.00     0.004 C 
ENDBRANCH  11  12
ENDBRANCH  10  11
ENDBRANCH   9  10
ENDBRANCH   8   9
ENDBRANCH   1   8
TORSDOF 9
ENDMDL
MODEL 9
REMARK VINA RESULT:    -4.342      3.597      5.906
REMARK INTER + INTRA:          -7.663
REMARK INTER:                  -7.020
REMARK INTRA:                  -0.643
REMARK UNBOUND:                -1.036
REMARK SMILES CCCCCCCCCCC(=O)[O-]
REMARK SMILES IDX 7 1 8 2 9 3 10 4 11 5 12 6 13 7 6 8 5 9 4 10 3 11 2 12 1 13
REMARK H PARENT
REMARK Flexibility Score: inf
ROOT
ATOM      1  C   UNL     1      57.549  37.670  37.299  1.00  0.00     0.000 C 
ENDROOT
BRANCH   1   2
ATOM      2  C   UNL     1      58.093  38.489  38.478  1.00  0.00     0.000 C 
BRANCH   2   3
ATOM      3  C   UNL     1      57.136  38.508  39.685  1.00  0.00     0.006 C 
BRANCH   3   4
ATOM      4  C   UNL     1      56.009  37.466  39.613  1.00  0.00     0.053 C 
BRANCH   4   5
ATOM      5  C   UNL     1      55.255  37.365  40.903  1.00  0.00     0.041 C 
ATOM      6  O   UNL     1      54.348  38.197  41.174  1.00  0.00    -0.550 OA
ATOM      7  O   UNL     1      55.532  36.335  41.794  1.00  0.00    -0.550 OA
ENDBRANCH   4   5
ENDBRANCH   3   4
ENDBRANCH   2   3
ENDBRANCH   1   2
BRANCH   1   8
ATOM      8  C   UNL     1      58.641  37.423  36.251  1.00  0.00     0.000 C 
BRANCH   8   9
ATOM      9  C   UNL     1      60.037  37.466  36.893  1.00  0.00    -0.000 C 
BRANCH   9  10
ATOM     10  C   UNL     1      61.147  37.787  35.877  1.00  0.00    -0.000 C 
BRANCH  10  11
ATOM     11  C   UNL     1      61.676  39.224  36.014  1.00  0.00    -0.000 C 
BRANCH  11  12
ATOM     12  C   UNL     1      61.242  39.888  37.330  1.00  0.00    -0.003 C 
ATOM     13  C   UNL     1      62.381  40.003  38.342  1.00  0.00     0.004 C 
ENDBRANCH  11  12
ENDBRANCH  10  11
ENDBRANCH   9  10
ENDBRANCH   8   9
ENDBRANCH   1   8
TORSDOF 9
ENDMDL
