MODEL 1
REMARK VINA RESULT:    -7.993      0.000      0.000
REMARK INTER + INTRA:         -10.003
REMARK INTER:                  -9.628
REMARK INTRA:                  -0.375
REMARK UNBOUND:                -0.375
REMARK SMILES O=c1c(O)c(-c2ccc(O)cc2O)oc2cc(O)cc(O)c12
REMARK SMILES IDX 5 1 3 2 2 3 1 4 22 5 20 6 19 7 17 8 16 9 15 10 14 11 6 12
REMARK SMILES IDX 8 13 7 14 9 15 11 16 12 17 10 18 13 20 4 22 21 24 18 26
REMARK H PARENT 10 19 13 21 4 23 21 25 18 27
REMARK Flexibility Score: inf
ROOT
ATOM      1  C   UNL     1      15.879   3.068  81.700  1.00  0.00     0.184 A 
ATOM      2  C   UNL     1      15.005   2.587  82.694  1.00  0.00     0.208 A 
ATOM      3  C   UNL     1      14.910   1.202  82.900  1.00  0.00     0.238 A 
ATOM      4  O   UNL     1      14.125   0.758  83.781  1.00  0.00    -0.285 OA
ATOM      5  C   UNL     1      15.698   0.326  82.125  1.00  0.00     0.111 A 
ATOM      6  C   UNL     1      15.664  -1.081  82.272  1.00  0.00     0.134 A 
ATOM      7  C   UNL     1      16.485  -1.885  81.466  1.00  0.00     0.093 A 
ATOM      8  C   UNL     1      17.336  -1.311  80.520  1.00  0.00     0.123 A 
ATOM      9  C   UNL     1      17.373   0.079  80.369  1.00  0.00     0.094 A 
ATOM     10  C   UNL     1      16.562   0.897  81.161  1.00  0.00     0.146 A 
ATOM     11  O   UNL     1      16.614   2.214  80.995  1.00  0.00    -0.451 OA
ENDROOT
BRANCH   1  12
ATOM     12  C   UNL     1      16.015   4.515  81.417  1.00  0.00     0.063 A 
ATOM     13  C   UNL     1      15.479   6.457  80.051  1.00  0.00     0.047 A 
ATOM     14  C   UNL     1      15.329   5.099  80.337  1.00  0.00     0.020 A 
ATOM     15  C   UNL     1      16.325   7.251  80.833  1.00  0.00     0.119 A 
ATOM     16  C   UNL     1      17.023   6.679  81.900  1.00  0.00     0.093 A 
ATOM     17  C   UNL     1      16.877   5.315  82.195  1.00  0.00     0.130 A 
BRANCH  15  18
ATOM     18  O   UNL     1      16.482   8.608  80.558  1.00  0.00    -0.508 OA
ATOM     19  H   UNL     1      16.906   9.238  81.228  1.00  0.00     0.293 HD
ENDBRANCH  15  18
BRANCH  17  20
ATOM     20  O   UNL     1      17.574   4.758  83.267  1.00  0.00    -0.507 OA
ATOM     21  H   UNL     1      17.412   5.061  84.221  1.00  0.00     0.293 HD
ENDBRANCH  17  20
ENDBRANCH   1  12
BRANCH   2  22
ATOM     22  O   UNL     1      14.267   3.479  83.474  1.00  0.00    -0.502 OA
ATOM     23  H   UNL     1      13.481   4.001  83.106  1.00  0.00     0.293 HD
ENDBRANCH   2  22
BRANCH   6  24
ATOM     24  O   UNL     1      14.826  -1.686  83.209  1.00  0.00    -0.507 OA
ATOM     25  H   UNL     1      13.865  -1.386  83.337  1.00  0.00     0.293 HD
ENDBRANCH   6  24
BRANCH   8  26
ATOM     26  O   UNL     1      18.142  -2.131  79.733  1.00  0.00    -0.508 OA
ATOM     27  H   UNL     1      18.954  -1.768  79.248  1.00  0.00     0.293 HD
ENDBRANCH   8  26
TORSDOF 6
ENDMDL
MODEL 2
REMARK VINA RESULT:    -7.900      5.010      8.007
REMARK INTER + INTRA:          -9.891
REMARK INTER:                  -9.841
REMARK INTRA:                  -0.050
REMARK UNBOUND:                -0.375
REMARK SMILES O=c1c(O)c(-c2ccc(O)cc2O)oc2cc(O)cc(O)c12
REMARK SMILES IDX 5 1 3 2 2 3 1 4 22 5 20 6 19 7 17 8 16 9 15 10 14 11 6 12
REMARK SMILES IDX 8 13 7 14 9 15 11 16 12 17 10 18 13 20 4 22 21 24 18 26
REMARK H PARENT 10 19 13 21 4 23 21 25 18 27
REMARK Flexibility Score: inf
ROOT
ATOM      1  C   UNL     1      15.236   4.539  77.011  1.00  0.00     0.184 A 
ATOM      2  C   UNL     1      16.280   5.480  76.951  1.00  0.00     0.208 A 
ATOM      3  C   UNL     1      16.403   6.424  77.982  1.00  0.00     0.238 A 
ATOM      4  O   UNL     1      17.330   7.277  77.936  1.00  0.00    -0.285 OA
ATOM      5  C   UNL     1      15.494   6.401  79.060  1.00  0.00     0.111 A 
ATOM      6  C   UNL     1      15.550   7.313  80.141  1.00  0.00     0.134 A 
ATOM      7  C   UNL     1      14.612   7.220  81.179  1.00  0.00     0.093 A 
ATOM      8  C   UNL     1      13.622   6.236  81.160  1.00  0.00     0.123 A 
ATOM      9  C   UNL     1      13.561   5.332  80.095  1.00  0.00     0.094 A 
ATOM     10  C   UNL     1      14.486   5.409  79.048  1.00  0.00     0.146 A 
ATOM     11  O   UNL     1      14.403   4.541  78.047  1.00  0.00    -0.451 OA
ENDROOT
BRANCH   1  12
ATOM     12  C   UNL     1      15.036   3.527  75.948  1.00  0.00     0.063 A 
ATOM     13  C   UNL     1      15.953   1.950  74.337  1.00  0.00     0.047 A 
ATOM     14  C   UNL     1      16.139   2.884  75.359  1.00  0.00     0.020 A 
ATOM     15  C   UNL     1      14.664   1.653  73.882  1.00  0.00     0.119 A 
ATOM     16  C   UNL     1      13.562   2.297  74.451  1.00  0.00     0.093 A 
ATOM     17  C   UNL     1      13.739   3.235  75.478  1.00  0.00     0.130 A 
BRANCH  15  18
ATOM     18  O   UNL     1      14.466   0.723  72.863  1.00  0.00    -0.508 OA
ATOM     19  H   UNL     1      13.674   0.092  72.869  1.00  0.00     0.293 HD
ENDBRANCH  15  18
BRANCH  17  20
ATOM     20  O   UNL     1      12.629   3.865  76.042  1.00  0.00    -0.507 OA
ATOM     21  H   UNL     1      11.853   3.335  76.421  1.00  0.00     0.293 HD
ENDBRANCH  17  20
ENDBRANCH   1  12
BRANCH   2  22
ATOM     22  O   UNL     1      17.191   5.454  75.893  1.00  0.00    -0.502 OA
ATOM     23  H   UNL     1      17.094   6.048  75.077  1.00  0.00     0.293 HD
ENDBRANCH   2  22
BRANCH   6  24
ATOM     24  O   UNL     1      16.528   8.308  80.191  1.00  0.00    -0.507 OA
ATOM     25  H   UNL     1      16.803   8.828  79.365  1.00  0.00     0.293 HD
ENDBRANCH   6  24
BRANCH   8  26
ATOM     26  O   UNL     1      12.703   6.164  82.204  1.00  0.00    -0.508 OA
ATOM     27  H   UNL     1      12.394   5.275  82.579  1.00  0.00     0.293 HD
ENDBRANCH   8  26
TORSDOF 6
ENDMDL
MODEL 3
REMARK VINA RESULT:    -7.848      4.453      6.061
REMARK INTER + INTRA:          -9.829
REMARK INTER:                  -9.492
REMARK INTRA:                  -0.336
REMARK UNBOUND:                -0.375
REMARK SMILES O=c1c(O)c(-c2ccc(O)cc2O)oc2cc(O)cc(O)c12
REMARK SMILES IDX 5 1 3 2 2 3 1 4 22 5 20 6 19 7 17 8 16 9 15 10 14 11 6 12
REMARK SMILES IDX 8 13 7 14 9 15 11 16 12 17 10 18 13 20 4 22 21 24 18 26
REMARK H PARENT 10 19 13 21 4 23 21 25 18 27
REMARK Flexibility Score: inf
ROOT
ATOM      1  C   UNL     1      18.614   3.763  77.373  1.00  0.00     0.184 A 
ATOM      2  C   UNL     1      19.396   3.969  76.221  1.00  0.00     0.208 A 
ATOM      3  C   UNL     1      19.904   2.853  75.538  1.00  0.00     0.238 A 
ATOM      4  O   UNL     1      20.612   3.024  74.509  1.00  0.00    -0.285 OA
ATOM      5  C   UNL     1      19.610   1.556  76.007  1.00  0.00     0.111 A 
ATOM      6  C   UNL     1      20.079   0.379  75.376  1.00  0.00     0.134 A 
ATOM      7  C   UNL     1      19.736  -0.876  75.900  1.00  0.00     0.093 A 
ATOM      8  C   UNL     1      18.936  -0.978  77.039  1.00  0.00     0.123 A 
ATOM      9  C   UNL     1      18.470   0.181  77.668  1.00  0.00     0.094 A 
ATOM     10  C   UNL     1      18.802   1.442  77.162  1.00  0.00     0.146 A 
ATOM     11  O   UNL     1      18.349   2.526  77.781  1.00  0.00    -0.451 OA
ENDROOT
BRANCH   1  12
ATOM     12  C   UNL     1      18.062   4.895  78.153  1.00  0.00     0.063 A 
ATOM     13  C   UNL     1      16.701   6.910  78.273  1.00  0.00     0.047 A 
ATOM     14  C   UNL     1      17.200   5.826  77.546  1.00  0.00     0.020 A 
ATOM     15  C   UNL     1      17.065   7.085  79.612  1.00  0.00     0.119 A 
ATOM     16  C   UNL     1      17.933   6.174  80.221  1.00  0.00     0.093 A 
ATOM     17  C   UNL     1      18.437   5.083  79.499  1.00  0.00     0.130 A 
BRANCH  15  18
ATOM     18  O   UNL     1      16.573   8.162  80.347  1.00  0.00    -0.508 OA
ATOM     19  H   UNL     1      16.861   9.113  80.150  1.00  0.00     0.293 HD
ENDBRANCH  15  18
BRANCH  17  20
ATOM     20  O   UNL     1      19.297   4.177  80.121  1.00  0.00    -0.507 OA
ATOM     21  H   UNL     1      20.262   4.412  80.321  1.00  0.00     0.293 HD
ENDBRANCH  17  20
ENDBRANCH   1  12
BRANCH   2  22
ATOM     22  O   UNL     1      19.637   5.263  75.755  1.00  0.00    -0.502 OA
ATOM     23  H   UNL     1      18.987   5.753  75.152  1.00  0.00     0.293 HD
ENDBRANCH   2  22
BRANCH   6  24
ATOM     24  O   UNL     1      20.880   0.446  74.235  1.00  0.00    -0.507 OA
ATOM     25  H   UNL     1      21.015  -0.356  73.629  1.00  0.00     0.293 HD
ENDBRANCH   6  24
BRANCH   8  26
ATOM     26  O   UNL     1      18.609  -2.236  77.540  1.00  0.00    -0.508 OA
ATOM     27  H   UNL     1      17.799  -2.746  77.206  1.00  0.00     0.293 HD
ENDBRANCH   8  26
TORSDOF 6
ENDMDL
MODEL 4
REMARK VINA RESULT:    -7.797      4.350      6.605
REMARK INTER + INTRA:          -9.767
REMARK INTER:                  -9.347
REMARK INTRA:                  -0.420
REMARK UNBOUND:                -0.375
REMARK SMILES O=c1c(O)c(-c2ccc(O)cc2O)oc2cc(O)cc(O)c12
REMARK SMILES IDX 5 1 3 2 2 3 1 4 22 5 20 6 19 7 17 8 16 9 15 10 14 11 6 12
REMARK SMILES IDX 8 13 7 14 9 15 11 16 12 17 10 18 13 20 4 22 21 24 18 26
REMARK H PARENT 10 19 13 21 4 23 21 25 18 27
REMARK Flexibility Score: inf
ROOT
ATOM      1  C   UNL     1      18.545   4.015  78.520  1.00  0.00     0.184 A 
ATOM      2  C   UNL     1      17.992   2.857  79.098  1.00  0.00     0.208 A 
ATOM      3  C   UNL     1      17.279   2.974  80.301  1.00  0.00     0.238 A 
ATOM      4  O   UNL     1      16.785   1.942  80.833  1.00  0.00    -0.285 OA
ATOM      5  C   UNL     1      17.117   4.242  80.894  1.00  0.00     0.111 A 
ATOM      6  C   UNL     1      16.410   4.447  82.104  1.00  0.00     0.134 A 
ATOM      7  C   UNL     1      16.287   5.743  82.627  1.00  0.00     0.093 A 
ATOM      8  C   UNL     1      16.854   6.835  81.968  1.00  0.00     0.123 A 
ATOM      9  C   UNL     1      17.555   6.639  80.773  1.00  0.00     0.094 A 
ATOM     10  C   UNL     1      17.690   5.355  80.236  1.00  0.00     0.146 A 
ATOM     11  O   UNL     1      18.363   5.196  79.102  1.00  0.00    -0.451 OA
ENDROOT
BRANCH   1  12
ATOM     12  C   UNL     1      19.324   3.962  77.262  1.00  0.00     0.063 A 
ATOM     13  C   UNL     1      21.295   3.239  76.030  1.00  0.00     0.047 A 
ATOM     14  C   UNL     1      20.545   3.266  77.207  1.00  0.00     0.020 A 
ATOM     15  C   UNL     1      20.842   3.917  74.892  1.00  0.00     0.119 A 
ATOM     16  C   UNL     1      19.638   4.624  74.939  1.00  0.00     0.093 A 
ATOM     17  C   UNL     1      18.878   4.654  76.118  1.00  0.00     0.130 A 
BRANCH  15  18
ATOM     18  O   UNL     1      21.582   3.897  73.711  1.00  0.00    -0.508 OA
ATOM     19  H   UNL     1      21.277   3.364  72.905  1.00  0.00     0.293 HD
ENDBRANCH  15  18
BRANCH  17  20
ATOM     20  O   UNL     1      17.674   5.359  76.149  1.00  0.00    -0.507 OA
ATOM     21  H   UNL     1      17.515   6.167  75.558  1.00  0.00     0.293 HD
ENDBRANCH  17  20
ENDBRANCH   1  12
BRANCH   2  22
ATOM     22  O   UNL     1      18.133   1.619  78.467  1.00  0.00    -0.502 OA
ATOM     23  H   UNL     1      18.174   0.748  78.983  1.00  0.00     0.293 HD
ENDBRANCH   2  22
BRANCH   6  24
ATOM     24  O   UNL     1      15.830   3.378  82.787  1.00  0.00    -0.507 OA
ATOM     25  H   UNL     1      15.150   2.768  82.345  1.00  0.00     0.293 HD
ENDBRANCH   6  24
BRANCH   8  26
ATOM     26  O   UNL     1      16.717   8.112  82.508  1.00  0.00    -0.508 OA
ATOM     27  H   UNL     1      15.844   8.622  82.447  1.00  0.00     0.293 HD
ENDBRANCH   8  26
TORSDOF 6
ENDMDL
MODEL 5
REMARK VINA RESULT:    -7.781      5.052      6.417
REMARK INTER + INTRA:          -9.748
REMARK INTER:                  -9.339
REMARK INTRA:                  -0.408
REMARK UNBOUND:                -0.375
REMARK SMILES O=c1c(O)c(-c2ccc(O)cc2O)oc2cc(O)cc(O)c12
REMARK SMILES IDX 5 1 3 2 2 3 1 4 22 5 20 6 19 7 17 8 16 9 15 10 14 11 6 12
REMARK SMILES IDX 8 13 7 14 9 15 11 16 12 17 10 18 13 20 4 22 21 24 18 26
REMARK H PARENT 10 19 13 21 4 23 21 25 18 27
REMARK Flexibility Score: inf
ROOT
ATOM      1  C   UNL     1      17.284   5.134  77.730  1.00  0.00     0.184 A 
ATOM      2  C   UNL     1      16.217   4.422  77.152  1.00  0.00     0.208 A 
ATOM      3  C   UNL     1      16.435   3.729  75.950  1.00  0.00     0.238 A 
ATOM      4  O   UNL     1      15.485   3.094  75.418  1.00  0.00    -0.285 OA
ATOM      5  C   UNL     1      17.716   3.745  75.360  1.00  0.00     0.111 A 
ATOM      6  C   UNL     1      18.021   3.071  74.154  1.00  0.00     0.134 A 
ATOM      7  C   UNL     1      19.323   3.130  73.634  1.00  0.00     0.093 A 
ATOM      8  C   UNL     1      20.322   3.847  74.293  1.00  0.00     0.123 A 
ATOM      9  C   UNL     1      20.027   4.517  75.485  1.00  0.00     0.094 A 
ATOM     10  C   UNL     1      18.735   4.472  76.020  1.00  0.00     0.146 A 
ATOM     11  O   UNL     1      18.481   5.119  77.151  1.00  0.00    -0.451 OA
ENDROOT
BRANCH   1  12
ATOM     12  C   UNL     1      17.119   5.902  78.986  1.00  0.00     0.063 A 
ATOM     13  C   UNL     1      16.102   7.738  80.217  1.00  0.00     0.047 A 
ATOM     14  C   UNL     1      16.237   6.996  79.042  1.00  0.00     0.020 A 
ATOM     15  C   UNL     1      16.853   7.406  81.350  1.00  0.00     0.119 A 
ATOM     16  C   UNL     1      17.744   6.330  81.300  1.00  0.00     0.093 A 
ATOM     17  C   UNL     1      17.885   5.578  80.124  1.00  0.00     0.130 A 
BRANCH  15  18
ATOM     18  O   UNL     1      16.726   8.139  82.528  1.00  0.00    -0.508 OA
ATOM     19  H   UNL     1      17.167   7.838  83.389  1.00  0.00     0.293 HD
ENDBRANCH  15  18
BRANCH  17  20
ATOM     20  O   UNL     1      18.772   4.502  80.091  1.00  0.00    -0.507 OA
ATOM     21  H   UNL     1      19.149   4.097  80.940  1.00  0.00     0.293 HD
ENDBRANCH  17  20
ENDBRANCH   1  12
BRANCH   2  22
ATOM     22  O   UNL     1      14.970   4.389  77.780  1.00  0.00    -0.502 OA
ATOM     23  H   UNL     1      14.108   4.236  77.268  1.00  0.00     0.293 HD
ENDBRANCH   2  22
BRANCH   6  24
ATOM     24  O   UNL     1      17.045   2.344  73.471  1.00  0.00    -0.507 OA
ATOM     25  H   UNL     1      16.182   2.774  73.156  1.00  0.00     0.293 HD
ENDBRANCH   6  24
BRANCH   8  26
ATOM     26  O   UNL     1      21.607   3.889  73.756  1.00  0.00    -0.508 OA
ATOM     27  H   UNL     1      21.806   4.384  72.894  1.00  0.00     0.293 HD
ENDBRANCH   8  26
TORSDOF 6
ENDMDL
MODEL 6
REMARK VINA RESULT:    -7.684      4.663      6.489
REMARK INTER + INTRA:          -9.631
REMARK INTER:                  -9.315
REMARK INTRA:                  -0.316
REMARK UNBOUND:                -0.375
REMARK SMILES O=c1c(O)c(-c2ccc(O)cc2O)oc2cc(O)cc(O)c12
REMARK SMILES IDX 5 1 3 2 2 3 1 4 22 5 20 6 19 7 17 8 16 9 15 10 14 11 6 12
REMARK SMILES IDX 8 13 7 14 9 15 11 16 12 17 10 18 13 20 4 22 21 24 18 26
REMARK H PARENT 10 19 13 21 4 23 21 25 18 27
REMARK Flexibility Score: inf
ROOT
ATOM      1  C   UNL     1      16.899   5.337  79.409  1.00  0.00     0.184 A 
ATOM      2  C   UNL     1      17.007   6.140  80.559  1.00  0.00     0.208 A 
ATOM      3  C   UNL     1      15.835   6.529  81.228  1.00  0.00     0.238 A 
ATOM      4  O   UNL     1      15.919   7.254  82.256  1.00  0.00    -0.285 OA
ATOM      5  C   UNL     1      14.583   6.096  80.747  1.00  0.00     0.111 A 
ATOM      6  C   UNL     1      13.355   6.439  81.363  1.00  0.00     0.134 A 
ATOM      7  C   UNL     1      12.150   5.963  80.827  1.00  0.00     0.093 A 
ATOM      8  C   UNL     1      12.147   5.152  79.690  1.00  0.00     0.123 A 
ATOM      9  C   UNL     1      13.356   4.811  79.076  1.00  0.00     0.094 A 
ATOM     10  C   UNL     1      14.568   5.276  79.594  1.00  0.00     0.146 A 
ATOM     11  O   UNL     1      15.701   4.940  78.989  1.00  0.00    -0.451 OA
ENDROOT
BRANCH   1  12
ATOM     12  C   UNL     1      18.092   4.906  78.644  1.00  0.00     0.063 A 
ATOM     13  C   UNL     1      20.261   3.806  78.561  1.00  0.00     0.047 A 
ATOM     14  C   UNL     1      19.123   4.188  79.275  1.00  0.00     0.020 A 
ATOM     15  C   UNL     1      20.391   4.145  77.210  1.00  0.00     0.119 A 
ATOM     16  C   UNL     1      19.378   4.871  76.577  1.00  0.00     0.093 A 
ATOM     17  C   UNL     1      18.231   5.257  77.286  1.00  0.00     0.130 A 
BRANCH  15  18
ATOM     18  O   UNL     1      21.521   3.768  76.488  1.00  0.00    -0.508 OA
ATOM     19  H   UNL     1      22.310   3.317  76.936  1.00  0.00     0.293 HD
ENDBRANCH  15  18
BRANCH  17  20
ATOM     20  O   UNL     1      17.225   5.976  76.639  1.00  0.00    -0.507 OA
ATOM     21  H   UNL     1      16.557   5.523  76.026  1.00  0.00     0.293 HD
ENDBRANCH  17  20
ENDBRANCH   1  12
BRANCH   2  22
ATOM     22  O   UNL     1      18.263   6.520  81.037  1.00  0.00    -0.502 OA
ATOM     23  H   UNL     1      19.123   6.274  80.560  1.00  0.00     0.293 HD
ENDBRANCH   2  22
BRANCH   6  24
ATOM     24  O   UNL     1      13.324   7.246  82.501  1.00  0.00    -0.507 OA
ATOM     25  H   UNL     1      14.003   7.985  82.650  1.00  0.00     0.293 HD
ENDBRANCH   6  24
BRANCH   8  26
ATOM     26  O   UNL     1      10.936   4.691  79.178  1.00  0.00    -0.508 OA
ATOM     27  H   UNL     1      10.653   4.891  78.225  1.00  0.00     0.293 HD
ENDBRANCH   8  26
TORSDOF 6
ENDMDL
MODEL 7
REMARK VINA RESULT:    -7.673      4.481      5.826
REMARK INTER + INTRA:          -9.618
REMARK INTER:                  -9.220
REMARK INTRA:                  -0.397
REMARK UNBOUND:                -0.375
REMARK SMILES O=c1c(O)c(-c2ccc(O)cc2O)oc2cc(O)cc(O)c12
REMARK SMILES IDX 5 1 3 2 2 3 1 4 22 5 20 6 19 7 17 8 16 9 15 10 14 11 6 12
REMARK SMILES IDX 8 13 7 14 9 15 11 16 12 17 10 18 13 20 4 22 21 24 18 26
REMARK H PARENT 10 19 13 21 4 23 21 25 18 27
REMARK Flexibility Score: inf
ROOT
ATOM      1  C   UNL     1      16.851   5.422  79.551  1.00  0.00     0.184 A 
ATOM      2  C   UNL     1      18.089   5.091  80.133  1.00  0.00     0.208 A 
ATOM      3  C   UNL     1      19.104   4.567  79.316  1.00  0.00     0.238 A 
ATOM      4  O   UNL     1      20.215   4.260  79.827  1.00  0.00    -0.285 OA
ATOM      5  C   UNL     1      18.870   4.399  77.936  1.00  0.00     0.111 A 
ATOM      6  C   UNL     1      19.839   3.881  77.043  1.00  0.00     0.134 A 
ATOM      7  C   UNL     1      19.531   3.750  75.681  1.00  0.00     0.093 A 
ATOM      8  C   UNL     1      18.278   4.126  75.194  1.00  0.00     0.123 A 
ATOM      9  C   UNL     1      17.315   4.637  76.071  1.00  0.00     0.094 A 
ATOM     10  C   UNL     1      17.602   4.774  77.433  1.00  0.00     0.146 A 
ATOM     11  O   UNL     1      16.669   5.258  78.244  1.00  0.00    -0.451 OA
ENDROOT
BRANCH   1  12
ATOM     12  C   UNL     1      15.731   5.961  80.356  1.00  0.00     0.063 A 
ATOM     13  C   UNL     1      13.653   5.618  81.577  1.00  0.00     0.047 A 
ATOM     14  C   UNL     1      14.725   5.106  80.842  1.00  0.00     0.020 A 
ATOM     15  C   UNL     1      13.565   6.991  81.829  1.00  0.00     0.119 A 
ATOM     16  C   UNL     1      14.551   7.851  81.338  1.00  0.00     0.093 A 
ATOM     17  C   UNL     1      15.632   7.346  80.601  1.00  0.00     0.130 A 
BRANCH  15  18
ATOM     18  O   UNL     1      12.501   7.513  82.562  1.00  0.00    -0.508 OA
ATOM     19  H   UNL     1      11.570   7.580  82.168  1.00  0.00     0.293 HD
ENDBRANCH  15  18
BRANCH  17  20
ATOM     20  O   UNL     1      16.613   8.215  80.123  1.00  0.00    -0.507 OA
ATOM     21  H   UNL     1      17.556   7.897  79.928  1.00  0.00     0.293 HD
ENDBRANCH  17  20
ENDBRANCH   1  12
BRANCH   2  22
ATOM     22  O   UNL     1      18.307   5.307  81.495  1.00  0.00    -0.502 OA
ATOM     23  H   UNL     1      19.087   5.856  81.840  1.00  0.00     0.293 HD
ENDBRANCH   2  22
BRANCH   6  24
ATOM     24  O   UNL     1      21.101   3.498  77.498  1.00  0.00    -0.507 OA
ATOM     25  H   UNL     1      21.950   3.898  77.115  1.00  0.00     0.293 HD
ENDBRANCH   6  24
BRANCH   8  26
ATOM     26  O   UNL     1      17.997   3.987  73.837  1.00  0.00    -0.508 OA
ATOM     27  H   UNL     1      18.609   3.466  73.219  1.00  0.00     0.293 HD
ENDBRANCH   8  26
TORSDOF 6
ENDMDL
MODEL 8
REMARK VINA RESULT:    -7.604      4.726      6.475
REMARK INTER + INTRA:          -9.534
REMARK INTER:                  -9.104
REMARK INTRA:                  -0.430
REMARK UNBOUND:                -0.375
REMARK SMILES O=c1c(O)c(-c2ccc(O)cc2O)oc2cc(O)cc(O)c12
REMARK SMILES IDX 5 1 3 2 2 3 1 4 22 5 20 6 19 7 17 8 16 9 15 10 14 11 6 12
REMARK SMILES IDX 8 13 7 14 9 15 11 16 12 17 10 18 13 20 4 22 21 24 18 26
REMARK H PARENT 10 19 13 21 4 23 21 25 18 27
REMARK Flexibility Score: inf
ROOT
ATOM      1  C   UNL     1      17.569   5.579  78.733  1.00  0.00     0.184 A 
ATOM      2  C   UNL     1      18.642   4.914  79.356  1.00  0.00     0.208 A 
ATOM      3  C   UNL     1      19.641   4.339  78.554  1.00  0.00     0.238 A 
ATOM      4  O   UNL     1      20.603   3.734  79.100  1.00  0.00    -0.285 OA
ATOM      5  C   UNL     1      19.559   4.452  77.151  1.00  0.00     0.111 A 
ATOM      6  C   UNL     1      20.524   3.905  76.272  1.00  0.00     0.134 A 
ATOM      7  C   UNL     1      20.374   4.067  74.886  1.00  0.00     0.093 A 
ATOM      8  C   UNL     1      19.283   4.762  74.364  1.00  0.00     0.123 A 
ATOM      9  C   UNL     1      18.325   5.304  75.227  1.00  0.00     0.094 A 
ATOM     10  C   UNL     1      18.455   5.153  76.611  1.00  0.00     0.146 A 
ATOM     11  O   UNL     1      17.529   5.674  77.408  1.00  0.00    -0.451 OA
ENDROOT
BRANCH   1  12
ATOM     12  C   UNL     1      16.472   6.192  79.517  1.00  0.00     0.063 A 
ATOM     13  C   UNL     1      15.647   7.972  80.956  1.00  0.00     0.047 A 
ATOM     14  C   UNL     1      16.672   7.408  80.194  1.00  0.00     0.020 A 
ATOM     15  C   UNL     1      14.410   7.326  81.062  1.00  0.00     0.119 A 
ATOM     16  C   UNL     1      14.206   6.109  80.404  1.00  0.00     0.093 A 
ATOM     17  C   UNL     1      15.229   5.536  79.635  1.00  0.00     0.130 A 
BRANCH  15  18
ATOM     18  O   UNL     1      13.380   7.880  81.819  1.00  0.00    -0.508 OA
ATOM     19  H   UNL     1      12.415   7.604  81.681  1.00  0.00     0.293 HD
ENDBRANCH  15  18
BRANCH  17  20
ATOM     20  O   UNL     1      15.009   4.325  78.978  1.00  0.00    -0.507 OA
ATOM     21  H   UNL     1      15.257   4.196  78.004  1.00  0.00     0.293 HD
ENDBRANCH  17  20
ENDBRANCH   1  12
BRANCH   2  22
ATOM     22  O   UNL     1      18.720   4.853  80.749  1.00  0.00    -0.502 OA
ATOM     23  H   UNL     1      19.430   4.314  81.230  1.00  0.00     0.293 HD
ENDBRANCH   2  22
BRANCH   6  24
ATOM     24  O   UNL     1      21.627   3.206  76.762  1.00  0.00    -0.507 OA
ATOM     25  H   UNL     1      22.547   3.629  76.816  1.00  0.00     0.293 HD
ENDBRANCH   6  24
BRANCH   8  26
ATOM     26  O   UNL     1      19.158   4.910  72.984  1.00  0.00    -0.508 OA
ATOM     27  H   UNL     1      19.385   4.155  72.347  1.00  0.00     0.293 HD
ENDBRANCH   8  26
TORSDOF 6
ENDMDL
MODEL 9
REMARK VINA RESULT:    -7.497      4.843      7.935
REMARK INTER + INTRA:          -9.406
REMARK INTER:                  -8.990
REMARK INTRA:                  -0.416
REMARK UNBOUND:                -0.375
REMARK SMILES O=c1c(O)c(-c2ccc(O)cc2O)oc2cc(O)cc(O)c12
REMARK SMILES IDX 5 1 3 2 2 3 1 4 22 5 20 6 19 7 17 8 16 9 15 10 14 11 6 12
REMARK SMILES IDX 8 13 7 14 9 15 11 16 12 17 10 18 13 20 4 22 21 24 18 26
REMARK H PARENT 10 19 13 21 4 23 21 25 18 27
REMARK Flexibility Score: inf
ROOT
ATOM      1  C   UNL     1      18.789   3.662  76.798  1.00  0.00     0.184 A 
ATOM      2  C   UNL     1      18.362   4.914  76.318  1.00  0.00     0.208 A 
ATOM      3  C   UNL     1      17.704   5.789  77.197  1.00  0.00     0.238 A 
ATOM      4  O   UNL     1      17.311   6.911  76.777  1.00  0.00    -0.285 OA
ATOM      5  C   UNL     1      17.501   5.406  78.538  1.00  0.00     0.111 A 
ATOM      6  C   UNL     1      16.850   6.229  79.489  1.00  0.00     0.134 A 
ATOM      7  C   UNL     1      16.692   5.778  80.808  1.00  0.00     0.093 A 
ATOM      8  C   UNL     1      17.169   4.525  81.194  1.00  0.00     0.123 A 
ATOM      9  C   UNL     1      17.811   3.706  80.260  1.00  0.00     0.094 A 
ATOM     10  C   UNL     1      17.978   4.136  78.940  1.00  0.00     0.146 A 
ATOM     11  O   UNL     1      18.588   3.338  78.071  1.00  0.00    -0.451 OA
ENDROOT
BRANCH   1  12
ATOM     12  C   UNL     1      19.472   2.683  75.921  1.00  0.00     0.063 A 
ATOM     13  C   UNL     1      19.379   0.760  74.432  1.00  0.00     0.047 A 
ATOM     14  C   UNL     1      18.733   1.701  75.236  1.00  0.00     0.020 A 
ATOM     15  C   UNL     1      20.773   0.778  74.308  1.00  0.00     0.119 A 
ATOM     16  C   UNL     1      21.517   1.740  74.995  1.00  0.00     0.093 A 
ATOM     17  C   UNL     1      20.877   2.690  75.804  1.00  0.00     0.130 A 
BRANCH  15  18
ATOM     18  O   UNL     1      21.428  -0.156  73.508  1.00  0.00    -0.508 OA
ATOM     19  H   UNL     1      21.295  -0.178  72.504  1.00  0.00     0.293 HD
ENDBRANCH  15  18
BRANCH  17  20
ATOM     20  O   UNL     1      21.632   3.650  76.479  1.00  0.00    -0.507 OA
ATOM     21  H   UNL     1      21.580   3.757  77.486  1.00  0.00     0.293 HD
ENDBRANCH  17  20
ENDBRANCH   1  12
BRANCH   2  22
ATOM     22  O   UNL     1      18.614   5.285  74.995  1.00  0.00    -0.502 OA
ATOM     23  H   UNL     1      17.896   5.670  74.393  1.00  0.00     0.293 HD
ENDBRANCH   2  22
BRANCH   6  24
ATOM     24  O   UNL     1      16.363   7.488  79.135  1.00  0.00    -0.507 OA
ATOM     25  H   UNL     1      16.742   8.005  78.349  1.00  0.00     0.293 HD
ENDBRANCH   6  24
BRANCH   8  26
ATOM     26  O   UNL     1      17.000   4.100  82.510  1.00  0.00    -0.508 OA
ATOM     27  H   UNL     1      16.799   3.132  82.734  1.00  0.00     0.293 HD
ENDBRANCH   8  26
TORSDOF 6
ENDMDL
