MODEL 1
REMARK VINA RESULT:    -3.785      0.000      0.000
REMARK INTER + INTRA:          -4.228
REMARK INTER:                  -4.228
REMARK INTRA:                   0.000
REMARK UNBOUND:                 0.000
REMARK SMILES Oc1cc(O)c2c(ccc3ccc(O)c(O)c32)c1
REMARK SMILES IDX 9 1 8 2 7 3 18 4 2 5 3 6 4 7 6 8 17 9 10 10 11 11 12 12
REMARK SMILES IDX 13 13 15 14 16 15 1 17 5 19 14 21
REMARK H PARENT 16 16 1 18 5 20 14 22
REMARK Flexibility Score: inf
ROOT
ATOM      1  C   UNL     1     125.618 123.546 138.849  1.00  0.00     0.009 A 
ATOM      2  C   UNL     1     125.708 124.877 138.461  1.00  0.00     0.009 A 
ATOM      3  C   UNL     1     124.553 125.656 138.332  1.00  0.00    -0.010 A 
ATOM      4  C   UNL     1     124.666 126.975 137.867  1.00  0.00     0.055 A 
ATOM      5  C   UNL     1     123.522 127.730 137.603  1.00  0.00     0.119 A 
ATOM      6  C   UNL     1     122.264 127.150 137.746  1.00  0.00     0.093 A 
ATOM      7  C   UNL     1     122.130 125.826 138.189  1.00  0.00     0.127 A 
ATOM      8  C   UNL     1     123.274 125.099 138.623  1.00  0.00     0.035 A 
ATOM      9  C   UNL     1     123.214 123.806 139.237  1.00  0.00     0.039 A 
ATOM     10  C   UNL     1     124.390 123.004 139.244  1.00  0.00    -0.014 A 
ATOM     11  C   UNL     1     124.341 121.677 139.691  1.00  0.00     0.013 A 
ATOM     12  C   UNL     1     123.154 121.148 140.185  1.00  0.00     0.051 A 
ATOM     13  C   UNL     1     122.026 121.953 140.328  1.00  0.00     0.158 A 
ATOM     14  C   UNL     1     122.078 123.314 139.941  1.00  0.00     0.166 A 
ENDROOT
BRANCH  14  15
ATOM     15  O   UNL     1     121.079 124.198 140.355  1.00  0.00    -0.504 OA
ATOM     16  H   UNL     1     121.078 124.667 141.250  1.00  0.00     0.293 HD
ENDBRANCH  14  15
BRANCH   5  17
ATOM     17  O   UNL     1     123.626 129.047 137.162  1.00  0.00    -0.508 OA
ATOM     18  H   UNL     1     122.809 129.640 137.066  1.00  0.00     0.293 HD
ENDBRANCH   5  17
BRANCH   7  19
ATOM     19  O   UNL     1     120.876 125.222 138.098  1.00  0.00    -0.507 OA
ATOM     20  H   UNL     1     120.073 125.708 137.715  1.00  0.00     0.293 HD
ENDBRANCH   7  19
BRANCH  13  21
ATOM     21  O   UNL     1     120.875 121.375 140.866  1.00  0.00    -0.504 OA
ATOM     22  H   UNL     1     120.821 121.010 141.806  1.00  0.00     0.293 HD
ENDBRANCH  13  21
TORSDOF 4
ENDMDL
MODEL 2
REMARK VINA RESULT:    -3.784      5.827      6.166
REMARK INTER + INTRA:          -4.226
REMARK INTER:                  -4.226
REMARK INTRA:                   0.000
REMARK UNBOUND:                 0.000
REMARK SMILES Oc1cc(O)c2c(ccc3ccc(O)c(O)c32)c1
REMARK SMILES IDX 9 1 8 2 7 3 18 4 2 5 3 6 4 7 6 8 17 9 10 10 11 11 12 12
REMARK SMILES IDX 13 13 15 14 16 15 1 17 5 19 14 21
REMARK H PARENT 16 16 1 18 5 20 14 22
REMARK Flexibility Score: inf
ROOT
ATOM      1  C   UNL     1     124.619 121.793 131.949  1.00  0.00     0.009 A 
ATOM      2  C   UNL     1     124.037 122.672 131.044  1.00  0.00     0.009 A 
ATOM      3  C   UNL     1     123.128 123.639 131.483  1.00  0.00    -0.010 A 
ATOM      4  C   UNL     1     122.499 124.466 130.539  1.00  0.00     0.055 A 
ATOM      5  C   UNL     1     121.492 125.347 130.933  1.00  0.00     0.119 A 
ATOM      6  C   UNL     1     121.069 125.364 132.260  1.00  0.00     0.093 A 
ATOM      7  C   UNL     1     121.669 124.531 133.215  1.00  0.00     0.127 A 
ATOM      8  C   UNL     1     122.809 123.751 132.867  1.00  0.00     0.035 A 
ATOM      9  C   UNL     1     123.580 122.998 133.810  1.00  0.00     0.039 A 
ATOM     10  C   UNL     1     124.408 121.947 133.324  1.00  0.00    -0.014 A 
ATOM     11  C   UNL     1     125.058 121.085 134.216  1.00  0.00     0.013 A 
ATOM     12  C   UNL     1     124.945 121.282 135.588  1.00  0.00     0.051 A 
ATOM     13  C   UNL     1     124.264 122.389 136.090  1.00  0.00     0.158 A 
ATOM     14  C   UNL     1     123.656 123.305 135.199  1.00  0.00     0.166 A 
ENDROOT
BRANCH  14  15
ATOM     15  O   UNL     1     123.245 124.559 135.658  1.00  0.00    -0.504 OA
ATOM     16  H   UNL     1     122.286 124.793 135.875  1.00  0.00     0.293 HD
ENDBRANCH  14  15
BRANCH   5  17
ATOM     17  O   UNL     1     120.878 126.186 130.005  1.00  0.00    -0.508 OA
ATOM     18  H   UNL     1     121.319 127.043 129.691  1.00  0.00     0.293 HD
ENDBRANCH   5  17
BRANCH   7  19
ATOM     19  O   UNL     1     121.066 124.417 134.467  1.00  0.00    -0.507 OA
ATOM     20  H   UNL     1     120.496 125.160 134.857  1.00  0.00     0.293 HD
ENDBRANCH   7  19
BRANCH  13  21
ATOM     21  O   UNL     1     124.218 122.553 137.475  1.00  0.00    -0.504 OA
ATOM     22  H   UNL     1     123.849 123.379 137.927  1.00  0.00     0.293 HD
ENDBRANCH  13  21
TORSDOF 4
ENDMDL
MODEL 3
REMARK VINA RESULT:    -3.773     15.298     16.666
REMARK INTER + INTRA:          -4.214
REMARK INTER:                  -4.214
REMARK INTRA:                   0.000
REMARK UNBOUND:                 0.000
REMARK SMILES Oc1cc(O)c2c(ccc3ccc(O)c(O)c32)c1
REMARK SMILES IDX 9 1 8 2 7 3 18 4 2 5 3 6 4 7 6 8 17 9 10 10 11 11 12 12
REMARK SMILES IDX 13 13 15 14 16 15 1 17 5 19 14 21
REMARK H PARENT 16 16 1 18 5 20 14 22
REMARK Flexibility Score: inf
ROOT
ATOM      1  C   UNL     1     125.219 125.840 122.021  1.00  0.00     0.009 A 
ATOM      2  C   UNL     1     124.680 124.644 121.565  1.00  0.00     0.009 A 
ATOM      3  C   UNL     1     123.407 124.238 121.978  1.00  0.00    -0.010 A 
ATOM      4  C   UNL     1     122.917 122.991 121.561  1.00  0.00     0.055 A 
ATOM      5  C   UNL     1     121.709 122.503 122.063  1.00  0.00     0.119 A 
ATOM      6  C   UNL     1     121.018 123.233 123.027  1.00  0.00     0.093 A 
ATOM      7  C   UNL     1     121.501 124.472 123.472  1.00  0.00     0.127 A 
ATOM      8  C   UNL     1     122.637 125.061 122.850  1.00  0.00     0.035 A 
ATOM      9  C   UNL     1     123.104 126.387 123.129  1.00  0.00     0.039 A 
ATOM     10  C   UNL     1     124.447 126.718 122.790  1.00  0.00    -0.014 A 
ATOM     11  C   UNL     1     124.995 127.946 123.183  1.00  0.00     0.013 A 
ATOM     12  C   UNL     1     124.215 128.877 123.860  1.00  0.00     0.051 A 
ATOM     13  C   UNL     1     122.858 128.642 124.073  1.00  0.00     0.158 A 
ATOM     14  C   UNL     1     122.274 127.433 123.625  1.00  0.00     0.166 A 
ENDROOT
BRANCH  14  15
ATOM     15  O   UNL     1     120.884 127.312 123.552  1.00  0.00    -0.504 OA
ATOM     16  H   UNL     1     120.240 128.034 123.842  1.00  0.00     0.293 HD
ENDBRANCH  14  15
BRANCH   5  17
ATOM     17  O   UNL     1     121.207 121.276 121.638  1.00  0.00    -0.508 OA
ATOM     18  H   UNL     1     120.574 120.733 122.216  1.00  0.00     0.293 HD
ENDBRANCH   5  17
BRANCH   7  19
ATOM     19  O   UNL     1     120.902 125.052 124.591  1.00  0.00    -0.507 OA
ATOM     20  H   UNL     1     120.221 125.797 124.509  1.00  0.00     0.293 HD
ENDBRANCH   7  19
BRANCH  13  21
ATOM     21  O   UNL     1     122.119 129.630 124.724  1.00  0.00    -0.504 OA
ATOM     22  H   UNL     1     121.456 130.231 124.255  1.00  0.00     0.293 HD
ENDBRANCH  13  21
TORSDOF 4
ENDMDL
MODEL 4
REMARK VINA RESULT:    -3.749      7.908      8.897
REMARK INTER + INTRA:          -4.188
REMARK INTER:                  -4.188
REMARK INTRA:                   0.000
REMARK UNBOUND:                 0.000
REMARK SMILES Oc1cc(O)c2c(ccc3ccc(O)c(O)c32)c1
REMARK SMILES IDX 9 1 8 2 7 3 18 4 2 5 3 6 4 7 6 8 17 9 10 10 11 11 12 12
REMARK SMILES IDX 13 13 15 14 16 15 1 17 5 19 14 21
REMARK H PARENT 16 16 1 18 5 20 14 22
REMARK Flexibility Score: inf
ROOT
ATOM      1  C   UNL     1     120.875 126.152 131.175  1.00  0.00     0.009 A 
ATOM      2  C   UNL     1     121.253 126.286 129.845  1.00  0.00     0.009 A 
ATOM      3  C   UNL     1     122.326 125.548 129.336  1.00  0.00    -0.010 A 
ATOM      4  C   UNL     1     122.734 125.756 128.010  1.00  0.00     0.055 A 
ATOM      5  C   UNL     1     123.881 125.133 127.518  1.00  0.00     0.119 A 
ATOM      6  C   UNL     1     124.657 124.347 128.366  1.00  0.00     0.093 A 
ATOM      7  C   UNL     1     124.279 124.142 129.700  1.00  0.00     0.127 A 
ATOM      8  C   UNL     1     123.027 124.630 130.171  1.00  0.00     0.035 A 
ATOM      9  C   UNL     1     122.489 124.334 131.466  1.00  0.00     0.039 A 
ATOM     10  C   UNL     1     121.473 125.183 131.988  1.00  0.00    -0.014 A 
ATOM     11  C   UNL     1     121.029 125.028 133.307  1.00  0.00     0.013 A 
ATOM     12  C   UNL     1     121.535 124.006 134.102  1.00  0.00     0.051 A 
ATOM     13  C   UNL     1     122.420 123.069 133.571  1.00  0.00     0.158 A 
ATOM     14  C   UNL     1     122.830 123.175 132.220  1.00  0.00     0.166 A 
ENDROOT
BRANCH  14  15
ATOM     15  O   UNL     1     123.456 122.095 131.593  1.00  0.00    -0.504 OA
ATOM     16  H   UNL     1     124.264 121.618 131.967  1.00  0.00     0.293 HD
ENDBRANCH  14  15
BRANCH   5  17
ATOM     17  O   UNL     1     124.280 125.319 126.196  1.00  0.00    -0.508 OA
ATOM     18  H   UNL     1     124.569 126.228 125.852  1.00  0.00     0.293 HD
ENDBRANCH   5  17
BRANCH   7  19
ATOM     19  O   UNL     1     125.197 123.543 130.564  1.00  0.00    -0.507 OA
ATOM     20  H   UNL     1     125.808 124.090 131.160  1.00  0.00     0.293 HD
ENDBRANCH   7  19
BRANCH  13  21
ATOM     21  O   UNL     1     122.864 122.044 134.407  1.00  0.00    -0.504 OA
ATOM     22  H   UNL     1     123.832 121.918 134.669  1.00  0.00     0.293 HD
ENDBRANCH  13  21
TORSDOF 4
ENDMDL
MODEL 5
REMARK VINA RESULT:    -3.670      7.309      8.115
REMARK INTER + INTRA:          -4.099
REMARK INTER:                  -4.099
REMARK INTRA:                   0.000
REMARK UNBOUND:                 0.000
REMARK SMILES Oc1cc(O)c2c(ccc3ccc(O)c(O)c32)c1
REMARK SMILES IDX 9 1 8 2 7 3 18 4 2 5 3 6 4 7 6 8 17 9 10 10 11 11 12 12
REMARK SMILES IDX 13 13 15 14 16 15 1 17 5 19 14 21
REMARK H PARENT 16 16 1 18 5 20 14 22
REMARK Flexibility Score: inf
ROOT
ATOM      1  C   UNL     1     121.358 124.897 133.495  1.00  0.00     0.009 A 
ATOM      2  C   UNL     1     120.875 125.489 132.335  1.00  0.00     0.009 A 
ATOM      3  C   UNL     1     121.544 125.314 131.120  1.00  0.00    -0.010 A 
ATOM      4  C   UNL     1     121.077 125.983 129.978  1.00  0.00     0.055 A 
ATOM      5  C   UNL     1     121.799 125.932 128.785  1.00  0.00     0.119 A 
ATOM      6  C   UNL     1     123.019 125.261 128.745  1.00  0.00     0.093 A 
ATOM      7  C   UNL     1     123.514 124.604 129.880  1.00  0.00     0.127 A 
ATOM      8  C   UNL     1     122.713 124.502 131.053  1.00  0.00     0.035 A 
ATOM      9  C   UNL     1     123.069 123.718 132.198  1.00  0.00     0.039 A 
ATOM     10  C   UNL     1     122.440 124.011 133.442  1.00  0.00    -0.014 A 
ATOM     11  C   UNL     1     122.865 123.380 134.617  1.00  0.00     0.013 A 
ATOM     12  C   UNL     1     123.870 122.419 134.573  1.00  0.00     0.051 A 
ATOM     13  C   UNL     1     124.399 122.005 133.352  1.00  0.00     0.158 A 
ATOM     14  C   UNL     1     123.934 122.588 132.149  1.00  0.00     0.166 A 
ENDROOT
BRANCH  14  15
ATOM     15  O   UNL     1     124.220 121.983 130.922  1.00  0.00    -0.504 OA
ATOM     16  H   UNL     1     124.919 122.322 130.277  1.00  0.00     0.293 HD
ENDBRANCH  14  15
BRANCH   5  17
ATOM     17  O   UNL     1     121.331 126.576 127.642  1.00  0.00    -0.508 OA
ATOM     18  H   UNL     1     120.346 126.782 127.515  1.00  0.00     0.293 HD
ENDBRANCH   5  17
BRANCH   7  19
ATOM     19  O   UNL     1     124.832 124.146 129.858  1.00  0.00    -0.507 OA
ATOM     20  H   UNL     1     125.070 123.213 129.542  1.00  0.00     0.293 HD
ENDBRANCH   7  19
BRANCH  13  21
ATOM     21  O   UNL     1     125.377 121.010 133.369  1.00  0.00    -0.504 OA
ATOM     22  H   UNL     1     126.344 121.182 133.608  1.00  0.00     0.293 HD
ENDBRANCH  13  21
TORSDOF 4
ENDMDL
MODEL 6
REMARK VINA RESULT:    -3.660      8.212      9.864
REMARK INTER + INTRA:          -4.088
REMARK INTER:                  -4.088
REMARK INTRA:                   0.000
REMARK UNBOUND:                 0.000
REMARK SMILES Oc1cc(O)c2c(ccc3ccc(O)c(O)c32)c1
REMARK SMILES IDX 9 1 8 2 7 3 18 4 2 5 3 6 4 7 6 8 17 9 10 10 11 11 12 12
REMARK SMILES IDX 13 13 15 14 16 15 1 17 5 19 14 21
REMARK H PARENT 16 16 1 18 5 20 14 22
REMARK Flexibility Score: inf
ROOT
ATOM      1  C   UNL     1     124.343 123.195 129.848  1.00  0.00     0.009 A 
ATOM      2  C   UNL     1     123.762 122.945 131.085  1.00  0.00     0.009 A 
ATOM      3  C   UNL     1     122.794 123.813 131.601  1.00  0.00    -0.010 A 
ATOM      4  C   UNL     1     122.278 123.579 132.884  1.00  0.00     0.055 A 
ATOM      5  C   UNL     1     121.412 124.500 133.476  1.00  0.00     0.119 A 
ATOM      6  C   UNL     1     121.106 125.685 132.811  1.00  0.00     0.093 A 
ATOM      7  C   UNL     1     121.628 125.948 131.537  1.00  0.00     0.127 A 
ATOM      8  C   UNL     1     122.374 124.949 130.850  1.00  0.00     0.035 A 
ATOM      9  C   UNL     1     122.808 125.069 129.490  1.00  0.00     0.039 A 
ATOM     10  C   UNL     1     123.875 124.239 129.043  1.00  0.00    -0.014 A 
ATOM     11  C   UNL     1     124.436 124.428 127.774  1.00  0.00     0.013 A 
ATOM     12  C   UNL     1     123.920 125.391 126.915  1.00  0.00     0.051 A 
ATOM     13  C   UNL     1     122.783 126.116 127.267  1.00  0.00     0.158 A 
ATOM     14  C   UNL     1     122.165 125.892 128.521  1.00  0.00     0.166 A 
ENDROOT
BRANCH  14  15
ATOM     15  O   UNL     1     120.875 126.371 128.761  1.00  0.00    -0.504 OA
ATOM     16  H   UNL     1     120.491 127.197 128.325  1.00  0.00     0.293 HD
ENDBRANCH  14  15
BRANCH   5  17
ATOM     17  O   UNL     1     120.879 124.264 134.741  1.00  0.00    -0.508 OA
ATOM     18  H   UNL     1     121.460 123.949 135.511  1.00  0.00     0.293 HD
ENDBRANCH   5  17
BRANCH   7  19
ATOM     19  O   UNL     1     121.481 127.233 131.014  1.00  0.00    -0.507 OA
ATOM     20  H   UNL     1     122.071 128.003 131.310  1.00  0.00     0.293 HD
ENDBRANCH   7  19
BRANCH  13  21
ATOM     21  O   UNL     1     122.289 127.043 126.348  1.00  0.00    -0.504 OA
ATOM     22  H   UNL     1     122.845 127.442 125.605  1.00  0.00     0.293 HD
ENDBRANCH  13  21
TORSDOF 4
ENDMDL
MODEL 7
REMARK VINA RESULT:    -3.640     14.606     15.526
REMARK INTER + INTRA:          -4.066
REMARK INTER:                  -4.066
REMARK INTRA:                   0.000
REMARK UNBOUND:                 0.000
REMARK SMILES Oc1cc(O)c2c(ccc3ccc(O)c(O)c32)c1
REMARK SMILES IDX 9 1 8 2 7 3 18 4 2 5 3 6 4 7 6 8 17 9 10 10 11 11 12 12
REMARK SMILES IDX 13 13 15 14 16 15 1 17 5 19 14 21
REMARK H PARENT 16 16 1 18 5 20 14 22
REMARK Flexibility Score: inf
ROOT
ATOM      1  C   UNL     1     124.881 123.665 124.981  1.00  0.00     0.009 A 
ATOM      2  C   UNL     1     124.311 124.766 125.607  1.00  0.00     0.009 A 
ATOM      3  C   UNL     1     123.172 125.374 125.071  1.00  0.00    -0.010 A 
ATOM      4  C   UNL     1     122.660 126.529 125.682  1.00  0.00     0.055 A 
ATOM      5  C   UNL     1     121.607 127.231 125.093  1.00  0.00     0.119 A 
ATOM      6  C   UNL     1     121.102 126.816 123.864  1.00  0.00     0.093 A 
ATOM      7  C   UNL     1     121.614 125.676 123.226  1.00  0.00     0.127 A 
ATOM      8  C   UNL     1     122.568 124.854 123.890  1.00  0.00     0.035 A 
ATOM      9  C   UNL     1     123.025 123.593 123.386  1.00  0.00     0.039 A 
ATOM     10  C   UNL     1     124.250 123.068 123.884  1.00  0.00    -0.014 A 
ATOM     11  C   UNL     1     124.815 121.921 123.311  1.00  0.00     0.013 A 
ATOM     12  C   UNL     1     124.155 121.251 122.287  1.00  0.00     0.051 A 
ATOM     13  C   UNL     1     122.884 121.656 121.881  1.00  0.00     0.158 A 
ATOM     14  C   UNL     1     122.273 122.775 122.494  1.00  0.00     0.166 A 
ENDROOT
BRANCH  14  15
ATOM     15  O   UNL     1     120.905 123.005 122.325  1.00  0.00    -0.504 OA
ATOM     16  H   UNL     1     120.510 123.491 121.533  1.00  0.00     0.293 HD
ENDBRANCH  14  15
BRANCH   5  17
ATOM     17  O   UNL     1     121.080 128.366 125.705  1.00  0.00    -0.508 OA
ATOM     18  H   UNL     1     121.624 128.918 126.359  1.00  0.00     0.293 HD
ENDBRANCH   5  17
BRANCH   7  19
ATOM     19  O   UNL     1     121.239 125.434 121.904  1.00  0.00    -0.507 OA
ATOM     20  H   UNL     1     120.995 124.505 121.579  1.00  0.00     0.293 HD
ENDBRANCH   7  19
BRANCH  13  21
ATOM     21  O   UNL     1     122.256 120.921 120.875  1.00  0.00    -0.504 OA
ATOM     22  H   UNL     1     121.372 120.447 120.999  1.00  0.00     0.293 HD
ENDBRANCH  13  21
TORSDOF 4
ENDMDL
MODEL 8
REMARK VINA RESULT:    -3.633      7.323      9.194
REMARK INTER + INTRA:          -4.058
REMARK INTER:                  -4.058
REMARK INTRA:                   0.000
REMARK UNBOUND:                 0.000
REMARK SMILES Oc1cc(O)c2c(ccc3ccc(O)c(O)c32)c1
REMARK SMILES IDX 9 1 8 2 7 3 18 4 2 5 3 6 4 7 6 8 17 9 10 10 11 11 12 12
REMARK SMILES IDX 13 13 15 14 16 15 1 17 5 19 14 21
REMARK H PARENT 16 16 1 18 5 20 14 22
REMARK Flexibility Score: inf
ROOT
ATOM      1  C   UNL     1     120.876 125.375 132.384  1.00  0.00     0.009 A 
ATOM      2  C   UNL     1     121.394 124.701 133.482  1.00  0.00     0.009 A 
ATOM      3  C   UNL     1     122.463 123.812 133.327  1.00  0.00    -0.010 A 
ATOM      4  C   UNL     1     122.919 123.089 134.439  1.00  0.00     0.055 A 
ATOM      5  C   UNL     1     123.893 122.101 134.288  1.00  0.00     0.119 A 
ATOM      6  C   UNL     1     124.371 121.793 133.017  1.00  0.00     0.093 A 
ATOM      7  C   UNL     1     123.914 122.489 131.890  1.00  0.00     0.127 A 
ATOM      8  C   UNL     1     123.050 123.610 132.044  1.00  0.00     0.035 A 
ATOM      9  C   UNL     1     122.661 124.475 130.970  1.00  0.00     0.039 A 
ATOM     10  C   UNL     1     121.498 125.279 131.134  1.00  0.00    -0.014 A 
ATOM     11  C   UNL     1     120.991 126.020 130.059  1.00  0.00     0.013 A 
ATOM     12  C   UNL     1     121.651 126.021 128.835  1.00  0.00     0.051 A 
ATOM     13  C   UNL     1     122.871 125.363 128.689  1.00  0.00     0.158 A 
ATOM     14  C   UNL     1     123.429 124.663 129.785  1.00  0.00     0.166 A 
ENDROOT
BRANCH  14  15
ATOM     15  O   UNL     1     124.769 124.266 129.754  1.00  0.00    -0.504 OA
ATOM     16  H   UNL     1     125.176 123.717 129.010  1.00  0.00     0.293 HD
ENDBRANCH  14  15
BRANCH   5  17
ATOM     17  O   UNL     1     124.365 121.393 135.391  1.00  0.00    -0.508 OA
ATOM     18  H   UNL     1     125.137 120.739 135.311  1.00  0.00     0.293 HD
ENDBRANCH   5  17
BRANCH   7  19
ATOM     19  O   UNL     1     124.247 121.997 130.627  1.00  0.00    -0.507 OA
ATOM     20  H   UNL     1     125.207 121.810 130.361  1.00  0.00     0.293 HD
ENDBRANCH   7  19
BRANCH  13  21
ATOM     21  O   UNL     1     123.505 125.432 127.448  1.00  0.00    -0.504 OA
ATOM     22  H   UNL     1     124.509 125.440 127.333  1.00  0.00     0.293 HD
ENDBRANCH  13  21
TORSDOF 4
ENDMDL
MODEL 9
REMARK VINA RESULT:    -3.582     14.095     15.263
REMARK INTER + INTRA:          -4.001
REMARK INTER:                  -4.001
REMARK INTRA:                   0.000
REMARK UNBOUND:                 0.000
REMARK SMILES Oc1cc(O)c2c(ccc3ccc(O)c(O)c32)c1
REMARK SMILES IDX 9 1 8 2 7 3 18 4 2 5 3 6 4 7 6 8 17 9 10 10 11 11 12 12
REMARK SMILES IDX 13 13 15 14 16 15 1 17 5 19 14 21
REMARK H PARENT 16 16 1 18 5 20 14 22
REMARK Flexibility Score: inf
ROOT
ATOM      1  C   UNL     1     120.894 124.642 122.457  1.00  0.00     0.009 A 
ATOM      2  C   UNL     1     120.881 125.873 123.100  1.00  0.00     0.009 A 
ATOM      3  C   UNL     1     121.807 126.155 124.108  1.00  0.00    -0.010 A 
ATOM      4  C   UNL     1     121.724 127.378 124.792  1.00  0.00     0.055 A 
ATOM      5  C   UNL     1     122.549 127.631 125.889  1.00  0.00     0.119 A 
ATOM      6  C   UNL     1     123.417 126.641 126.342  1.00  0.00     0.093 A 
ATOM      7  C   UNL     1     123.500 125.404 125.687  1.00  0.00     0.127 A 
ATOM      8  C   UNL     1     122.792 125.192 124.469  1.00  0.00     0.035 A 
ATOM      9  C   UNL     1     122.941 124.025 123.651  1.00  0.00     0.039 A 
ATOM     10  C   UNL     1     121.914 123.719 122.715  1.00  0.00    -0.014 A 
ATOM     11  C   UNL     1     121.937 122.511 122.006  1.00  0.00     0.013 A 
ATOM     12  C   UNL     1     122.995 121.623 122.169  1.00  0.00     0.051 A 
ATOM     13  C   UNL     1     124.087 121.963 122.966  1.00  0.00     0.158 A 
ATOM     14  C   UNL     1     124.107 123.208 123.638  1.00  0.00     0.166 A 
ENDROOT
BRANCH  14  15
ATOM     15  O   UNL     1     125.301 123.691 124.179  1.00  0.00    -0.504 OA
ATOM     16  H   UNL     1     125.964 123.119 124.683  1.00  0.00     0.293 HD
ENDBRANCH  14  15
BRANCH   5  17
ATOM     17  O   UNL     1     122.488 128.851 126.559  1.00  0.00    -0.508 OA
ATOM     18  H   UNL     1     123.257 129.510 126.532  1.00  0.00     0.293 HD
ENDBRANCH   5  17
BRANCH   7  19
ATOM     19  O   UNL     1     124.206 124.373 126.306  1.00  0.00    -0.507 OA
ATOM     20  H   UNL     1     125.172 124.169 126.074  1.00  0.00     0.293 HD
ENDBRANCH   7  19
BRANCH  13  21
ATOM     21  O   UNL     1     125.135 121.047 123.060  1.00  0.00    -0.504 OA
ATOM     22  H   UNL     1     125.429 120.623 123.929  1.00  0.00     0.293 HD
ENDBRANCH  13  21
TORSDOF 4
ENDMDL
